# generated using pymatgen
data_La7(Ru4O11)2
_symmetry_space_group_name_H-M   'P 1'
_cell_length_a   23.99191079
_cell_length_b   16.83209435
_cell_length_c   15.42727017
_cell_angle_alpha   90.00359099
_cell_angle_beta   90.00105651
_cell_angle_gamma   89.99697999
_symmetry_Int_Tables_number   1
_chemical_formula_structural   La7(Ru4O11)2
_chemical_formula_sum   'La84 Ru96 O264'
_cell_volume   6230.05783658
_cell_formula_units_Z   12
loop_
 _symmetry_equiv_pos_site_id
 _symmetry_equiv_pos_as_xyz
  1  'x, y, z'
loop_
 _atom_type_symbol
 _atom_type_oxidation_number
  La3+  3.0
  Ru4+  4.0
  O2-  -2.0
loop_
 _atom_site_type_symbol
 _atom_site_label
 _atom_site_symmetry_multiplicity
 _atom_site_fract_x
 _atom_site_fract_y
 _atom_site_fract_z
 _atom_site_occupancy
  La3+  La0  1  0.13482705  0.00537335  0.12296708  1
  La3+  La1  1  0.12443617  0.01161647  0.39152021  1
  La3+  La2  1  0.13211879  0.00874392  0.61499898  1
  La3+  La3  1  0.14148436  0.00301902  0.87399163  1
  La3+  La4  1  0.14308204  0.32750010  0.13106637  1
  La3+  La5  1  0.14061493  0.33096387  0.37441851  1
  La3+  La6  1  0.14749587  0.33092385  0.62642734  1
  La3+  La7  1  0.14004149  0.33187864  0.87129014  1
  La3+  La8  1  0.13897466  0.66566923  0.12836013  1
  La3+  La9  1  0.14127996  0.66070877  0.37527360  1
  La3+  La10  1  0.13947435  0.66690648  0.62752294  1
  La3+  La11  1  0.13644720  0.67342919  0.86879101  1
  La3+  La12  1  0.64202658  -0.00305299  0.12572932  1
  La3+  La13  1  0.63731066  0.00059854  0.37304820  1
  La3+  La14  1  0.64354411  0.00301245  0.62245235  1
  La3+  La15  1  0.64063618  0.00144484  0.87301032  1
  La3+  La16  1  0.63444134  0.33154343  0.12440658  1
  La3+  La17  1  0.64243210  0.33509201  0.37146430  1
  La3+  La18  1  0.63711495  0.33273446  0.62693361  1
  La3+  La19  1  0.63778139  0.33408309  0.87598890  1
  La3+  La20  1  0.63543759  0.66949334  0.12281783  1
  La3+  La21  1  0.63986489  0.66561675  0.37332825  1
  La3+  La22  1  0.64114662  0.66888209  0.63166605  1
  La3+  La23  1  0.63883777  0.66750743  0.87222639  1
  La3+  La24  1  0.36466856  0.00619769  0.12748916  1
  La3+  La25  1  0.36373762  0.00173143  0.37505058  1
  La3+  La26  1  0.36099112  -0.00197099  0.62470280  1
  La3+  La27  1  0.35642002  0.00037237  0.87093082  1
  La3+  La28  1  0.35824934  0.33193865  0.12903408  1
  La3+  La29  1  0.35690313  0.33576629  0.37267010  1
  La3+  La30  1  0.35617548  0.32780379  0.62987740  1
  La3+  La31  1  0.35948999  0.32842741  0.87229069  1
  La3+  La32  1  0.36306719  0.66224035  0.13134321  1
  La3+  La33  1  0.36165175  0.65922494  0.37983792  1
  La3+  La34  1  0.35986552  0.66458827  0.62636959  1
  La3+  La35  1  0.36604789  0.67095308  0.87052046  1
  La3+  La36  1  0.85960761  -0.00149357  0.12695361  1
  La3+  La37  1  0.86155279  -0.00130719  0.37299702  1
  La3+  La38  1  0.86064326  -0.00132598  0.62426806  1
  La3+  La39  1  0.86310480  0.00032398  0.87255460  1
  La3+  La40  1  0.86483901  0.33292023  0.12311975  1
  La3+  La41  1  0.86187013  0.33298456  0.37440015  1
  La3+  La42  1  0.86168507  0.33245510  0.62625662  1
  La3+  La43  1  0.86332627  0.33075717  0.87596620  1
  La3+  La44  1  0.86277952  0.66913914  0.12626585  1
  La3+  La45  1  0.85992854  0.66604608  0.37569766  1
  La3+  La46  1  0.85987739  0.66496480  0.63114045  1
  La3+  La47  1  0.85414161  0.67320971  0.87398087  1
  La3+  La48  1  0.49993251  0.83583271  0.36373340  1
  La3+  La49  1  0.50487023  0.50606393  0.87367779  1
  La3+  La50  1  0.49347005  0.49662018  0.37011593  1
  La3+  La51  1  0.00089405  0.49601720  0.12045852  1
  La3+  La52  1  0.49793977  0.50919638  0.61721575  1
  La3+  La53  1  -0.00038287  0.83419627  0.37784043  1
  La3+  La54  1  0.00118428  0.16038202  0.13586134  1
  La3+  La55  1  0.49274314  0.15776119  0.63119762  1
  La3+  La56  1  0.00118446  0.83812706  0.63533226  1
  La3+  La57  1  0.00237406  0.16057100  0.88224715  1
  La3+  La58  1  0.49495210  0.16906427  0.38625629  1
  La3+  La59  1  0.00441250  0.83750980  0.61936586  1
  La3+  La60  1  -0.00014792  0.51328477  0.85952956  1
  La3+  La61  1  -0.00016213  0.16597824  0.38127505  1
  La3+  La62  1  -0.00884413  0.50038858  0.87100832  1
  La3+  La63  1  -0.00246475  0.50311868  0.14074103  1
  La3+  La64  1  0.00301356  0.83022739  0.87861280  1
  La3+  La65  1  -0.00012711  0.15785936  0.62656534  1
  La3+  La66  1  0.00270646  0.16988324  0.60867257  1
  La3+  La67  1  0.50179043  0.17245342  0.88196248  1
  La3+  La68  1  0.00391049  0.49096146  0.62401449  1
  La3+  La69  1  0.00119443  0.17078868  0.11644900  1
  La3+  La70  1  0.49619469  0.17965604  0.36709156  1
  La3+  La71  1  0.00100411  0.83614975  0.11998979  1
  La3+  La72  1  0.25162173  0.45298988  0.75112990  1
  La3+  La73  1  0.75010820  0.19377094  0.50375787  1
  La3+  La74  1  0.25027321  0.87878981  0.23420570  1
  La3+  La75  1  0.75067828  0.51510956  0.49905507  1
  La3+  La76  1  0.25018537  0.17098479  0.75028492  1
  La3+  La77  1  0.74947484  0.86963135  0.28710797  1
  La3+  La78  1  0.75054262  0.83319971  0.50959473  1
  La3+  La79  1  0.24955396  0.78296252  0.49416591  1
  La3+  La80  1  0.25003875  0.47468793  0.01370235  1
  La3+  La81  1  0.24895932  0.86441444  -0.05141448  1
  La3+  La82  1  0.74933552  0.20345370  0.02213110  1
  La3+  La83  1  0.74920867  0.49734834  0.05697928  1
  Ru4+  Ru84  1  -0.00095044  -0.00790954  -0.00345375  1
  Ru4+  Ru85  1  -0.00011962  -0.00335965  0.24372320  1
  Ru4+  Ru86  1  -0.00412143  0.00939379  0.49767533  1
  Ru4+  Ru87  1  -0.00435603  -0.00204156  0.75401514  1
  Ru4+  Ru88  1  0.00702441  0.33588640  -0.00350994  1
  Ru4+  Ru89  1  -0.00487923  0.33607421  0.25828456  1
  Ru4+  Ru90  1  0.00114487  0.33064344  0.49405607  1
  Ru4+  Ru91  1  -0.00506020  0.32920838  0.75173511  1
  Ru4+  Ru92  1  0.00070333  0.67506046  0.00503679  1
  Ru4+  Ru93  1  -0.00077882  0.66624733  0.25176707  1
  Ru4+  Ru94  1  0.00253433  0.66193618  0.50725012  1
  Ru4+  Ru95  1  -0.00225397  0.66121755  0.74159788  1
  Ru4+  Ru96  1  0.49587039  -0.00263003  -0.00223433  1
  Ru4+  Ru97  1  0.50800621  -0.00832656  0.24545766  1
  Ru4+  Ru98  1  0.50533754  -0.00215568  0.50196371  1
  Ru4+  Ru99  1  0.50683149  -0.01783662  0.75066388  1
  Ru4+  Ru100  1  0.49882357  0.33883111  -0.00665333  1
  Ru4+  Ru101  1  0.50155405  0.34013138  0.25266706  1
  Ru4+  Ru102  1  0.50385449  0.33300404  0.49906696  1
  Ru4+  Ru103  1  0.50275636  0.33836328  0.75777483  1
  Ru4+  Ru104  1  0.49445214  0.67056593  0.00496764  1
  Ru4+  Ru105  1  0.50045660  0.66479695  0.24331197  1
  Ru4+  Ru106  1  0.50802060  0.67059510  0.50112803  1
  Ru4+  Ru107  1  0.49670329  0.67076503  0.75684974  1
  Ru4+  Ru108  1  0.12262823  0.16900462  -0.00186894  1
  Ru4+  Ru109  1  0.11715406  0.15862258  0.25640929  1
  Ru4+  Ru110  1  0.11455329  0.16586323  0.49824273  1
  Ru4+  Ru111  1  0.11397095  0.16556378  0.74866125  1
  Ru4+  Ru112  1  0.11262733  0.49954897  0.00504891  1
  Ru4+  Ru113  1  0.11624676  0.50044409  0.25145988  1
  Ru4+  Ru114  1  0.11318763  0.50288472  0.50055318  1
  Ru4+  Ru115  1  0.11795036  0.50273951  0.74927482  1
  Ru4+  Ru116  1  0.10702285  0.83344888  0.00172209  1
  Ru4+  Ru117  1  0.11012758  0.83638090  0.24891676  1
  Ru4+  Ru118  1  0.11485392  0.83093912  0.49972727  1
  Ru4+  Ru119  1  0.11817411  0.83623807  0.75228770  1
  Ru4+  Ru120  1  0.60874753  0.16996989  0.00177669  1
  Ru4+  Ru121  1  0.61325506  0.16685587  0.24115204  1
  Ru4+  Ru122  1  0.61126389  0.17198933  0.50054636  1
  Ru4+  Ru123  1  0.61263181  0.16701542  0.75055247  1
  Ru4+  Ru124  1  0.61349441  0.49454570  0.00007129  1
  Ru4+  Ru125  1  0.61206287  0.50248911  0.24603962  1
  Ru4+  Ru126  1  0.60774503  0.50437151  0.49879302  1
  Ru4+  Ru127  1  0.61376447  0.50063892  0.74770067  1
  Ru4+  Ru128  1  0.61506266  0.83179928  -0.00275119  1
  Ru4+  Ru129  1  0.60754601  0.83317419  0.24773328  1
  Ru4+  Ru130  1  0.60958570  0.83360367  0.50116334  1
  Ru4+  Ru131  1  0.60529092  0.83892897  0.75113871  1
  Ru4+  Ru132  1  0.38450225  0.16611764  -0.00072808  1
  Ru4+  Ru133  1  0.38287402  0.16819745  0.24620419  1
  Ru4+  Ru134  1  0.38000287  0.16684684  0.50241437  1
  Ru4+  Ru135  1  0.38663154  0.16180873  0.74858366  1
  Ru4+  Ru136  1  0.39172853  0.49346172  0.00326949  1
  Ru4+  Ru137  1  0.38573973  0.49932350  0.24711233  1
  Ru4+  Ru138  1  0.38232436  0.49808907  0.49980037  1
  Ru4+  Ru139  1  0.39037946  0.50050421  0.74956513  1
  Ru4+  Ru140  1  0.39028973  0.83869991  -0.00030196  1
  Ru4+  Ru141  1  0.39312752  0.82780507  0.24884517  1
  Ru4+  Ru142  1  0.38735566  0.82997408  0.50292003  1
  Ru4+  Ru143  1  0.38962071  0.83387442  0.75099644  1
  Ru4+  Ru144  1  0.88319479  0.16363431  -0.00259439  1
  Ru4+  Ru145  1  0.88827443  0.16640488  0.25439235  1
  Ru4+  Ru146  1  0.88793315  0.16909715  0.49880763  1
  Ru4+  Ru147  1  0.88534948  0.16676758  0.74999203  1
  Ru4+  Ru148  1  0.88514523  0.49728753  0.00191946  1
  Ru4+  Ru149  1  0.88626210  0.50304120  0.25081194  1
  Ru4+  Ru150  1  0.89114529  0.49983095  0.49923261  1
  Ru4+  Ru151  1  0.88441334  0.50860795  0.74930432  1
  Ru4+  Ru152  1  0.88739199  0.82902538  0.00074045  1
  Ru4+  Ru153  1  0.89090210  0.83368793  0.25204269  1
  Ru4+  Ru154  1  0.89327835  0.83345663  0.50016689  1
  Ru4+  Ru155  1  0.88398428  0.83222976  0.75058630  1
  Ru4+  Ru156  1  0.25059863  0.60529412  -0.01984103  1
  Ru4+  Ru157  1  0.75018965  0.91007285  -0.00889521  1
  Ru4+  Ru158  1  0.74987430  0.63026561  -0.00021053  1
  Ru4+  Ru159  1  0.24990528  0.73741079  0.26479392  1
  Ru4+  Ru160  1  0.75021278  0.42033004  0.74318031  1
  Ru4+  Ru161  1  0.25033979  0.60739417  0.74923206  1
  Ru4+  Ru162  1  0.75002997  0.65418422  0.51964541  1
  Ru4+  Ru163  1  0.74931858  0.06553574  -0.02442190  1
  Ru4+  Ru164  1  0.75023427  0.08777805  0.25710290  1
  Ru4+  Ru165  1  0.75014295  0.38029017  0.51446057  1
  Ru4+  Ru166  1  0.74980628  0.24196975  0.75465454  1
  Ru4+  Ru167  1  0.74972454  0.09145007  0.75613969  1
  Ru4+  Ru168  1  0.74936279  0.37138665  -0.01655660  1
  Ru4+  Ru169  1  0.74973007  0.72889988  0.24287415  1
  Ru4+  Ru170  1  0.24995444  0.99433558  -0.00000071  1
  Ru4+  Ru171  1  0.75002944  0.05031344  0.49117808  1
  Ru4+  Ru172  1  0.24974361  0.74197151  0.00976729  1
  Ru4+  Ru173  1  0.24996875  0.42476831  0.51128228  1
  Ru4+  Ru174  1  0.25005762  0.33707478  0.03093879  1
  Ru4+  Ru175  1  0.24995738  0.93757236  0.50187065  1
  Ru4+  Ru176  1  0.74900583  0.91445338  0.75085094  1
  Ru4+  Ru177  1  0.24986467  0.24696193  0.24480261  1
  Ru4+  Ru178  1  0.75061286  0.24147099  0.24534839  1
  Ru4+  Ru179  1  0.74992281  0.42812571  0.24477010  1
  O2-  O180  1  0.16831524  0.07927700  0.00033634  1
  O2-  O181  1  0.16663985  0.07766798  0.25193915  1
  O2-  O182  1  0.17037508  0.07964901  0.49686796  1
  O2-  O183  1  0.16717727  0.08064473  0.74764038  1
  O2-  O184  1  0.16599817  0.41027832  -0.00228179  1
  O2-  O185  1  0.16391467  0.41476415  0.25096324  1
  O2-  O186  1  0.16715505  0.41524703  0.49963035  1
  O2-  O187  1  0.16242728  0.41220521  0.74946954  1
  O2-  O188  1  0.16452044  0.74514788  0.00030321  1
  O2-  O189  1  0.16482691  0.74699973  0.25108144  1
  O2-  O190  1  0.16055061  0.74011158  0.50023739  1
  O2-  O191  1  0.16402442  0.74823170  0.75061082  1
  O2-  O192  1  0.66516673  0.08189100  -0.00030847  1
  O2-  O193  1  0.66715112  0.08289668  0.25327994  1
  O2-  O194  1  0.66677312  0.08271679  0.49652857  1
  O2-  O195  1  0.66927582  0.08134000  0.75053911  1
  O2-  O196  1  0.66982024  0.41320891  0.00299987  1
  O2-  O197  1  0.66599402  0.41856137  0.24794381  1
  O2-  O198  1  0.66383749  0.41252587  0.50120003  1
  O2-  O199  1  0.66741542  0.41303356  0.74877036  1
  O2-  O200  1  0.66836354  0.74873080  0.00151073  1
  O2-  O201  1  0.66863434  0.74865435  0.25116251  1
  O2-  O202  1  0.66799907  0.74948995  0.50070681  1
  O2-  O203  1  0.66541522  0.75404724  0.74966612  1
  O2-  O204  1  0.33684338  0.25148917  0.00114852  1
  O2-  O205  1  0.33282102  0.25080219  0.25115055  1
  O2-  O206  1  0.33485445  0.25408923  0.49945722  1
  O2-  O207  1  0.33466879  0.25021767  0.75002406  1
  O2-  O208  1  0.33724158  0.58688682  -0.00105172  1
  O2-  O209  1  0.33630682  0.58415632  0.25119099  1
  O2-  O210  1  0.33348759  0.58328751  0.50200458  1
  O2-  O211  1  0.33054602  0.58733048  0.75373437  1
  O2-  O212  1  0.33329514  0.92216957  0.00397687  1
  O2-  O213  1  0.34041955  0.92394967  0.24973612  1
  O2-  O214  1  0.33290268  0.91919393  0.49895643  1
  O2-  O215  1  0.33689746  0.91928614  0.74598359  1
  O2-  O216  1  0.83443563  0.25608242  -0.00074369  1
  O2-  O217  1  0.83572680  0.25359982  0.24971504  1
  O2-  O218  1  0.83634647  0.25483588  0.49780043  1
  O2-  O219  1  0.83165583  0.25256028  0.74979438  1
  O2-  O220  1  0.83278010  0.58882605  0.00285469  1
  O2-  O221  1  0.83468453  0.58630653  0.25058210  1
  O2-  O222  1  0.83490116  0.58824530  0.49882328  1
  O2-  O223  1  0.83044327  0.58529685  0.74949707  1
  O2-  O224  1  0.83376299  0.91962658  -0.00208987  1
  O2-  O225  1  0.83496893  0.91981573  0.24966571  1
  O2-  O226  1  0.83140415  0.91832457  0.49804152  1
  O2-  O227  1  0.82947410  0.91848986  0.74952800  1
  O2-  O228  1  0.16605222  0.25614589  -0.00024941  1
  O2-  O229  1  0.16705758  0.25074107  0.25252819  1
  O2-  O230  1  0.16099491  0.25492282  0.49839647  1
  O2-  O231  1  0.16527043  0.25118820  0.74995509  1
  O2-  O232  1  0.16361168  0.58885887  -0.00084749  1
  O2-  O233  1  0.16243962  0.58632820  0.24970810  1
  O2-  O234  1  0.16474729  0.58478700  0.49926130  1
  O2-  O235  1  0.16777557  0.58891576  0.75137317  1
  O2-  O236  1  0.16563338  0.92399958  0.00248261  1
  O2-  O237  1  0.16419210  0.92345967  0.25403992  1
  O2-  O238  1  0.16817574  0.92029816  0.49778386  1
  O2-  O239  1  0.16375771  0.91961871  0.74631520  1
  O2-  O240  1  0.66489805  0.25666658  -0.00137864  1
  O2-  O241  1  0.66715558  0.25179922  0.24944825  1
  O2-  O242  1  0.66486090  0.25358330  0.50372603  1
  O2-  O243  1  0.66585525  0.25190211  0.74940003  1
  O2-  O244  1  0.66721237  0.58778388  0.00375801  1
  O2-  O245  1  0.66884090  0.58318045  0.25152818  1
  O2-  O246  1  0.66869998  0.58889099  0.49933842  1
  O2-  O247  1  0.66364493  0.58365747  0.75122174  1
  O2-  O248  1  0.66500787  0.91708915  -0.00159714  1
  O2-  O249  1  0.66611264  0.91828312  0.24958114  1
  O2-  O250  1  0.66940780  0.91658536  0.49624785  1
  O2-  O251  1  0.67136996  0.91547704  0.74803069  1
  O2-  O252  1  0.33485767  0.07804224  0.00254935  1
  O2-  O253  1  0.33271899  0.07867419  0.24962254  1
  O2-  O254  1  0.33556140  0.07628900  0.49967511  1
  O2-  O255  1  0.33391808  0.07963001  0.74681440  1
  O2-  O256  1  0.33414515  0.41077148  -0.00256387  1
  O2-  O257  1  0.33404947  0.41692084  0.24914741  1
  O2-  O258  1  0.33225413  0.41360931  0.50205339  1
  O2-  O259  1  0.34280740  0.41131634  0.75081679  1
  O2-  O260  1  0.33225860  0.74778650  -0.00080266  1
  O2-  O261  1  0.33236090  0.74799455  0.24949680  1
  O2-  O262  1  0.33555183  0.74229536  0.49956123  1
  O2-  O263  1  0.33568527  0.74945605  0.74958586  1
  O2-  O264  1  0.83261610  0.07817945  -0.00064007  1
  O2-  O265  1  0.83325927  0.08110095  0.25071819  1
  O2-  O266  1  0.83154997  0.07965222  0.49672631  1
  O2-  O267  1  0.83145432  0.08041987  0.75044681  1
  O2-  O268  1  0.82933881  0.41098438  0.00037942  1
  O2-  O269  1  0.83114823  0.41544440  0.24966591  1
  O2-  O270  1  0.83512800  0.41042990  0.49864530  1
  O2-  O271  1  0.83494886  0.41433835  0.74995445  1
  O2-  O272  1  0.83509910  0.74877091  0.00421013  1
  O2-  O273  1  0.83405600  0.74648383  0.25039512  1
  O2-  O274  1  0.83130200  0.74720487  0.49989271  1
  O2-  O275  1  0.83358054  0.74939430  0.74995577  1
  O2-  O276  1  0.44530265  0.91090564  0.76625646  1
  O2-  O277  1  0.04523855  0.56655460  0.50701157  1
  O2-  O278  1  0.45112850  0.56566096  0.48441533  1
  O2-  O279  1  0.95664167  0.24266012  0.98698187  1
  O2-  O280  1  0.44534651  0.90672690  0.48035197  1
  O2-  O281  1  0.04157416  0.44707486  0.97253158  1
  O2-  O282  1  0.54844092  0.11398239  0.28421671  1
  O2-  O283  1  0.53145849  0.88769225  0.20608860  1
  O2-  O284  1  0.54720814  0.42788656  0.23524502  1
  O2-  O285  1  0.04670952  0.42485387  0.76130925  1
  O2-  O286  1  0.04449507  0.76536271  0.23661133  1
  O2-  O287  1  0.44846750  0.23660636  0.49439832  1
  O2-  O288  1  0.05124638  0.23559730  0.22972101  1
  O2-  O289  1  0.95204019  0.56926954  0.01163115  1
  O2-  O290  1  0.54340630  0.22920562  0.55044274  1
  O2-  O291  1  0.05219585  0.56982140  0.73787551  1
  O2-  O292  1  0.04631402  0.10506808  0.50290805  1
  O2-  O293  1  0.05421230  0.09195018  0.48192312  1
  O2-  O294  1  0.94832355  0.42734589  0.75295626  1
  O2-  O295  1  0.45980276  0.45010183  0.96890779  1
  O2-  O296  1  0.46111762  0.78125427  0.00365137  1
  O2-  O297  1  0.54838617  0.09427566  0.49417730  1
  O2-  O298  1  0.44982404  0.09024134  0.26836274  1
  O2-  O299  1  0.05224360  0.76371460  0.76146297  1
  O2-  O300  1  0.46146374  0.78878674  0.21111162  1
  O2-  O301  1  0.52752292  0.86022490  0.72365399  1
  O2-  O302  1  0.04312848  0.22990636  0.26640005  1
  O2-  O303  1  0.55128430  0.57232633  0.99101398  1
  O2-  O304  1  0.04784039  0.43221428  0.23883149  1
  O2-  O305  1  0.04405307  0.89757754  0.75813133  1
  O2-  O306  1  0.95442145  0.76611802  0.73841302  1
  O2-  O307  1  0.54598489  0.56868394  0.75703986  1
  O2-  O308  1  0.45240261  0.09575425  0.22972426  1
  O2-  O309  1  0.54255316  0.56657900  0.28826247  1
  O2-  O310  1  0.95344746  0.89531169  0.99104384  1
  O2-  O311  1  0.46986777  0.77797257  0.50482286  1
  O2-  O312  1  0.55012006  0.77362423  0.03357819  1
  O2-  O313  1  0.04536263  0.23904810  0.73734916  1
  O2-  O314  1  0.45076066  0.23619917  0.73688856  1
  O2-  O315  1  0.54837087  0.89580696  0.50920872  1
  O2-  O316  1  0.44937808  0.56702069  0.24059110  1
  O2-  O317  1  0.94933410  0.56970015  0.70144443  1
  O2-  O318  1  0.45428276  0.10103091  0.98793466  1
  O2-  O319  1  0.04661940  0.10220084  0.01085272  1
  O2-  O320  1  0.04379269  0.76503184  0.50755413  1
  O2-  O321  1  0.04730057  0.90365259  0.48908453  1
  O2-  O322  1  0.04740529  0.09423900  0.74682202  1
  O2-  O323  1  0.95000870  0.10029478  0.00934762  1
  O2-  O324  1  0.93309332  0.25407344  0.97966334  1
  O2-  O325  1  0.91883197  0.59241090  0.83806957  1
  O2-  O326  1  0.43145248  0.71973993  0.31082353  1
  O2-  O327  1  0.06267921  0.92306355  0.23136772  1
  O2-  O328  1  0.94036928  0.07495152  0.28680120  1
  O2-  O329  1  0.93511475  0.91762659  0.72643763  1
  O2-  O330  1  0.55933173  0.26162474  0.03072003  1
  O2-  O331  1  0.93649821  0.26559533  0.53109562  1
  O2-  O332  1  0.43430860  0.40511997  0.27447152  1
  O2-  O333  1  0.56471840  0.73402473  0.78383120  1
  O2-  O334  1  0.07123732  0.38172033  0.06948407  1
  O2-  O335  1  0.57051380  0.28188633  0.43212927  1
  O2-  O336  1  0.06623860  0.08262495  0.02269065  1
  O2-  O337  1  0.06708883  0.40925832  0.77724631  1
  O2-  O338  1  0.43871938  0.59271569  0.46709819  1
  O2-  O339  1  0.93621746  0.08262742  0.77465891  1
  O2-  O340  1  0.43388567  0.93088262  0.97034331  1
  O2-  O341  1  0.56262845  0.59578886  0.96724006  1
  O2-  O342  1  0.94174501  0.58049693  0.69574128  1
  O2-  O343  1  0.56786210  0.58166993  0.56508531  1
  O2-  O344  1  0.56205268  0.40353294  0.71351367  1
  O2-  O345  1  0.93974361  0.92355173  0.28732545  1
  O2-  O346  1  0.05978732  0.73369564  0.77947855  1
  O2-  O347  1  0.43943439  0.26297816  0.71716234  1
  O2-  O348  1  0.07056233  0.06897854  0.53208154  1
  O2-  O349  1  0.43477282  0.93770416  0.46874231  1
  O2-  O350  1  0.56508973  0.74126560  0.22179681  1
  O2-  O351  1  0.93436514  0.40920236  0.22669325  1
  O2-  O352  1  0.05994813  0.92956467  0.47042484  1
  O2-  O353  1  0.43058418  0.37914059  0.06347970  1
  O2-  O354  1  0.57071262  0.60439016  0.18991698  1
  O2-  O355  1  0.58321749  0.93470597  0.68292831  1
  O2-  O356  1  0.56192734  0.26460744  0.22007743  1
  O2-  O357  1  0.56187519  0.59896732  0.42699185  1
  O2-  O358  1  0.93384206  0.40805428  0.03049547  1
  O2-  O359  1  0.57082555  0.05103795  0.18020956  1
  O2-  O360  1  0.56616600  0.08433328  0.68898963  1
  O2-  O361  1  0.42203529  0.72418347  0.02889778  1
  O2-  O362  1  0.42497718  0.72401749  0.52704278  1
  O2-  O363  1  0.93190213  0.07547688  0.51729770  1
  O2-  O364  1  0.57568532  0.93162402  0.30257758  1
  O2-  O365  1  0.43473503  0.58800231  0.72257165  1
  O2-  O366  1  0.56463826  0.08354254  0.81093147  1
  O2-  O367  1  0.93487505  0.26243956  0.71482967  1
  O2-  O368  1  0.56595544  0.41043327  0.97358519  1
  O2-  O369  1  0.43541919  0.74284585  0.77502044  1
  O2-  O370  1  0.56809920  0.73495573  0.95539155  1
  O2-  O371  1  0.57634266  0.92301193  0.82809579  1
  O2-  O372  1  0.25009562  0.33185212  0.82186129  1
  O2-  O373  1  0.74936902  0.67279339  0.89275409  1
  O2-  O374  1  0.74956924  0.66675442  0.63940022  1
  O2-  O375  1  0.75041657  0.00033700  0.84269796  1
  O2-  O376  1  0.74994186  0.30931180  0.42565181  1
  O2-  O377  1  0.25017768  0.32030675  0.91253207  1
  O2-  O378  1  0.25022721  0.67069293  0.64922452  1
  O2-  O379  1  0.24987628  0.33243227  0.15480009  1
  O2-  O380  1  0.74993558  0.33766537  0.30605440  1
  O2-  O381  1  0.74959914  -0.00618203  0.07087369  1
  O2-  O382  1  0.75003715  0.33418316  0.14980100  1
  O2-  O383  1  0.24996731  0.64910043  0.18849248  1
  O2-  O384  1  0.75013671  -0.00377253  0.19390023  1
  O2-  O385  1  0.24901450  0.66971604  0.87403401  1
  O2-  O386  1  0.75059172  0.67120733  0.39054114  1
  O2-  O387  1  0.24923953  0.66407257  0.35705529  1
  O2-  O388  1  0.24967983  0.65982001  0.09316245  1
  O2-  O389  1  0.24980015  0.32587070  0.34152323  1
  O2-  O390  1  0.75052435  0.00224960  0.35405486  1
  O2-  O391  1  0.25106650  -0.00202364  0.86494955  1
  O2-  O392  1  0.74990669  0.32070428  0.62203269  1
  O2-  O393  1  0.24990624  0.33850613  0.64277710  1
  O2-  O394  1  0.74995167  0.33394841  0.84433250  1
  O2-  O395  1  0.75058227  -0.00447163  0.60108799  1
  O2-  O396  1  0.75012198  0.82399633  0.15372211  1
  O2-  O397  1  0.75012992  0.82314390  0.06390432  1
  O2-  O398  1  0.24980478  0.49443471  0.33785085  1
  O2-  O399  1  0.74995225  0.50458101  0.81769641  1
  O2-  O400  1  0.74998263  0.49287106  0.65269587  1
  O2-  O401  1  0.24976695  0.52075706  0.87620843  1
  O2-  O402  1  0.25027889  0.84260349  0.37005895  1
  O2-  O403  1  0.24979029  0.16424413  0.89974608  1
  O2-  O404  1  0.24957779  0.50315650  0.13718296  1
  O2-  O405  1  0.24974996  0.82589913  0.83229895  1
  O2-  O406  1  0.25062807  0.16471259  0.60316323  1
  O2-  O407  1  0.24979945  0.50129571  0.42217216  1
  O2-  O408  1  0.25002872  0.83268487  0.69365379  1
  O2-  O409  1  0.24956157  0.50627032  0.62038337  1
  O2-  O410  1  0.24983209  0.82408391  0.10438305  1
  O2-  O411  1  0.24986277  0.17517092  0.10910087  1
  O2-  O412  1  0.25026001  0.16937016  0.41397518  1
  O2-  O413  1  0.74989021  0.16069087  0.15742266  1
  O2-  O414  1  0.24966821  0.16423042  0.32960019  1
  O2-  O415  1  0.75000985  0.15535768  0.88009961  1
  O2-  O416  1  0.75022167  0.49625855  0.90615224  1
  O2-  O417  1  0.25004373  0.85388638  0.61184701  1
  O2-  O418  1  0.75014128  0.16845904  0.34832521  1
  O2-  O419  1  0.75010074  0.16720580  0.65868448  1
  O2-  O420  1  0.47430935  0.66281039  0.62925111  1
  O2-  O421  1  0.54366059  0.32158560  0.86574335  1
  O2-  O422  1  0.95704345  0.33848169  0.86753399  1
  O2-  O423  1  0.97199585  0.67044406  0.12603190  1
  O2-  O424  1  0.97638188  0.31890964  0.12589044  1
  O2-  O425  1  0.47608842  0.65788903  0.12268667  1
  O2-  O426  1  0.51847172  0.00484203  0.89067655  1
  O2-  O427  1  0.04410960  0.67361761  0.63368992  1
  O2-  O428  1  0.52154667  0.00450171  0.38016813  1
  O2-  O429  1  0.95935231  0.00310009  0.62776112  1
  O2-  O430  1  0.47543216  0.33109801  0.37814321  1
  O2-  O431  1  0.95195859  -0.00374406  0.12745073  1
  O2-  O432  1  0.04611640  0.00254873  0.88210297  1
  O2-  O433  1  0.02617878  0.33494299  0.37646822  1
  O2-  O434  1  0.04557609  0.31733784  0.88999170  1
  O2-  O435  1  0.98116661  0.68200783  0.88643452  1
  O2-  O436  1  0.51039619  0.00483265  0.61794294  1
  O2-  O437  1  0.04440268  -0.01811569  0.63836138  1
  O2-  O438  1  0.53112638  0.68018786  0.63534758  1
  O2-  O439  1  0.45305602  0.32737841  0.87019827  1
  O2-  O440  1  0.95778656  -0.00620161  0.87912827  1
  O2-  O441  1  0.47263209  0.65691192  0.88024437  1
  O2-  O442  1  0.03919089  -0.00038411  0.12533626  1
  O2-  O443  1  0.95418636  0.68498412  0.59512248  1
