# generated using pymatgen
data_La7(Ru4O11)2
_symmetry_space_group_name_H-M   'P 1'
_cell_length_a   23.98921982
_cell_length_b   16.82879258
_cell_length_c   15.42600059
_cell_angle_alpha   90.00028218
_cell_angle_beta   90.00003281
_cell_angle_gamma   90.00024999
_symmetry_Int_Tables_number   1
_chemical_formula_structural   La7(Ru4O11)2
_chemical_formula_sum   'La84 Ru96 O264'
_cell_volume   6227.62459785
_cell_formula_units_Z   12
loop_
 _symmetry_equiv_pos_site_id
 _symmetry_equiv_pos_as_xyz
  1  'x, y, z'
loop_
 _atom_type_symbol
 _atom_type_oxidation_number
  La3+  3.0
  Ru4+  4.0
  O2-  -2.0
loop_
 _atom_site_type_symbol
 _atom_site_label
 _atom_site_symmetry_multiplicity
 _atom_site_fract_x
 _atom_site_fract_y
 _atom_site_fract_z
 _atom_site_occupancy
  La3+  La0  1  0.13760315  -0.00041821  0.12456137  1
  La3+  La1  1  0.13899935  -0.00121901  0.37462560  1
  La3+  La2  1  0.13834940  -0.00183185  0.62533714  1
  La3+  La3  1  0.13912399  -0.00008955  0.87535015  1
  La3+  La4  1  0.13465822  0.33148849  0.12632256  1
  La3+  La5  1  0.13611064  0.33207126  0.37371838  1
  La3+  La6  1  0.14027578  0.33324279  0.62443135  1
  La3+  La7  1  0.13766287  0.33257296  0.87440434  1
  La3+  La8  1  0.13886576  0.66469056  0.12146318  1
  La3+  La9  1  0.14036128  0.66536782  0.37653578  1
  La3+  La10  1  0.13870531  0.66786690  0.62452253  1
  La3+  La11  1  0.13696671  0.66583709  0.87784794  1
  La3+  La12  1  0.63929756  0.00051540  0.12552983  1
  La3+  La13  1  0.63899695  -0.00033610  0.37499619  1
  La3+  La14  1  0.63912822  0.00062425  0.62416910  1
  La3+  La15  1  0.63843067  0.00176282  0.87518337  1
  La3+  La16  1  0.63772842  0.33375570  0.12386566  1
  La3+  La17  1  0.63808510  0.33313810  0.37778379  1
  La3+  La18  1  0.63884183  0.33360877  0.62384178  1
  La3+  La19  1  0.63768775  0.33417772  0.87342126  1
  La3+  La20  1  0.63840745  0.66696731  0.12744482  1
  La3+  La21  1  0.64058467  0.66816118  0.37522067  1
  La3+  La22  1  0.64135050  0.66731996  0.62512679  1
  La3+  La23  1  0.63895094  0.66589050  0.87223615  1
  La3+  La24  1  0.36313764  -0.00113670  0.12363082  1
  La3+  La25  1  0.36155498  -0.00065337  0.37475574  1
  La3+  La26  1  0.36135093  -0.00136936  0.62522031  1
  La3+  La27  1  0.36251880  -0.00218492  0.87574606  1
  La3+  La28  1  0.36272328  0.33302574  0.12413444  1
  La3+  La29  1  0.36167895  0.33311716  0.37679217  1
  La3+  La30  1  0.36015665  0.33259371  0.62401246  1
  La3+  La31  1  0.36229205  0.33307289  0.87401828  1
  La3+  La32  1  0.35944786  0.66698426  0.12402099  1
  La3+  La33  1  0.36074398  0.66644500  0.37477955  1
  La3+  La34  1  0.36030532  0.66784460  0.62427488  1
  La3+  La35  1  0.36060461  0.66757561  0.87610926  1
  La3+  La36  1  0.86144751  0.00104119  0.12536943  1
  La3+  La37  1  0.86051945  -0.00029727  0.37446700  1
  La3+  La38  1  0.86133923  -0.00011422  0.62412578  1
  La3+  La39  1  0.86166156  0.00161125  0.87586251  1
  La3+  La40  1  0.86245307  0.33389918  0.12476318  1
  La3+  La41  1  0.86235821  0.33367997  0.37726761  1
  La3+  La42  1  0.85981615  0.33311753  0.62240302  1
  La3+  La43  1  0.86127649  0.33289207  0.87564367  1
  La3+  La44  1  0.86139732  0.66741500  0.12887259  1
  La3+  La45  1  0.85962035  0.66784403  0.37491295  1
  La3+  La46  1  0.85783433  0.66718397  0.62398160  1
  La3+  La47  1  0.86091195  0.66636863  0.87319303  1
  La3+  La48  1  0.49750570  0.16310442  0.13309328  1
  La3+  La49  1  0.00220586  0.50065014  0.13053949  1
  La3+  La50  1  0.49977999  0.49947632  0.64112004  1
  La3+  La51  1  0.00215607  0.83691740  0.38344451  1
  La3+  La52  1  -0.00066482  0.16786712  0.63795117  1
  La3+  La53  1  -0.00164295  0.83102271  0.62930479  1
  La3+  La54  1  0.50072054  0.49892193  0.38810401  1
  La3+  La55  1  0.00001152  0.50148081  0.36764640  1
  La3+  La56  1  0.00213917  0.50111027  0.88237466  1
  La3+  La57  1  0.49914678  0.83397477  0.11301407  1
  La3+  La58  1  0.50001651  0.49906833  0.88473502  1
  La3+  La59  1  0.50105833  0.83471118  0.61715996  1
  La3+  La60  1  0.50070524  0.16717643  0.88516488  1
  La3+  La61  1  0.00102810  0.16789150  0.36164171  1
  La3+  La62  1  0.50214354  0.50245636  0.36658097  1
  La3+  La63  1  0.49760904  0.83196455  0.87067847  1
  La3+  La64  1  0.00120906  0.83801824  0.88532524  1
  La3+  La65  1  0.50332606  0.49921802  0.61953209  1
  La3+  La66  1  0.50099605  0.83493684  0.63432478  1
  La3+  La67  1  0.49915205  0.83233692  0.36585062  1
  La3+  La68  1  0.00092295  0.16743602  0.11482831  1
  La3+  La69  1  0.00049381  0.50101678  0.63438864  1
  La3+  La70  1  0.00203689  0.82956024  0.86474570  1
  La3+  La71  1  0.49769765  0.50377366  0.11834655  1
  La3+  La72  1  0.24989009  0.20305454  0.75176674  1
  La3+  La73  1  0.25025372  0.53225078  0.00181947  1
  La3+  La74  1  0.75018062  0.54313241  0.23518995  1
  La3+  La75  1  0.25003879  0.85934249  0.25142894  1
  La3+  La76  1  0.75004016  0.16676508  0.50279781  1
  La3+  La77  1  0.24982865  0.49808080  0.49979137  1
  La3+  La78  1  0.75019961  0.12557607  0.25890971  1
  La3+  La79  1  0.75028514  0.50134410  0.54068314  1
  La3+  La80  1  0.75017665  0.83519208  0.01355482  1
  La3+  La81  1  0.75004450  0.13428701  0.72125904  1
  La3+  La82  1  0.24994982  0.19569361  0.50102065  1
  La3+  La83  1  0.24964488  0.16109498  0.24849497  1
  Ru4+  Ru84  1  0.00016521  0.00175304  0.00321335  1
  Ru4+  Ru85  1  0.00015276  -0.00011759  0.24519014  1
  Ru4+  Ru86  1  -0.00237924  -0.00022967  0.50155628  1
  Ru4+  Ru87  1  0.00001609  0.00375094  0.74975038  1
  Ru4+  Ru88  1  0.00364049  0.32793809  0.00373941  1
  Ru4+  Ru89  1  0.00234753  0.32980217  0.24871205  1
  Ru4+  Ru90  1  -0.00006904  0.33326827  0.49865110  1
  Ru4+  Ru91  1  0.00176259  0.33139339  0.75043884  1
  Ru4+  Ru92  1  0.00169362  0.66446744  0.00084788  1
  Ru4+  Ru93  1  -0.00114816  0.66841918  0.24805044  1
  Ru4+  Ru94  1  0.00095136  0.66436811  0.49932579  1
  Ru4+  Ru95  1  0.00140208  0.66838217  0.74976406  1
  Ru4+  Ru96  1  0.50120061  0.00295606  -0.00110202  1
  Ru4+  Ru97  1  0.49998620  0.00223726  0.25201035  1
  Ru4+  Ru98  1  0.50174387  0.00294619  0.49679882  1
  Ru4+  Ru99  1  0.49965944  0.00145438  0.75252755  1
  Ru4+  Ru100  1  0.49650949  0.32919132  0.00104986  1
  Ru4+  Ru101  1  0.49874113  0.33330577  0.25128296  1
  Ru4+  Ru102  1  0.50147187  0.32757609  0.49724331  1
  Ru4+  Ru103  1  0.49689473  0.32707511  0.74913652  1
  Ru4+  Ru104  1  0.49944308  0.66582261  -0.00009601  1
  Ru4+  Ru105  1  0.50097054  0.66860956  0.24970049  1
  Ru4+  Ru106  1  0.50389377  0.66547184  0.49834008  1
  Ru4+  Ru107  1  0.50083094  0.66544088  0.75037310  1
  Ru4+  Ru108  1  0.11224899  0.16678527  0.00001428  1
  Ru4+  Ru109  1  0.11232108  0.16620721  0.24872449  1
  Ru4+  Ru110  1  0.11300340  0.16957652  0.49884329  1
  Ru4+  Ru111  1  0.11117136  0.16805467  0.74999596  1
  Ru4+  Ru112  1  0.11174962  0.50051066  -0.00012006  1
  Ru4+  Ru113  1  0.11388033  0.50116908  0.24942737  1
  Ru4+  Ru114  1  0.11223836  0.49895214  0.49997902  1
  Ru4+  Ru115  1  0.11201909  0.49926552  0.75094221  1
  Ru4+  Ru116  1  0.11378247  0.83161532  0.00087869  1
  Ru4+  Ru117  1  0.11126247  0.83269939  0.24960871  1
  Ru4+  Ru118  1  0.11312530  0.83227664  0.50049723  1
  Ru4+  Ru119  1  0.11569704  0.83185080  0.74925486  1
  Ru4+  Ru120  1  0.61316386  0.16558734  -0.00039322  1
  Ru4+  Ru121  1  0.61195574  0.16352357  0.25093504  1
  Ru4+  Ru122  1  0.60909070  0.16677130  0.50045255  1
  Ru4+  Ru123  1  0.61039567  0.16522970  0.74965350  1
  Ru4+  Ru124  1  0.61467815  0.50407249  -0.00046853  1
  Ru4+  Ru125  1  0.61224783  0.50183023  0.24954002  1
  Ru4+  Ru126  1  0.61215277  0.50004142  0.50028619  1
  Ru4+  Ru127  1  0.61521433  0.50380942  0.74998971  1
  Ru4+  Ru128  1  0.61129093  0.83435352  -0.00021039  1
  Ru4+  Ru129  1  0.61409783  0.83278796  0.25013167  1
  Ru4+  Ru130  1  0.61295226  0.83224815  0.49995477  1
  Ru4+  Ru131  1  0.61473166  0.83009903  0.74926318  1
  Ru4+  Ru132  1  0.38769608  0.16647070  0.00022180  1
  Ru4+  Ru133  1  0.39016173  0.16630056  0.25080714  1
  Ru4+  Ru134  1  0.38888746  0.16940387  0.50090716  1
  Ru4+  Ru135  1  0.38821040  0.16892160  0.74918955  1
  Ru4+  Ru136  1  0.38873283  0.50044442  -0.00065469  1
  Ru4+  Ru137  1  0.38575374  0.50121046  0.24923675  1
  Ru4+  Ru138  1  0.38607311  0.49986849  0.50037565  1
  Ru4+  Ru139  1  0.38827820  0.49995520  0.75024202  1
  Ru4+  Ru140  1  0.38472535  0.82934534  0.00036880  1
  Ru4+  Ru141  1  0.38878343  0.83323316  0.24940612  1
  Ru4+  Ru142  1  0.38442951  0.83541823  0.49984683  1
  Ru4+  Ru143  1  0.38505174  0.83471974  0.74997448  1
  Ru4+  Ru144  1  0.88746052  0.16469401  -0.00014089  1
  Ru4+  Ru145  1  0.88869428  0.16514499  0.25054733  1
  Ru4+  Ru146  1  0.88807307  0.16729536  0.49960553  1
  Ru4+  Ru147  1  0.88838123  0.16627592  0.74979953  1
  Ru4+  Ru148  1  0.88439871  0.50369393  -0.00004891  1
  Ru4+  Ru149  1  0.88580891  0.50391036  0.24967306  1
  Ru4+  Ru150  1  0.88778655  0.50042801  0.50000995  1
  Ru4+  Ru151  1  0.88451723  0.50078244  0.74983266  1
  Ru4+  Ru152  1  0.88640376  0.83580307  0.00078730  1
  Ru4+  Ru153  1  0.88582551  0.83151805  0.24897927  1
  Ru4+  Ru154  1  0.88516781  0.83427637  0.50055180  1
  Ru4+  Ru155  1  0.88595047  0.83112947  0.74925152  1
  Ru4+  Ru156  1  0.74988289  0.91389245  0.49780972  1
  Ru4+  Ru157  1  0.24974602  0.91111424  0.50075901  1
  Ru4+  Ru158  1  0.74962884  0.42052452  0.74703626  1
  Ru4+  Ru159  1  0.24990081  0.08823242  0.00093116  1
  Ru4+  Ru160  1  0.75022234  0.26949048  0.73875127  1
  Ru4+  Ru161  1  0.74988248  0.42228101  0.00314045  1
  Ru4+  Ru162  1  0.25011991  0.39871110  -0.01187357  1
  Ru4+  Ru163  1  0.74996054  0.91071107  0.74205542  1
  Ru4+  Ru164  1  0.25013136  0.57981057  0.75060915  1
  Ru4+  Ru165  1  0.25046374  0.27718139  0.25875473  1
  Ru4+  Ru166  1  0.24993616  0.42691999  0.25411115  1
  Ru4+  Ru167  1  0.74990003  0.40084084  0.24517876  1
  Ru4+  Ru168  1  0.25009459  0.24221986  -0.00445885  1
  Ru4+  Ru169  1  0.74986673  0.72162263  -0.00744445  1
  Ru4+  Ru170  1  0.74997114  0.57478660  -0.00068836  1
  Ru4+  Ru171  1  0.25009268  0.04328277  0.24355363  1
  Ru4+  Ru172  1  0.24996172  0.05763231  0.50064631  1
  Ru4+  Ru173  1  0.74990590  0.94969941  0.00532152  1
  Ru4+  Ru174  1  0.74990089  0.25074990  0.00128616  1
  Ru4+  Ru175  1  0.25022532  0.41905984  0.74838782  1
  Ru4+  Ru176  1  0.24999557  0.72439517  0.24703477  1
  Ru4+  Ru177  1  0.24998954  0.06514873  0.74106307  1
  Ru4+  Ru178  1  0.25011265  0.91261875  -0.00173771  1
  Ru4+  Ru179  1  0.74998739  0.26613854  0.24530542  1
  O2-  O180  1  0.16835264  0.08136064  0.00062206  1
  O2-  O181  1  0.16563677  0.07931134  0.25009081  1
  O2-  O182  1  0.16784736  0.07936796  0.50067269  1
  O2-  O183  1  0.16673031  0.07993240  0.74964864  1
  O2-  O184  1  0.16699579  0.41368868  -0.00043194  1
  O2-  O185  1  0.16734568  0.41392822  0.25014121  1
  O2-  O186  1  0.16740405  0.41461354  0.49891612  1
  O2-  O187  1  0.16822067  0.41428128  0.75043208  1
  O2-  O188  1  0.16654337  0.74837329  -0.00092024  1
  O2-  O189  1  0.16871370  0.74683566  0.24990063  1
  O2-  O190  1  0.16661398  0.74731291  0.50032325  1
  O2-  O191  1  0.16630953  0.74741728  0.74964014  1
  O2-  O192  1  0.66725263  0.08138066  0.00032557  1
  O2-  O193  1  0.66563554  0.07905080  0.24920094  1
  O2-  O194  1  0.66753742  0.08178017  0.50009082  1
  O2-  O195  1  0.66680678  0.07988763  0.75048621  1
  O2-  O196  1  0.66812847  0.41326852  0.00116058  1
  O2-  O197  1  0.66719288  0.41261428  0.24949149  1
  O2-  O198  1  0.66761283  0.41380995  0.49948338  1
  O2-  O199  1  0.66872471  0.41422159  0.74953373  1
  O2-  O200  1  0.66577334  0.74531247  -0.00011640  1
  O2-  O201  1  0.66602260  0.74819993  0.24969946  1
  O2-  O202  1  0.66628352  0.74830065  0.49955954  1
  O2-  O203  1  0.66713241  0.74822125  0.75147653  1
  O2-  O204  1  0.33126434  0.25288952  -0.00019339  1
  O2-  O205  1  0.33447138  0.25448765  0.24981035  1
  O2-  O206  1  0.33300212  0.25303479  0.49830394  1
  O2-  O207  1  0.33455859  0.25386384  0.75056338  1
  O2-  O208  1  0.33245523  0.58613623  -0.00061159  1
  O2-  O209  1  0.33302135  0.58550061  0.24964785  1
  O2-  O210  1  0.33131052  0.58616045  0.49982767  1
  O2-  O211  1  0.33135451  0.58668612  0.75026565  1
  O2-  O212  1  0.33145788  0.91927094  0.00074402  1
  O2-  O213  1  0.33350938  0.92057735  0.24971172  1
  O2-  O214  1  0.33184259  0.91927754  0.49933841  1
  O2-  O215  1  0.33378429  0.91893371  0.74978886  1
  O2-  O216  1  0.83311892  0.25303716  0.00045046  1
  O2-  O217  1  0.83342520  0.25342666  0.24935317  1
  O2-  O218  1  0.83158955  0.25157793  0.49939129  1
  O2-  O219  1  0.83311674  0.25381832  0.74963680  1
  O2-  O220  1  0.83293812  0.58588224  -0.00009411  1
  O2-  O221  1  0.83489389  0.58591214  0.25096119  1
  O2-  O222  1  0.83220089  0.58471371  0.49941109  1
  O2-  O223  1  0.83235848  0.58485423  0.75120132  1
  O2-  O224  1  0.83370113  0.92034990  0.00004561  1
  O2-  O225  1  0.83246103  0.91880971  0.25040739  1
  O2-  O226  1  0.83248197  0.91814692  0.50064408  1
  O2-  O227  1  0.83301052  0.92003388  0.75032658  1
  O2-  O228  1  0.16839776  0.25218138  -0.00027762  1
  O2-  O229  1  0.16640546  0.25417649  0.25107307  1
  O2-  O230  1  0.16651100  0.25258484  0.49916017  1
  O2-  O231  1  0.16651089  0.25417164  0.75061712  1
  O2-  O232  1  0.16764260  0.58560928  -0.00127376  1
  O2-  O233  1  0.16696208  0.58531640  0.24992431  1
  O2-  O234  1  0.16851489  0.58647144  0.50066118  1
  O2-  O235  1  0.16848680  0.58663259  0.75019105  1
  O2-  O236  1  0.16809979  0.91885668  0.00049455  1
  O2-  O237  1  0.16672011  0.91984400  0.24917985  1
  O2-  O238  1  0.16860307  0.91995135  0.50035853  1
  O2-  O239  1  0.16746165  0.91904321  0.74882439  1
  O2-  O240  1  0.66684343  0.25311047  0.00079766  1
  O2-  O241  1  0.66736533  0.25356188  0.24902307  1
  O2-  O242  1  0.66806755  0.25222557  0.49929019  1
  O2-  O243  1  0.66673690  0.25340512  0.74967906  1
  O2-  O244  1  0.66699702  0.58594561  -0.00010276  1
  O2-  O245  1  0.66518999  0.58665986  0.25035539  1
  O2-  O246  1  0.66721764  0.58575272  0.49946121  1
  O2-  O247  1  0.66711416  0.58561533  0.75032323  1
  O2-  O248  1  0.66559018  0.92048540  0.00008800  1
  O2-  O249  1  0.66688505  0.91943801  0.24943459  1
  O2-  O250  1  0.66735579  0.91933894  0.50012132  1
  O2-  O251  1  0.66733481  0.91948285  0.75090222  1
  O2-  O252  1  0.33229736  0.08083688  0.00022036  1
  O2-  O253  1  0.33435096  0.07897905  0.24954494  1
  O2-  O254  1  0.33307913  0.07987208  0.49933912  1
  O2-  O255  1  0.33248889  0.08026389  0.75013758  1
  O2-  O256  1  0.33331069  0.41278873  0.00022614  1
  O2-  O257  1  0.33267430  0.41390190  0.24969721  1
  O2-  O258  1  0.33229456  0.41439109  0.49857283  1
  O2-  O259  1  0.33142668  0.41346709  0.75085390  1
  O2-  O260  1  0.33383132  0.74852053  -0.00043200  1
  O2-  O261  1  0.33164186  0.74638769  0.25031069  1
  O2-  O262  1  0.33222309  0.74747233  0.50038819  1
  O2-  O263  1  0.33223335  0.74694791  0.74971218  1
  O2-  O264  1  0.83287040  0.08229399  -0.00076162  1
  O2-  O265  1  0.83316970  0.07935265  0.24926118  1
  O2-  O266  1  0.83241072  0.08127322  0.50084213  1
  O2-  O267  1  0.83350819  0.07967030  0.75000534  1
  O2-  O268  1  0.83118787  0.41366120  0.00079639  1
  O2-  O269  1  0.83288214  0.41298062  0.24947769  1
  O2-  O270  1  0.83189754  0.41482360  0.49945971  1
  O2-  O271  1  0.83201420  0.41487097  0.74989323  1
  O2-  O272  1  0.83363310  0.74549860  -0.00034742  1
  O2-  O273  1  0.83308826  0.74892345  0.25055333  1
  O2-  O274  1  0.83285301  0.74868682  0.49908606  1
  O2-  O275  1  0.83331933  0.74778715  0.75125647  1
  O2-  O276  1  0.45257188  0.23761588  0.26488943  1
  O2-  O277  1  0.45080599  0.75927506  0.53939404  1
  O2-  O278  1  0.95085844  0.75960338  0.95846186  1
  O2-  O279  1  0.54744343  0.10105471  0.73604574  1
  O2-  O280  1  0.95353055  0.10005143  0.48437460  1
  O2-  O281  1  0.95802668  0.55950461  0.77853976  1
  O2-  O282  1  0.04538915  0.90365962  0.01567483  1
  O2-  O283  1  0.04483162  0.56843345  0.48538939  1
  O2-  O284  1  0.04131847  0.89159442  0.71944138  1
  O2-  O285  1  0.95467576  0.23360641  0.98633116  1
  O2-  O286  1  0.96118136  0.44253803  1.00113714  1
  O2-  O287  1  0.03057772  0.79423977  0.26631447  1
  O2-  O288  1  0.04231730  0.56243933  0.98942269  1
  O2-  O289  1  0.54473360  0.76543029  0.98541602  1
  O2-  O290  1  0.04164157  0.10609132  0.52749357  1
  O2-  O291  1  0.04785159  0.56600050  0.76360186  1
  O2-  O292  1  0.04827052  0.43093093  0.26603873  1
  O2-  O293  1  0.04105005  0.22897258  0.23985879  1
  O2-  O294  1  0.45249504  0.09589713  0.26465899  1
  O2-  O295  1  0.95288153  0.90328612  0.76361199  1
  O2-  O296  1  0.54482182  0.23731636  0.50417450  1
  O2-  O297  1  0.45297836  0.90175013  0.98447571  1
  O2-  O298  1  0.45411496  0.42983248  0.51356020  1
  O2-  O299  1  0.45374428  0.56955212  0.26040516  1
  O2-  O300  1  0.45521124  0.23607066  0.73612009  1
  O2-  O301  1  0.94232974  0.74581519  0.22426592  1
  O2-  O302  1  0.95307632  0.42934537  0.22944744  1
  O2-  O303  1  0.95967984  0.77158672  0.47610717  1
  O2-  O304  1  0.45375687  0.57017403  0.51513115  1
  O2-  O305  1  0.95897958  0.89496613  0.27510594  1
  O2-  O306  1  0.45245790  0.42804516  0.26244302  1
  O2-  O307  1  0.54794651  0.09783063  0.26299361  1
  O2-  O308  1  0.04505327  0.57078392  0.23627942  1
  O2-  O309  1  0.54494818  0.09526446  0.51427561  1
  O2-  O310  1  0.45805720  0.10507777  0.77570135  1
  O2-  O311  1  0.54460016  0.90065201  0.26192202  1
  O2-  O312  1  0.96130762  0.44247869  0.00115085  1
  O2-  O313  1  0.55395376  0.41943605  0.03593210  1
  O2-  O314  1  0.95296894  0.42887138  0.26879618  1
  O2-  O315  1  0.54281544  0.23108741  0.22395752  1
  O2-  O316  1  0.53925559  0.89273727  0.77720308  1
  O2-  O317  1  0.54636002  0.43129544  0.76659753  1
  O2-  O318  1  0.54679192  0.23306530  0.49578714  1
  O2-  O319  1  0.04496838  0.57185082  0.01591594  1
  O2-  O320  1  0.04441812  0.09831293  0.76393442  1
  O2-  O321  1  0.54766682  0.43080490  0.26028400  1
  O2-  O322  1  0.04473633  0.23761358  0.26636805  1
  O2-  O323  1  0.04564077  0.76462709  0.01609303  1
  O2-  O324  1  0.43608676  0.26446097  0.03276246  1
  O2-  O325  1  0.93027707  0.93421858  0.21025321  1
  O2-  O326  1  0.43331433  0.26197436  0.52896540  1
  O2-  O327  1  0.43698840  0.59813864  0.96773083  1
  O2-  O328  1  0.06371454  0.06845553  0.96851107  1
  O2-  O329  1  0.06767278  0.26639379  0.22044095  1
  O2-  O330  1  0.93499112  0.92865819  0.47132380  1
  O2-  O331  1  0.06820150  0.60039135  0.96984623  1
  O2-  O332  1  0.55360145  0.41935165  0.03665222  1
  O2-  O333  1  0.07486761  0.71667923  0.31285687  1
  O2-  O334  1  0.93654177  0.40406550  0.46718683  1
  O2-  O335  1  0.93341740  0.40671800  0.70357560  1
  O2-  O336  1  0.56396961  0.40797768  0.77823977  1
  O2-  O337  1  0.93582789  0.59457784  0.53283054  1
  O2-  O338  1  0.93347449  0.40661018  0.79666738  1
  O2-  O339  1  0.43500790  0.92841605  0.52883769  1
  O2-  O340  1  0.06369569  0.92993641  0.53331941  1
  O2-  O341  1  0.93142483  0.72934202  0.54665416  1
  O2-  O342  1  0.06398792  0.06903427  0.21752515  1
  O2-  O343  1  0.57102988  0.40069030  0.94737113  1
  O2-  O344  1  0.42920355  0.06509096  0.71116808  1
  O2-  O345  1  0.44574172  0.75166075  0.54503882  1
  O2-  O346  1  0.93081620  0.72481586  0.06723022  1
  O2-  O347  1  0.43581570  0.73542780  0.69518759  1
  O2-  O348  1  0.92964695  0.39133778  0.06116607  1
  O2-  O349  1  0.93618375  0.26274585  0.46616851  1
  O2-  O350  1  0.93133742  0.60588721  0.70438699  1
  O2-  O351  1  0.56489587  0.73848225  0.72057064  1
  O2-  O352  1  0.06572750  0.40635000  0.02937733  1
  O2-  O353  1  0.93547771  0.93056218  0.96662618  1
  O2-  O354  1  0.94658356  0.75099799  0.22789835  1
  O2-  O355  1  0.06888291  0.72740511  0.18532250  1
  O2-  O356  1  0.94404322  0.74503814  0.96094399  1
  O2-  O357  1  0.06491323  0.26199584  0.72033637  1
  O2-  O358  1  0.43627572  0.92663837  0.97285475  1
  O2-  O359  1  0.57259923  0.93682011  0.70606057  1
  O2-  O360  1  0.57074574  0.26938585  0.29009990  1
  O2-  O361  1  0.06970710  0.94226182  0.79960402  1
  O2-  O362  1  0.92638465  0.39428295  0.94396555  1
  O2-  O363  1  0.42736162  0.73051862  0.43622064  1
  O2-  O364  1  0.93489394  0.07362594  0.28015583  1
  O2-  O365  1  0.06580825  0.25974978  0.02918514  1
  O2-  O366  1  0.93522292  0.07237752  0.02886328  1
  O2-  O367  1  0.56313580  0.06852451  0.96824575  1
  O2-  O368  1  0.06376329  0.26468832  0.46691935  1
  O2-  O369  1  0.43586973  0.73650902  0.21703794  1
  O2-  O370  1  0.43617228  0.73480670  0.80486151  1
  O2-  O371  1  0.07085341  0.06578746  0.45925871  1
  O2-  O372  1  0.75009694  0.33999547  0.83257372  1
  O2-  O373  1  0.75003660  0.66397577  0.59327527  1
  O2-  O374  1  0.74971091  0.00329005  0.09922779  1
  O2-  O375  1  0.25005525  0.33419476  0.59553987  1
  O2-  O376  1  0.74996565  0.00233332  0.67068599  1
  O2-  O377  1  0.75000710  0.66660956  0.17516463  1
  O2-  O378  1  0.74990039  0.00209705  0.57798087  1
  O2-  O379  1  0.74991704  0.33324651  0.59722072  1
  O2-  O380  1  0.75004088  0.33444434  0.92446185  1
  O2-  O381  1  0.74987962  0.00932157  0.91465812  1
  O2-  O382  1  0.74998900  0.66579547  0.33127837  1
  O2-  O383  1  0.75000526  -0.00080376  0.40858899  1
  O2-  O384  1  0.24994808  0.66614482  0.09651330  1
  O2-  O385  1  0.75000670  0.33357823  0.35009285  1
  O2-  O386  1  0.75006063  0.66159037  0.89947150  1
  O2-  O387  1  0.25007097  -0.00566561  0.83121041  1
  O2-  O388  1  0.75000010  0.65857095  0.08621709  1
  O2-  O389  1  0.24994735  0.34341748  0.16833097  1
  O2-  O390  1  0.25002468  -0.00304830  0.34747516  1
  O2-  O391  1  0.25001449  0.33782535  0.35122943  1
  O2-  O392  1  0.74999679  0.00189800  0.82546378  1
  O2-  O393  1  0.25002655  0.00058472  0.92435313  1
  O2-  O394  1  0.75000314  0.66607520  0.41845939  1
  O2-  O395  1  0.24996384  0.32581664  0.07820613  1
  O2-  O396  1  0.25002241  0.16246945  0.87404833  1
  O2-  O397  1  0.74999702  0.16321738  0.93064928  1
  O2-  O398  1  0.75001153  0.83711941  0.66035484  1
  O2-  O399  1  0.74994732  0.17296584  0.37427411  1
  O2-  O400  1  0.74999977  0.83382523  0.33359322  1
  O2-  O401  1  0.74989022  0.49199027  0.12055698  1
  O2-  O402  1  0.25001888  0.49899113  0.34055633  1
  O2-  O403  1  0.25003179  0.16638477  0.12643519  1
  O2-  O404  1  0.25005288  0.16844325  0.37062093  1
  O2-  O405  1  0.74999517  0.17495724  0.14580031  1
  O2-  O406  1  0.74996734  0.82855819  0.81446763  1
  O2-  O407  1  0.74998695  0.83231280  0.41719259  1
  O2-  O408  1  0.74995193  0.17065114  0.84519539  1
  O2-  O409  1  0.25003081  0.83545360  0.41010850  1
  O2-  O410  1  0.75004430  0.83302138  0.89333843  1
  O2-  O411  1  0.74994237  0.49067406  0.34234405  1
  O2-  O412  1  0.74994089  0.83332153  0.12863292  1
  O2-  O413  1  0.74990912  0.50112621  0.42140446  1
  O2-  O414  1  0.25001534  0.83440880  0.84344677  1
  O2-  O415  1  0.75001942  0.16138626  0.06477030  1
  O2-  O416  1  0.25000651  0.83500030  0.65673631  1
  O2-  O417  1  0.74996097  0.49970925  0.90873468  1
  O2-  O418  1  0.24992286  0.50060120  0.65798073  1
  O2-  O419  1  0.25006380  0.15876716  0.63178834  1
  O2-  O420  1  0.97568421  0.00078094  0.12436482  1
  O2-  O421  1  0.97196866  0.00038867  0.62460937  1
  O2-  O422  1  0.47517359  0.66310876  0.37004248  1
  O2-  O423  1  0.02841046  0.66738801  0.62587731  1
  O2-  O424  1  0.47257332  -0.00028827  0.12465606  1
  O2-  O425  1  0.52950739  0.32413270  0.87108642  1
  O2-  O426  1  0.52568715  0.33856334  0.37940451  1
  O2-  O427  1  0.52691871  -0.00187626  0.37760328  1
  O2-  O428  1  0.03220598  0.33411530  0.87433563  1
  O2-  O429  1  0.03038491  -0.00368247  0.37048712  1
  O2-  O430  1  0.47207461  -0.00123678  0.62329641  1
  O2-  O431  1  0.97310862  0.32631845  0.87319143  1
  O2-  O432  1  0.02332990  0.33602741  0.12561449  1
  O2-  O433  1  0.53219368  0.33442294  0.62774830  1
  O2-  O434  1  0.97039885  0.32923084  0.62121484  1
  O2-  O435  1  0.52820510  0.66632423  0.12564166  1
  O2-  O436  1  0.03040638  0.33617917  0.62242296  1
  O2-  O437  1  0.46539019  0.33350713  0.87432318  1
  O2-  O438  1  0.46937638  0.33659397  0.62830203  1
  O2-  O439  1  0.02690171  0.66957652  0.87122989  1
  O2-  O440  1  0.52941779  0.00133833  0.62078857  1
  O2-  O441  1  0.47391199  0.00226325  0.87222432  1
  O2-  O442  1  0.52714862  0.66345152  0.62138486  1
  O2-  O443  1  0.97176781  0.00051483  0.37483968  1
