# generated using pymatgen
data_La7(Ru4O11)2
_symmetry_space_group_name_H-M   'P 1'
_cell_length_a   23.98895726
_cell_length_b   16.82845271
_cell_length_c   15.42540763
_cell_angle_alpha   89.99948663
_cell_angle_beta   89.99983214
_cell_angle_gamma   90.00021740
_symmetry_Int_Tables_number   1
_chemical_formula_structural   La7(Ru4O11)2
_chemical_formula_sum   'La84 Ru96 O264'
_cell_volume   6227.19129113
_cell_formula_units_Z   12
loop_
 _symmetry_equiv_pos_site_id
 _symmetry_equiv_pos_as_xyz
  1  'x, y, z'
loop_
 _atom_type_symbol
 _atom_type_oxidation_number
  La3+  3.0
  Ru4+  4.0
  O2-  -2.0
loop_
 _atom_site_type_symbol
 _atom_site_label
 _atom_site_symmetry_multiplicity
 _atom_site_fract_x
 _atom_site_fract_y
 _atom_site_fract_z
 _atom_site_occupancy
  La3+  La0  1  0.13806663  0.00127347  0.12574025  1
  La3+  La1  1  0.13885574  -0.00020211  0.37585852  1
  La3+  La2  1  0.13876288  -0.00076187  0.62418190  1
  La3+  La3  1  0.13822006  0.00028749  0.87409068  1
  La3+  La4  1  0.13810083  0.33324550  0.12558422  1
  La3+  La5  1  0.13959789  0.33324756  0.37562729  1
  La3+  La6  1  0.13809638  0.33306808  0.62376099  1
  La3+  La7  1  0.13790489  0.33237527  0.87519066  1
  La3+  La8  1  0.13834531  0.66688479  0.12532094  1
  La3+  La9  1  0.13959679  0.66739144  0.37776986  1
  La3+  La10  1  0.13855600  0.66731858  0.62236556  1
  La3+  La11  1  0.13725300  0.66682995  0.87530418  1
  La3+  La12  1  0.63950245  0.00007031  0.12538822  1
  La3+  La13  1  0.64072014  -0.00039846  0.37560011  1
  La3+  La14  1  0.64026853  -0.00062153  0.62342067  1
  La3+  La15  1  0.64031780  -0.00021137  0.87586710  1
  La3+  La16  1  0.63869996  0.33326604  0.12459747  1
  La3+  La17  1  0.63777001  0.33351499  0.37503922  1
  La3+  La18  1  0.63783397  0.33401898  0.62537773  1
  La3+  La19  1  0.63951958  0.33348135  0.87452586  1
  La3+  La20  1  0.63796874  0.66747474  0.12412507  1
  La3+  La21  1  0.63867545  0.66761347  0.37672400  1
  La3+  La22  1  0.64019871  0.66656622  0.62462315  1
  La3+  La23  1  0.63892193  0.66669873  0.87457032  1
  La3+  La24  1  0.36179259  0.00136249  0.12590506  1
  La3+  La25  1  0.36182555  -0.00032640  0.37649077  1
  La3+  La26  1  0.36051068  -0.00034902  0.62301054  1
  La3+  La27  1  0.36108304  0.00058685  0.87470115  1
  La3+  La28  1  0.36139082  0.33289303  0.12515015  1
  La3+  La29  1  0.36008913  0.33333756  0.37630418  1
  La3+  La30  1  0.36164085  0.33306906  0.62384906  1
  La3+  La31  1  0.36222458  0.33259057  0.87469183  1
  La3+  La32  1  0.36284967  0.66678020  0.12534138  1
  La3+  La33  1  0.36259991  0.66535478  0.37910151  1
  La3+  La34  1  0.36231740  0.66558625  0.62037170  1
  La3+  La35  1  0.36249346  0.66701738  0.87570859  1
  La3+  La36  1  0.85992775  0.00010640  0.12398456  1
  La3+  La37  1  0.85951833  -0.00005425  0.37547094  1
  La3+  La38  1  0.86076854  -0.00095681  0.62409054  1
  La3+  La39  1  0.86073346  -0.00044852  0.87624753  1
  La3+  La40  1  0.86122554  0.33328892  0.12471760  1
  La3+  La41  1  0.86173356  0.33321608  0.37482646  1
  La3+  La42  1  0.86147763  0.33403824  0.62632374  1
  La3+  La43  1  0.86091378  0.33329533  0.87388937  1
  La3+  La44  1  0.86222323  0.66859020  0.12170818  1
  La3+  La45  1  0.86068285  0.66752469  0.37652226  1
  La3+  La46  1  0.85973476  0.66700161  0.62497100  1
  La3+  La47  1  0.86227401  0.66797709  0.87658639  1
  La3+  La48  1  0.00112887  0.49726812  0.36645570  1
  La3+  La49  1  -0.00007356  0.50032736  0.61665974  1
  La3+  La50  1  0.00145046  0.83012844  0.13086930  1
  La3+  La51  1  0.49997638  0.50100159  0.88696774  1
  La3+  La52  1  0.49990611  0.50035613  0.11586801  1
  La3+  La53  1  0.49808314  0.49889545  0.63535114  1
  La3+  La54  1  0.49803171  0.16471443  0.13639442  1
  La3+  La55  1  0.00163401  0.49820526  0.38358845  1
  La3+  La56  1  0.00026051  0.16621304  0.11368592  1
  La3+  La57  1  0.49979126  0.16641963  0.88370719  1
  La3+  La58  1  0.50148637  0.83069155  0.88237575  1
  La3+  La59  1  0.49904699  0.83347183  0.36523655  1
  La3+  La60  1  0.50100959  0.50020680  0.61286882  1
  La3+  La61  1  0.49919256  0.16913722  0.11423888  1
  La3+  La62  1  -0.00026857  0.83390275  0.11124087  1
  La3+  La63  1  -0.00189985  0.83280570  0.86741934  1
  La3+  La64  1  0.49998293  0.16606294  0.61426044  1
  La3+  La65  1  0.49948229  0.83404178  0.61353148  1
  La3+  La66  1  -0.00005821  0.16609885  0.63628266  1
  La3+  La67  1  -0.00012051  0.49876866  0.11382763  1
  La3+  La68  1  -0.00074874  0.16811327  0.13398974  1
  La3+  La69  1  0.50052240  0.49853369  0.86647056  1
  La3+  La70  1  0.49988113  0.49953241  0.38583072  1
  La3+  La71  1  0.00038669  0.16677526  0.38599488  1
  La3+  La72  1  0.75002147  0.46751565  0.27444168  1
  La3+  La73  1  0.75002250  0.52741344  0.52421160  1
  La3+  La74  1  0.24994698  0.49746920  0.72633338  1
  La3+  La75  1  0.25003958  0.86186170  0.72508678  1
  La3+  La76  1  0.74991196  0.16456356  0.50037818  1
  La3+  La77  1  0.75004011  0.16532257  0.00028252  1
  La3+  La78  1  0.74999727  0.83519753  0.22580349  1
  La3+  La79  1  0.24992609  0.50073710  0.48080770  1
  La3+  La80  1  0.25001996  0.83159562  0.26741544  1
  La3+  La81  1  0.24974702  0.80369867  -0.02814112  1
  La3+  La82  1  0.25014032  0.50336202  -0.02175563  1
  La3+  La83  1  0.24995868  0.16645155  0.50849591  1
  Ru4+  Ru84  1  -0.00100003  0.00063826  0.00030217  1
  Ru4+  Ru85  1  -0.00127846  -0.00179463  0.25052384  1
  Ru4+  Ru86  1  -0.00042835  -0.00186547  0.49965604  1
  Ru4+  Ru87  1  0.00093721  0.00240848  0.75036892  1
  Ru4+  Ru88  1  0.00001023  0.33383180  -0.00335980  1
  Ru4+  Ru89  1  0.00034532  0.33275010  0.25164985  1
  Ru4+  Ru90  1  0.00100473  0.33378916  0.50049174  1
  Ru4+  Ru91  1  -0.00056150  0.33338833  0.75232362  1
  Ru4+  Ru92  1  -0.00171285  0.66731405  -0.00262219  1
  Ru4+  Ru93  1  0.00128261  0.67000509  0.24785661  1
  Ru4+  Ru94  1  0.00198942  0.67021331  0.50123599  1
  Ru4+  Ru95  1  -0.00186112  0.66400377  0.75086457  1
  Ru4+  Ru96  1  0.50041806  0.00091390  -0.00034030  1
  Ru4+  Ru97  1  0.49927520  -0.00092485  0.25016565  1
  Ru4+  Ru98  1  0.50083237  0.00115196  0.49787657  1
  Ru4+  Ru99  1  0.50084548  -0.00048846  0.75189427  1
  Ru4+  Ru100  1  0.50024739  0.33526295  -0.00012605  1
  Ru4+  Ru101  1  0.50094473  0.33242118  0.25268929  1
  Ru4+  Ru102  1  0.49995259  0.33321257  0.50083026  1
  Ru4+  Ru103  1  0.49760978  0.33584318  0.74636256  1
  Ru4+  Ru104  1  0.49977917  0.66635509  0.00005943  1
  Ru4+  Ru105  1  0.50001987  0.66665891  0.25068893  1
  Ru4+  Ru106  1  0.49803184  0.66656686  0.49822743  1
  Ru4+  Ru107  1  0.49903811  0.67059033  0.75002470  1
  Ru4+  Ru108  1  0.11200911  0.16651940  0.00029256  1
  Ru4+  Ru109  1  0.11482145  0.16939152  0.25058563  1
  Ru4+  Ru110  1  0.11234902  0.16671374  0.50003529  1
  Ru4+  Ru111  1  0.11246128  0.16659605  0.74992918  1
  Ru4+  Ru112  1  0.11266339  0.49787656  -0.00039694  1
  Ru4+  Ru113  1  0.11341446  0.49781073  0.24962857  1
  Ru4+  Ru114  1  0.11271161  0.50074567  0.49989461  1
  Ru4+  Ru115  1  0.11172569  0.49995231  0.74959701  1
  Ru4+  Ru116  1  0.11215278  0.83206502  -0.00046012  1
  Ru4+  Ru117  1  0.11121797  0.83389310  0.25113943  1
  Ru4+  Ru118  1  0.11263336  0.83312658  0.50018908  1
  Ru4+  Ru119  1  0.11327780  0.83725333  0.74931605  1
  Ru4+  Ru120  1  0.61353538  0.16753045  -0.00058713  1
  Ru4+  Ru121  1  0.61459683  0.16585279  0.25089377  1
  Ru4+  Ru122  1  0.61218111  0.16574852  0.49995859  1
  Ru4+  Ru123  1  0.61627815  0.16482540  0.74990124  1
  Ru4+  Ru124  1  0.61223420  0.49997479  0.00019732  1
  Ru4+  Ru125  1  0.61196386  0.49909475  0.25019570  1
  Ru4+  Ru126  1  0.61296939  0.50038535  0.49963109  1
  Ru4+  Ru127  1  0.61568917  0.49814082  0.75020129  1
  Ru4+  Ru128  1  0.61460157  0.83207905  -0.00002026  1
  Ru4+  Ru129  1  0.61233036  0.83360893  0.25001586  1
  Ru4+  Ru130  1  0.61407849  0.83330583  0.50005493  1
  Ru4+  Ru131  1  0.61290444  0.83349925  0.75023806  1
  Ru4+  Ru132  1  0.38662515  0.16622643  -0.00041479  1
  Ru4+  Ru133  1  0.38718649  0.16602364  0.25067678  1
  Ru4+  Ru134  1  0.38756659  0.16668590  0.50031634  1
  Ru4+  Ru135  1  0.38778465  0.16719129  0.74998402  1
  Ru4+  Ru136  1  0.38900292  0.50024747  0.00012708  1
  Ru4+  Ru137  1  0.38685292  0.50130195  0.25022572  1
  Ru4+  Ru138  1  0.38836039  0.50161975  0.50013984  1
  Ru4+  Ru139  1  0.38795504  0.49898502  0.74976965  1
  Ru4+  Ru140  1  0.38743580  0.83118718  0.00003242  1
  Ru4+  Ru141  1  0.38811050  0.83279364  0.24970955  1
  Ru4+  Ru142  1  0.38542341  0.83200121  0.50008611  1
  Ru4+  Ru143  1  0.38720289  0.83306222  0.75014001  1
  Ru4+  Ru144  1  0.88748406  0.16569598  -0.00020065  1
  Ru4+  Ru145  1  0.88718791  0.16569824  0.24990935  1
  Ru4+  Ru146  1  0.88774489  0.16594153  0.50018354  1
  Ru4+  Ru147  1  0.88787868  0.16633008  0.75061080  1
  Ru4+  Ru148  1  0.88784165  0.50095831  -0.00068785  1
  Ru4+  Ru149  1  0.88700870  0.49776095  0.24916631  1
  Ru4+  Ru150  1  0.88645333  0.49922544  0.49998713  1
  Ru4+  Ru151  1  0.88613051  0.49990384  0.74981501  1
  Ru4+  Ru152  1  0.88664480  0.83299988  -0.00091785  1
  Ru4+  Ru153  1  0.88591878  0.83342991  0.25064866  1
  Ru4+  Ru154  1  0.88618361  0.83465283  0.50000540  1
  Ru4+  Ru155  1  0.88633421  0.83024437  0.74984776  1
  Ru4+  Ru156  1  0.24991907  0.37635320  0.75165154  1
  Ru4+  Ru157  1  0.75011762  0.39558018  0.49996156  1
  Ru4+  Ru158  1  0.25010334  0.73558988  0.74882146  1
  Ru4+  Ru159  1  0.24985220  0.24461267  0.74908415  1
  Ru4+  Ru160  1  0.74968581  0.58327176  -0.00293476  1
  Ru4+  Ru161  1  0.25004088  0.25139766  0.24991988  1
  Ru4+  Ru162  1  0.75022645  0.08349558  0.74969658  1
  Ru4+  Ru163  1  0.24995821  0.41710510  0.25183304  1
  Ru4+  Ru164  1  0.25003481  0.93993989  0.00030445  1
  Ru4+  Ru165  1  0.25003476  0.94183114  0.24242863  1
  Ru4+  Ru166  1  0.24998614  0.58124163  0.25156846  1
  Ru4+  Ru167  1  0.25001792  0.61793328  0.75162713  1
  Ru4+  Ru168  1  0.25018563  0.62452498  0.00373089  1
  Ru4+  Ru169  1  0.25008126  0.71973644  0.24976630  1
  Ru4+  Ru170  1  0.24983135  0.08757170  0.74906981  1
  Ru4+  Ru171  1  0.75012951  0.24580459  0.24793081  1
  Ru4+  Ru172  1  0.24980069  0.24363858  -0.00034317  1
  Ru4+  Ru173  1  0.74999476  0.91566913  0.75040882  1
  Ru4+  Ru174  1  0.25012336  0.38413824  0.00333146  1
  Ru4+  Ru175  1  0.75000386  0.59615912  0.24999345  1
  Ru4+  Ru176  1  0.74991441  0.75252892  0.74822509  1
  Ru4+  Ru177  1  0.74990145  0.41555488  -0.00327256  1
  Ru4+  Ru178  1  0.24976490  0.08581867  -0.00050202  1
  Ru4+  Ru179  1  0.75015381  0.24862148  0.75148407  1
  O2-  O180  1  0.16811749  0.08015136  -0.00038833  1
  O2-  O181  1  0.16844237  0.08123121  0.24928659  1
  O2-  O182  1  0.16723632  0.08085771  0.49971010  1
  O2-  O183  1  0.16838224  0.08066827  0.75050253  1
  O2-  O184  1  0.16650175  0.41335781  -0.00036922  1
  O2-  O185  1  0.16834901  0.41464515  0.24966212  1
  O2-  O186  1  0.16702228  0.41393399  0.50110189  1
  O2-  O187  1  0.16658776  0.41255094  0.75019548  1
  O2-  O188  1  0.16726908  0.74636698  0.00051147  1
  O2-  O189  1  0.16646982  0.74615849  0.24901132  1
  O2-  O190  1  0.16675303  0.74906092  0.50047884  1
  O2-  O191  1  0.16722918  0.74667488  0.75023841  1
  O2-  O192  1  0.66738018  0.08127526  0.00009156  1
  O2-  O193  1  0.66756297  0.08246675  0.24958064  1
  O2-  O194  1  0.66858026  0.08183105  0.49996120  1
  O2-  O195  1  0.66815789  0.08087004  0.74982309  1
  O2-  O196  1  0.66789088  0.41383349  -0.00002589  1
  O2-  O197  1  0.66746150  0.41312327  0.25005945  1
  O2-  O198  1  0.66781304  0.41325764  0.49973790  1
  O2-  O199  1  0.66669170  0.41422897  0.74950092  1
  O2-  O200  1  0.66682587  0.74846381  0.00024732  1
  O2-  O201  1  0.66785930  0.74698061  0.24992154  1
  O2-  O202  1  0.66736862  0.74849443  0.50011120  1
  O2-  O203  1  0.66823892  0.74746019  0.74951045  1
  O2-  O204  1  0.33239366  0.25265478  -0.00051857  1
  O2-  O205  1  0.33193729  0.25255929  0.24969916  1
  O2-  O206  1  0.33298543  0.25299924  0.50062038  1
  O2-  O207  1  0.33125343  0.25238676  0.74987093  1
  O2-  O208  1  0.33311818  0.58769068  -0.00010361  1
  O2-  O209  1  0.33230982  0.58548886  0.24932760  1
  O2-  O210  1  0.33189817  0.58540224  0.49977190  1
  O2-  O211  1  0.33320107  0.58724218  0.75031824  1
  O2-  O212  1  0.33218561  0.92053476  -0.00031142  1
  O2-  O213  1  0.33314969  0.92036796  0.24958339  1
  O2-  O214  1  0.33266922  0.91851938  0.50021757  1
  O2-  O215  1  0.33248732  0.92016879  0.75095974  1
  O2-  O216  1  0.83213342  0.25250641  0.00001606  1
  O2-  O217  1  0.83204063  0.25321910  0.25067509  1
  O2-  O218  1  0.83140280  0.25265673  0.49975375  1
  O2-  O219  1  0.83238545  0.25210731  0.74885406  1
  O2-  O220  1  0.83303512  0.58535722  0.00016163  1
  O2-  O221  1  0.83281908  0.58683933  0.25051986  1
  O2-  O222  1  0.83309082  0.58597849  0.49942400  1
  O2-  O223  1  0.83336739  0.58518152  0.74999117  1
  O2-  O224  1  0.83315983  0.91765405  0.00104745  1
  O2-  O225  1  0.83221527  0.91845131  0.24958515  1
  O2-  O226  1  0.83254876  0.91774393  0.49949454  1
  O2-  O227  1  0.83193091  0.91896688  0.74959830  1
  O2-  O228  1  0.16792938  0.25308603  -0.00068254  1
  O2-  O229  1  0.16840802  0.25221561  0.24965881  1
  O2-  O230  1  0.16705066  0.25265228  0.50074961  1
  O2-  O231  1  0.16829479  0.25302674  0.75021485  1
  O2-  O232  1  0.16700909  0.58696499  -0.00016642  1
  O2-  O233  1  0.16834862  0.58604560  0.24915482  1
  O2-  O234  1  0.16748061  0.58519932  0.50042393  1
  O2-  O235  1  0.16655985  0.58690573  0.75014787  1
  O2-  O236  1  0.16736975  0.92059662  -0.00026748  1
  O2-  O237  1  0.16720382  0.92010115  0.24919826  1
  O2-  O238  1  0.16655463  0.91821633  0.49975560  1
  O2-  O239  1  0.16749257  0.91962007  0.75113911  1
  O2-  O240  1  0.66858427  0.25251560  -0.00042876  1
  O2-  O241  1  0.66755120  0.25248373  0.25058302  1
  O2-  O242  1  0.66836155  0.25260456  0.50011657  1
  O2-  O243  1  0.66844745  0.25167985  0.74944617  1
  O2-  O244  1  0.66747525  0.58603288  0.00017586  1
  O2-  O245  1  0.66657212  0.58672141  0.24974901  1
  O2-  O246  1  0.66625647  0.58590626  0.49939960  1
  O2-  O247  1  0.66733302  0.58617909  0.74992045  1
  O2-  O248  1  0.66763474  0.91831574  0.00066108  1
  O2-  O249  1  0.66739986  0.91852148  0.24944580  1
  O2-  O250  1  0.66657419  0.91795702  0.50004894  1
  O2-  O251  1  0.66785131  0.91914797  0.74958012  1
  O2-  O252  1  0.33176140  0.08081177  -0.00016470  1
  O2-  O253  1  0.33232088  0.08101369  0.24955231  1
  O2-  O254  1  0.33294215  0.08086107  0.49983247  1
  O2-  O255  1  0.33201209  0.08104554  0.75018590  1
  O2-  O256  1  0.33358179  0.41264314  -0.00007879  1
  O2-  O257  1  0.33172617  0.41419539  0.24966657  1
  O2-  O258  1  0.33310615  0.41393994  0.50064335  1
  O2-  O259  1  0.33322855  0.41294996  0.74983774  1
  O2-  O260  1  0.33320511  0.74637234  0.00019260  1
  O2-  O261  1  0.33315250  0.74607067  0.24945461  1
  O2-  O262  1  0.33339545  0.74877317  0.50019081  1
  O2-  O263  1  0.33337383  0.74654480  0.75041848  1
  O2-  O264  1  0.83198604  0.08175398  0.00054744  1
  O2-  O265  1  0.83300702  0.08140920  0.25006858  1
  O2-  O266  1  0.83195598  0.08188022  0.49959076  1
  O2-  O267  1  0.83157087  0.08144778  0.74949873  1
  O2-  O268  1  0.83184811  0.41451346  0.00026772  1
  O2-  O269  1  0.83269072  0.41352848  0.25045091  1
  O2-  O270  1  0.83242122  0.41331440  0.49991087  1
  O2-  O271  1  0.83280395  0.41477266  0.74946975  1
  O2-  O272  1  0.83208694  0.74842153  0.00044775  1
  O2-  O273  1  0.83182534  0.74746475  0.25013986  1
  O2-  O274  1  0.83356211  0.74873970  0.49959959  1
  O2-  O275  1  0.83263008  0.74863645  0.74977568  1
  O2-  O276  1  0.54185061  0.10386008  0.77584735  1
  O2-  O277  1  0.95253119  0.56991897  0.98559867  1
  O2-  O278  1  0.95568885  0.56838425  0.76387369  1
  O2-  O279  1  0.45524063  0.56849020  0.26326146  1
  O2-  O280  1  0.95939467  0.89677715  0.22482122  1
  O2-  O281  1  0.95522561  0.23582388  0.51545982  1
  O2-  O282  1  0.95814978  0.77127687  0.27628841  1
  O2-  O283  1  0.54590839  0.09728338  0.01216193  1
  O2-  O284  1  0.95356049  0.09817294  0.51425110  1
  O2-  O285  1  0.04654904  0.09912244  0.51395175  1
  O2-  O286  1  0.54642554  0.56768741  0.74847655  1
  O2-  O287  1  0.03986163  0.77715655  0.74927270  1
  O2-  O288  1  0.45761951  0.55919507  0.51046708  1
  O2-  O289  1  0.54582491  0.23809768  0.23718973  1
  O2-  O290  1  0.95416679  0.90211266  0.77005524  1
  O2-  O291  1  0.95556077  0.90070205  0.73104143  1
  O2-  O292  1  0.03444910  0.11460080  0.25982577  1
  O2-  O293  1  0.53591246  0.11506448  0.25732005  1
  O2-  O294  1  0.45355319  0.10051617  0.73446033  1
  O2-  O295  1  0.96722426  0.44816488  0.99486481  1
  O2-  O296  1  0.95258643  0.75986833  0.01235336  1
  O2-  O297  1  0.04531475  0.90165341  0.98427360  1
  O2-  O298  1  0.45409949  0.23414049  0.98498158  1
  O2-  O299  1  0.45135209  0.56957021  0.76466053  1
  O2-  O300  1  0.54749429  0.57011243  0.48519537  1
  O2-  O301  1  0.45523334  0.76657150  0.73561886  1
  O2-  O302  1  0.03481674  0.11392667  0.24201384  1
  O2-  O303  1  0.95946231  0.77235411  0.98953949  1
  O2-  O304  1  0.54525092  0.76483242  0.26430783  1
  O2-  O305  1  0.53804836  0.22474764  0.75035527  1
  O2-  O306  1  0.04693073  0.76593079  0.26414900  1
  O2-  O307  1  0.04582905  0.90122384  0.51412284  1
  O2-  O308  1  0.95830547  0.55995968  0.27561634  1
  O2-  O309  1  0.53802474  0.22474307  0.75047646  1
  O2-  O310  1  0.45211829  0.09852011  0.26566318  1
  O2-  O311  1  0.05643794  0.58275845  0.96263598  1
  O2-  O312  1  0.04120663  0.56071779  0.22221146  1
  O2-  O313  1  0.44921855  0.91080251  0.47901943  1
  O2-  O314  1  0.04159878  0.77264891  0.73613373  1
  O2-  O315  1  0.45097231  0.57208806  0.48806476  1
  O2-  O316  1  0.95473532  0.23355994  0.76352106  1
  O2-  O317  1  0.45970456  0.43767079  0.27614273  1
  O2-  O318  1  0.55068062  0.42302031  0.51813720  1
  O2-  O319  1  0.54209677  0.89383113  0.02584666  1
  O2-  O320  1  0.54643981  0.56740104  0.75194974  1
  O2-  O321  1  0.45731000  0.89515319  0.97510997  1
  O2-  O322  1  0.95988194  0.55967003  0.47408951  1
  O2-  O323  1  0.95121810  0.76362541  0.73494978  1
  O2-  O324  1  0.05080385  0.57346042  0.96779891  1
  O2-  O325  1  0.56555973  0.26302097  0.03023809  1
  O2-  O326  1  0.43623957  0.93117635  0.28156439  1
  O2-  O327  1  0.93066878  0.60412554  0.20437350  1
  O2-  O328  1  0.57232860  0.27367802  0.69664952  1
  O2-  O329  1  0.07792187  0.71857898  0.79295861  1
  O2-  O330  1  0.56984744  0.06367552  0.70960814  1
  O2-  O331  1  0.06479692  0.92941024  0.28259246  1
  O2-  O332  1  0.93121707  0.72959501  0.20679660  1
  O2-  O333  1  0.06524379  0.40502601  0.21965068  1
  O2-  O334  1  0.55937186  0.41156360  0.52511439  1
  O2-  O335  1  0.43579122  0.93107648  0.79878909  1
  O2-  O336  1  0.43190321  0.60067176  0.53153416  1
  O2-  O337  1  0.93600240  0.92992951  0.96702690  1
  O2-  O338  1  0.93522963  0.40383574  0.22009590  1
  O2-  O339  1  0.56924029  0.93596496  0.96003784  1
  O2-  O340  1  0.42972055  0.39753659  0.20965954  1
  O2-  O341  1  0.93072801  0.60694072  0.54642885  1
  O2-  O342  1  0.93562017  0.40183890  0.46718789  1
  O2-  O343  1  0.43470925  0.92818946  0.70519148  1
  O2-  O344  1  0.43531997  0.73570022  0.21744209  1
  O2-  O345  1  0.93495799  0.93020280  0.52940446  1
  O2-  O346  1  0.57210788  0.27264422  0.80176503  1
  O2-  O347  1  0.43566512  0.73837884  0.46966244  1
  O2-  O348  1  0.07032739  0.60293393  0.29108267  1
  O2-  O349  1  0.56369218  0.73525371  0.46743743  1
  O2-  O350  1  0.92245041  0.38571840  0.96101024  1
  O2-  O351  1  0.93664742  0.06986062  0.96852958  1
  O2-  O352  1  0.43540245  0.06936529  0.03243777  1
  O2-  O353  1  0.06548371  0.40408391  0.03009750  1
  O2-  O354  1  0.57484266  0.04972516  0.29164081  1
  O2-  O355  1  0.06485803  0.26183280  0.28057226  1
  O2-  O356  1  0.93612734  0.40209874  0.71641985  1
  O2-  O357  1  0.06513575  0.59436545  0.46937094  1
  O2-  O358  1  0.93371878  0.73318546  0.96831652  1
  O2-  O359  1  0.56354615  0.06847841  0.46863328  1
  O2-  O360  1  0.07353836  0.05508520  0.31771333  1
  O2-  O361  1  0.06464588  0.73719318  0.47029796  1
  O2-  O362  1  0.06534704  0.93065498  0.72059418  1
  O2-  O363  1  0.56407528  0.73562764  0.78291615  1
  O2-  O364  1  0.43158538  0.93718559  0.04360097  1
  O2-  O365  1  0.06818090  0.60549601  0.05934521  1
  O2-  O366  1  0.43414613  0.26282381  0.78049601  1
  O2-  O367  1  0.56436382  0.40212990  0.28332183  1
  O2-  O368  1  0.44252859  0.92154143  0.47388014  1
  O2-  O369  1  0.93649726  0.06814896  0.78165561  1
  O2-  O370  1  0.93083837  0.93956733  0.29537390  1
  O2-  O371  1  0.07524595  0.05615449  0.18543005  1
  O2-  O372  1  0.24997195  -0.00013953  0.42066758  1
  O2-  O373  1  0.25008092  -0.00016095  0.67032032  1
  O2-  O374  1  0.74991391  0.66724345  0.59554346  1
  O2-  O375  1  0.25006696  0.00092846  0.58130198  1
  O2-  O376  1  0.25004875  0.32897172  0.10023598  1
  O2-  O377  1  0.74999772  0.33172060  0.07997579  1
  O2-  O378  1  0.74990364  0.33205616  0.84212374  1
  O2-  O379  1  0.75011734  0.66608795  0.42098478  1
  O2-  O380  1  0.75001765  0.66539617  0.82980422  1
  O2-  O381  1  0.74997407  0.00013127  0.08211420  1
  O2-  O382  1  0.75003112  0.33477777  0.17126492  1
  O2-  O383  1  0.75000208  0.66890874  0.91878208  1
  O2-  O384  1  0.75004470  -0.00063774  0.16813832  1
  O2-  O385  1  0.74980787  0.00110765  0.90367956  1
  O2-  O386  1  0.25017895  0.33361613  0.40397510  1
  O2-  O387  1  0.25004758  0.66623093  0.59723495  1
  O2-  O388  1  0.75005871  0.67309617  0.16594719  1
  O2-  O389  1  0.75010316  0.67259616  0.33411106  1
  O2-  O390  1  0.25007340  0.66530581  0.40297424  1
  O2-  O391  1  0.75011220  0.66828346  0.07778108  1
  O2-  O392  1  0.24994584  0.00576408  0.33389712  1
  O2-  O393  1  0.74998482  0.00133777  0.59700711  1
  O2-  O394  1  0.24996783  0.32926365  0.90157566  1
  O2-  O395  1  0.75016214  -0.00013204  0.34334095  1
  O2-  O396  1  0.74998575  0.50017923  0.83285401  1
  O2-  O397  1  0.25000665  0.16705850  0.62463185  1
  O2-  O398  1  0.24991002  0.49956463  0.11006481  1
  O2-  O399  1  0.75000712  0.16628883  0.84013492  1
  O2-  O400  1  0.25004659  0.49912965  0.60534214  1
  O2-  O401  1  0.74999118  0.16799231  0.16056626  1
  O2-  O402  1  0.24998065  0.83379436  0.37579996  1
  O2-  O403  1  0.75002274  0.50332182  0.15550273  1
  O2-  O404  1  0.24997330  0.83339720  0.15487131  1
  O2-  O405  1  0.75003015  0.83317279  0.34688507  1
  O2-  O406  1  0.74996182  0.83362375  0.83903486  1
  O2-  O407  1  0.25008752  0.83789884  0.08183894  1
  O2-  O408  1  0.24998731  0.16728811  0.39375530  1
  O2-  O409  1  0.75003921  0.49946992  0.07261089  1
  O2-  O410  1  0.24999642  0.83281250  0.59177416  1
  O2-  O411  1  0.25003180  0.50011241  0.85661412  1
  O2-  O412  1  0.25009307  0.16684234  0.09085765  1
  O2-  O413  1  0.25002608  0.83275702  0.85423094  1
  O2-  O414  1  0.75000480  0.49913872  0.39511564  1
  O2-  O415  1  0.75004756  0.83332019  0.42711454  1
  O2-  O416  1  0.25003948  0.16368495  0.31574450  1
  O2-  O417  1  0.24999379  0.49991901  0.33830267  1
  O2-  O418  1  0.75003805  0.49898111  0.65801758  1
  O2-  O419  1  0.74998725  0.49964705  0.91599393  1
  O2-  O420  1  0.52787313  0.66579379  0.12537383  1
  O2-  O421  1  0.52528901  0.33329845  0.62495720  1
  O2-  O422  1  0.47358408  0.66596292  0.37280868  1
  O2-  O423  1  0.47343231  0.66824610  0.62652904  1
  O2-  O424  1  0.02797023  0.33317426  0.62520853  1
  O2-  O425  1  0.52967184  -0.00243287  0.62192426  1
  O2-  O426  1  0.53138026  0.33637728  0.12571669  1
  O2-  O427  1  0.96902335  0.33109470  0.12287910  1
  O2-  O428  1  0.02658810  -0.00233123  0.12057631  1
  O2-  O429  1  0.02496880  0.66825822  0.87407047  1
  O2-  O430  1  0.02968883  0.32894057  0.12496860  1
  O2-  O431  1  0.02722178  0.66836010  0.37539571  1
  O2-  O432  1  0.46878858  0.33124489  0.12026223  1
  O2-  O433  1  0.97125875  0.00191471  0.62727093  1
  O2-  O434  1  0.52632670  0.00153817  0.87272553  1
  O2-  O435  1  0.47034733  0.00264810  0.62122783  1
  O2-  O436  1  0.96827117  0.66682794  0.37690019  1
  O2-  O437  1  0.02755375  0.66497153  0.62444510  1
  O2-  O438  1  0.52777604  0.00026952  0.12655745  1
  O2-  O439  1  0.02642330  0.33535299  0.37717636  1
  O2-  O440  1  0.97443461  0.33144116  0.87241533  1
  O2-  O441  1  0.46795038  0.33579001  0.87715779  1
  O2-  O442  1  0.53149261  0.33637789  0.88007573  1
  O2-  O443  1  0.02893638  0.00215401  0.62491832  1
