# generated using pymatgen
data_La7(Ru4O11)2
_symmetry_space_group_name_H-M   'P 1'
_cell_length_a   23.99068897
_cell_length_b   16.83065975
_cell_length_c   15.42727717
_cell_angle_alpha   90.00030836
_cell_angle_beta   89.99807483
_cell_angle_gamma   89.99799704
_symmetry_Int_Tables_number   1
_chemical_formula_structural   La7(Ru4O11)2
_chemical_formula_sum   'La84 Ru96 O264'
_cell_volume   6229.21244229
_cell_formula_units_Z   12
loop_
 _symmetry_equiv_pos_site_id
 _symmetry_equiv_pos_as_xyz
  1  'x, y, z'
loop_
 _atom_type_symbol
 _atom_type_oxidation_number
  La3+  3.0
  Ru4+  4.0
  O2-  -2.0
loop_
 _atom_site_type_symbol
 _atom_site_label
 _atom_site_symmetry_multiplicity
 _atom_site_fract_x
 _atom_site_fract_y
 _atom_site_fract_z
 _atom_site_occupancy
  La3+  La0  1  0.13584974  0.00259441  0.12875846  1
  La3+  La1  1  0.13812483  -0.00041460  0.37200525  1
  La3+  La2  1  0.13688530  -0.00339753  0.62155944  1
  La3+  La3  1  0.13452717  0.00296836  0.87645319  1
  La3+  La4  1  0.14196252  0.33207650  0.12027911  1
  La3+  La5  1  0.13451259  0.33211140  0.37351423  1
  La3+  La6  1  0.13763657  0.33450809  0.62634012  1
  La3+  La7  1  0.14259121  0.33158997  0.88076439  1
  La3+  La8  1  0.14405604  0.66071376  0.12838069  1
  La3+  La9  1  0.14026012  0.66523133  0.37994581  1
  La3+  La10  1  0.14102175  0.66341263  0.62309995  1
  La3+  La11  1  0.13349492  0.66645544  0.87605559  1
  La3+  La12  1  0.63853366  0.00113069  0.13376333  1
  La3+  La13  1  0.63890036  0.00341555  0.36998644  1
  La3+  La14  1  0.64350762  0.00111770  0.63181101  1
  La3+  La15  1  0.63814808  0.00617882  0.86751737  1
  La3+  La16  1  0.64218433  0.33348561  0.12601385  1
  La3+  La17  1  0.63723025  0.33621861  0.37726079  1
  La3+  La18  1  0.63544722  0.33973039  0.63741468  1
  La3+  La19  1  0.63424992  0.34110368  0.86618997  1
  La3+  La20  1  0.64595717  0.66490223  0.12357385  1
  La3+  La21  1  0.64638350  0.66458153  0.37071774  1
  La3+  La22  1  0.63381620  0.66902326  0.62462716  1
  La3+  La23  1  0.63783028  0.66365652  0.87813797  1
  La3+  La24  1  0.36548811  0.00293829  0.12154904  1
  La3+  La25  1  0.35958939  0.00085756  0.37373560  1
  La3+  La26  1  0.36241128  -0.00081673  0.62519755  1
  La3+  La27  1  0.36751800  0.00188905  0.87982413  1
  La3+  La28  1  0.35567536  0.33310888  0.12100670  1
  La3+  La29  1  0.36227526  0.33370315  0.37472036  1
  La3+  La30  1  0.36103182  0.33307317  0.62465847  1
  La3+  La31  1  0.35699807  0.33206063  0.87859147  1
  La3+  La32  1  0.36166559  0.66488638  0.12345063  1
  La3+  La33  1  0.36203974  0.66568159  0.37762376  1
  La3+  La34  1  0.35604525  0.66400391  0.62149896  1
  La3+  La35  1  0.36617539  0.66401907  0.87225518  1
  La3+  La36  1  0.85938733  0.00018106  0.12831224  1
  La3+  La37  1  0.85946188  0.00146070  0.37388802  1
  La3+  La38  1  0.85411940  0.00133763  0.62903199  1
  La3+  La39  1  0.86021522  0.00063553  0.86951715  1
  La3+  La40  1  0.86039078  0.33523044  0.12830358  1
  La3+  La41  1  0.85949404  0.33252992  0.37114584  1
  La3+  La42  1  0.85658558  0.32710378  0.62848120  1
  La3+  La43  1  0.86243205  0.33230592  0.87359092  1
  La3+  La44  1  0.85200248  0.66577952  0.12341958  1
  La3+  La45  1  0.85646257  0.66239437  0.37351085  1
  La3+  La46  1  0.86368165  0.66417102  0.62154515  1
  La3+  La47  1  0.85927434  0.66429597  0.87893866  1
  La3+  La48  1  -0.00204469  0.49609393  0.13549651  1
  La3+  La49  1  0.00083827  0.50112075  0.86166432  1
  La3+  La50  1  -0.00232419  0.16403068  0.38561546  1
  La3+  La51  1  0.50048900  0.84273783  0.88278274  1
  La3+  La52  1  -0.00081836  0.83610333  0.12694934  1
  La3+  La53  1  -0.00087775  0.49782633  0.88378297  1
  La3+  La54  1  -0.00155457  0.49975418  0.36984512  1
  La3+  La55  1  0.49698411  0.49867878  0.11627359  1
  La3+  La56  1  0.49655040  0.16311682  0.35662705  1
  La3+  La57  1  0.50404901  0.49686599  0.62894503  1
  La3+  La58  1  0.49506854  0.50523105  0.38085111  1
  La3+  La59  1  0.50140380  0.83318616  0.39126826  1
  La3+  La60  1  -0.00163820  0.83275899  0.38480841  1
  La3+  La61  1  0.00119966  0.16519951  0.61752810  1
  La3+  La62  1  -0.00356021  0.49682553  0.38612146  1
  La3+  La63  1  0.50016927  0.49052378  0.87927384  1
  La3+  La64  1  0.49774424  0.16613731  0.88166791  1
  La3+  La65  1  0.50300682  0.16138665  0.12171321  1
  La3+  La66  1  0.50031298  0.83338537  0.11728986  1
  La3+  La67  1  0.49479033  0.15430388  0.37393452  1
  La3+  La68  1  0.50127625  0.50473354  0.13673253  1
  La3+  La69  1  0.50313426  0.16297433  0.63895566  1
  La3+  La70  1  0.00122431  0.83087148  0.63571394  1
  La3+  La71  1  0.49776228  0.50006902  0.85943798  1
  La3+  La72  1  0.24931386  0.17299974  0.02807896  1
  La3+  La73  1  0.24946403  0.49382818  -0.03304753  1
  La3+  La74  1  0.25018468  0.83922026  0.02666278  1
  La3+  La75  1  0.74996074  0.16296284  0.53277545  1
  La3+  La76  1  0.24996089  0.15877722  0.51853152  1
  La3+  La77  1  0.75004872  0.78752939  -0.05052274  1
  La3+  La78  1  0.74996776  0.21723827  0.00242559  1
  La3+  La79  1  0.25026077  0.12385416  0.77252626  1
  La3+  La80  1  0.75203416  0.46225034  0.73192932  1
  La3+  La81  1  0.24927419  0.82745548  0.74809405  1
  La3+  La82  1  0.24987606  0.82836737  0.48303203  1
  La3+  La83  1  0.75023121  0.82868744  0.28919691  1
  Ru4+  Ru84  1  -0.00108340  0.00242213  -0.00429588  1
  Ru4+  Ru85  1  -0.00360907  0.00674940  0.25633793  1
  Ru4+  Ru86  1  -0.00341067  0.00340930  0.49673613  1
  Ru4+  Ru87  1  -0.00227536  0.00324976  0.75844529  1
  Ru4+  Ru88  1  -0.00062928  0.32462175  -0.00298211  1
  Ru4+  Ru89  1  0.00297690  0.32398632  0.25356719  1
  Ru4+  Ru90  1  -0.00579881  0.34014104  0.49764215  1
  Ru4+  Ru91  1  0.00304494  0.33666439  0.74799212  1
  Ru4+  Ru92  1  0.00005682  0.67130938  0.00801648  1
  Ru4+  Ru93  1  -0.00094725  0.66818892  0.24931864  1
  Ru4+  Ru94  1  0.00610257  0.67234212  0.50329786  1
  Ru4+  Ru95  1  0.00271760  0.66767127  0.74204178  1
  Ru4+  Ru96  1  0.50905439  -0.00076566  0.00114618  1
  Ru4+  Ru97  1  0.49081395  -0.00387721  0.24789949  1
  Ru4+  Ru98  1  0.49821922  0.00337850  0.50183082  1
  Ru4+  Ru99  1  0.49898499  -0.00848848  0.74740005  1
  Ru4+  Ru100  1  0.49884979  0.32507971  -0.00493754  1
  Ru4+  Ru101  1  0.50215475  0.33139495  0.24985081  1
  Ru4+  Ru102  1  0.50179952  0.33108837  0.50735376  1
  Ru4+  Ru103  1  0.49974498  0.33593933  0.75153779  1
  Ru4+  Ru104  1  0.49259102  0.67278348  0.00465661  1
  Ru4+  Ru105  1  0.50502142  0.66830780  0.25491172  1
  Ru4+  Ru106  1  0.49979185  0.66802929  0.50041415  1
  Ru4+  Ru107  1  0.49353943  0.66857438  0.74412504  1
  Ru4+  Ru108  1  0.10697155  0.16711094  0.00007350  1
  Ru4+  Ru109  1  0.11182022  0.16569256  0.24948587  1
  Ru4+  Ru110  1  0.10874856  0.16723069  0.49926931  1
  Ru4+  Ru111  1  0.10968068  0.16620892  0.74874663  1
  Ru4+  Ru112  1  0.11368467  0.49954972  0.00120097  1
  Ru4+  Ru113  1  0.11510957  0.49957525  0.24940002  1
  Ru4+  Ru114  1  0.11492133  0.50432979  0.49920895  1
  Ru4+  Ru115  1  0.11361297  0.50206383  0.74697394  1
  Ru4+  Ru116  1  0.11366853  0.83293419  -0.00062609  1
  Ru4+  Ru117  1  0.11526304  0.82855840  0.24882743  1
  Ru4+  Ru118  1  0.11274750  0.82599709  0.49929578  1
  Ru4+  Ru119  1  0.10957013  0.83204105  0.75195587  1
  Ru4+  Ru120  1  0.61149238  0.16911995  0.00087511  1
  Ru4+  Ru121  1  0.61864765  0.16862970  0.24916449  1
  Ru4+  Ru122  1  0.61193159  0.16930706  0.50450847  1
  Ru4+  Ru123  1  0.61616147  0.16870985  0.75065975  1
  Ru4+  Ru124  1  0.61891141  0.49840268  -0.00351973  1
  Ru4+  Ru125  1  0.61695071  0.49560513  0.25156378  1
  Ru4+  Ru126  1  0.61578000  0.50187357  0.50575793  1
  Ru4+  Ru127  1  0.61146693  0.49657295  0.74908290  1
  Ru4+  Ru128  1  0.61151002  0.83543749  0.00014822  1
  Ru4+  Ru129  1  0.61388774  0.82724988  0.25081902  1
  Ru4+  Ru130  1  0.61160832  0.83380926  0.50096849  1
  Ru4+  Ru131  1  0.61418040  0.84150389  0.75154283  1
  Ru4+  Ru132  1  0.38579439  0.17316241  -0.00003306  1
  Ru4+  Ru133  1  0.38705504  0.16422577  0.25037974  1
  Ru4+  Ru134  1  0.39338930  0.16628567  0.50171165  1
  Ru4+  Ru135  1  0.39254671  0.16720694  0.74893005  1
  Ru4+  Ru136  1  0.38382315  0.49954414  -0.00015648  1
  Ru4+  Ru137  1  0.38601434  0.49628204  0.25179514  1
  Ru4+  Ru138  1  0.38614442  0.50376110  0.49988086  1
  Ru4+  Ru139  1  0.38598320  0.50179590  0.74723043  1
  Ru4+  Ru140  1  0.38435754  0.82949398  0.00110173  1
  Ru4+  Ru141  1  0.38469654  0.83519853  0.24925265  1
  Ru4+  Ru142  1  0.38964123  0.83341710  0.49824311  1
  Ru4+  Ru143  1  0.39094974  0.83183907  0.74877069  1
  Ru4+  Ru144  1  0.89189081  0.17079056  -0.00163112  1
  Ru4+  Ru145  1  0.88777642  0.16463060  0.24927763  1
  Ru4+  Ru146  1  0.88753625  0.16552291  0.49845668  1
  Ru4+  Ru147  1  0.88631177  0.15963458  0.74940321  1
  Ru4+  Ru148  1  0.88580570  0.50507274  0.00331242  1
  Ru4+  Ru149  1  0.88145473  0.50203662  0.25008819  1
  Ru4+  Ru150  1  0.88562520  0.49411587  0.50128134  1
  Ru4+  Ru151  1  0.88989373  0.50049711  0.74927888  1
  Ru4+  Ru152  1  0.89071208  0.83380925  -0.00040752  1
  Ru4+  Ru153  1  0.88750069  0.83498709  0.24927473  1
  Ru4+  Ru154  1  0.88712006  0.83213928  0.50053638  1
  Ru4+  Ru155  1  0.88702816  0.83386497  0.74765205  1
  Ru4+  Ru156  1  0.25004924  0.02077955  0.49055051  1
  Ru4+  Ru157  1  0.25001448  0.76463495  0.25546573  1
  Ru4+  Ru158  1  0.74977855  0.74650721  0.49610228  1
  Ru4+  Ru159  1  0.75015250  0.23848475  0.75849492  1
  Ru4+  Ru160  1  0.24982781  0.27841026  0.75494398  1
  Ru4+  Ru161  1  0.25013801  0.29305560  0.47198501  1
  Ru4+  Ru162  1  0.75030885  0.75499358  0.73986286  1
  Ru4+  Ru163  1  0.75077979  0.42390155  -0.00650535  1
  Ru4+  Ru164  1  0.24960867  0.41559538  0.26268162  1
  Ru4+  Ru165  1  0.74950062  0.60515551  0.73917888  1
  Ru4+  Ru166  1  0.74989652  0.42373855  0.50142582  1
  Ru4+  Ru167  1  0.74990772  0.92405683  0.51123566  1
  Ru4+  Ru168  1  0.24984341  0.68523068  0.73461123  1
  Ru4+  Ru169  1  0.24998256  0.70434630  -0.02963901  1
  Ru4+  Ru170  1  0.24987906  0.42998497  0.50054682  1
  Ru4+  Ru171  1  0.75007289  0.24302339  0.23841760  1
  Ru4+  Ru172  1  0.74963715  0.92843429  -0.00107299  1
  Ru4+  Ru173  1  0.25015161  0.24155115  0.25634269  1
  Ru4+  Ru174  1  0.25008042  0.96456238  0.76329198  1
  Ru4+  Ru175  1  0.24879284  0.97796884  -0.00123620  1
  Ru4+  Ru176  1  0.25051247  0.57905579  0.26767169  1
  Ru4+  Ru177  1  0.24936527  0.91012838  0.25403096  1
  Ru4+  Ru178  1  0.25007330  0.42475383  0.74646243  1
  Ru4+  Ru179  1  0.74963612  0.07434402  -0.00722572  1
  O2-  O180  1  0.16747184  0.07892906  0.00063183  1
  O2-  O181  1  0.16526445  0.08288720  0.24783373  1
  O2-  O182  1  0.16529696  0.07672617  0.50076196  1
  O2-  O183  1  0.15999406  0.07659517  0.75068312  1
  O2-  O184  1  0.16688616  0.41584561  -0.00087769  1
  O2-  O185  1  0.16761933  0.41361837  0.25283726  1
  O2-  O186  1  0.16584695  0.41445923  0.50196836  1
  O2-  O187  1  0.16758454  0.41378339  0.75041272  1
  O2-  O188  1  0.17278903  0.74596278  -0.00540032  1
  O2-  O189  1  0.16772368  0.74991812  0.25067179  1
  O2-  O190  1  0.16918495  0.74798932  0.49648369  1
  O2-  O191  1  0.16944696  0.74217159  0.75019915  1
  O2-  O192  1  0.66520422  0.07955053  0.00090536  1
  O2-  O193  1  0.66524311  0.08315468  0.25120801  1
  O2-  O194  1  0.66353417  0.08230782  0.50124562  1
  O2-  O195  1  0.66574696  0.08319959  0.74962688  1
  O2-  O196  1  0.66855211  0.41387447  0.00017701  1
  O2-  O197  1  0.66984096  0.41398523  0.24939956  1
  O2-  O198  1  0.66738217  0.41383970  0.49856604  1
  O2-  O199  1  0.66679473  0.41444531  0.75173537  1
  O2-  O200  1  0.66212351  0.74624949  -0.00139326  1
  O2-  O201  1  0.66822280  0.74996277  0.24843395  1
  O2-  O202  1  0.66651660  0.74621928  0.50097491  1
  O2-  O203  1  0.66671635  0.75151345  0.74862589  1
  O2-  O204  1  0.33446103  0.25337334  0.00036252  1
  O2-  O205  1  0.33369492  0.25459022  0.25266180  1
  O2-  O206  1  0.33390208  0.25712842  0.49911717  1
  O2-  O207  1  0.33258705  0.25581705  0.74881743  1
  O2-  O208  1  0.33112701  0.58594161  -0.00496747  1
  O2-  O209  1  0.33329233  0.58717345  0.25265575  1
  O2-  O210  1  0.33271823  0.58356874  0.49804259  1
  O2-  O211  1  0.33215332  0.58696760  0.75096034  1
  O2-  O212  1  0.33284958  0.92284770  -0.00195211  1
  O2-  O213  1  0.33229318  0.91721686  0.24913604  1
  O2-  O214  1  0.33280349  0.92128057  0.49945453  1
  O2-  O215  1  0.33351993  0.92188101  0.75163928  1
  O2-  O216  1  0.84106792  0.25670174  0.00077423  1
  O2-  O217  1  0.83149055  0.25227381  0.24550478  1
  O2-  O218  1  0.83407593  0.25133085  0.49970384  1
  O2-  O219  1  0.83438184  0.24974244  0.75263873  1
  O2-  O220  1  0.83307872  0.58291483  0.00046998  1
  O2-  O221  1  0.83366176  0.58530159  0.24829254  1
  O2-  O222  1  0.83585654  0.58516342  0.50142842  1
  O2-  O223  1  0.83377334  0.58835033  0.74800980  1
  O2-  O224  1  0.83338470  0.91954832  -0.00140512  1
  O2-  O225  1  0.83111886  0.91781264  0.25199594  1
  O2-  O226  1  0.83325738  0.91939101  0.50151922  1
  O2-  O227  1  0.83622181  0.91669183  0.75077075  1
  O2-  O228  1  0.16622826  0.24938474  -0.00068143  1
  O2-  O229  1  0.16894378  0.25180098  0.25354008  1
  O2-  O230  1  0.16858803  0.25730150  0.49970927  1
  O2-  O231  1  0.16697650  0.25519816  0.74973483  1
  O2-  O232  1  0.16835879  0.58494019  -0.00229969  1
  O2-  O233  1  0.16727150  0.58453879  0.25337251  1
  O2-  O234  1  0.16751162  0.58341268  0.50082506  1
  O2-  O235  1  0.16773478  0.58656289  0.75403253  1
  O2-  O236  1  0.16583300  0.92212893  -0.00059611  1
  O2-  O237  1  0.16902266  0.91936668  0.24825029  1
  O2-  O238  1  0.16592969  0.91768383  0.50033403  1
  O2-  O239  1  0.16388743  0.92265016  0.75137052  1
  O2-  O240  1  0.65844758  0.25707930  -0.00103368  1
  O2-  O241  1  0.66745925  0.25504051  0.24883965  1
  O2-  O242  1  0.66862545  0.25163137  0.49820683  1
  O2-  O243  1  0.66606995  0.25155312  0.75166546  1
  O2-  O244  1  0.66500904  0.58353642  -0.00153790  1
  O2-  O245  1  0.66460943  0.58402859  0.24864678  1
  O2-  O246  1  0.66350605  0.58751175  0.50291725  1
  O2-  O247  1  0.66444718  0.58829575  0.74773631  1
  O2-  O248  1  0.66466779  0.92025865  -0.00003108  1
  O2-  O249  1  0.66532024  0.91793178  0.25275227  1
  O2-  O250  1  0.66517191  0.91822373  0.50088423  1
  O2-  O251  1  0.66802413  0.91700701  0.74953624  1
  O2-  O252  1  0.33077868  0.07934181  0.00033710  1
  O2-  O253  1  0.33688390  0.08011758  0.24946729  1
  O2-  O254  1  0.33342089  0.07604683  0.50017911  1
  O2-  O255  1  0.33951116  0.07595537  0.75047029  1
  O2-  O256  1  0.33226122  0.41427922  0.00040840  1
  O2-  O257  1  0.33321323  0.41222204  0.25160621  1
  O2-  O258  1  0.33369519  0.41418405  0.50129895  1
  O2-  O259  1  0.33428155  0.41330197  0.74795861  1
  O2-  O260  1  0.33034072  0.74531155  -0.00404095  1
  O2-  O261  1  0.32925057  0.75035867  0.25339701  1
  O2-  O262  1  0.33468899  0.74730681  0.49657413  1
  O2-  O263  1  0.33208030  0.74406598  0.75187314  1
  O2-  O264  1  0.83216758  0.08247579  0.00157459  1
  O2-  O265  1  0.83696769  0.08321084  0.25169041  1
  O2-  O266  1  0.83233935  0.08116701  0.50265178  1
  O2-  O267  1  0.83404501  0.08354382  0.75046623  1
  O2-  O268  1  0.83242865  0.41712698  0.00050097  1
  O2-  O269  1  0.83308672  0.41496414  0.24724669  1
  O2-  O270  1  0.83121137  0.41502053  0.49894420  1
  O2-  O271  1  0.83882508  0.41178709  0.75236407  1
  O2-  O272  1  0.83665975  0.74708506  -0.00124127  1
  O2-  O273  1  0.83534052  0.74872489  0.25061780  1
  O2-  O274  1  0.83341582  0.74675849  0.50141852  1
  O2-  O275  1  0.83068040  0.74875246  0.74724307  1
  O2-  O276  1  0.55061632  0.42683001  0.99374133  1
  O2-  O277  1  0.54875233  0.56768325  0.26745584  1
  O2-  O278  1  0.04102806  0.78906060  0.96217100  1
  O2-  O279  1  0.96411718  0.11053397  0.99577796  1
  O2-  O280  1  0.95242565  0.89929390  0.49497865  1
  O2-  O281  1  0.99153305  0.45163483  0.52085074  1
  O2-  O282  1  0.44902497  0.56810455  0.26203620  1
  O2-  O283  1  0.54797048  0.43893903  0.46402053  1
  O2-  O284  1  0.53396419  0.89714656  0.70548074  1
  O2-  O285  1  0.95069009  0.24044415  0.98882671  1
  O2-  O286  1  0.04476929  0.90493182  0.27099439  1
  O2-  O287  1  0.46055411  0.77941420  0.25075663  1
  O2-  O288  1  0.55135694  0.42270219  0.73645676  1
  O2-  O289  1  0.95510835  0.76506810  0.23726829  1
  O2-  O290  1  0.54368525  0.09823747  0.76571972  1
  O2-  O291  1  0.54345363  0.90499937  0.26940541  1
  O2-  O292  1  0.44968643  0.09803196  0.01288936  1
  O2-  O293  1  0.94994385  0.43554137  0.26302261  1
  O2-  O294  1  0.05132965  0.90146121  0.51659709  1
  O2-  O295  1  0.54583640  0.76375299  0.98725180  1
  O2-  O296  1  0.04885171  0.57042789  0.24375622  1
  O2-  O297  1  0.54922840  0.89881883  0.23162070  1
  O2-  O298  1  0.95490007  0.43591180  0.73612475  1
  O2-  O299  1  0.94628378  0.57243816  0.48034934  1
  O2-  O300  1  0.95380688  0.10041252  0.26175254  1
  O2-  O301  1  0.54908879  0.09491914  0.26051091  1
  O2-  O302  1  0.95031727  0.57011021  0.26089834  1
  O2-  O303  1  0.05355683  0.09272363  0.98128209  1
  O2-  O304  1  0.45628807  0.90798859  0.01100727  1
  O2-  O305  1  0.54809650  0.09797136  0.98308294  1
  O2-  O306  1  0.54551401  0.76625724  0.50812522  1
  O2-  O307  1  0.03720928  0.21564515  0.28380554  1
  O2-  O308  1  0.03092535  0.78484284  -0.00268545  1
  O2-  O309  1  0.54621048  0.57266559  0.97773357  1
  O2-  O310  1  0.54838546  0.75378431  0.73526100  1
  O2-  O311  1  0.53686828  0.21937781  0.47233774  1
  O2-  O312  1  0.45941796  0.77737609  0.26627907  1
  O2-  O313  1  0.95705219  0.57851367  0.51509089  1
  O2-  O314  1  0.04766522  0.42984007  0.26073920  1
  O2-  O315  1  0.05083714  0.90061518  0.23294957  1
  O2-  O316  1  0.94515007  0.75978404  0.01958595  1
  O2-  O317  1  0.54343783  0.43289202  0.75885813  1
  O2-  O318  1  0.55479645  0.76471816  0.77096087  1
  O2-  O319  1  0.55075326  0.57923904  0.76048880  1
  O2-  O320  1  0.94804677  0.23549755  0.73597341  1
  O2-  O321  1  0.54837209  0.56793781  0.01652126  1
  O2-  O322  1  0.45167489  0.42808865  0.51772898  1
  O2-  O323  1  0.45399314  0.78396473  0.79043228  1
  O2-  O324  1  0.43492265  0.07003348  0.02225250  1
  O2-  O325  1  0.93451398  0.26130744  0.28629202  1
  O2-  O326  1  0.93665778  0.07457905  0.47885461  1
  O2-  O327  1  0.06100416  0.93238418  0.53022814  1
  O2-  O328  1  0.93699375  0.26516565  0.72179017  1
  O2-  O329  1  0.06409158  0.58792349  0.72819989  1
  O2-  O330  1  0.56293940  0.07732681  0.77633699  1
  O2-  O331  1  0.43729244  0.59266808  0.47901371  1
  O2-  O332  1  0.06493778  0.74628979  0.77356834  1
  O2-  O333  1  0.43432894  0.74691601  0.02752090  1
  O2-  O334  1  0.06258833  0.25942819  0.48056124  1
  O2-  O335  1  0.43470858  0.58828589  0.02282026  1
  O2-  O336  1  0.43475707  0.92295971  0.02358555  1
  O2-  O337  1  0.41549171  0.72809246  0.20680322  1
  O2-  O338  1  0.56896170  0.41414724  0.18138989  1
  O2-  O339  1  0.43592940  0.59095875  0.77225417  1
  O2-  O340  1  0.56699284  0.73621357  0.28877822  1
  O2-  O341  1  0.43467104  0.93326163  0.78226014  1
  O2-  O342  1  0.43520861  0.40755567  0.97934925  1
  O2-  O343  1  0.93606914  0.07274311  0.77209660  1
  O2-  O344  1  0.94280222  0.40402009  0.27814733  1
  O2-  O345  1  0.57116698  0.93527201  0.81354146  1
  O2-  O346  1  0.93713914  0.59136275  0.07476380  1
  O2-  O347  1  0.07854336  0.27381743  0.20147196  1
  O2-  O348  1  0.08687614  0.71226754  0.05219316  1
  O2-  O349  1  0.57114808  0.39933971  0.78252533  1
  O2-  O350  1  0.56665370  0.40537549  0.59031718  1
  O2-  O351  1  0.06142066  0.58536796  0.97031474  1
  O2-  O352  1  0.93153899  0.58202355  0.93235044  1
  O2-  O353  1  0.92811780  0.37516299  0.57026936  1
  O2-  O354  1  0.93668061  0.73928385  0.71593981  1
  O2-  O355  1  0.06279714  0.59033874  0.46242244  1
  O2-  O356  1  0.56326353  0.41641432  0.44574266  1
  O2-  O357  1  0.93122769  0.39594263  0.42410143  1
  O2-  O358  1  0.93451338  0.92725061  0.27346084  1
  O2-  O359  1  0.06457282  0.40241714  0.72044840  1
  O2-  O360  1  0.57248397  0.26951573  0.56786096  1
  O2-  O361  1  0.06568139  0.25887677  0.02493783  1
  O2-  O362  1  0.06121920  0.40674581  0.96411519  1
  O2-  O363  1  0.93684585  0.92400727  0.02836286  1
  O2-  O364  1  0.93593633  0.40944844  0.97342031  1
  O2-  O365  1  0.06371557  0.74420277  0.42536313  1
  O2-  O366  1  0.56108866  0.07609145  0.28825537  1
  O2-  O367  1  0.92152929  0.06069773  0.96631522  1
  O2-  O368  1  0.06701021  0.75209736  0.56628277  1
  O2-  O369  1  0.42802636  0.72147614  0.68693175  1
  O2-  O370  1  0.56604952  0.41397961  0.30933324  1
  O2-  O371  1  0.06485383  0.06853522  0.28403313  1
  O2-  O372  1  0.24942417  0.33649349  0.88406511  1
  O2-  O373  1  0.74946256  0.33132082  0.67247859  1
  O2-  O374  1  0.74971536  0.65764557  0.93557226  1
  O2-  O375  1  0.74966018  -0.00587106  0.41001103  1
  O2-  O376  1  0.24985370  -0.00492660  0.34866821  1
  O2-  O377  1  0.25047250  0.32900281  0.08202132  1
  O2-  O378  1  0.75011226  0.67070779  0.09542279  1
  O2-  O379  1  0.74993990  0.32865700  0.57556176  1
  O2-  O380  1  0.74977522  -0.00476939  0.63233629  1
  O2-  O381  1  0.25034171  0.33245056  0.17460532  1
  O2-  O382  1  0.75056932  0.33982118  0.09557346  1
  O2-  O383  1  0.74969390  0.68020732  0.36121065  1
  O2-  O384  1  0.74922420  0.67932420  0.82936478  1
  O2-  O385  1  0.24998420  0.67239863  0.61226324  1
  O2-  O386  1  0.25046608  0.65275335  0.07092619  1
  O2-  O387  1  0.75055197  -0.00220762  0.18080725  1
  O2-  O388  1  0.25018418  0.33973083  0.60134675  1
  O2-  O389  1  0.25009323  0.66912290  0.19184316  1
  O2-  O390  1  0.74958738  0.00364523  0.09066202  1
  O2-  O391  1  0.74999519  0.33586020  0.93261669  1
  O2-  O392  1  0.24978667  0.00772599  0.64131966  1
  O2-  O393  1  0.74973740  -0.00216069  0.89220433  1
  O2-  O394  1  0.74980846  0.33496086  0.81313105  1
  O2-  O395  1  0.25043632  0.67220393  0.34904218  1
  O2-  O396  1  0.74970096  0.16021146  0.31000967  1
  O2-  O397  1  0.74972593  0.49952401  0.58553774  1
  O2-  O398  1  0.25067439  0.83825304  0.61341428  1
  O2-  O399  1  0.74992841  0.83729727  0.42675252  1
  O2-  O400  1  0.74997122  0.16932958  0.67075782  1
  O2-  O401  1  0.74997413  0.49842790  0.87352118  1
  O2-  O402  1  0.75005407  0.83275949  0.16047503  1
  O2-  O403  1  0.25018494  0.17290793  0.89431614  1
  O2-  O404  1  0.25031609  0.49937883  0.83043121  1
  O2-  O405  1  0.24999341  0.18645393  0.65231141  1
  O2-  O406  1  0.25015532  0.49075299  0.65697059  1
  O2-  O407  1  0.74988915  0.16302459  0.86675550  1
  O2-  O408  1  0.25024593  0.18068612  0.37181528  1
  O2-  O409  1  0.25003096  0.49249681  0.40475562  1
  O2-  O410  1  0.25016009  0.49962811  0.18516959  1
  O2-  O411  1  0.74971577  0.50338450  0.41694646  1
  O2-  O412  1  0.75009064  0.82725936  0.59140268  1
  O2-  O413  1  0.25032897  0.83311564  0.88675223  1
  O2-  O414  1  0.74985315  0.16310070  0.13383981  1
  O2-  O415  1  0.25002045  0.49833174  0.09819786  1
  O2-  O416  1  0.25027843  0.16853327  0.17042911  1
  O2-  O417  1  0.74981259  0.49577384  0.33359974  1
  O2-  O418  1  0.74983358  0.84204254  0.07533546  1
  O2-  O419  1  0.74990979  0.17236189  0.39618141  1
  O2-  O420  1  0.54355106  0.31622557  0.88860821  1
  O2-  O421  1  0.02065610  0.66268476  0.13284859  1
  O2-  O422  1  0.45591266  -0.00046936  0.14581871  1
  O2-  O423  1  0.98258656  -0.01251919  0.87695461  1
  O2-  O424  1  0.02690566  0.33977256  0.37506092  1
  O2-  O425  1  0.45530070  0.32525744  0.86274958  1
  O2-  O426  1  0.97277643  0.67080564  0.37812353  1
  O2-  O427  1  0.02705571  0.35035599  0.11488782  1
  O2-  O428  1  0.03254771  0.00072471  0.12287341  1
  O2-  O429  1  0.46708899  0.65381983  0.12853104  1
  O2-  O430  1  0.51497532  0.31654075  0.36992023  1
  O2-  O431  1  0.97158947  0.00315164  0.13179219  1
  O2-  O432  1  0.47701334  0.67228535  0.37588002  1
  O2-  O433  1  0.98005063  0.00047728  0.37358121  1
  O2-  O434  1  0.97620859  0.33053913  0.86696755  1
  O2-  O435  1  0.97014013  0.67810537  0.86469882  1
  O2-  O436  1  0.52556603  0.65612379  0.62241107  1
  O2-  O437  1  0.54511912  -0.00155441  0.11576299  1
  O2-  O438  1  0.47333936  0.66945433  0.88033831  1
  O2-  O439  1  0.01825346  0.66222165  0.62588481  1
  O2-  O440  1  0.54782825  0.67204124  0.13188739  1
  O2-  O441  1  0.52029418  0.31945481  0.11693886  1
  O2-  O442  1  0.96395804  0.33507028  0.12982157  1
  O2-  O443  1  0.02703058  0.66190839  0.87087117  1
