# generated using pymatgen
data_La7(Ru4O11)2
_symmetry_space_group_name_H-M   'P 1'
_cell_length_a   23.98873225
_cell_length_b   16.82803485
_cell_length_c   15.42510832
_cell_angle_alpha   90.00009996
_cell_angle_beta   89.99985014
_cell_angle_gamma   89.99994354
_symmetry_Int_Tables_number   1
_chemical_formula_structural   La7(Ru4O11)2
_chemical_formula_sum   'La84 Ru96 O264'
_cell_volume   6226.85743312
_cell_formula_units_Z   12
loop_
 _symmetry_equiv_pos_site_id
 _symmetry_equiv_pos_as_xyz
  1  'x, y, z'
loop_
 _atom_type_symbol
 _atom_type_oxidation_number
  La3+  3.0
  Ru4+  4.0
  O2-  -2.0
loop_
 _atom_site_type_symbol
 _atom_site_label
 _atom_site_symmetry_multiplicity
 _atom_site_fract_x
 _atom_site_fract_y
 _atom_site_fract_z
 _atom_site_occupancy
  La3+  La0  1  0.13886057  -0.00013631  0.12475187  1
  La3+  La1  1  0.13870148  -0.00001151  0.37369367  1
  La3+  La2  1  0.13732430  -0.00001624  0.62650645  1
  La3+  La3  1  0.13787899  -0.00056719  0.87403004  1
  La3+  La4  1  0.13864718  0.33323374  0.12593207  1
  La3+  La5  1  0.13770469  0.33326399  0.37304662  1
  La3+  La6  1  0.13793163  0.33259863  0.62581763  1
  La3+  La7  1  0.13893595  0.33262223  0.87522732  1
  La3+  La8  1  0.13862804  0.66661023  0.12509671  1
  La3+  La9  1  0.13879585  0.66732157  0.37538212  1
  La3+  La10  1  0.13965219  0.66695770  0.62409183  1
  La3+  La11  1  0.14027482  0.66681614  0.87588245  1
  La3+  La12  1  0.63785643  0.00006703  0.12532239  1
  La3+  La13  1  0.63974418  -0.00068837  0.37395567  1
  La3+  La14  1  0.63781242  -0.00082981  0.62438853  1
  La3+  La15  1  0.63696436  -0.00024971  0.87588096  1
  La3+  La16  1  0.63883579  0.33317543  0.12453040  1
  La3+  La17  1  0.63887486  0.33332662  0.37540468  1
  La3+  La18  1  0.63902667  0.33326567  0.62472929  1
  La3+  La19  1  0.63911516  0.33324007  0.87499976  1
  La3+  La20  1  0.63814866  0.66690046  0.12375085  1
  La3+  La21  1  0.63858017  0.66757058  0.37514140  1
  La3+  La22  1  0.63869653  0.66721855  0.62463332  1
  La3+  La23  1  0.63879545  0.66694130  0.87636652  1
  La3+  La24  1  0.36141266  0.00002121  0.12535736  1
  La3+  La25  1  0.36194074  -0.00013730  0.37387527  1
  La3+  La26  1  0.36188836  -0.00006810  0.62470653  1
  La3+  La27  1  0.36101966  -0.00054675  0.87559543  1
  La3+  La28  1  0.36122058  0.33250516  0.12547083  1
  La3+  La29  1  0.36159606  0.33289519  0.37330881  1
  La3+  La30  1  0.36213304  0.33304426  0.62553936  1
  La3+  La31  1  0.36158716  0.33270231  0.87536194  1
  La3+  La32  1  0.36154881  0.66665414  0.12446648  1
  La3+  La33  1  0.36039942  0.66687069  0.37524422  1
  La3+  La34  1  0.36026004  0.66664759  0.62462823  1
  La3+  La35  1  0.36000834  0.66714897  0.87628576  1
  La3+  La36  1  0.86176805  -0.00065554  0.12642509  1
  La3+  La37  1  0.86046143  -0.00079903  0.37410416  1
  La3+  La38  1  0.86224774  -0.00066676  0.62407801  1
  La3+  La39  1  0.86231242  -0.00033119  0.87566777  1
  La3+  La40  1  0.86168031  0.33348426  0.12498352  1
  La3+  La41  1  0.86135573  0.33365438  0.37501128  1
  La3+  La42  1  0.86155930  0.33335078  0.62511589  1
  La3+  La43  1  0.86096232  0.33334980  0.87465562  1
  La3+  La44  1  0.86130897  0.66644520  0.12504848  1
  La3+  La45  1  0.86146738  0.66758784  0.37494185  1
  La3+  La46  1  0.86170570  0.66711627  0.62514299  1
  La3+  La47  1  0.86119362  0.66611262  0.87474501  1
  La3+  La48  1  0.00062333  0.83524714  0.11697424  1
  La3+  La49  1  0.50152942  0.82847073  0.13455239  1
  La3+  La50  1  0.49955396  0.16718898  0.88484701  1
  La3+  La51  1  -0.00039632  0.16574271  0.86422375  1
  La3+  La52  1  -0.00026720  0.16614593  0.11598493  1
  La3+  La53  1  0.49995977  0.16711488  0.63650023  1
  La3+  La54  1  0.49981051  0.50040859  0.13480138  1
  La3+  La55  1  -0.00046809  0.50101660  0.36532201  1
  La3+  La56  1  0.50017731  0.16758162  0.36558221  1
  La3+  La57  1  -0.00130140  0.83112876  0.86719601  1
  La3+  La58  1  -0.00067357  0.50037215  0.86466316  1
  La3+  La59  1  0.49891214  0.83178498  0.61597222  1
  La3+  La60  1  0.50038353  0.50028931  0.88668349  1
  La3+  La61  1  0.00040350  0.16524881  0.88139914  1
  La3+  La62  1  -0.00005687  0.16560633  0.63566073  1
  La3+  La63  1  0.00061269  0.83284866  0.38357478  1
  La3+  La64  1  -0.00020471  0.50019653  0.11540969  1
  La3+  La65  1  0.49972859  0.16673016  0.38370653  1
  La3+  La66  1  0.50007689  0.50202712  0.38429264  1
  La3+  La67  1  0.49890995  0.83524674  0.11353385  1
  La3+  La68  1  0.49952473  0.50054578  0.36374855  1
  La3+  La69  1  0.50001442  0.49945974  0.61348828  1
  La3+  La70  1  -0.00012324  0.50049804  0.38292987  1
  La3+  La71  1  -0.00095461  0.83055682  0.61555512  1
  La3+  La72  1  0.24990817  0.50000075  0.23333648  1
  La3+  La73  1  0.75001499  0.19420281  0.75072446  1
  La3+  La74  1  0.75003265  0.47592302  0.50074580  1
  La3+  La75  1  0.24987357  0.83310820  0.26696685  1
  La3+  La76  1  0.74991261  0.19540851  0.50139938  1
  La3+  La77  1  0.74999397  0.14047591  0.26539577  1
  La3+  La78  1  0.75000332  0.19433328  -0.00002823  1
  La3+  La79  1  0.74989246  0.80238694  0.74902487  1
  La3+  La80  1  0.24996492  0.13984893  0.47498594  1
  La3+  La81  1  0.75007685  0.83461904  0.25176760  1
  La3+  La82  1  0.24992899  0.52948961  0.47778065  1
  La3+  La83  1  0.24993207  0.80519009  0.50149291  1
  Ru4+  Ru84  1  0.00086488  -0.00269790  0.00242387  1
  Ru4+  Ru85  1  -0.00030725  0.00109200  0.24840518  1
  Ru4+  Ru86  1  -0.00098443  0.00130932  0.49913569  1
  Ru4+  Ru87  1  -0.00319196  0.00146964  0.74923171  1
  Ru4+  Ru88  1  -0.00074497  0.33503123  0.00027548  1
  Ru4+  Ru89  1  -0.00148297  0.33091785  0.24987622  1
  Ru4+  Ru90  1  -0.00136807  0.33059738  0.50055815  1
  Ru4+  Ru91  1  -0.00232467  0.33536955  0.74798610  1
  Ru4+  Ru92  1  0.00076913  0.66497130  -0.00108541  1
  Ru4+  Ru93  1  0.00051811  0.66699903  0.25071779  1
  Ru4+  Ru94  1  -0.00105814  0.66425733  0.50091226  1
  Ru4+  Ru95  1  -0.00136091  0.66779778  0.74993502  1
  Ru4+  Ru96  1  0.49858888  -0.00292020  -0.00282118  1
  Ru4+  Ru97  1  0.50141113  -0.00180322  0.24964440  1
  Ru4+  Ru98  1  0.49940660  0.00195847  0.50179222  1
  Ru4+  Ru99  1  0.49999124  -0.00012971  0.75094676  1
  Ru4+  Ru100  1  0.49988300  0.33314565  -0.00130830  1
  Ru4+  Ru101  1  0.49903515  0.33236083  0.25113088  1
  Ru4+  Ru102  1  0.50017286  0.33307468  0.50011633  1
  Ru4+  Ru103  1  0.50034126  0.33179378  0.75046611  1
  Ru4+  Ru104  1  0.49852533  0.66446729  -0.00096932  1
  Ru4+  Ru105  1  0.49968009  0.66607116  0.24997686  1
  Ru4+  Ru106  1  0.50000936  0.66684768  0.50065633  1
  Ru4+  Ru107  1  0.49997398  0.67020433  0.74882957  1
  Ru4+  Ru108  1  0.11443088  0.16580418  0.00057631  1
  Ru4+  Ru109  1  0.11304539  0.16708981  0.24981116  1
  Ru4+  Ru110  1  0.11219329  0.16703835  0.49988030  1
  Ru4+  Ru111  1  0.11543019  0.16657824  0.74977572  1
  Ru4+  Ru112  1  0.11310720  0.50110237  0.00014662  1
  Ru4+  Ru113  1  0.11374988  0.50200906  0.24942519  1
  Ru4+  Ru114  1  0.11436922  0.50365655  0.50093942  1
  Ru4+  Ru115  1  0.11457126  0.50062693  0.74992979  1
  Ru4+  Ru116  1  0.11372801  0.83295474  -0.00021393  1
  Ru4+  Ru117  1  0.11242540  0.83299766  0.25031590  1
  Ru4+  Ru118  1  0.11456331  0.83326691  0.50001695  1
  Ru4+  Ru119  1  0.11508320  0.83182291  0.75024103  1
  Ru4+  Ru120  1  0.61368557  0.16886485  0.00041042  1
  Ru4+  Ru121  1  0.61212543  0.16673019  0.24959391  1
  Ru4+  Ru122  1  0.61224707  0.16651076  0.50012125  1
  Ru4+  Ru123  1  0.61190021  0.16768835  0.75014252  1
  Ru4+  Ru124  1  0.61311624  0.50080448  -0.00023784  1
  Ru4+  Ru125  1  0.61323866  0.50140474  0.24980114  1
  Ru4+  Ru126  1  0.61236749  0.50053049  0.50030769  1
  Ru4+  Ru127  1  0.61335939  0.49841651  0.75007234  1
  Ru4+  Ru128  1  0.61404314  0.83513720  -0.00037507  1
  Ru4+  Ru129  1  0.61285902  0.83378007  0.25033982  1
  Ru4+  Ru130  1  0.61587055  0.83031641  0.49908753  1
  Ru4+  Ru131  1  0.61231906  0.83310768  0.74975766  1
  Ru4+  Ru132  1  0.38696339  0.16728448  -0.00015695  1
  Ru4+  Ru133  1  0.38529355  0.16893224  0.25006372  1
  Ru4+  Ru134  1  0.38581843  0.16882672  0.49974666  1
  Ru4+  Ru135  1  0.38761129  0.16703418  0.75025224  1
  Ru4+  Ru136  1  0.38688542  0.50114574  0.00006617  1
  Ru4+  Ru137  1  0.38773027  0.50028880  0.24955616  1
  Ru4+  Ru138  1  0.38754921  0.50146045  0.50015249  1
  Ru4+  Ru139  1  0.38554988  0.50042744  0.74994429  1
  Ru4+  Ru140  1  0.38596454  0.83274584  -0.00077589  1
  Ru4+  Ru141  1  0.38723547  0.83264211  0.25084067  1
  Ru4+  Ru142  1  0.38785078  0.83286867  0.49995151  1
  Ru4+  Ru143  1  0.38740971  0.83333973  0.74980283  1
  Ru4+  Ru144  1  0.88694172  0.16879109  0.00004344  1
  Ru4+  Ru145  1  0.88842891  0.16610527  0.24960964  1
  Ru4+  Ru146  1  0.88716583  0.16597373  0.49996197  1
  Ru4+  Ru147  1  0.88798363  0.16732009  0.74979866  1
  Ru4+  Ru148  1  0.88687018  0.50115023  -0.00010984  1
  Ru4+  Ru149  1  0.88781975  0.50008459  0.25003898  1
  Ru4+  Ru150  1  0.88805794  0.49943139  0.49999884  1
  Ru4+  Ru151  1  0.88731348  0.50029045  0.75029731  1
  Ru4+  Ru152  1  0.88665743  0.83483102  -0.00002908  1
  Ru4+  Ru153  1  0.88754306  0.83374421  0.24947738  1
  Ru4+  Ru154  1  0.88625446  0.83350768  0.49987591  1
  Ru4+  Ru155  1  0.88787640  0.83288587  0.74994570  1
  Ru4+  Ru156  1  0.25022101  0.25055542  0.75029710  1
  Ru4+  Ru157  1  0.75014172  0.58082552  0.24957760  1
  Ru4+  Ru158  1  0.74997474  0.06664131  0.49249892  1
  Ru4+  Ru159  1  0.24992013  0.08728776  0.25040512  1
  Ru4+  Ru160  1  0.74997143  0.41963095  0.24803486  1
  Ru4+  Ru161  1  0.74995732  0.06871115  0.75666197  1
  Ru4+  Ru162  1  0.74991751  0.93008976  0.75559897  1
  Ru4+  Ru163  1  0.25003207  0.41822309  0.75049077  1
  Ru4+  Ru164  1  0.25003483  0.26422611  0.50658077  1
  Ru4+  Ru165  1  0.75004302  0.58006829  0.74998293  1
  Ru4+  Ru166  1  0.75005362  0.60374814  0.49861059  1
  Ru4+  Ru167  1  0.75004183  0.75307872  -0.00039540  1
  Ru4+  Ru168  1  0.25004061  0.93559827  0.49996312  1
  Ru4+  Ru169  1  0.75019514  0.06856501  -0.00234886  1
  Ru4+  Ru170  1  0.24997207  0.08732628  0.00200174  1
  Ru4+  Ru171  1  0.25000922  0.40251956  0.50648485  1
  Ru4+  Ru172  1  0.25009152  0.75312564  0.75158651  1
  Ru4+  Ru173  1  0.24999612  0.41865746  -0.00043521  1
  Ru4+  Ru174  1  0.25003261  0.91240924  0.75082927  1
  Ru4+  Ru175  1  0.25001777  0.08210000  0.75142292  1
  Ru4+  Ru176  1  0.75001161  0.41970514  0.75077541  1
  Ru4+  Ru177  1  0.75002538  0.42025834  0.00236713  1
  Ru4+  Ru178  1  0.74989114  0.26836759  0.24611446  1
  Ru4+  Ru179  1  0.74999662  0.91130842  -0.00128791  1
  O2-  O180  1  0.16774123  0.08105861  -0.00023090  1
  O2-  O181  1  0.16799571  0.08085252  0.24993546  1
  O2-  O182  1  0.16793979  0.08038120  0.50068267  1
  O2-  O183  1  0.16795029  0.08080018  0.74951421  1
  O2-  O184  1  0.16843125  0.41411323  0.00026455  1
  O2-  O185  1  0.16776112  0.41400753  0.24992043  1
  O2-  O186  1  0.16756743  0.41307613  0.49998663  1
  O2-  O187  1  0.16770688  0.41425617  0.74993332  1
  O2-  O188  1  0.16703499  0.74811246  0.00056771  1
  O2-  O189  1  0.16840017  0.74740861  0.24952496  1
  O2-  O190  1  0.16656430  0.74792816  0.50012856  1
  O2-  O191  1  0.16808611  0.74776002  0.74975588  1
  O2-  O192  1  0.66757800  0.07964360  -0.00030321  1
  O2-  O193  1  0.66668657  0.08084146  0.24990961  1
  O2-  O194  1  0.66736128  0.08031616  0.49989795  1
  O2-  O195  1  0.66723997  0.07954696  0.75014661  1
  O2-  O196  1  0.66783561  0.41402550  -0.00040032  1
  O2-  O197  1  0.66826982  0.41366329  0.24990431  1
  O2-  O198  1  0.66753243  0.41355494  0.49960261  1
  O2-  O199  1  0.66759776  0.41443092  0.74991070  1
  O2-  O200  1  0.66791180  0.74767182  -0.00002991  1
  O2-  O201  1  0.66816596  0.74701902  0.25008431  1
  O2-  O202  1  0.66703875  0.74764264  0.49968363  1
  O2-  O203  1  0.66675998  0.74679325  0.74995855  1
  O2-  O204  1  0.33254356  0.25251425  0.00012491  1
  O2-  O205  1  0.33248295  0.25203950  0.24942143  1
  O2-  O206  1  0.33272836  0.25310782  0.49999693  1
  O2-  O207  1  0.33175593  0.25273815  0.74981106  1
  O2-  O208  1  0.33262050  0.58495240  0.00048270  1
  O2-  O209  1  0.33156824  0.58635482  0.24995325  1
  O2-  O210  1  0.33332429  0.58573080  0.50026215  1
  O2-  O211  1  0.33223315  0.58527288  0.74966455  1
  O2-  O212  1  0.33275894  0.91912410  0.00003488  1
  O2-  O213  1  0.33184208  0.91957768  0.25012258  1
  O2-  O214  1  0.33205890  0.91977018  0.50001138  1
  O2-  O215  1  0.33199517  0.91895220  0.74970703  1
  O2-  O216  1  0.83267949  0.25295199  -0.00021632  1
  O2-  O217  1  0.83249230  0.25309064  0.25012063  1
  O2-  O218  1  0.83260726  0.25341104  0.49986774  1
  O2-  O219  1  0.83218579  0.25289702  0.75018339  1
  O2-  O220  1  0.83257774  0.58539747  0.00017991  1
  O2-  O221  1  0.83155270  0.58641972  0.24999570  1
  O2-  O222  1  0.83277861  0.58669758  0.49960363  1
  O2-  O223  1  0.83160059  0.58586404  0.74977695  1
  O2-  O224  1  0.83186959  0.91890981  -0.00028750  1
  O2-  O225  1  0.83215585  0.91838605  0.25040193  1
  O2-  O226  1  0.83283569  0.91906943  0.50031320  1
  O2-  O227  1  0.83290373  0.91999873  0.75011135  1
  O2-  O228  1  0.16780540  0.25247818  -0.00017946  1
  O2-  O229  1  0.16715612  0.25207907  0.24970916  1
  O2-  O230  1  0.16703285  0.25304176  0.50012962  1
  O2-  O231  1  0.16767745  0.25248697  0.74980821  1
  O2-  O232  1  0.16742547  0.58507341  0.00037802  1
  O2-  O233  1  0.16854329  0.58586414  0.24973527  1
  O2-  O234  1  0.16660254  0.58550246  0.50048445  1
  O2-  O235  1  0.16771108  0.58530859  0.74999881  1
  O2-  O236  1  0.16745592  0.91912571  0.00010806  1
  O2-  O237  1  0.16825335  0.91922774  0.24988748  1
  O2-  O238  1  0.16752110  0.91948627  0.50051051  1
  O2-  O239  1  0.16857618  0.91864231  0.74944524  1
  O2-  O240  1  0.66715732  0.25267245  -0.00065549  1
  O2-  O241  1  0.66771324  0.25332631  0.25009918  1
  O2-  O242  1  0.66696621  0.25357820  0.49987904  1
  O2-  O243  1  0.66720650  0.25281052  0.74980455  1
  O2-  O244  1  0.66794539  0.58557840  0.00023460  1
  O2-  O245  1  0.66801097  0.58616013  0.24998124  1
  O2-  O246  1  0.66753530  0.58642034  0.49960405  1
  O2-  O247  1  0.66827276  0.58611884  0.74990787  1
  O2-  O248  1  0.66798499  0.91899189  -0.00041357  1
  O2-  O249  1  0.66765642  0.91873927  0.24995141  1
  O2-  O250  1  0.66778656  0.91913428  0.50029522  1
  O2-  O251  1  0.66741869  0.92015796  0.75024826  1
  O2-  O252  1  0.33245448  0.08076678  -0.00022422  1
  O2-  O253  1  0.33212011  0.08068243  0.24994540  1
  O2-  O254  1  0.33227526  0.07996705  0.50057573  1
  O2-  O255  1  0.33235240  0.08070948  0.74976746  1
  O2-  O256  1  0.33161776  0.41417500  0.00043830  1
  O2-  O257  1  0.33234872  0.41395817  0.24965514  1
  O2-  O258  1  0.33269676  0.41313078  0.50016763  1
  O2-  O259  1  0.33206447  0.41423591  0.74986788  1
  O2-  O260  1  0.33250676  0.74838779  0.00075188  1
  O2-  O261  1  0.33203596  0.74728369  0.24995301  1
  O2-  O262  1  0.33382890  0.74747624  0.49986557  1
  O2-  O263  1  0.33159510  0.74759575  0.74969587  1
  O2-  O264  1  0.83265645  0.07961298  -0.00031710  1
  O2-  O265  1  0.83333352  0.08088992  0.25015385  1
  O2-  O266  1  0.83300284  0.08048046  0.50004168  1
  O2-  O267  1  0.83288890  0.07967004  0.75016714  1
  O2-  O268  1  0.83195253  0.41384138  -0.00044387  1
  O2-  O269  1  0.83193399  0.41375852  0.24980800  1
  O2-  O270  1  0.83237323  0.41395416  0.49944381  1
  O2-  O271  1  0.83232146  0.41423274  0.75000331  1
  O2-  O272  1  0.83190925  0.74756589  0.00017125  1
  O2-  O273  1  0.83136640  0.74709323  0.25036327  1
  O2-  O274  1  0.83267307  0.74745607  0.49973925  1
  O2-  O275  1  0.83303139  0.74656317  0.74976835  1
  O2-  O276  1  0.95887663  0.77171825  0.02359137  1
  O2-  O277  1  0.94467860  0.08492271  0.96068081  1
  O2-  O278  1  0.45334199  0.90205938  0.23980513  1
  O2-  O279  1  0.04108103  0.89504868  0.75826706  1
  O2-  O280  1  0.04642922  0.76427301  0.73460562  1
  O2-  O281  1  0.45096480  0.09114644  0.53388415  1
  O2-  O282  1  0.04597387  0.43238269  0.01492626  1
  O2-  O283  1  0.54750445  0.90170854  0.23645507  1
  O2-  O284  1  0.04517198  0.23454785  0.73160477  1
  O2-  O285  1  0.03430529  0.11272138  0.49275986  1
  O2-  O286  1  0.04109471  0.89559860  0.52411233  1
  O2-  O287  1  0.95443774  0.43192108  0.98421310  1
  O2-  O288  1  0.45753998  0.56231546  0.72487679  1
  O2-  O289  1  0.45900340  0.43813545  0.77443834  1
  O2-  O290  1  0.45509301  0.76366013  0.26570367  1
  O2-  O291  1  0.54366712  0.10210871  0.97763835  1
  O2-  O292  1  0.54613323  0.43125352  0.48608022  1
  O2-  O293  1  0.95357912  0.09923676  0.23553493  1
  O2-  O294  1  0.04494513  0.23431447  0.77076634  1
  O2-  O295  1  0.95374635  0.76598613  0.73545809  1
  O2-  O296  1  0.45467755  0.23397464  0.98601251  1
  O2-  O297  1  0.45458972  0.09841721  0.26981311  1
  O2-  O298  1  0.04054186  0.22813627  0.97457093  1
  O2-  O299  1  0.54494240  0.09943709  0.76387699  1
  O2-  O300  1  0.53700668  0.11060521  0.01378131  1
  O2-  O301  1  0.45549589  0.10022704  0.23057732  1
  O2-  O302  1  0.54463263  0.23434059  0.51508626  1
  O2-  O303  1  0.04515663  0.43219345  0.26954641  1
  O2-  O304  1  0.95750648  0.22815721  0.52376828  1
  O2-  O305  1  0.04618826  0.09672178  0.76576486  1
  O2-  O306  1  0.45503703  0.76498594  0.73516170  1
  O2-  O307  1  0.95543020  0.56781138  0.51380324  1
  O2-  O308  1  0.04388877  0.90075921  0.73339956  1
  O2-  O309  1  0.05309556  0.42109629  0.46573114  1
  O2-  O310  1  0.54246122  0.56112217  0.72622812  1
  O2-  O311  1  0.04757495  0.76335956  0.48478639  1
  O2-  O312  1  0.54752916  0.76302088  0.01616562  1
  O2-  O313  1  0.04497681  0.90014219  0.98554201  1
  O2-  O314  1  0.45398914  0.43172509  0.48560644  1
  O2-  O315  1  0.04608469  0.09871252  0.23460403  1
  O2-  O316  1  0.45503867  0.90196978  0.98419857  1
  O2-  O317  1  0.55370237  0.91453545  0.53146070  1
  O2-  O318  1  0.45531443  0.43309792  0.01515468  1
  O2-  O319  1  0.45518250  0.76476771  0.48500449  1
  O2-  O320  1  0.04439582  0.43287624  0.23033118  1
  O2-  O321  1  0.04695405  0.23578180  0.51614051  1
  O2-  O322  1  0.45490774  0.90172054  0.26008495  1
  O2-  O323  1  0.95398011  0.76556208  0.48488148  1
  O2-  O324  1  0.06803365  0.39574251  0.55452688  1
  O2-  O325  1  0.56521292  0.40470210  0.20416184  1
  O2-  O326  1  0.93230186  0.27080591  0.45845420  1
  O2-  O327  1  0.43200247  0.60423645  0.79255038  1
  O2-  O328  1  0.93528727  0.59583155  0.78050027  1
  O2-  O329  1  0.06310109  0.07419087  0.78095092  1
  O2-  O330  1  0.06462557  0.73796269  0.28050840  1
  O2-  O331  1  0.44501265  0.08215793  0.53772158  1
  O2-  O332  1  0.93536212  0.73678964  0.21976302  1
  O2-  O333  1  0.07365181  0.05556494  0.45930141  1
  O2-  O334  1  0.55355447  0.91494528  0.53167523  1
  O2-  O335  1  0.07118573  0.93800720  0.78665532  1
  O2-  O336  1  0.06819442  0.93512827  0.45700879  1
  O2-  O337  1  0.43520590  0.93049927  0.53337179  1
  O2-  O338  1  0.93481110  0.92934927  0.02996998  1
  O2-  O339  1  0.56549166  0.92905417  0.03105152  1
  O2-  O340  1  0.05302816  0.42106212  0.46679407  1
  O2-  O341  1  0.43095714  0.39811555  0.70981750  1
  O2-  O342  1  0.06458956  0.59609689  0.21918680  1
  O2-  O343  1  0.06413160  0.40209176  0.70390864  1
  O2-  O344  1  0.93546638  0.26375799  0.71991779  1
  O2-  O345  1  0.43528689  0.59624617  0.21984427  1
  O2-  O346  1  0.95002867  0.09249243  0.96850344  1
  O2-  O347  1  0.43602145  0.73436594  0.96795029  1
  O2-  O348  1  0.56357857  0.59777441  0.96744448  1
  O2-  O349  1  0.43588283  0.26428303  0.46738697  1
  O2-  O350  1  0.93534679  0.26362180  0.21993233  1
  O2-  O351  1  0.43615474  0.26463200  0.28265158  1
  O2-  O352  1  0.93041218  0.73060076  0.95908658  1
  O2-  O353  1  0.06410687  0.59788876  0.79587126  1
  O2-  O354  1  0.92992297  0.06452251  0.05409173  1
  O2-  O355  1  0.43516326  0.26219633  0.78046457  1
  O2-  O356  1  0.56459007  0.59655578  0.53024767  1
  O2-  O357  1  0.56231011  0.73827659  0.03319269  1
  O2-  O358  1  0.06359811  0.93142768  0.28240057  1
  O2-  O359  1  0.56785523  0.93336399  0.45465295  1
  O2-  O360  1  0.56491962  0.26236285  0.21979267  1
  O2-  O361  1  0.93552956  0.92938325  0.22046331  1
  O2-  O362  1  0.56785224  0.60412593  0.79218189  1
  O2-  O363  1  0.06311491  0.73826405  0.47027022  1
  O2-  O364  1  0.06394142  0.59775356  0.70403430  1
  O2-  O365  1  0.43006655  0.06534020  0.44695357  1
  O2-  O366  1  0.06858648  0.27229492  0.04403531  1
  O2-  O367  1  0.06434681  0.06901485  0.03247103  1
  O2-  O368  1  0.06408379  0.40192696  0.79654695  1
  O2-  O369  1  0.56464672  0.40148644  0.29859178  1
  O2-  O370  1  0.56413621  0.93130710  0.71725449  1
  O2-  O371  1  0.57401051  0.05691750  0.04012027  1
  O2-  O372  1  0.75003125  -0.00450070  0.57957896  1
  O2-  O373  1  0.25008186  -0.00067556  0.08080364  1
  O2-  O374  1  0.24994450  0.33325854  0.92096638  1
  O2-  O375  1  0.25004234  -0.00011110  0.84261713  1
  O2-  O376  1  0.74996860  0.66720374  0.83042754  1
  O2-  O377  1  0.74993912  -0.00402032  0.08441104  1
  O2-  O378  1  0.25005757  -0.00012485  0.16946530  1
  O2-  O379  1  0.75001276  0.66709876  0.59399637  1
  O2-  O380  1  0.74998476  0.33345066  0.84289135  1
  O2-  O381  1  0.25002536  0.66722809  0.59406764  1
  O2-  O382  1  0.24997680  0.33342530  0.41347371  1
  O2-  O383  1  0.75000678  0.33466122  0.34508628  1
  O2-  O384  1  0.24995552  0.66753722  0.90539620  1
  O2-  O385  1  0.74995606  0.66630200  0.91957713  1
  O2-  O386  1  0.75000747  0.00062891  0.34406443  1
  O2-  O387  1  0.75003741  0.00025648  0.66369464  1
  O2-  O388  1  0.24997593  0.33354300  0.32791100  1
  O2-  O389  1  0.74999187  0.33237373  0.66999727  1
  O2-  O390  1  0.74998433  0.33352980  0.09201068  1
  O2-  O391  1  0.74992731  -0.00043443  0.17124557  1
  O2-  O392  1  0.75004149  -0.00253612  0.90493347  1
  O2-  O393  1  0.25012610  0.66653624  0.40680440  1
  O2-  O394  1  0.74996790  0.33400875  0.58051027  1
  O2-  O395  1  0.24993936  0.33369106  0.83131669  1
  O2-  O396  1  0.75004622  0.83696510  0.86286287  1
  O2-  O397  1  0.74997155  0.50015964  0.34080253  1
  O2-  O398  1  0.24998501  0.83675837  0.38920841  1
  O2-  O399  1  0.25001596  0.16625751  0.83224211  1
  O2-  O400  1  0.74999812  0.83322003  0.09078582  1
  O2-  O401  1  0.24999155  0.16646959  0.67470053  1
  O2-  O402  1  0.74998779  0.49986350  0.65928025  1
  O2-  O403  1  0.75002319  0.83631888  0.63844002  1
  O2-  O404  1  0.75004764  0.83306798  0.40850577  1
  O2-  O405  1  0.25002234  0.49901949  0.35244133  1
  O2-  O406  1  0.75001863  0.16863502  0.14237271  1
  O2-  O407  1  0.25006193  0.16911501  0.59456809  1
  O2-  O408  1  0.25005721  0.83668871  0.61458845  1
  O2-  O409  1  0.24999004  0.16494307  0.08922579  1
  O2-  O410  1  0.75002384  0.16371876  0.61387657  1
  O2-  O411  1  0.24996109  0.83329880  0.07542424  1
  O2-  O412  1  0.24999052  0.16764756  0.91818403  1
  O2-  O413  1  0.24998527  0.49727567  0.59623321  1
  O2-  O414  1  0.75001654  0.49849029  0.08922263  1
  O2-  O415  1  0.75001478  0.16383413  0.38957522  1
  O2-  O416  1  0.25002513  0.83329779  0.15377706  1
  O2-  O417  1  0.24999598  0.50132971  0.67674664  1
  O2-  O418  1  0.24998852  0.83328162  0.90696582  1
  O2-  O419  1  0.25000396  0.16527882  0.33790363  1
  O2-  O420  1  0.97017402  0.66484716  0.12337964  1
  O2-  O421  1  0.02579967  0.66263826  0.37483733  1
  O2-  O422  1  0.97225701  0.66717398  0.62454218  1
  O2-  O423  1  0.97573839  -0.00001681  0.12698608  1
  O2-  O424  1  0.47375727  0.33508673  0.87686672  1
  O2-  O425  1  0.46927270  0.00071155  0.12408846  1
  O2-  O426  1  0.52825648  0.33289771  0.12000792  1
  O2-  O427  1  0.02989538  0.66815056  0.12262278  1
  O2-  O428  1  0.02989104  0.00058640  0.87915373  1
  O2-  O429  1  0.02686691  0.33058765  0.37232893  1
  O2-  O430  1  0.46976840  0.33305260  0.12477737  1
  O2-  O431  1  0.96797487  -0.00022964  0.62547237  1
  O2-  O432  1  0.03162259  0.00084460  0.62529198  1
  O2-  O433  1  0.52905721  0.00037661  0.12891227  1
  O2-  O434  1  0.52996981  0.00265223  0.37112284  1
  O2-  O435  1  0.96878854  -0.00227894  0.87168842  1
  O2-  O436  1  0.97245098  0.33513402  0.62324025  1
  O2-  O437  1  0.97443026  0.66651411  0.87507183  1
  O2-  O438  1  0.47326946  0.33167654  0.62344553  1
  O2-  O439  1  0.47270286  0.66755574  0.12274755  1
  O2-  O440  1  0.52724209  0.66867476  0.62641803  1
  O2-  O441  1  0.52765302  -0.00072542  0.87560948  1
  O2-  O442  1  0.47077727  -0.00256357  0.37172607  1
  O2-  O443  1  0.97275095  0.33471601  0.12355457  1
