# generated using pymatgen
data_La7(Ru4O11)2
_symmetry_space_group_name_H-M   'P 1'
_cell_length_a   23.98859595
_cell_length_b   16.82791267
_cell_length_c   15.42494628
_cell_angle_alpha   89.99981318
_cell_angle_beta   90.00000802
_cell_angle_gamma   89.99993730
_symmetry_Int_Tables_number   1
_chemical_formula_structural   La7(Ru4O11)2
_chemical_formula_sum   'La84 Ru96 O264'
_cell_volume   6226.71142932
_cell_formula_units_Z   12
loop_
 _symmetry_equiv_pos_site_id
 _symmetry_equiv_pos_as_xyz
  1  'x, y, z'
loop_
 _atom_type_symbol
 _atom_type_oxidation_number
  La3+  3.0
  Ru4+  4.0
  O2-  -2.0
loop_
 _atom_site_type_symbol
 _atom_site_label
 _atom_site_symmetry_multiplicity
 _atom_site_fract_x
 _atom_site_fract_y
 _atom_site_fract_z
 _atom_site_occupancy
  La3+  La0  1  0.13780668  -0.00051801  0.12417792  1
  La3+  La1  1  0.13780136  -0.00128914  0.37547797  1
  La3+  La2  1  0.13842925  -0.00053402  0.62552590  1
  La3+  La3  1  0.13845508  -0.00017911  0.87486600  1
  La3+  La4  1  0.13843776  0.33344649  0.12525883  1
  La3+  La5  1  0.13862385  0.33412015  0.37528014  1
  La3+  La6  1  0.13855505  0.33400560  0.62545513  1
  La3+  La7  1  0.13831228  0.33325673  0.87409659  1
  La3+  La8  1  0.13883830  0.66671337  0.12465983  1
  La3+  La9  1  0.13810154  0.66613589  0.37600256  1
  La3+  La10  1  0.13705788  0.66570487  0.62479769  1
  La3+  La11  1  0.13798163  0.66690661  0.87475116  1
  La3+  La12  1  0.63855233  0.00039926  0.12551963  1
  La3+  La13  1  0.63877657  -0.00049559  0.37518812  1
  La3+  La14  1  0.63880762  -0.00059505  0.62514213  1
  La3+  La15  1  0.63887087  -0.00014861  0.87400896  1
  La3+  La16  1  0.63868890  0.33273315  0.12422410  1
  La3+  La17  1  0.63886941  0.33396676  0.37453787  1
  La3+  La18  1  0.63858669  0.33374922  0.62600398  1
  La3+  La19  1  0.63863457  0.33302283  0.87513618  1
  La3+  La20  1  0.63737888  0.66560236  0.12365437  1
  La3+  La21  1  0.63841032  0.66662450  0.37570176  1
  La3+  La22  1  0.63878395  0.66658752  0.62559336  1
  La3+  La23  1  0.63728732  0.66534714  0.87495894  1
  La3+  La24  1  0.36226259  -0.00019586  0.12416386  1
  La3+  La25  1  0.36190382  -0.00072239  0.37553992  1
  La3+  La26  1  0.36111258  -0.00048380  0.62569184  1
  La3+  La27  1  0.36129752  0.00012388  0.87480966  1
  La3+  La28  1  0.36136064  0.33330147  0.12566027  1
  La3+  La29  1  0.36135876  0.33379501  0.37438734  1
  La3+  La30  1  0.36111558  0.33400034  0.62568129  1
  La3+  La31  1  0.36185350  0.33329727  0.87426011  1
  La3+  La32  1  0.36060723  0.66709901  0.12454906  1
  La3+  La33  1  0.36106004  0.66712939  0.37515991  1
  La3+  La34  1  0.36178554  0.66668760  0.62491682  1
  La3+  La35  1  0.36153105  0.66663097  0.87518078  1
  La3+  La36  1  0.86133598  0.00005399  0.12574598  1
  La3+  La37  1  0.86181311  -0.00035053  0.37516477  1
  La3+  La38  1  0.86114119  -0.00041942  0.62478943  1
  La3+  La39  1  0.86132342  -0.00001998  0.87420047  1
  La3+  La40  1  0.86079764  0.33300107  0.12390534  1
  La3+  La41  1  0.86132150  0.33360121  0.37512890  1
  La3+  La42  1  0.86094247  0.33336346  0.62532981  1
  La3+  La43  1  0.86127512  0.33276171  0.87597634  1
  La3+  La44  1  0.86203487  0.66680875  0.12467918  1
  La3+  La45  1  0.86184337  0.66699256  0.37585817  1
  La3+  La46  1  0.86136369  0.66670510  0.62515436  1
  La3+  La47  1  0.86167160  0.66653616  0.87441597  1
  La3+  La48  1  0.49984904  0.83319923  0.88476296  1
  La3+  La49  1  0.49970660  0.50090756  0.88327676  1
  La3+  La50  1  0.50004068  0.16929033  0.13239529  1
  La3+  La51  1  0.00022731  0.50018352  0.88560502  1
  La3+  La52  1  -0.00077095  0.16595297  0.86575942  1
  La3+  La53  1  0.00012913  0.50043884  0.86374797  1
  La3+  La54  1  0.49995453  0.83331849  0.11553574  1
  La3+  La55  1  -0.00086615  0.16903616  0.13417294  1
  La3+  La56  1  -0.00102181  0.16556507  0.11200775  1
  La3+  La57  1  0.00044391  0.50130731  0.63390544  1
  La3+  La58  1  0.50020622  0.16747679  0.11549725  1
  La3+  La59  1  0.49985703  0.83379565  0.61471553  1
  La3+  La60  1  0.50094872  0.16613088  0.88482663  1
  La3+  La61  1  -0.00103817  0.49902626  0.38681955  1
  La3+  La62  1  0.00039725  0.49947988  0.13460027  1
  La3+  La63  1  0.50004136  0.16715995  0.36406101  1
  La3+  La64  1  0.49985244  0.83277841  0.36420064  1
  La3+  La65  1  0.50035394  0.50028261  0.11381412  1
  La3+  La66  1  0.00016894  0.50021853  0.61620984  1
  La3+  La67  1  -0.00097762  0.16711898  0.38481352  1
  La3+  La68  1  0.00194494  0.50196901  0.36531889  1
  La3+  La69  1  -0.00004831  0.83369017  0.61449083  1
  La3+  La70  1  0.49987791  0.16651903  0.63752991  1
  La3+  La71  1  0.50018152  0.50020158  0.61583988  1
  La3+  La72  1  0.74984631  0.83248640  -0.02601600  1
  La3+  La73  1  0.25006441  0.19679277  0.26064351  1
  La3+  La74  1  0.74991394  0.47412995  0.25005182  1
  La3+  La75  1  0.25010741  0.16602855  0.74881079  1
  La3+  La76  1  0.75001821  0.49993253  0.51488985  1
  La3+  La77  1  0.75004834  0.49924013  -0.00157307  1
  La3+  La78  1  0.75001540  0.83340841  0.50685636  1
  La3+  La79  1  0.75012026  0.14425470  0.52250115  1
  La3+  La80  1  0.24973411  0.16567615  0.50120011  1
  La3+  La81  1  0.25001196  0.16641158  -0.01134483  1
  La3+  La82  1  0.24998737  0.52250879  0.02143788  1
  La3+  La83  1  0.24997815  0.80801956  0.24999059  1
  Ru4+  Ru84  1  0.00102148  0.00021909  -0.00153882  1
  Ru4+  Ru85  1  -0.00028676  -0.00234030  0.25356768  1
  Ru4+  Ru86  1  -0.00008934  -0.00109472  0.49814465  1
  Ru4+  Ru87  1  0.00028013  0.00017836  0.75129946  1
  Ru4+  Ru88  1  0.00066847  0.33564558  -0.00003779  1
  Ru4+  Ru89  1  0.00133274  0.33457419  0.25073654  1
  Ru4+  Ru90  1  -0.00038089  0.33277812  0.49976099  1
  Ru4+  Ru91  1  -0.00063455  0.33587445  0.74980482  1
  Ru4+  Ru92  1  -0.00011247  0.66808438  -0.00047855  1
  Ru4+  Ru93  1  -0.00023266  0.66769385  0.25017844  1
  Ru4+  Ru94  1  0.00120177  0.66676598  0.50092658  1
  Ru4+  Ru95  1  -0.00073179  0.66869321  0.75008359  1
  Ru4+  Ru96  1  0.49815385  -0.00127111  0.00096527  1
  Ru4+  Ru97  1  0.49778810  -0.00444847  0.25076285  1
  Ru4+  Ru98  1  0.50012423  -0.00211204  0.50078232  1
  Ru4+  Ru99  1  0.50019715  0.00010596  0.74866627  1
  Ru4+  Ru100  1  0.49906434  0.33530719  -0.00020852  1
  Ru4+  Ru101  1  0.49976382  0.33392944  0.25072283  1
  Ru4+  Ru102  1  0.50018614  0.33511317  0.49934014  1
  Ru4+  Ru103  1  0.49993302  0.33359970  0.74963533  1
  Ru4+  Ru104  1  0.50049583  0.66653709  -0.00056290  1
  Ru4+  Ru105  1  0.50075036  0.66741136  0.24868007  1
  Ru4+  Ru106  1  0.49991696  0.66643405  0.50101797  1
  Ru4+  Ru107  1  0.50032951  0.66639660  0.75065846  1
  Ru4+  Ru108  1  0.11253021  0.16608738  -0.00016425  1
  Ru4+  Ru109  1  0.11325529  0.16754522  0.25044096  1
  Ru4+  Ru110  1  0.11215268  0.16681637  0.49974706  1
  Ru4+  Ru111  1  0.11323871  0.16430494  0.74959282  1
  Ru4+  Ru112  1  0.11189931  0.50037763  -0.00011003  1
  Ru4+  Ru113  1  0.11235036  0.50011241  0.25013722  1
  Ru4+  Ru114  1  0.11313725  0.49991216  0.49987954  1
  Ru4+  Ru115  1  0.11417223  0.49824134  0.75043405  1
  Ru4+  Ru116  1  0.11264042  0.83332654  -0.00038089  1
  Ru4+  Ru117  1  0.11200827  0.83373931  0.25020235  1
  Ru4+  Ru118  1  0.11261304  0.83420056  0.49972648  1
  Ru4+  Ru119  1  0.11261858  0.83341679  0.75006701  1
  Ru4+  Ru120  1  0.61497590  0.16782499  -0.00020629  1
  Ru4+  Ru121  1  0.61466055  0.16982549  0.25069989  1
  Ru4+  Ru122  1  0.61333436  0.16625444  0.49969926  1
  Ru4+  Ru123  1  0.61302641  0.16690348  0.75008828  1
  Ru4+  Ru124  1  0.61312940  0.50129515  0.00010088  1
  Ru4+  Ru125  1  0.61234335  0.49963409  0.24966834  1
  Ru4+  Ru126  1  0.61234049  0.49992112  0.50001104  1
  Ru4+  Ru127  1  0.61308142  0.50101790  0.75047471  1
  Ru4+  Ru128  1  0.61215197  0.83299076  -0.00006368  1
  Ru4+  Ru129  1  0.61289625  0.83404639  0.25006160  1
  Ru4+  Ru130  1  0.61240212  0.83391006  0.50020631  1
  Ru4+  Ru131  1  0.61356330  0.83356550  0.75002132  1
  Ru4+  Ru132  1  0.38715000  0.16552129  -0.00004514  1
  Ru4+  Ru133  1  0.38747444  0.16770750  0.24985256  1
  Ru4+  Ru134  1  0.38681728  0.16662718  0.49988780  1
  Ru4+  Ru135  1  0.38744749  0.16642931  0.74981359  1
  Ru4+  Ru136  1  0.38784181  0.50030341  -0.00002430  1
  Ru4+  Ru137  1  0.38698433  0.49894403  0.25004198  1
  Ru4+  Ru138  1  0.38633677  0.49996194  0.49998172  1
  Ru4+  Ru139  1  0.38710940  0.49945693  0.75008860  1
  Ru4+  Ru140  1  0.38725923  0.83375063  0.00000742  1
  Ru4+  Ru141  1  0.38783230  0.83228936  0.25025169  1
  Ru4+  Ru142  1  0.38704175  0.83398273  0.49986269  1
  Ru4+  Ru143  1  0.38728932  0.83370812  0.74998767  1
  Ru4+  Ru144  1  0.88587765  0.16623327  -0.00016810  1
  Ru4+  Ru145  1  0.88631561  0.16612796  0.25029611  1
  Ru4+  Ru146  1  0.88767537  0.16641450  0.49980347  1
  Ru4+  Ru147  1  0.88621951  0.16616883  0.74996587  1
  Ru4+  Ru148  1  0.88769664  0.49978430  -0.00025005  1
  Ru4+  Ru149  1  0.88731495  0.49953994  0.24970692  1
  Ru4+  Ru150  1  0.88732015  0.49994213  0.50017145  1
  Ru4+  Ru151  1  0.88728349  0.50056813  0.75016319  1
  Ru4+  Ru152  1  0.88811375  0.83248479  -0.00004093  1
  Ru4+  Ru153  1  0.88773588  0.83390493  0.25004031  1
  Ru4+  Ru154  1  0.88665484  0.83513947  0.50010513  1
  Ru4+  Ru155  1  0.88623755  0.83360671  0.74993627  1
  Ru4+  Ru156  1  0.24998301  0.91418260  0.74990470  1
  Ru4+  Ru157  1  0.75007006  0.42119041  0.74903596  1
  Ru4+  Ru158  1  0.24989027  0.58077232  0.25025960  1
  Ru4+  Ru159  1  0.75001015  0.08350405  0.74967056  1
  Ru4+  Ru160  1  0.75006368  0.94045006  -0.00099436  1
  Ru4+  Ru161  1  0.74994012  0.60079192  0.25040392  1
  Ru4+  Ru162  1  0.24997880  0.91327066  -0.00087855  1
  Ru4+  Ru163  1  0.75006194  0.26844845  0.49968106  1
  Ru4+  Ru164  1  0.24995043  0.93236707  0.25560988  1
  Ru4+  Ru165  1  0.74996325  0.75109308  0.25029872  1
  Ru4+  Ru166  1  0.24999664  0.05284156  0.50049582  1
  Ru4+  Ru167  1  0.24997736  0.75244066  0.00048069  1
  Ru4+  Ru168  1  0.25002415  0.75398221  0.49825483  1
  Ru4+  Ru169  1  0.24998308  0.75383567  0.75090863  1
  Ru4+  Ru170  1  0.75000237  0.72522249  0.00142778  1
  Ru4+  Ru171  1  0.75010589  0.08775903  0.00114771  1
  Ru4+  Ru172  1  0.25005505  0.27842299  0.50029718  1
  Ru4+  Ru173  1  0.24995183  0.58037831  0.74924766  1
  Ru4+  Ru174  1  0.74999414  0.08497134  0.24844044  1
  Ru4+  Ru175  1  0.75002192  0.24969369  0.24815481  1
  Ru4+  Ru176  1  0.24997581  0.39853196  -0.00054528  1
  Ru4+  Ru177  1  0.25000871  0.58055617  0.49968035  1
  Ru4+  Ru178  1  0.24996788  0.06903651  0.25461881  1
  Ru4+  Ru179  1  0.24985513  0.41859694  0.24984403  1
  O2-  O180  1  0.16786628  0.08062527  0.00027122  1
  O2-  O181  1  0.16771475  0.08036284  0.24958361  1
  O2-  O182  1  0.16732850  0.08061778  0.50020288  1
  O2-  O183  1  0.16841261  0.08156129  0.75013508  1
  O2-  O184  1  0.16765838  0.41319679  0.00002476  1
  O2-  O185  1  0.16817211  0.41373052  0.25023051  1
  O2-  O186  1  0.16767108  0.41443872  0.50008096  1
  O2-  O187  1  0.16814816  0.41412609  0.74994778  1
  O2-  O188  1  0.16785329  0.74760477  0.00025959  1
  O2-  O189  1  0.16762195  0.74701133  0.24999162  1
  O2-  O190  1  0.16770940  0.74727348  0.49995609  1
  O2-  O191  1  0.16803493  0.74764149  0.75003473  1
  O2-  O192  1  0.66795726  0.08075013  -0.00023799  1
  O2-  O193  1  0.66850304  0.08032648  0.24987512  1
  O2-  O194  1  0.66794879  0.08046827  0.49990018  1
  O2-  O195  1  0.66808805  0.08118094  0.75006031  1
  O2-  O196  1  0.66831147  0.41457888  0.00017726  1
  O2-  O197  1  0.66751456  0.41414605  0.25016046  1
  O2-  O198  1  0.66797153  0.41355408  0.49990975  1
  O2-  O199  1  0.66794345  0.41399437  0.74983066  1
  O2-  O200  1  0.66732827  0.74695203  0.00020317  1
  O2-  O201  1  0.66787910  0.74714355  0.24985321  1
  O2-  O202  1  0.66790446  0.74684915  0.49984483  1
  O2-  O203  1  0.66754410  0.74745045  0.74963711  1
  O2-  O204  1  0.33156892  0.25316858  -0.00003826  1
  O2-  O205  1  0.33229145  0.25267917  0.25007498  1
  O2-  O206  1  0.33300570  0.25286512  0.50009894  1
  O2-  O207  1  0.33121343  0.25268563  0.75026275  1
  O2-  O208  1  0.33243484  0.58624273  -0.00023742  1
  O2-  O209  1  0.33161666  0.58568684  0.25011806  1
  O2-  O210  1  0.33206608  0.58550599  0.50019821  1
  O2-  O211  1  0.33200292  0.58609238  0.75007183  1
  O2-  O212  1  0.33223007  0.91920554  0.00011545  1
  O2-  O213  1  0.33294412  0.92015291  0.25002053  1
  O2-  O214  1  0.33237607  0.91929625  0.49969633  1
  O2-  O215  1  0.33214809  0.91894306  0.75013298  1
  O2-  O216  1  0.83211476  0.25212170  0.00016754  1
  O2-  O217  1  0.83191579  0.25232816  0.24996410  1
  O2-  O218  1  0.83235522  0.25313307  0.50023691  1
  O2-  O219  1  0.83202798  0.25197807  0.74979393  1
  O2-  O220  1  0.83114531  0.58646074  0.00022562  1
  O2-  O221  1  0.83297912  0.58659085  0.24976281  1
  O2-  O222  1  0.83169017  0.58644026  0.49990763  1
  O2-  O223  1  0.83247005  0.58630219  0.75010134  1
  O2-  O224  1  0.83275228  0.91939868  -0.00001881  1
  O2-  O225  1  0.83186607  0.91883531  0.24986051  1
  O2-  O226  1  0.83174671  0.91919892  0.49965800  1
  O2-  O227  1  0.83290743  0.91867798  0.74989036  1
  O2-  O228  1  0.16817228  0.25321134  0.00023811  1
  O2-  O229  1  0.16725773  0.25297423  0.24980973  1
  O2-  O230  1  0.16667211  0.25278726  0.50009880  1
  O2-  O231  1  0.16877754  0.25256410  0.75005593  1
  O2-  O232  1  0.16763975  0.58622312  0.00001248  1
  O2-  O233  1  0.16833182  0.58640159  0.25015074  1
  O2-  O234  1  0.16820230  0.58570568  0.49993666  1
  O2-  O235  1  0.16801834  0.58577818  0.74979682  1
  O2-  O236  1  0.16784609  0.91913301  0.00031331  1
  O2-  O237  1  0.16757105  0.91992934  0.24973707  1
  O2-  O238  1  0.16808359  0.91884795  0.50012766  1
  O2-  O239  1  0.16804602  0.91892047  0.75003295  1
  O2-  O240  1  0.66769437  0.25205990  -0.00035898  1
  O2-  O241  1  0.66780766  0.25226691  0.25025242  1
  O2-  O242  1  0.66749261  0.25317009  0.50013084  1
  O2-  O243  1  0.66772665  0.25208809  0.74997406  1
  O2-  O244  1  0.66890514  0.58591134  0.00035656  1
  O2-  O245  1  0.66701518  0.58682860  0.24981149  1
  O2-  O246  1  0.66793356  0.58634289  0.49998212  1
  O2-  O247  1  0.66766979  0.58573522  0.74968392  1
  O2-  O248  1  0.66718511  0.91968133  0.00016640  1
  O2-  O249  1  0.66788106  0.91918535  0.24994014  1
  O2-  O250  1  0.66828235  0.91939643  0.49953961  1
  O2-  O251  1  0.66713016  0.91878876  0.74990098  1
  O2-  O252  1  0.33218827  0.08062333  0.00024740  1
  O2-  O253  1  0.33270543  0.08004421  0.25017303  1
  O2-  O254  1  0.33293163  0.08030076  0.49977125  1
  O2-  O255  1  0.33161185  0.08104582  0.75028958  1
  O2-  O256  1  0.33240799  0.41336393  -0.00017427  1
  O2-  O257  1  0.33205531  0.41430018  0.25022366  1
  O2-  O258  1  0.33213568  0.41492813  0.50022348  1
  O2-  O259  1  0.33219469  0.41424287  0.74997955  1
  O2-  O260  1  0.33214709  0.74723997  -0.00003397  1
  O2-  O261  1  0.33171231  0.74728807  0.24990138  1
  O2-  O262  1  0.33213875  0.74718279  0.50007157  1
  O2-  O263  1  0.33202279  0.74718816  0.75008186  1
  O2-  O264  1  0.83218166  0.08089270  -0.00015545  1
  O2-  O265  1  0.83182821  0.08088829  0.25004572  1
  O2-  O266  1  0.83197573  0.08065627  0.50003957  1
  O2-  O267  1  0.83206986  0.08144045  0.75000269  1
  O2-  O268  1  0.83182152  0.41429605  0.00046682  1
  O2-  O269  1  0.83246790  0.41437197  0.24998278  1
  O2-  O270  1  0.83217987  0.41368744  0.50003356  1
  O2-  O271  1  0.83210632  0.41373943  0.74990532  1
  O2-  O272  1  0.83280879  0.74682968  0.00010337  1
  O2-  O273  1  0.83228265  0.74736253  0.24980758  1
  O2-  O274  1  0.83193757  0.74675488  0.49981047  1
  O2-  O275  1  0.83249478  0.74737935  0.74988942  1
  O2-  O276  1  0.95307599  0.23593393  0.98355618  1
  O2-  O277  1  0.54150857  0.43673865  0.97682350  1
  O2-  O278  1  0.95472398  0.43121830  0.26365297  1
  O2-  O279  1  0.45438214  0.76621034  0.48467767  1
  O2-  O280  1  0.45504651  0.43114194  0.23409876  1
  O2-  O281  1  0.95490974  0.76542361  0.50052873  1
  O2-  O282  1  0.45791252  0.22943195  0.52391496  1
  O2-  O283  1  0.54725017  0.57197866  0.01190806  1
  O2-  O284  1  0.54210917  0.22968315  0.52339411  1
  O2-  O285  1  0.04591667  0.23480538  0.01372283  1
  O2-  O286  1  0.95510396  0.56873753  0.23454884  1
  O2-  O287  1  0.54518606  0.90180286  0.01490085  1
  O2-  O288  1  0.45825144  0.10388220  0.47533435  1
  O2-  O289  1  0.55077604  0.08992039  0.03410782  1
  O2-  O290  1  0.54567793  0.76554911  0.98534929  1
  O2-  O291  1  0.54686844  0.23523999  0.01653861  1
  O2-  O292  1  0.54001332  0.55996516  0.98876334  1
  O2-  O293  1  0.45435852  0.76480814  0.01482097  1
  O2-  O294  1  0.95507504  0.76505667  0.23473737  1
  O2-  O295  1  0.54575212  0.76512736  0.51515963  1
  O2-  O296  1  0.04633646  0.56938968  0.73456793  1
  O2-  O297  1  0.03530431  0.11273972  0.49569729  1
  O2-  O298  1  0.45501347  0.56772268  0.76517461  1
  O2-  O299  1  0.55412228  0.08543424  0.21859756  1
  O2-  O300  1  0.95450389  0.09874969  0.26514971  1
  O2-  O301  1  0.04049429  0.56092739  0.51108445  1
  O2-  O302  1  0.54477882  0.23402049  0.76546248  1
  O2-  O303  1  0.04748118  0.57079394  0.48721933  1
  O2-  O304  1  0.95395190  0.76574264  0.49973061  1
  O2-  O305  1  0.54475694  0.76530621  0.23487800  1
  O2-  O306  1  0.04555231  0.23593264  0.48504341  1
  O2-  O307  1  0.04240675  0.22959873  0.73854777  1
  O2-  O308  1  0.04039803  0.22593707  0.75143012  1
  O2-  O309  1  0.54641868  0.43215130  0.51474135  1
  O2-  O310  1  0.95489261  0.76506784  0.99548461  1
  O2-  O311  1  0.45817660  0.22881103  0.97624744  1
  O2-  O312  1  0.95726893  0.22915911  0.72554777  1
  O2-  O313  1  0.45513649  0.90119419  0.23556325  1
  O2-  O314  1  0.54198112  0.10400340  0.52377487  1
  O2-  O315  1  0.45437614  0.09918447  0.23577601  1
  O2-  O316  1  0.46784853  0.55017686  0.23400307  1
  O2-  O317  1  0.04252638  0.10298740  0.22746355  1
  O2-  O318  1  0.04696726  0.76571098  0.51437000  1
  O2-  O319  1  0.55657272  0.41391709  0.77541411  1
  O2-  O320  1  0.95497366  0.76507494  0.00459894  1
  O2-  O321  1  0.04487641  0.23506314  0.26544416  1
  O2-  O322  1  0.46389158  0.44778271  0.49288796  1
  O2-  O323  1  0.45535802  0.76571921  0.73545186  1
  O2-  O324  1  0.55224970  0.42055692  0.77252729  1
  O2-  O325  1  0.42543634  0.38871228  0.46136065  1
  O2-  O326  1  0.56462949  0.59722554  0.78035577  1
  O2-  O327  1  0.56443374  0.93013308  0.53077591  1
  O2-  O328  1  0.93711350  0.26129281  0.97056974  1
  O2-  O329  1  0.06245348  0.59362268  0.71993928  1
  O2-  O330  1  0.93518188  0.26502189  0.20424027  1
  O2-  O331  1  0.93174835  0.26916624  0.78951207  1
  O2-  O332  1  0.07335809  0.27769435  0.79267379  1
  O2-  O333  1  0.56932310  0.06481064  0.94891123  1
  O2-  O334  1  0.07476964  0.05535624  0.46087843  1
  O2-  O335  1  0.43582260  0.26468144  0.21724870  1
  O2-  O336  1  0.93568417  0.93025438  0.53125359  1
  O2-  O337  1  0.06488904  0.92953110  0.28015213  1
  O2-  O338  1  0.56671969  0.06460268  0.29726305  1
  O2-  O339  1  0.56784326  0.27040261  0.45881378  1
  O2-  O340  1  0.06387666  0.40298485  0.78251064  1
  O2-  O341  1  0.56755696  0.60149706  0.97048611  1
  O2-  O342  1  0.93475064  0.92995560  0.04354903  1
  O2-  O343  1  0.56828053  0.39736783  0.03992397  1
  O2-  O344  1  0.93561378  0.59787635  0.53281346  1
  O2-  O345  1  0.43520540  0.73720024  0.28135701  1
  O2-  O346  1  0.06856447  0.06463119  0.28963435  1
  O2-  O347  1  0.06437425  0.93163771  0.96768941  1
  O2-  O348  1  0.93486796  0.26344563  0.29424617  1
  O2-  O349  1  0.55403882  0.08557090  0.21808025  1
  O2-  O350  1  0.55488587  0.08312545  0.03525342  1
  O2-  O351  1  0.43174155  0.26779025  0.46020743  1
  O2-  O352  1  0.93577713  0.93159957  0.28204056  1
  O2-  O353  1  0.06432228  0.73460037  0.96824557  1
  O2-  O354  1  0.06430400  0.40177235  0.46747545  1
  O2-  O355  1  0.93503164  0.26373222  0.46934065  1
  O2-  O356  1  0.06478312  0.07017569  0.71939532  1
  O2-  O357  1  0.93616448  0.59787085  0.96743988  1
  O2-  O358  1  0.43149317  0.60138807  0.30240372  1
  O2-  O359  1  0.43218813  0.27121918  0.04187927  1
  O2-  O360  1  0.42774473  0.61132449  0.19632806  1
  O2-  O361  1  0.43213486  0.06256703  0.54127437  1
  O2-  O362  1  0.06474435  0.92952692  0.71912842  1
  O2-  O363  1  0.93507477  0.93022563  0.95619993  1
  O2-  O364  1  0.56250090  0.25998446  0.03108781  1
  O2-  O365  1  0.06406838  0.73531351  0.78214067  1
  O2-  O366  1  0.43588532  0.06859007  0.71739528  1
  O2-  O367  1  0.43590174  0.26493069  0.71738510  1
  O2-  O368  1  0.56786862  0.06337097  0.45832142  1
  O2-  O369  1  0.06463364  0.92929641  0.46979048  1
  O2-  O370  1  0.93573979  0.06903944  0.46735835  1
  O2-  O371  1  0.06737712  0.60098675  0.53102754  1
  O2-  O372  1  0.25006610  0.33413713  0.59480483  1
  O2-  O373  1  0.25005042  0.00060053  0.83133223  1
  O2-  O374  1  0.75001237  0.00149576  0.65813174  1
  O2-  O375  1  0.25000309  0.33327186  0.15794001  1
  O2-  O376  1  0.25005468  0.66673742  0.83128619  1
  O2-  O377  1  0.75007056  0.33345863  0.15811032  1
  O2-  O378  1  0.24994973  0.00002620  0.16325790  1
  O2-  O379  1  0.75000950  0.33379421  0.91730469  1
  O2-  O380  1  0.24995031  0.00102978  0.07860229  1
  O2-  O381  1  0.74994974  0.00134538  0.84261431  1
  O2-  O382  1  0.75006273  0.33360512  0.65753858  1
  O2-  O383  1  0.25003959  0.00033646  0.91863460  1
  O2-  O384  1  0.74994103  0.00117093  0.09467281  1
  O2-  O385  1  0.25001086  0.33459227  0.40484053  1
  O2-  O386  1  0.25000565  0.66678274  0.66876410  1
  O2-  O387  1  0.74998218  0.66803971  0.15486266  1
  O2-  O388  1  0.74995827  0.66818591  0.34488869  1
  O2-  O389  1  0.24998437  0.66638643  0.58085654  1
  O2-  O390  1  0.25003121  0.66600639  0.91914574  1
  O2-  O391  1  0.74992263  0.33287156  0.34212657  1
  O2-  O392  1  0.24996895  0.66633883  0.40727082  1
  O2-  O393  1  0.74998902  0.33277171  0.83272357  1
  O2-  O394  1  0.25001330  0.66670369  0.09220880  1
  O2-  O395  1  0.25001340  -0.00001353  0.65805193  1
  O2-  O396  1  0.24999473  0.83332759  0.09061452  1
  O2-  O397  1  0.24999684  0.49894338  0.82544357  1
  O2-  O398  1  0.25005756  0.16713157  0.09193202  1
  O2-  O399  1  0.25002434  0.83325621  0.66728254  1
  O2-  O400  1  0.25000793  0.16670095  0.88338863  1
  O2-  O401  1  0.25000234  0.83343069  0.90963128  1
  O2-  O402  1  0.75004033  0.16538878  0.08934465  1
  O2-  O403  1  0.75001962  0.83299185  0.84222581  1
  O2-  O404  1  0.24996841  0.16338856  0.36395472  1
  O2-  O405  1  0.75003291  0.49905792  0.84043631  1
  O2-  O406  1  0.75001993  0.16638473  0.32546763  1
  O2-  O407  1  0.25003149  0.16264311  0.15983630  1
  O2-  O408  1  0.74999573  0.50016282  0.39506511  1
  O2-  O409  1  0.75001619  0.49900415  0.66134097  1
  O2-  O410  1  0.24998612  0.49877092  0.90400694  1
  O2-  O411  1  0.25000471  0.83390750  0.58223733  1
  O2-  O412  1  0.74997250  0.83471676  0.17412717  1
  O2-  O413  1  0.25000224  0.83261295  0.41006793  1
  O2-  O414  1  0.74998297  0.83325912  0.61352247  1
  O2-  O415  1  0.75002584  0.83322411  0.09525181  1
  O2-  O416  1  0.75003697  0.83326080  0.39773401  1
  O2-  O417  1  0.75002171  0.16808937  0.40564619  1
  O2-  O418  1  0.25000275  0.50008737  0.16103916  1
  O2-  O419  1  0.74995918  0.83474832  0.32314555  1
  O2-  O420  1  0.47195464  0.00000534  0.12390169  1
  O2-  O421  1  0.97285067  0.00167893  0.87268716  1
  O2-  O422  1  0.02464867  -0.00014269  0.37480428  1
  O2-  O423  1  0.97347051  0.33628725  0.87463545  1
  O2-  O424  1  0.52715522  0.00081088  0.62755653  1
  O2-  O425  1  0.02802022  0.33412079  0.62515815  1
  O2-  O426  1  0.47397806  0.33246646  0.37147494  1
  O2-  O427  1  0.02832662  0.00000966  0.62231977  1
  O2-  O428  1  0.02803269  0.33412448  0.12507996  1
  O2-  O429  1  0.46895896  -0.00014733  0.87441296  1
  O2-  O430  1  0.52784190  0.33322475  0.62529926  1
  O2-  O431  1  0.97199109  0.66604657  0.37504884  1
  O2-  O432  1  0.52978777  -0.00190892  0.87234770  1
  O2-  O433  1  0.47156921  0.66699702  0.37785800  1
  O2-  O434  1  0.47227165  0.66613939  0.62442724  1
  O2-  O435  1  0.03056741  0.00000691  0.12462233  1
  O2-  O436  1  0.02632892  0.66884755  0.62499979  1
  O2-  O437  1  0.53016210  0.66671967  0.37550274  1
  O2-  O438  1  0.97096703  0.00110112  0.62631524  1
  O2-  O439  1  0.97050638  0.00140333  0.12718842  1
  O2-  O440  1  0.97357390  0.33588013  0.37556849  1
  O2-  O441  1  0.52665717  0.33338672  0.12807122  1
  O2-  O442  1  0.47170165  0.33356954  0.87528814  1
  O2-  O443  1  0.52626790  0.66909182  0.87392275  1
