# generated using pymatgen
data_La7(Ru4O11)2
_symmetry_space_group_name_H-M   'P 1'
_cell_length_a   23.98987599
_cell_length_b   16.82978578
_cell_length_c   15.42620954
_cell_angle_alpha   90.00272581
_cell_angle_beta   89.99981231
_cell_angle_gamma   90.00037959
_symmetry_Int_Tables_number   1
_chemical_formula_structural   La7(Ru4O11)2
_chemical_formula_sum   'La84 Ru96 O264'
_cell_volume   6228.24684763
_cell_formula_units_Z   12
loop_
 _symmetry_equiv_pos_site_id
 _symmetry_equiv_pos_as_xyz
  1  'x, y, z'
loop_
 _atom_type_symbol
 _atom_type_oxidation_number
  La3+  3.0
  Ru4+  4.0
  O2-  -2.0
loop_
 _atom_site_type_symbol
 _atom_site_label
 _atom_site_symmetry_multiplicity
 _atom_site_fract_x
 _atom_site_fract_y
 _atom_site_fract_z
 _atom_site_occupancy
  La3+  La0  1  0.13358088  0.00753372  0.13716914  1
  La3+  La1  1  0.13615283  0.00651405  0.36912057  1
  La3+  La2  1  0.13686931  -0.00042491  0.62282965  1
  La3+  La3  1  0.13770801  0.00084970  0.87331174  1
  La3+  La4  1  0.13925068  0.33310302  0.12555662  1
  La3+  La5  1  0.13928779  0.33048939  0.37781191  1
  La3+  La6  1  0.14176046  0.33154802  0.62374235  1
  La3+  La7  1  0.13971448  0.33230536  0.87359047  1
  La3+  La8  1  0.13925891  0.66607683  0.12996289  1
  La3+  La9  1  0.14267224  0.66516263  0.37372804  1
  La3+  La10  1  0.13806483  0.66456249  0.62294531  1
  La3+  La11  1  0.13791822  0.66470932  0.87531084  1
  La3+  La12  1  0.63816499  0.00009923  0.12586184  1
  La3+  La13  1  0.63860123  0.00163759  0.37100995  1
  La3+  La14  1  0.63771565  0.00053592  0.62294206  1
  La3+  La15  1  0.63873446  -0.00168742  0.87973642  1
  La3+  La16  1  0.63902799  0.33104261  0.12769010  1
  La3+  La17  1  0.63724347  0.33245250  0.37326509  1
  La3+  La18  1  0.63553353  0.33553003  0.62557460  1
  La3+  La19  1  0.63703973  0.33552145  0.87273966  1
  La3+  La20  1  0.63874909  0.66955056  0.12518012  1
  La3+  La21  1  0.63331165  0.66420038  0.37749814  1
  La3+  La22  1  0.63194221  0.66312462  0.61874583  1
  La3+  La23  1  0.63989000  0.66710104  0.87821747  1
  La3+  La24  1  0.36022098  0.00035365  0.12895480  1
  La3+  La25  1  0.35805628  0.00178357  0.37301379  1
  La3+  La26  1  0.35634661  0.00322133  0.62070977  1
  La3+  La27  1  0.36516576  -0.00026845  0.87164888  1
  La3+  La28  1  0.36718764  0.34007147  0.13375845  1
  La3+  La29  1  0.36318300  0.33838007  0.36876038  1
  La3+  La30  1  0.35750697  0.33443278  0.62523138  1
  La3+  La31  1  0.36333466  0.33291378  0.87311249  1
  La3+  La32  1  0.36266127  0.66499915  0.13009267  1
  La3+  La33  1  0.35853734  0.66480836  0.37513322  1
  La3+  La34  1  0.36470037  0.66260802  0.62246224  1
  La3+  La35  1  0.36375011  0.66279268  0.87826031  1
  La3+  La36  1  0.86035518  0.00021555  0.12565258  1
  La3+  La37  1  0.86032477  -0.00001776  0.37079238  1
  La3+  La38  1  0.86215243  -0.00006052  0.62349137  1
  La3+  La39  1  0.86041355  -0.00138798  0.87940576  1
  La3+  La40  1  0.86848959  0.33644028  0.12302056  1
  La3+  La41  1  0.86277675  0.33233818  0.36980320  1
  La3+  La42  1  0.86264602  0.33331693  0.62762388  1
  La3+  La43  1  0.86734216  0.34089771  0.88231800  1
  La3+  La44  1  0.86094640  0.66911441  0.12348880  1
  La3+  La45  1  0.86053098  0.66694414  0.37380620  1
  La3+  La46  1  0.86204542  0.66755960  0.62569162  1
  La3+  La47  1  0.86050462  0.66785795  0.87595867  1
  La3+  La48  1  0.00134759  0.50216185  0.38096014  1
  La3+  La49  1  -0.00065664  0.16454811  0.89271521  1
  La3+  La50  1  -0.00319876  0.49715391  0.13137492  1
  La3+  La51  1  0.49996323  0.83181856  0.61563852  1
  La3+  La52  1  0.00044643  0.16652698  0.13600481  1
  La3+  La53  1  0.00354088  0.83239353  0.11198716  1
  La3+  La54  1  0.50123619  0.16607001  0.13839699  1
  La3+  La55  1  0.00122597  0.83070950  0.86774062  1
  La3+  La56  1  0.49851165  0.50070088  0.86612223  1
  La3+  La57  1  0.49988282  0.50211306  0.37046901  1
  La3+  La58  1  0.50367090  0.50251984  0.61084850  1
  La3+  La59  1  0.49357375  0.49574576  0.14054893  1
  La3+  La60  1  0.49824024  0.83336994  0.13457348  1
  La3+  La61  1  0.49993641  0.16645357  0.61630524  1
  La3+  La62  1  0.50251295  0.16389327  0.37714851  1
  La3+  La63  1  -0.00265543  0.49741182  0.87133567  1
  La3+  La64  1  -0.00540908  0.15806084  0.87453988  1
  La3+  La65  1  -0.00118176  0.49854492  0.61950380  1
  La3+  La66  1  0.00443702  0.83481202  0.38914394  1
  La3+  La67  1  0.49897539  0.16971648  0.63270700  1
  La3+  La68  1  -0.00360520  0.84109100  0.62562219  1
  La3+  La69  1  0.00275467  0.50092315  0.11119119  1
  La3+  La70  1  0.00265565  0.16529284  0.36490062  1
  La3+  La71  1  0.00138089  0.16661297  0.62909552  1
  La3+  La72  1  0.74971573  0.78866096  0.46760787  1
  La3+  La73  1  0.75000484  0.46428590  0.49976101  1
  La3+  La74  1  0.25002413  0.79231931  0.51272238  1
  La3+  La75  1  0.75012661  0.11805320  0.48882370  1
  La3+  La76  1  0.24969441  0.88280712  0.75553690  1
  La3+  La77  1  0.74966452  0.53188621  0.22278124  1
  La3+  La78  1  0.24962881  0.84005828  0.00752594  1
  La3+  La79  1  0.25016791  0.83353959  0.26449977  1
  La3+  La80  1  0.75030172  0.46902682  0.78003737  1
  La3+  La81  1  0.75018477  0.79500056  0.79779971  1
  La3+  La82  1  0.75001175  0.20453968  0.80417525  1
  La3+  La83  1  0.74907367  0.83365831  0.21811047  1
  Ru4+  Ru84  1  0.00181351  -0.00201792  0.00157987  1
  Ru4+  Ru85  1  0.00297549  0.00172476  0.24781037  1
  Ru4+  Ru86  1  -0.00010886  0.00669237  0.50125450  1
  Ru4+  Ru87  1  0.00176308  0.00071899  0.74918610  1
  Ru4+  Ru88  1  -0.00134401  0.33492949  -0.00606628  1
  Ru4+  Ru89  1  0.00896396  0.32954284  0.24981120  1
  Ru4+  Ru90  1  -0.00279867  0.33668246  0.49881228  1
  Ru4+  Ru91  1  0.00015317  0.33747093  0.74991240  1
  Ru4+  Ru92  1  0.00120670  0.66851571  -0.00348855  1
  Ru4+  Ru93  1  0.00086812  0.66770226  0.25133394  1
  Ru4+  Ru94  1  -0.00026814  0.66695830  0.49980629  1
  Ru4+  Ru95  1  -0.00073120  0.66506317  0.75199683  1
  Ru4+  Ru96  1  0.50025615  -0.00000442  0.00183910  1
  Ru4+  Ru97  1  0.49625004  -0.00499092  0.25190192  1
  Ru4+  Ru98  1  0.50075774  -0.00368063  0.49576187  1
  Ru4+  Ru99  1  0.50076609  0.00244187  0.75235194  1
  Ru4+  Ru100  1  0.49866840  0.33299329  -0.00023505  1
  Ru4+  Ru101  1  0.49830897  0.33784501  0.24667458  1
  Ru4+  Ru102  1  0.49474394  0.33153885  0.50646304  1
  Ru4+  Ru103  1  0.49519905  0.32812941  0.75212349  1
  Ru4+  Ru104  1  0.50114291  0.67303597  0.00001820  1
  Ru4+  Ru105  1  0.49967839  0.66847102  0.25324647  1
  Ru4+  Ru106  1  0.50402174  0.67171468  0.49744717  1
  Ru4+  Ru107  1  0.50638792  0.66746376  0.75250589  1
  Ru4+  Ru108  1  0.11006900  0.16661387  0.00129217  1
  Ru4+  Ru109  1  0.11349803  0.16359146  0.24885325  1
  Ru4+  Ru110  1  0.11606625  0.16358450  0.49733688  1
  Ru4+  Ru111  1  0.11485327  0.16855143  0.74852402  1
  Ru4+  Ru112  1  0.11209246  0.49991835  -0.00067060  1
  Ru4+  Ru113  1  0.11395904  0.50163638  0.25097495  1
  Ru4+  Ru114  1  0.11427335  0.50069617  0.50048970  1
  Ru4+  Ru115  1  0.11135741  0.49789558  0.74964095  1
  Ru4+  Ru116  1  0.10847015  0.83400909  -0.00023259  1
  Ru4+  Ru117  1  0.11198837  0.83335588  0.24935003  1
  Ru4+  Ru118  1  0.11472730  0.82796222  0.49948512  1
  Ru4+  Ru119  1  0.11083645  0.83424048  0.75113097  1
  Ru4+  Ru120  1  0.61446190  0.16693078  -0.00045237  1
  Ru4+  Ru121  1  0.61879478  0.16671093  0.25030873  1
  Ru4+  Ru122  1  0.61311711  0.16448353  0.50225125  1
  Ru4+  Ru123  1  0.61059600  0.16890907  0.74963866  1
  Ru4+  Ru124  1  0.61291775  0.49963164  0.00027897  1
  Ru4+  Ru125  1  0.60895220  0.50154859  0.25021317  1
  Ru4+  Ru126  1  0.61542813  0.50380312  0.49859477  1
  Ru4+  Ru127  1  0.61388957  0.50470034  0.74926121  1
  Ru4+  Ru128  1  0.61509517  0.83648266  -0.00049537  1
  Ru4+  Ru129  1  0.61160430  0.83075411  0.25001966  1
  Ru4+  Ru130  1  0.61029501  0.83527900  0.49933373  1
  Ru4+  Ru131  1  0.61384453  0.83313616  0.75096334  1
  Ru4+  Ru132  1  0.38696782  0.16478452  0.00006616  1
  Ru4+  Ru133  1  0.38560647  0.16536683  0.25021167  1
  Ru4+  Ru134  1  0.38504018  0.17139847  0.49999345  1
  Ru4+  Ru135  1  0.38643132  0.16928564  0.74927209  1
  Ru4+  Ru136  1  0.38555733  0.49464334  0.00216558  1
  Ru4+  Ru137  1  0.38645521  0.50085151  0.24998189  1
  Ru4+  Ru138  1  0.38290805  0.49712740  0.49805900  1
  Ru4+  Ru139  1  0.38517569  0.49553545  0.75007792  1
  Ru4+  Ru140  1  0.39103678  0.83188815  0.00010525  1
  Ru4+  Ru141  1  0.38820738  0.83217786  0.24899863  1
  Ru4+  Ru142  1  0.38973518  0.83114933  0.49831842  1
  Ru4+  Ru143  1  0.38710579  0.83521518  0.75138039  1
  Ru4+  Ru144  1  0.88741054  0.16838534  -0.00012725  1
  Ru4+  Ru145  1  0.88200563  0.16317934  0.24904882  1
  Ru4+  Ru146  1  0.88938647  0.16642605  0.49992026  1
  Ru4+  Ru147  1  0.89002787  0.16764116  0.74894805  1
  Ru4+  Ru148  1  0.88817164  0.49797397  -0.00185450  1
  Ru4+  Ru149  1  0.88583905  0.50610229  0.24924629  1
  Ru4+  Ru150  1  0.88973815  0.50200086  0.49963452  1
  Ru4+  Ru151  1  0.89191700  0.49872413  0.75253505  1
  Ru4+  Ru152  1  0.88474972  0.83446945  0.00088775  1
  Ru4+  Ru153  1  0.88418841  0.82974874  0.24823031  1
  Ru4+  Ru154  1  0.88829715  0.83304774  0.49934024  1
  Ru4+  Ru155  1  0.88902661  0.83019642  0.75019900  1
  Ru4+  Ru156  1  0.74943054  0.42719409  0.00219366  1
  Ru4+  Ru157  1  0.74988620  0.93366355  0.49935462  1
  Ru4+  Ru158  1  0.25019254  0.24903152  0.00334450  1
  Ru4+  Ru159  1  0.24970377  0.94447869  0.48400403  1
  Ru4+  Ru160  1  0.74998402  0.60538357  0.73826908  1
  Ru4+  Ru161  1  0.24987549  0.23711769  0.25071791  1
  Ru4+  Ru162  1  0.75010024  0.93067009  0.74369168  1
  Ru4+  Ru163  1  0.24995611  0.71576494  0.00414091  1
  Ru4+  Ru164  1  0.25029905  0.57838996  0.74452516  1
  Ru4+  Ru165  1  0.24969989  0.41344994  0.74797994  1
  Ru4+  Ru166  1  0.25032811  0.08653386  0.74967195  1
  Ru4+  Ru167  1  0.74984737  0.57471352  0.00001146  1
  Ru4+  Ru168  1  0.75094925  0.60422076  0.50069459  1
  Ru4+  Ru169  1  0.24944875  0.41954656  0.25209094  1
  Ru4+  Ru170  1  0.74995630  0.06619591  0.74599195  1
  Ru4+  Ru171  1  0.75013980  0.24480742  0.00265566  1
  Ru4+  Ru172  1  0.24972199  0.96616114  -0.01132074  1
  Ru4+  Ru173  1  0.25005966  0.42415577  0.49395861  1
  Ru4+  Ru174  1  0.74999692  0.27180925  0.49859765  1
  Ru4+  Ru175  1  0.24958875  0.10026745  0.00747440  1
  Ru4+  Ru176  1  0.75007619  0.39124275  0.25035025  1
  Ru4+  Ru177  1  0.25010142  0.56384086  0.00160812  1
  Ru4+  Ru178  1  0.25013027  0.73382600  0.72967287  1
  Ru4+  Ru179  1  0.24983612  0.41881380  -0.00014408  1
  O2-  O180  1  0.16612680  0.07997392  0.00052722  1
  O2-  O181  1  0.16815342  0.08250662  0.24883877  1
  O2-  O182  1  0.16560411  0.08280048  0.50057340  1
  O2-  O183  1  0.16850254  0.08102393  0.75007984  1
  O2-  O184  1  0.16914545  0.41258488  -0.00106195  1
  O2-  O185  1  0.16910962  0.41438559  0.25059994  1
  O2-  O186  1  0.16682454  0.41391542  0.49857572  1
  O2-  O187  1  0.16786317  0.41402767  0.75093957  1
  O2-  O188  1  0.16520142  0.74348969  0.00031732  1
  O2-  O189  1  0.16462111  0.74783143  0.25051522  1
  O2-  O190  1  0.16317672  0.74340420  0.50050438  1
  O2-  O191  1  0.16820758  0.74685822  0.74767600  1
  O2-  O192  1  0.66911744  0.08163068  -0.00060023  1
  O2-  O193  1  0.66627879  0.08209035  0.24737026  1
  O2-  O194  1  0.66381791  0.07825379  0.49985349  1
  O2-  O195  1  0.66631472  0.07927762  0.75032473  1
  O2-  O196  1  0.66837710  0.41408282  0.00071821  1
  O2-  O197  1  0.66674353  0.41219138  0.24825115  1
  O2-  O198  1  0.66492476  0.41158653  0.50125977  1
  O2-  O199  1  0.66545315  0.41222404  0.74835287  1
  O2-  O200  1  0.66365331  0.74688642  0.00151642  1
  O2-  O201  1  0.66869987  0.74632426  0.24766217  1
  O2-  O202  1  0.66328710  0.74653498  0.50070744  1
  O2-  O203  1  0.66649037  0.74625775  0.74623358  1
  O2-  O204  1  0.33062301  0.25408620  0.00051197  1
  O2-  O205  1  0.33187625  0.25342032  0.24893639  1
  O2-  O206  1  0.32906842  0.24954582  0.50023613  1
  O2-  O207  1  0.33474514  0.25087491  0.75139488  1
  O2-  O208  1  0.33338567  0.58445907  0.00028390  1
  O2-  O209  1  0.33510708  0.58242396  0.24857015  1
  O2-  O210  1  0.33450883  0.58463842  0.50117634  1
  O2-  O211  1  0.33398191  0.58569217  0.74786952  1
  O2-  O212  1  0.33507591  0.92205087  -0.00035572  1
  O2-  O213  1  0.33638088  0.91842340  0.25000160  1
  O2-  O214  1  0.33335059  0.91942544  0.49970875  1
  O2-  O215  1  0.33551911  0.92174733  0.75195687  1
  O2-  O216  1  0.83280341  0.25245568  -0.00085054  1
  O2-  O217  1  0.83387556  0.25175487  0.25040639  1
  O2-  O218  1  0.83252829  0.25396758  0.50004683  1
  O2-  O219  1  0.83278976  0.25453978  0.74942340  1
  O2-  O220  1  0.83229974  0.58517887  0.00035775  1
  O2-  O221  1  0.83332399  0.59001626  0.25000652  1
  O2-  O222  1  0.83420948  0.58653112  0.50015254  1
  O2-  O223  1  0.83312241  0.58781251  0.74945250  1
  O2-  O224  1  0.83581908  0.91936491  -0.00065230  1
  O2-  O225  1  0.83049624  0.92055997  0.25089960  1
  O2-  O226  1  0.83387114  0.92033968  0.49999192  1
  O2-  O227  1  0.83393447  0.92118675  0.74917992  1
  O2-  O228  1  0.16828098  0.25376271  0.00021302  1
  O2-  O229  1  0.16400187  0.25116476  0.25031777  1
  O2-  O230  1  0.16649386  0.25070558  0.49909809  1
  O2-  O231  1  0.16771231  0.25075597  0.75301299  1
  O2-  O232  1  0.16633193  0.58514159  0.00050670  1
  O2-  O233  1  0.16457832  0.58429107  0.25013247  1
  O2-  O234  1  0.16531869  0.58573084  0.50193347  1
  O2-  O235  1  0.16513419  0.58517863  0.74860984  1
  O2-  O236  1  0.16401548  0.92356771  0.00048663  1
  O2-  O237  1  0.16486777  0.91990784  0.24934617  1
  O2-  O238  1  0.16755907  0.92051191  0.49948365  1
  O2-  O239  1  0.16292719  0.92252196  0.75146312  1
  O2-  O240  1  0.66647240  0.25092676  0.00015829  1
  O2-  O241  1  0.66651375  0.25186139  0.24717343  1
  O2-  O242  1  0.66760656  0.25470285  0.49917871  1
  O2-  O243  1  0.66545344  0.25323989  0.74841081  1
  O2-  O244  1  0.66816998  0.58507007  0.00213199  1
  O2-  O245  1  0.66566667  0.58893267  0.24896205  1
  O2-  O246  1  0.66815696  0.58726057  0.50134462  1
  O2-  O247  1  0.66658926  0.58655760  0.74890677  1
  O2-  O248  1  0.66687702  0.91877108  0.00145432  1
  O2-  O249  1  0.66602621  0.91988107  0.24854974  1
  O2-  O250  1  0.66711732  0.91986606  0.49902003  1
  O2-  O251  1  0.66583485  0.91963626  0.74963124  1
  O2-  O252  1  0.33485926  0.08223804  -0.00026953  1
  O2-  O253  1  0.33639880  0.08273892  0.24988853  1
  O2-  O254  1  0.33598583  0.08307714  0.49826642  1
  O2-  O255  1  0.33206654  0.07976591  0.75009672  1
  O2-  O256  1  0.33196824  0.41412544  -0.00038156  1
  O2-  O257  1  0.33093311  0.41686405  0.24766571  1
  O2-  O258  1  0.33123833  0.41443503  0.49925399  1
  O2-  O259  1  0.33185826  0.41553098  0.75151799  1
  O2-  O260  1  0.33386728  0.74442717  0.00022711  1
  O2-  O261  1  0.33326655  0.74836182  0.25065920  1
  O2-  O262  1  0.33579122  0.74586712  0.50155482  1
  O2-  O263  1  0.33252965  0.74758754  0.74832318  1
  O2-  O264  1  0.83297220  0.08099661  -0.00083515  1
  O2-  O265  1  0.83229375  0.08097730  0.25107521  1
  O2-  O266  1  0.83823086  0.07793971  0.50109840  1
  O2-  O267  1  0.83451284  0.07901338  0.75004070  1
  O2-  O268  1  0.83103836  0.41535359  -0.00014121  1
  O2-  O269  1  0.83284706  0.41190812  0.24931493  1
  O2-  O270  1  0.83556558  0.40998561  0.50003635  1
  O2-  O271  1  0.83519125  0.41111511  0.74856516  1
  O2-  O272  1  0.83513235  0.74605733  0.00065955  1
  O2-  O273  1  0.83291980  0.74565365  0.24976082  1
  O2-  O274  1  0.83740302  0.74536669  0.50099189  1
  O2-  O275  1  0.83580950  0.74590948  0.74749010  1
  O2-  O276  1  0.44778464  0.56677639  0.51374633  1
  O2-  O277  1  0.46050654  0.43719012  0.26004155  1
  O2-  O278  1  0.45411839  0.10035278  0.26017491  1
  O2-  O279  1  0.95543140  0.10024560  0.01763241  1
  O2-  O280  1  0.55261777  0.23521651  0.51280168  1
  O2-  O281  1  0.95499795  0.76041774  0.48527490  1
  O2-  O282  1  0.95834911  0.89356377  0.25495542  1
  O2-  O283  1  0.05186216  0.09433039  0.23647145  1
  O2-  O284  1  0.05118090  0.23655447  0.48330522  1
  O2-  O285  1  0.45336569  0.56828039  0.73205267  1
  O2-  O286  1  0.54319894  0.24187382  0.26334659  1
  O2-  O287  1  0.46885695  0.88664119  0.74546279  1
  O2-  O288  1  0.54185128  0.78474542  0.75605128  1
  O2-  O289  1  0.95162020  0.42817900  0.23311848  1
  O2-  O290  1  0.95382278  0.43383408  0.27165538  1
  O2-  O291  1  0.04886579  0.09874098  0.48670588  1
  O2-  O292  1  0.55126524  0.10024348  0.26696667  1
  O2-  O293  1  0.54419620  0.09775866  0.73415048  1
  O2-  O294  1  0.45292142  0.90272679  0.51366297  1
  O2-  O295  1  0.54346459  0.42525083  0.48531859  1
  O2-  O296  1  0.04030372  0.10272178  0.25676982  1
  O2-  O297  1  0.95477091  0.43081457  0.48853263  1
  O2-  O298  1  0.04486067  0.56878941  0.51391320  1
  O2-  O299  1  0.54910123  0.43264865  0.76251406  1
  O2-  O300  1  0.95664130  0.43207359  0.00809234  1
  O2-  O301  1  0.95279507  0.23931745  0.48528667  1
  O2-  O302  1  0.54354115  0.57162068  0.51459122  1
  O2-  O303  1  0.46552738  0.20561906  0.50362878  1
  O2-  O304  1  0.53963366  0.10997077  0.97372609  1
  O2-  O305  1  0.05087787  0.89868165  0.51456773  1
  O2-  O306  1  0.95593434  0.89716029  0.27052760  1
  O2-  O307  1  0.95415048  0.76581092  0.01287304  1
  O2-  O308  1  0.95003016  0.42602267  0.98244141  1
  O2-  O309  1  0.95210640  0.90748266  0.51239489  1
  O2-  O310  1  0.03598990  0.77530157  0.71665649  1
  O2-  O311  1  0.45124575  0.43515430  0.23533665  1
  O2-  O312  1  0.95173426  0.09301835  0.48414798  1
  O2-  O313  1  0.46038653  0.22204463  0.97527030  1
  O2-  O314  1  0.46420016  0.89715791  0.78168164  1
  O2-  O315  1  0.95432186  0.23864884  0.23976001  1
  O2-  O316  1  0.95394415  0.90082914  0.76191326  1
  O2-  O317  1  0.45167587  0.56470584  0.98253172  1
  O2-  O318  1  0.95390064  0.57140920  0.98488568  1
  O2-  O319  1  0.46893669  0.20852513  0.49509346  1
  O2-  O320  1  0.05247937  0.90173892  0.23333195  1
  O2-  O321  1  0.03861657  0.22337758  0.78376426  1
  O2-  O322  1  0.54330986  0.55807645  0.48964763  1
  O2-  O323  1  0.45755202  0.76802414  0.75272922  1
  O2-  O324  1  0.56896475  0.06814277  0.04099375  1
  O2-  O325  1  0.43579890  0.73993102  0.96963610  1
  O2-  O326  1  0.56418200  0.92931512  0.43626591  1
  O2-  O327  1  0.43516634  0.41002271  0.02909901  1
  O2-  O328  1  0.56521474  0.25666574  0.27327938  1
  O2-  O329  1  0.06553846  0.40620261  0.22604932  1
  O2-  O330  1  0.42368503  0.71467148  0.79194287  1
  O2-  O331  1  0.56130039  0.07286954  0.53415171  1
  O2-  O332  1  0.56937884  0.59720726  0.46974614  1
  O2-  O333  1  0.42036077  0.96464702  0.68849721  1
  O2-  O334  1  0.56258181  0.40360963  0.96893589  1
  O2-  O335  1  0.42970150  0.26455629  0.03891253  1
  O2-  O336  1  0.43781244  0.59520863  0.28413825  1
  O2-  O337  1  0.06760375  0.40600419  0.02537189  1
  O2-  O338  1  0.57561404  0.72092660  0.78274984  1
  O2-  O339  1  0.93430626  0.25589986  0.22499534  1
  O2-  O340  1  0.06259104  0.40250516  0.81828039  1
  O2-  O341  1  0.43742039  0.73557701  0.46948108  1
  O2-  O342  1  0.06231989  0.41164440  0.68242190  1
  O2-  O343  1  0.06286334  0.92902309  0.52498584  1
  O2-  O344  1  0.44045188  0.59677812  0.53200897  1
  O2-  O345  1  0.41970553  0.27617004  0.56584975  1
  O2-  O346  1  0.06937782  0.06597743  0.27997458  1
  O2-  O347  1  0.43487676  0.25482845  0.27856032  1
  O2-  O348  1  0.93682510  0.07640018  0.21631036  1
  O2-  O349  1  0.43773075  0.92886294  0.03412607  1
  O2-  O350  1  0.43063697  0.40351356  0.27713155  1
  O2-  O351  1  0.07204739  0.27281907  0.68847963  1
  O2-  O352  1  0.93801080  0.26551033  0.71618207  1
  O2-  O353  1  0.56412970  0.92574801  0.56641098  1
  O2-  O354  1  0.06555793  0.92540445  0.72258303  1
  O2-  O355  1  0.43831743  0.59390484  0.71744407  1
  O2-  O356  1  0.56558940  0.92415274  0.97330030  1
  O2-  O357  1  0.56487159  0.74331819  0.52775807  1
  O2-  O358  1  0.56076168  0.07079791  0.28422486  1
  O2-  O359  1  0.56085526  0.40639887  0.78263556  1
  O2-  O360  1  0.92758168  0.40092453  0.02948899  1
  O2-  O361  1  0.56481977  0.74038817  0.27140666  1
  O2-  O362  1  0.06444369  0.07621775  0.72405508  1
  O2-  O363  1  0.56533087  0.41033333  0.47465775  1
  O2-  O364  1  0.43543503  0.41444059  0.52885936  1
  O2-  O365  1  0.43908726  0.59228590  0.96596864  1
  O2-  O366  1  0.92597260  0.94663528  0.19608173  1
  O2-  O367  1  0.07903874  0.72864847  0.79944096  1
  O2-  O368  1  0.41792139  0.27676409  0.43752319  1
  O2-  O369  1  0.43690247  0.74386862  0.22155774  1
  O2-  O370  1  0.43398457  0.40788428  0.77976307  1
  O2-  O371  1  0.06190730  0.26599572  0.46761766  1
  O2-  O372  1  0.24977528  0.66782028  0.42119996  1
  O2-  O373  1  0.24988870  0.33467259  0.15775676  1
  O2-  O374  1  0.75006399  0.33118007  0.35122904  1
  O2-  O375  1  0.24970277  0.64235668  0.91280819  1
  O2-  O376  1  0.75009713  0.66446522  0.84894447  1
  O2-  O377  1  0.75023268  0.33359224  0.93347994  1
  O2-  O378  1  0.75040230  0.66742933  0.39762990  1
  O2-  O379  1  0.24985957  0.66644971  0.82316406  1
  O2-  O380  1  0.75005074  0.00076611  0.85262173  1
  O2-  O381  1  0.24957313  0.33477365  0.34253956  1
  O2-  O382  1  0.24968820  0.64374806  0.09628306  1
  O2-  O383  1  0.24985557  0.66883010  0.18200194  1
  O2-  O384  1  0.24997380  -0.00346323  0.18365186  1
  O2-  O385  1  0.24963185  -0.00084494  0.59774436  1
  O2-  O386  1  0.75004553  0.33574612  0.81658054  1
  O2-  O387  1  0.24980015  0.66880582  0.33090061  1
  O2-  O388  1  0.75005125  0.33438475  0.09467504  1
  O2-  O389  1  0.25022263  0.01055623  0.87971012  1
  O2-  O390  1  0.75003437  0.67001829  0.60133384  1
  O2-  O391  1  0.24976088  0.33710819  0.65593487  1
  O2-  O392  1  0.24969609  0.01575995  0.09583679  1
  O2-  O393  1  0.75038999  0.00569055  0.59982295  1
  O2-  O394  1  0.24966314  -0.00615636  0.35633045  1
  O2-  O395  1  0.75051013  0.00301145  0.40118343  1
  O2-  O396  1  0.75022177  0.83290964  0.09305181  1
  O2-  O397  1  0.74998116  0.15567773  0.67637562  1
  O2-  O398  1  0.24980251  0.49946950  0.84210320  1
  O2-  O399  1  0.75005609  0.16491102  0.30203223  1
  O2-  O400  1  0.24977137  0.49249000  0.40945505  1
  O2-  O401  1  0.25005030  0.82154751  0.87155843  1
  O2-  O402  1  0.25014464  0.84550383  0.39563110  1
  O2-  O403  1  0.24981481  0.49613753  0.09644255  1
  O2-  O404  1  0.75002679  0.83718134  0.91118822  1
  O2-  O405  1  0.75003547  0.84498306  0.58398925  1
  O2-  O406  1  0.25006714  0.16958608  0.91645396  1
  O2-  O407  1  0.74999964  0.19047668  0.59527052  1
  O2-  O408  1  0.74999062  0.18231298  0.38363585  1
  O2-  O409  1  0.24993239  0.17202958  0.33685324  1
  O2-  O410  1  0.74990152  0.84016995  0.66987232  1
  O2-  O411  1  0.24982042  0.49667675  0.66779808  1
  O2-  O412  1  0.75027958  0.50804148  0.64114063  1
  O2-  O413  1  0.25000993  0.50242271  0.57822823  1
  O2-  O414  1  0.25004486  0.83134074  0.13672751  1
  O2-  O415  1  0.24996529  0.17165410  0.15735359  1
  O2-  O416  1  0.24995939  0.16991316  0.82500599  1
  O2-  O417  1  0.75025042  0.49935236  0.35955743  1
  O2-  O418  1  0.75015411  0.84289823  0.35253815  1
  O2-  O419  1  0.25012725  0.82348611  0.64004007  1
  O2-  O420  1  0.47943445  0.33156594  0.13021098  1
  O2-  O421  1  0.01785058  0.00596155  0.62169296  1
  O2-  O422  1  0.02707718  0.66701669  0.37467442  1
  O2-  O423  1  0.52288834  0.66554443  0.37275043  1
  O2-  O424  1  0.53275693  0.33414835  0.37209720  1
  O2-  O425  1  0.54458124  0.33467503  0.62784813  1
  O2-  O426  1  0.52559123  0.65955846  0.88237693  1
  O2-  O427  1  0.46278261  0.00499786  0.88283731  1
  O2-  O428  1  0.46338921  0.33690654  0.64334795  1
  O2-  O429  1  0.53347502  0.00084877  0.86466648  1
  O2-  O430  1  0.52465150  -0.00691172  0.13305667  1
  O2-  O431  1  0.52633907  0.66339896  0.62998084  1
  O2-  O432  1  0.03871982  0.65591848  0.88625982  1
  O2-  O433  1  0.47502493  0.34025051  0.38049957  1
  O2-  O434  1  0.96460420  0.33023886  0.12296778  1
  O2-  O435  1  0.47497934  0.33107636  0.87736732  1
  O2-  O436  1  0.95602584  0.66983938  0.86981140  1
  O2-  O437  1  0.03686734  0.31983484  0.12664450  1
  O2-  O438  1  0.47648131  0.66096236  0.12082760  1
  O2-  O439  1  0.02742975  0.66781582  0.12438922  1
  O2-  O440  1  0.02391818  -0.00901861  0.38233004  1
  O2-  O441  1  0.97223489  0.00285584  0.87397825  1
  O2-  O442  1  0.47128887  0.00034909  0.37539870  1
  O2-  O443  1  0.97182001  0.66518949  0.62679228  1
