# generated using pymatgen
data_La7(Ru4O11)2
_symmetry_space_group_name_H-M   'P 1'
_cell_length_a   23.99502417
_cell_length_b   16.83463162
_cell_length_c   15.43159023
_cell_angle_alpha   89.99504937
_cell_angle_beta   89.99993371
_cell_angle_gamma   90.00106994
_symmetry_Int_Tables_number   1
_chemical_formula_structural   La7(Ru4O11)2
_chemical_formula_sum   'La84 Ru96 O264'
_cell_volume   6233.55061495
_cell_formula_units_Z   12
loop_
 _symmetry_equiv_pos_site_id
 _symmetry_equiv_pos_as_xyz
  1  'x, y, z'
loop_
 _atom_type_symbol
 _atom_type_oxidation_number
  La3+  3.0
  Ru4+  4.0
  O2-  -2.0
loop_
 _atom_site_type_symbol
 _atom_site_label
 _atom_site_symmetry_multiplicity
 _atom_site_fract_x
 _atom_site_fract_y
 _atom_site_fract_z
 _atom_site_occupancy
  La3+  La0  1  0.13759354  0.00319187  0.12988677  1
  La3+  La1  1  0.13550309  0.00551885  0.37705410  1
  La3+  La2  1  0.13752751  0.00311765  0.61605363  1
  La3+  La3  1  0.14163342  0.00229137  0.87843158  1
  La3+  La4  1  0.15116880  0.32632676  0.12690145  1
  La3+  La5  1  0.13467885  0.33103714  0.37262152  1
  La3+  La6  1  0.13625269  0.32773806  0.62539862  1
  La3+  La7  1  0.14243553  0.33149386  0.87691374  1
  La3+  La8  1  0.14832724  0.66007529  0.12680793  1
  La3+  La9  1  0.14836365  0.65880008  0.36937004  1
  La3+  La10  1  0.14189990  0.66266422  0.62150748  1
  La3+  La11  1  0.13235804  0.65828975  0.87915577  1
  La3+  La12  1  0.63245222  -0.00360909  0.12042198  1
  La3+  La13  1  0.64556506  0.00055122  0.37858701  1
  La3+  La14  1  0.64748987  0.01231171  0.62569631  1
  La3+  La15  1  0.62992070  0.00248563  0.87735098  1
  La3+  La16  1  0.65123282  0.33934554  0.12802965  1
  La3+  La17  1  0.63091915  0.33089441  0.37230660  1
  La3+  La18  1  0.62780469  0.32969885  0.62705096  1
  La3+  La19  1  0.63788815  0.33769042  0.87551295  1
  La3+  La20  1  0.63782244  0.66547999  0.12526785  1
  La3+  La21  1  0.64011982  0.66665786  0.36998241  1
  La3+  La22  1  0.63156902  0.66849021  0.63086707  1
  La3+  La23  1  0.63578942  0.67445600  0.86992016  1
  La3+  La24  1  0.35801970  0.00123744  0.12844722  1
  La3+  La25  1  0.35821113  0.00564001  0.36961359  1
  La3+  La26  1  0.36375925  0.00399496  0.62473319  1
  La3+  La27  1  0.35955725  0.00401289  0.87809780  1
  La3+  La28  1  0.34906655  0.33053027  0.12673329  1
  La3+  La29  1  0.36211084  0.32405952  0.37306919  1
  La3+  La30  1  0.34779472  0.33780270  0.61967270  1
  La3+  La31  1  0.35809412  0.33844629  0.87635810  1
  La3+  La32  1  0.35313166  0.66836219  0.12632383  1
  La3+  La33  1  0.34746596  0.66200089  0.36715186  1
  La3+  La34  1  0.35339888  0.66343563  0.62678089  1
  La3+  La35  1  0.36854765  0.66436139  0.87336609  1
  La3+  La36  1  0.85341309  -0.00393713  0.12363213  1
  La3+  La37  1  0.85105479  -0.00125672  0.37860202  1
  La3+  La38  1  0.85738742  0.00945251  0.62111670  1
  La3+  La39  1  0.86592876  0.00281318  0.87525825  1
  La3+  La40  1  0.85253480  0.34057048  0.12530268  1
  La3+  La41  1  0.85875370  0.33120914  0.36533374  1
  La3+  La42  1  0.86653966  0.32488656  0.62655385  1
  La3+  La43  1  0.86480590  0.33484113  0.88361555  1
  La3+  La44  1  0.85290822  0.66302019  0.12730678  1
  La3+  La45  1  0.86139946  0.66547270  0.36549260  1
  La3+  La46  1  0.85882871  0.66604643  0.62494926  1
  La3+  La47  1  0.86778554  0.66251767  0.87341904  1
  La3+  La48  1  0.49601169  0.83440793  0.34976503  1
  La3+  La49  1  0.00500200  0.15957500  0.87287520  1
  La3+  La50  1  0.00260608  0.50141735  0.63480543  1
  La3+  La51  1  -0.00171767  0.83010456  0.86988630  1
  La3+  La52  1  0.00241983  0.49300456  0.61436175  1
  La3+  La53  1  0.00401733  0.83870515  0.12455410  1
  La3+  La54  1  0.49358046  0.48982895  0.12857019  1
  La3+  La55  1  0.49553766  0.82349991  0.36892005  1
  La3+  La56  1  0.50005635  0.16456465  0.12419625  1
  La3+  La57  1  0.50389995  0.15839651  0.36928296  1
  La3+  La58  1  0.49984626  0.49471553  0.62808728  1
  La3+  La59  1  -0.00200664  0.16285222  0.38326379  1
  La3+  La60  1  -0.00243822  0.49985606  0.90281096  1
  La3+  La61  1  0.00555703  0.83949610  0.39755596  1
  La3+  La62  1  0.50391283  0.83758645  0.62159965  1
  La3+  La63  1  0.00064134  0.83119037  0.14485734  1
  La3+  La64  1  -0.00078054  0.49689262  0.88599042  1
  La3+  La65  1  0.49713046  0.82995206  0.87220075  1
  La3+  La66  1  0.50035442  0.50463020  0.38038867  1
  La3+  La67  1  0.50687884  0.15945974  0.85144607  1
  La3+  La68  1  0.50671515  0.17379754  0.10697474  1
  La3+  La69  1  0.00294592  0.50589147  0.36212130  1
  La3+  La70  1  0.00922051  0.15562151  0.62656052  1
  La3+  La71  1  -0.00548692  0.84659550  0.63309156  1
  La3+  La72  1  0.25072205  0.16605813  0.46142610  1
  La3+  La73  1  0.25241620  0.78345402  0.49173440  1
  La3+  La74  1  0.75009189  0.20912670  0.04109647  1
  La3+  La75  1  0.25083513  0.84603926  -0.02544046  1
  La3+  La76  1  0.25053031  0.81444939  0.24894789  1
  La3+  La77  1  0.74979358  0.42972800  0.48786403  1
  La3+  La78  1  0.74868210  0.48917024  0.23578546  1
  La3+  La79  1  0.25041926  0.53386474  0.49756273  1
  La3+  La80  1  0.74972819  0.88668513  0.53431571  1
  La3+  La81  1  0.74994586  0.53123980  0.74844326  1
  La3+  La82  1  0.75135343  0.87913210  0.76217698  1
  La3+  La83  1  0.25056321  0.20655394  0.82567544  1
  Ru4+  Ru84  1  -0.00177306  0.00602549  0.00821933  1
  Ru4+  Ru85  1  -0.00701372  0.01354751  0.25328813  1
  Ru4+  Ru86  1  -0.00450105  -0.00450316  0.49907680  1
  Ru4+  Ru87  1  -0.00016021  0.00228684  0.75101269  1
  Ru4+  Ru88  1  0.00314032  0.32678219  0.00692916  1
  Ru4+  Ru89  1  0.00148662  0.34189064  0.24303356  1
  Ru4+  Ru90  1  -0.00457870  0.31979307  0.49440261  1
  Ru4+  Ru91  1  0.00070911  0.33626908  0.74722606  1
  Ru4+  Ru92  1  -0.00529720  0.67177682  0.00276842  1
  Ru4+  Ru93  1  0.00177413  0.66712406  0.24693362  1
  Ru4+  Ru94  1  -0.00242834  0.67442389  0.51734910  1
  Ru4+  Ru95  1  0.00155024  0.67104070  0.75282050  1
  Ru4+  Ru96  1  0.49341601  -0.00642509  0.00162079  1
  Ru4+  Ru97  1  0.50478029  -0.00102247  0.25171227  1
  Ru4+  Ru98  1  0.50314489  0.00060983  0.50932497  1
  Ru4+  Ru99  1  0.50337807  0.00611966  0.73723095  1
  Ru4+  Ru100  1  0.48941049  0.32720579  -0.00010104  1
  Ru4+  Ru101  1  0.50112842  0.33639985  0.24893166  1
  Ru4+  Ru102  1  0.50085904  0.33092672  0.50382008  1
  Ru4+  Ru103  1  0.49794106  0.33489521  0.75343094  1
  Ru4+  Ru104  1  0.50244066  0.66118473  0.01097095  1
  Ru4+  Ru105  1  0.50282757  0.66247946  0.24432337  1
  Ru4+  Ru106  1  0.50579660  0.66260225  0.49949156  1
  Ru4+  Ru107  1  0.49708752  0.65880128  0.75186102  1
  Ru4+  Ru108  1  0.11027137  0.16823955  0.00112304  1
  Ru4+  Ru109  1  0.11566170  0.16645208  0.25010387  1
  Ru4+  Ru110  1  0.11747282  0.17002852  0.49957976  1
  Ru4+  Ru111  1  0.10568272  0.16599243  0.75148923  1
  Ru4+  Ru112  1  0.10655988  0.48229178  0.01335153  1
  Ru4+  Ru113  1  0.11310741  0.49874805  0.24611798  1
  Ru4+  Ru114  1  0.11447547  0.48823646  0.49919350  1
  Ru4+  Ru115  1  0.11139229  0.50354992  0.74738200  1
  Ru4+  Ru116  1  0.11298006  0.83194447  -0.00211741  1
  Ru4+  Ru117  1  0.11136510  0.83236178  0.25105610  1
  Ru4+  Ru118  1  0.10933716  0.82530757  0.49708091  1
  Ru4+  Ru119  1  0.11179248  0.82929972  0.75136465  1
  Ru4+  Ru120  1  0.61531467  0.17205678  -0.00530572  1
  Ru4+  Ru121  1  0.61499994  0.16631048  0.25442998  1
  Ru4+  Ru122  1  0.60997401  0.16929872  0.50068793  1
  Ru4+  Ru123  1  0.61592476  0.16519224  0.75124688  1
  Ru4+  Ru124  1  0.60972713  0.50679327  -0.01004103  1
  Ru4+  Ru125  1  0.60690849  0.50068271  0.25563646  1
  Ru4+  Ru126  1  0.60731382  0.50138002  0.49896248  1
  Ru4+  Ru127  1  0.60560646  0.50341397  0.75584152  1
  Ru4+  Ru128  1  0.60978916  0.83521861  0.00219404  1
  Ru4+  Ru129  1  0.61633094  0.83293068  0.24481344  1
  Ru4+  Ru130  1  0.61126305  0.83531380  0.50689040  1
  Ru4+  Ru131  1  0.61358814  0.84401492  0.75508386  1
  Ru4+  Ru132  1  0.38881829  0.16606860  -0.00495378  1
  Ru4+  Ru133  1  0.38436385  0.16772099  0.25908096  1
  Ru4+  Ru134  1  0.39256819  0.16797133  0.50200138  1
  Ru4+  Ru135  1  0.39832245  0.18419435  0.74563897  1
  Ru4+  Ru136  1  0.39146124  0.49998017  -0.00178904  1
  Ru4+  Ru137  1  0.38722620  0.50356388  0.25413178  1
  Ru4+  Ru138  1  0.39259305  0.49472003  0.49945958  1
  Ru4+  Ru139  1  0.38756293  0.50399722  0.74956400  1
  Ru4+  Ru140  1  0.39274206  0.83191561  0.00585211  1
  Ru4+  Ru141  1  0.38980515  0.83924154  0.24786707  1
  Ru4+  Ru142  1  0.39026219  0.83056485  0.50313373  1
  Ru4+  Ru143  1  0.38873569  0.83234542  0.74909510  1
  Ru4+  Ru144  1  0.89481828  0.17573245  0.00652253  1
  Ru4+  Ru145  1  0.89892313  0.15351684  0.23962504  1
  Ru4+  Ru146  1  0.88934573  0.17214518  0.49834001  1
  Ru4+  Ru147  1  0.88904524  0.16838807  0.74421883  1
  Ru4+  Ru148  1  0.88036769  0.50195160  -0.00354044  1
  Ru4+  Ru149  1  0.89107474  0.50365085  0.24851963  1
  Ru4+  Ru150  1  0.88823225  0.50037214  0.49863411  1
  Ru4+  Ru151  1  0.89171162  0.49463901  0.74854373  1
  Ru4+  Ru152  1  0.88656463  0.83647200  -0.00477357  1
  Ru4+  Ru153  1  0.88328320  0.82866835  0.24869721  1
  Ru4+  Ru154  1  0.88869900  0.83218477  0.50027415  1
  Ru4+  Ru155  1  0.88736239  0.83275767  0.75091305  1
  Ru4+  Ru156  1  0.25036464  0.07255569  0.73916861  1
  Ru4+  Ru157  1  0.24946001  0.42485181  0.74550428  1
  Ru4+  Ru158  1  0.75007210  0.38747931  0.74316625  1
  Ru4+  Ru159  1  0.25098965  0.42501294  0.25445443  1
  Ru4+  Ru160  1  0.75168092  0.07867545  0.76172146  1
  Ru4+  Ru161  1  0.74921804  0.09832691  0.26747041  1
  Ru4+  Ru162  1  0.74877194  0.73534262  0.78105172  1
  Ru4+  Ru163  1  0.25097096  0.38869180  0.50124441  1
  Ru4+  Ru164  1  0.25044428  0.93614589  0.50042053  1
  Ru4+  Ru165  1  0.74945098  0.75495562  0.00180789  1
  Ru4+  Ru166  1  0.74904723  0.90949061  0.24549360  1
  Ru4+  Ru167  1  0.75031121  0.24860225  0.76351357  1
  Ru4+  Ru168  1  0.24986373  0.90010472  0.73192985  1
  Ru4+  Ru169  1  0.25120795  0.40663632  -0.00364442  1
  Ru4+  Ru170  1  0.74915478  0.23297816  0.48313332  1
  Ru4+  Ru171  1  0.24901874  0.97845423  0.04227438  1
  Ru4+  Ru172  1  0.74870992  0.56878118  -0.00345355  1
  Ru4+  Ru173  1  0.24897324  0.57302917  0.00148473  1
  Ru4+  Ru174  1  0.74982807  0.74294894  0.47782369  1
  Ru4+  Ru175  1  0.74938033  0.07311152  -0.03449134  1
  Ru4+  Ru176  1  0.74855432  0.58606701  0.48833797  1
  Ru4+  Ru177  1  0.24882612  0.75432214  0.74341170  1
  Ru4+  Ru178  1  0.74935820  0.89853081  -0.00916015  1
  Ru4+  Ru179  1  0.25079389  0.70392976  -0.03945470  1
  O2-  O180  1  0.16054808  0.08371614  0.00372518  1
  O2-  O181  1  0.16068850  0.07993321  0.25120435  1
  O2-  O182  1  0.17019971  0.08124151  0.50029690  1
  O2-  O183  1  0.16390461  0.07727646  0.75011208  1
  O2-  O184  1  0.16867541  0.41347635  -0.00231130  1
  O2-  O185  1  0.16799509  0.41259964  0.25707381  1
  O2-  O186  1  0.17089855  0.41069450  0.50057612  1
  O2-  O187  1  0.16455459  0.41244260  0.74492038  1
  O2-  O188  1  0.16809091  0.74251531  -0.00811105  1
  O2-  O189  1  0.16435276  0.74868427  0.25070587  1
  O2-  O190  1  0.16558797  0.74387659  0.50940059  1
  O2-  O191  1  0.16475495  0.74579155  0.75129201  1
  O2-  O192  1  0.66690255  0.07990885  -0.00247688  1
  O2-  O193  1  0.66665463  0.08120971  0.25184900  1
  O2-  O194  1  0.65880110  0.08503270  0.49662285  1
  O2-  O195  1  0.66978799  0.08041695  0.75817613  1
  O2-  O196  1  0.65769850  0.41791632  -0.00174267  1
  O2-  O197  1  0.66196242  0.41326995  0.25852736  1
  O2-  O198  1  0.65811908  0.40613469  0.49937367  1
  O2-  O199  1  0.66537402  0.41321850  0.74559248  1
  O2-  O200  1  0.66440853  0.74982699  -0.00119749  1
  O2-  O201  1  0.66428829  0.74461782  0.24821767  1
  O2-  O202  1  0.66668218  0.74965981  0.50239192  1
  O2-  O203  1  0.66687916  0.75392156  0.74366377  1
  O2-  O204  1  0.33029821  0.24332744  -0.01254703  1
  O2-  O205  1  0.33304353  0.25196690  0.25149399  1
  O2-  O206  1  0.33109104  0.25047170  0.49293316  1
  O2-  O207  1  0.32744069  0.25224830  0.75766639  1
  O2-  O208  1  0.33404597  0.58355565  -0.00083571  1
  O2-  O209  1  0.33480719  0.58120559  0.24458090  1
  O2-  O210  1  0.33989120  0.58754575  0.50093067  1
  O2-  O211  1  0.33830322  0.58708548  0.75295722  1
  O2-  O212  1  0.33493283  0.92020623  -0.00182935  1
  O2-  O213  1  0.33594535  0.92102136  0.25404949  1
  O2-  O214  1  0.33132368  0.92219226  0.50109773  1
  O2-  O215  1  0.33614677  0.91651662  0.74335424  1
  O2-  O216  1  0.83146925  0.25505263  -0.00642549  1
  O2-  O217  1  0.84774218  0.24184665  0.25109191  1
  O2-  O218  1  0.83167073  0.25520963  0.50046592  1
  O2-  O219  1  0.83219809  0.25254964  0.75292630  1
  O2-  O220  1  0.82926666  0.58842175  -0.00423727  1
  O2-  O221  1  0.82828405  0.58439695  0.24727589  1
  O2-  O222  1  0.83405601  0.58581629  0.49884975  1
  O2-  O223  1  0.83943421  0.59007114  0.74997357  1
  O2-  O224  1  0.83289894  0.91741330  -0.01223299  1
  O2-  O225  1  0.83168174  0.91747092  0.25099471  1
  O2-  O226  1  0.83768391  0.92211418  0.50557553  1
  O2-  O227  1  0.83856688  0.92503624  0.74673281  1
  O2-  O228  1  0.16833811  0.24790572  -0.00567514  1
  O2-  O229  1  0.16161846  0.25205036  0.25690193  1
  O2-  O230  1  0.16833628  0.25539392  0.50004744  1
  O2-  O231  1  0.16411706  0.25420141  0.74669415  1
  O2-  O232  1  0.16119749  0.57659195  -0.00513046  1
  O2-  O233  1  0.16641819  0.57715886  0.24576646  1
  O2-  O234  1  0.16100661  0.58578760  0.50157269  1
  O2-  O235  1  0.16068212  0.58768597  0.75336184  1
  O2-  O236  1  0.16716103  0.92235920  -0.00219990  1
  O2-  O237  1  0.16298071  0.92002657  0.25242875  1
  O2-  O238  1  0.16684658  0.91818334  0.50061078  1
  O2-  O239  1  0.16599287  0.91670509  0.74511426  1
  O2-  O240  1  0.66598970  0.25789882  -0.00151566  1
  O2-  O241  1  0.66424872  0.25253363  0.25594513  1
  O2-  O242  1  0.66870071  0.25616887  0.49641261  1
  O2-  O243  1  0.66856166  0.25254585  0.74610855  1
  O2-  O244  1  0.66972590  0.58937884  0.00048975  1
  O2-  O245  1  0.66476980  0.58728972  0.24699457  1
  O2-  O246  1  0.66169085  0.58643245  0.49850314  1
  O2-  O247  1  0.66157983  0.58788977  0.74741572  1
  O2-  O248  1  0.66815065  0.91662265  -0.00505427  1
  O2-  O249  1  0.66796207  0.91996321  0.24910370  1
  O2-  O250  1  0.66243448  0.92182690  0.49802524  1
  O2-  O251  1  0.66527251  0.92545633  0.74758332  1
  O2-  O252  1  0.33561275  0.08706862  0.00188374  1
  O2-  O253  1  0.33458295  0.08186932  0.25005937  1
  O2-  O254  1  0.33704377  0.08255887  0.49873629  1
  O2-  O255  1  0.33799660  0.08373491  0.75003820  1
  O2-  O256  1  0.33593152  0.41614403  0.00217097  1
  O2-  O257  1  0.33689514  0.41425081  0.25576420  1
  O2-  O258  1  0.33175189  0.41731730  0.49037317  1
  O2-  O259  1  0.33468293  0.41646168  0.74905891  1
  O2-  O260  1  0.33256866  0.74382889  -0.00721684  1
  O2-  O261  1  0.33822638  0.74793367  0.24803788  1
  O2-  O262  1  0.34395964  0.74121601  0.49996302  1
  O2-  O263  1  0.33076905  0.74676435  0.75086485  1
  O2-  O264  1  0.83277355  0.08633097  -0.00530374  1
  O2-  O265  1  0.82857002  0.08844252  0.25034588  1
  O2-  O266  1  0.83919448  0.08793304  0.50145425  1
  O2-  O267  1  0.83696283  0.08061492  0.75465135  1
  O2-  O268  1  0.83418889  0.41434463  -0.00115652  1
  O2-  O269  1  0.83360273  0.41723190  0.25287454  1
  O2-  O270  1  0.84381055  0.40566701  0.50295029  1
  O2-  O271  1  0.83470483  0.41084281  0.74387593  1
  O2-  O272  1  0.83191601  0.74535027  -0.00517914  1
  O2-  O273  1  0.83214273  0.74595659  0.24986070  1
  O2-  O274  1  0.83333732  0.74656127  0.49921811  1
  O2-  O275  1  0.82963579  0.75052285  0.75183077  1
  O2-  O276  1  0.04778865  0.58368351  0.00345305  1
  O2-  O277  1  0.54781366  0.75624725  0.73241336  1
  O2-  O278  1  0.94990715  0.08934976  0.51787017  1
  O2-  O279  1  0.55468101  0.76741324  0.76825007  1
  O2-  O280  1  0.04872690  0.77282273  0.29346357  1
  O2-  O281  1  0.05111522  0.23790086  0.01617470  1
  O2-  O282  1  0.54691986  0.09996621  0.98383933  1
  O2-  O283  1  0.54568973  0.42716485  0.75726705  1
  O2-  O284  1  0.54332587  0.88964332  0.46610128  1
  O2-  O285  1  0.54887200  0.42355172  0.73777204  1
  O2-  O286  1  0.46004541  0.23271744  0.44924950  1
  O2-  O287  1  0.44758270  0.57350915  0.99456093  1
  O2-  O288  1  0.94326154  0.75461935  0.52577035  1
  O2-  O289  1  0.95116589  0.23604872  0.55845689  1
  O2-  O290  1  0.05265455  0.09384012  0.49394949  1
  O2-  O291  1  0.05172938  0.58101628  0.51684811  1
  O2-  O292  1  0.04971961  0.56342306  0.48262446  1
  O2-  O293  1  0.05341404  0.23738646  0.51270028  1
  O2-  O294  1  0.05137869  0.90556027  0.76527852  1
  O2-  O295  1  0.94481947  0.91380252  0.51263784  1
  O2-  O296  1  0.44551761  0.75367093  0.25627829  1
  O2-  O297  1  0.54476978  0.23053944  0.24622546  1
  O2-  O298  1  0.94986134  0.57705560  0.52277322  1
  O2-  O299  1  0.98578464  0.15057655  0.24027803  1
  O2-  O300  1  0.05147516  0.08854631  0.97882902  1
  O2-  O301  1  0.02436791  0.45919061  0.03055248  1
  O2-  O302  1  0.54969723  0.76569564  0.24272998  1
  O2-  O303  1  0.56013248  0.23557464  0.69948445  1
  O2-  O304  1  0.95786578  0.42762180  0.48638545  1
  O2-  O305  1  0.04365841  0.90853089  0.25303544  1
  O2-  O306  1  0.55958444  0.57050335  0.05591236  1
  O2-  O307  1  0.95096431  0.42871950  0.26345291  1
  O2-  O308  1  0.94471925  0.25506708  0.93334102  1
  O2-  O309  1  0.45579318  0.42696748  0.00567853  1
  O2-  O310  1  0.47497862  0.20887975  0.97115386  1
  O2-  O311  1  0.47329228  0.19903317  0.71982522  1
  O2-  O312  1  0.44437744  0.07537670  0.74988123  1
  O2-  O313  1  0.45596288  0.08859311  0.50255450  1
  O2-  O314  1  0.94950627  0.42774575  0.25441925  1
  O2-  O315  1  0.44806114  0.90684547  0.50647431  1
  O2-  O316  1  0.94833245  0.90697748  0.76088414  1
  O2-  O317  1  0.45504410  0.57187870  0.50272159  1
  O2-  O318  1  0.94958465  0.76627248  0.00399304  1
  O2-  O319  1  0.04264410  0.77150206  0.54874725  1
  O2-  O320  1  0.05545289  0.91714545  0.52222401  1
  O2-  O321  1  0.06035379  0.57954979  0.96963890  1
  O2-  O322  1  0.94103660  0.42501240  0.98601693  1
  O2-  O323  1  0.94707659  0.78767597  0.30087210  1
  O2-  O324  1  0.55426270  0.92189605  0.79028981  1
  O2-  O325  1  0.57137332  0.26424913  0.79649970  1
  O2-  O326  1  0.93975080  0.59221115  0.27869678  1
  O2-  O327  1  0.93845026  0.71699883  0.16924886  1
  O2-  O328  1  0.44054898  0.91849434  0.03068341  1
  O2-  O329  1  0.93941795  0.40514500  0.95345714  1
  O2-  O330  1  0.43077029  0.08290562  0.07846393  1
  O2-  O331  1  0.55613062  0.41366490  0.52916298  1
  O2-  O332  1  0.55561686  0.57673118  0.05163279  1
  O2-  O333  1  0.44083760  0.07213961  0.28331085  1
  O2-  O334  1  0.41039767  0.27674251  0.68439347  1
  O2-  O335  1  0.06141100  0.92298509  0.01261024  1
  O2-  O336  1  0.41939145  0.26401781  0.06017982  1
  O2-  O337  1  0.07926812  0.37487375  0.06067819  1
  O2-  O338  1  0.06361884  0.71417359  0.17193112  1
  O2-  O339  1  0.44271387  0.58905948  0.28519169  1
  O2-  O340  1  0.93606894  0.74317246  0.77115327  1
  O2-  O341  1  0.92459223  0.05971707  0.18159606  1
  O2-  O342  1  0.95120803  0.24774994  0.94903236  1
  O2-  O343  1  0.43172183  0.26998694  0.83360315  1
  O2-  O344  1  0.43876775  0.25771507  0.29375422  1
  O2-  O345  1  0.43905741  0.74342678  0.76513850  1
  O2-  O346  1  0.06089681  0.73930100  0.01887348  1
  O2-  O347  1  0.56473372  0.92537810  0.23022305  1
  O2-  O348  1  0.93954093  0.25945521  0.72085006  1
  O2-  O349  1  0.93590957  0.07495346  0.01764029  1
  O2-  O350  1  0.06797806  0.40254981  0.23136196  1
  O2-  O351  1  0.58430538  0.57222156  0.90262540  1
  O2-  O352  1  0.56069720  0.07007176  0.97898323  1
  O2-  O353  1  0.44140018  0.06185763  0.92554411  1
  O2-  O354  1  0.06358794  0.39678476  0.89448072  1
  O2-  O355  1  0.56714307  0.07037418  0.78023526  1
  O2-  O356  1  0.56889488  0.95398670  0.58183794  1
  O2-  O357  1  0.08503980  0.73810413  0.43054379  1
  O2-  O358  1  0.56377237  0.25467292  0.53084898  1
  O2-  O359  1  0.94359110  0.58121174  0.77673150  1
  O2-  O360  1  0.91836928  0.09094644  0.33751021  1
  O2-  O361  1  0.93432657  0.59256747  0.97363132  1
  O2-  O362  1  0.91374602  0.23836288  0.09904707  1
  O2-  O363  1  0.55950532  0.92542852  0.01420748  1
  O2-  O364  1  0.42758625  0.27411192  0.54722394  1
  O2-  O365  1  0.06188198  0.58432228  0.27050278  1
  O2-  O366  1  0.93387396  0.27440324  0.41788356  1
  O2-  O367  1  0.55903429  0.59558640  0.75710959  1
  O2-  O368  1  0.06649486  0.06431590  0.48678305  1
  O2-  O369  1  0.56407347  0.74157014  0.47754843  1
  O2-  O370  1  0.43802611  0.73992526  0.02633526  1
  O2-  O371  1  0.93712344  0.92049669  0.20981129  1
  O2-  O372  1  0.75066835  -0.00892365  0.85601175  1
  O2-  O373  1  0.74891785  0.01022369  0.18807583  1
  O2-  O374  1  0.74966127  -0.00463611  0.05372583  1
  O2-  O375  1  0.25042790  0.65958552  0.07673284  1
  O2-  O376  1  0.74994156  0.32632563  0.13721067  1
  O2-  O377  1  0.74970613  0.66294958  0.38425231  1
  O2-  O378  1  0.25290446  0.67628075  0.37197756  1
  O2-  O379  1  0.25022483  0.32380752  0.07292228  1
  O2-  O380  1  0.74956368  0.33036380  0.86094419  1
  O2-  O381  1  0.74827669  0.66458944  0.08823356  1
  O2-  O382  1  0.24935859  0.02803585  0.93841611  1
  O2-  O383  1  0.24993604  0.33549002  0.18159635  1
  O2-  O384  1  0.24943530  0.34282408  0.85356668  1
  O2-  O385  1  0.24923475  -0.01983190  0.81498986  1
  O2-  O386  1  0.25167124  0.66264785  0.58021658  1
  O2-  O387  1  0.24920750  0.00227833  0.15665408  1
  O2-  O388  1  0.75012302  0.65795549  0.70084395  1
  O2-  O389  1  0.74877899  -0.00192533  0.33031552  1
  O2-  O390  1  0.75246668  -0.00554885  0.62890057  1
  O2-  O391  1  0.75044192  0.67059996  0.57148938  1
  O2-  O392  1  0.74871609  -0.00506541  0.42433033  1
  O2-  O393  1  0.24876279  0.66249306  0.67245724  1
  O2-  O394  1  0.25050562  0.67629940  0.18916592  1
  O2-  O395  1  0.24923051  -0.01286902  0.63728350  1
  O2-  O396  1  0.25062022  0.17283061  0.59915075  1
  O2-  O397  1  0.25092259  0.49327658  0.92289562  1
  O2-  O398  1  0.25098799  0.48932806  0.35100127  1
  O2-  O399  1  0.25007241  0.83551555  0.62829689  1
  O2-  O400  1  0.74950533  0.16344409  0.56101910  1
  O2-  O401  1  0.24974365  0.82851163  0.83359289  1
  O2-  O402  1  0.25058986  0.87591960  0.38397722  1
  O2-  O403  1  0.74985703  0.17526291  0.38483827  1
  O2-  O404  1  0.74980777  0.81778169  0.31467420  1
  O2-  O405  1  0.24907886  0.17185470  0.68719900  1
  O2-  O406  1  0.75012931  0.51164097  0.59785439  1
  O2-  O407  1  0.24966691  0.16609387  0.33607520  1
  O2-  O408  1  0.75031449  0.83305444  0.40193427  1
  O2-  O409  1  0.74903901  0.51641228  0.38034615  1
  O2-  O410  1  0.75039029  0.83435739  0.09681979  1
  O2-  O411  1  0.24936085  0.51041875  0.80201254  1
  O2-  O412  1  0.74972058  0.51036234  0.89686850  1
  O2-  O413  1  0.74986603  0.15713642  0.87874365  1
  O2-  O414  1  0.25004877  0.48653190  0.07681528  1
  O2-  O415  1  0.25078945  0.50695791  0.18692620  1
  O2-  O416  1  0.75090355  0.16376250  0.68835201  1
  O2-  O417  1  0.25088449  0.48842299  0.64417662  1
  O2-  O418  1  0.25013080  0.84452320  0.11410840  1
  O2-  O419  1  0.75002684  0.50997141  0.09357538  1
  O2-  O420  1  0.55079512  0.33687336  0.11484445  1
  O2-  O421  1  0.47015736  0.65823931  0.87874293  1
  O2-  O422  1  0.96139777  -0.02286295  0.38059371  1
  O2-  O423  1  0.03026240  0.33701807  0.37510320  1
  O2-  O424  1  0.52106841  0.66340007  0.62297682  1
  O2-  O425  1  0.02672940  0.65827044  0.63789676  1
  O2-  O426  1  0.01993655  0.65353429  0.36855637  1
  O2-  O427  1  0.51596625  0.68049683  0.12899303  1
  O2-  O428  1  0.02710876  0.00526573  0.13427752  1
  O2-  O429  1  0.02896864  0.34636353  0.62115425  1
  O2-  O430  1  0.04677252  0.02058084  0.34566587  1
  O2-  O431  1  0.52435187  0.69488148  0.88319438  1
  O2-  O432  1  0.52351463  0.65257249  0.37182684  1
  O2-  O433  1  0.52730169  0.00920491  0.37734487  1
  O2-  O434  1  0.47050397  -0.01645852  0.62862737  1
  O2-  O435  1  0.97976685  0.33362054  0.12948159  1
  O2-  O436  1  0.96652467  0.67485234  0.40142472  1
  O2-  O437  1  0.52502754  0.02356091  0.12552899  1
  O2-  O438  1  0.52989764  0.33800328  0.37603730  1
  O2-  O439  1  0.99110810  0.67631212  0.87557511  1
  O2-  O440  1  0.48097101  0.36141184  0.62816312  1
  O2-  O441  1  0.45425906  0.35247799  0.15561776  1
  O2-  O442  1  0.52528880  0.33739799  0.89367949  1
  O2-  O443  1  0.97396416  0.00195943  0.88025621  1
