# generated using pymatgen
data_La7(Ru4O11)2
_symmetry_space_group_name_H-M   'P 1'
_cell_length_a   23.99154235
_cell_length_b   16.83186996
_cell_length_c   15.43107458
_cell_angle_alpha   90.00065046
_cell_angle_beta   89.99779438
_cell_angle_gamma   90.00211621
_symmetry_Int_Tables_number   1
_chemical_formula_structural   La7(Ru4O11)2
_chemical_formula_sum   'La84 Ru96 O264'
_cell_volume   6231.41542892
_cell_formula_units_Z   12
loop_
 _symmetry_equiv_pos_site_id
 _symmetry_equiv_pos_as_xyz
  1  'x, y, z'
loop_
 _atom_type_symbol
 _atom_type_oxidation_number
  La3+  3.0
  Ru4+  4.0
  O2-  -2.0
loop_
 _atom_site_type_symbol
 _atom_site_label
 _atom_site_symmetry_multiplicity
 _atom_site_fract_x
 _atom_site_fract_y
 _atom_site_fract_z
 _atom_site_occupancy
  La3+  La0  1  0.14188722  -0.00137098  0.12341178  1
  La3+  La1  1  0.13702371  0.00070081  0.37773752  1
  La3+  La2  1  0.14380025  0.00464512  0.62536314  1
  La3+  La3  1  0.14072517  0.00051037  0.87362139  1
  La3+  La4  1  0.13723772  0.32845827  0.12391594  1
  La3+  La5  1  0.14045101  0.33249748  0.37451993  1
  La3+  La6  1  0.14403968  0.32623197  0.63182577  1
  La3+  La7  1  0.14025711  0.33101567  0.87238643  1
  La3+  La8  1  0.13280826  0.66635707  0.12715239  1
  La3+  La9  1  0.14174486  0.66394114  0.37294548  1
  La3+  La10  1  0.14196508  0.67081898  0.62747531  1
  La3+  La11  1  0.15229033  0.66637394  0.87516872  1
  La3+  La12  1  0.63628125  0.00484635  0.12469546  1
  La3+  La13  1  0.63891441  0.00725641  0.37501193  1
  La3+  La14  1  0.62863094  -0.00395417  0.62338551  1
  La3+  La15  1  0.63676415  -0.00214402  0.87561471  1
  La3+  La16  1  0.64165257  0.33261827  0.12425635  1
  La3+  La17  1  0.63618758  0.33186649  0.37749578  1
  La3+  La18  1  0.64153234  0.33034495  0.62345983  1
  La3+  La19  1  0.64059073  0.33228270  0.87742780  1
  La3+  La20  1  0.63813753  0.66374285  0.12523397  1
  La3+  La21  1  0.63503567  0.66417415  0.37240268  1
  La3+  La22  1  0.63729767  0.66349015  0.62222868  1
  La3+  La23  1  0.63888887  0.66729335  0.87792251  1
  La3+  La24  1  0.35657218  0.00348578  0.12402586  1
  La3+  La25  1  0.36853530  -0.00332586  0.37247232  1
  La3+  La26  1  0.35555300  0.00207210  0.62397568  1
  La3+  La27  1  0.35701590  0.00120710  0.87407067  1
  La3+  La28  1  0.36675756  0.32434692  0.13260777  1
  La3+  La29  1  0.36864072  0.32121315  0.35779675  1
  La3+  La30  1  0.35834663  0.33086578  0.63257113  1
  La3+  La31  1  0.35712662  0.33364808  0.87097863  1
  La3+  La32  1  0.36181289  0.66635247  0.12316059  1
  La3+  La33  1  0.35855568  0.66956157  0.37510624  1
  La3+  La34  1  0.37253334  0.65651342  0.64088438  1
  La3+  La35  1  0.36278284  0.66218279  0.86214149  1
  La3+  La36  1  0.86212502  0.00410653  0.12675060  1
  La3+  La37  1  0.85726317  0.00534642  0.37598823  1
  La3+  La38  1  0.86589379  0.00508794  0.62473668  1
  La3+  La39  1  0.85944390  0.00238295  0.87985279  1
  La3+  La40  1  0.86048443  0.33201153  0.12007604  1
  La3+  La41  1  0.85639002  0.33457329  0.37905922  1
  La3+  La42  1  0.86252783  0.33146926  0.62329179  1
  La3+  La43  1  0.85342697  0.32657475  0.86916181  1
  La3+  La44  1  0.86066732  0.66705691  0.11900192  1
  La3+  La45  1  0.86559004  0.66776783  0.37402897  1
  La3+  La46  1  0.86503687  0.66626198  0.62819089  1
  La3+  La47  1  0.85987098  0.66383762  0.87992421  1
  La3+  La48  1  0.49958084  0.83783543  0.12158609  1
  La3+  La49  1  0.00129507  0.15485601  0.10606932  1
  La3+  La50  1  0.49533237  0.50737947  0.63448732  1
  La3+  La51  1  0.50482566  0.83112372  0.37703650  1
  La3+  La52  1  -0.00137727  0.82652258  0.11392965  1
  La3+  La53  1  0.00191941  0.50527554  0.13449235  1
  La3+  La54  1  0.50241270  0.16309219  0.63381856  1
  La3+  La55  1  0.49545266  0.50280628  0.35485754  1
  La3+  La56  1  0.49804489  0.15872047  0.88458271  1
  La3+  La57  1  0.49809474  0.16785716  0.86498696  1
  La3+  La58  1  0.49900219  0.17315895  0.15565410  1
  La3+  La59  1  0.00505976  0.84051843  0.62048113  1
  La3+  La60  1  0.00117359  0.49939822  0.62382440  1
  La3+  La61  1  0.00016674  0.51358777  0.37986658  1
  La3+  La62  1  0.00142221  0.15733751  0.12328409  1
  La3+  La63  1  0.49229826  0.51249165  0.86972306  1
  La3+  La64  1  0.49928838  0.82812650  0.64006993  1
  La3+  La65  1  -0.00738346  0.16570888  0.38310066  1
  La3+  La66  1  0.00051071  0.16268602  0.36434039  1
  La3+  La67  1  -0.00058503  0.16696103  0.87342273  1
  La3+  La68  1  -0.00163947  0.82735459  0.09690744  1
  La3+  La69  1  0.49873083  0.17199022  0.13844997  1
  La3+  La70  1  0.50104729  0.83458273  0.87321056  1
  La3+  La71  1  -0.00313249  0.50746846  0.35912584  1
  La3+  La72  1  0.75038367  0.16342388  0.50196316  1
  La3+  La73  1  0.75147866  0.85604462  0.68385209  1
  La3+  La74  1  0.74965939  0.53215614  0.45195810  1
  La3+  La75  1  0.25068735  0.49908160  0.42623007  1
  La3+  La76  1  0.24875032  0.50410221  0.78147908  1
  La3+  La77  1  0.25072321  0.50318676  0.22889919  1
  La3+  La78  1  0.74614743  0.79347115  0.27859653  1
  La3+  La79  1  0.25115509  0.20913230  -0.03983858  1
  La3+  La80  1  0.75036211  0.85299703  0.00732361  1
  La3+  La81  1  0.74933116  0.13931846  0.21662563  1
  La3+  La82  1  0.24993947  0.83554679  -0.00057663  1
  La3+  La83  1  0.75139755  0.91548152  0.51364029  1
  Ru4+  Ru84  1  0.00162029  -0.00175870  -0.01379966  1
  Ru4+  Ru85  1  0.00173408  -0.01459698  0.26220462  1
  Ru4+  Ru86  1  -0.00016154  -0.00445735  0.50661288  1
  Ru4+  Ru87  1  0.00101718  0.00635582  0.74764113  1
  Ru4+  Ru88  1  -0.00648260  0.34633311  0.00236396  1
  Ru4+  Ru89  1  -0.00121518  0.32840103  0.24799060  1
  Ru4+  Ru90  1  -0.00405878  0.33457191  0.50232218  1
  Ru4+  Ru91  1  0.00341824  0.33070969  0.75018876  1
  Ru4+  Ru92  1  0.00532757  0.65853060  0.00108330  1
  Ru4+  Ru93  1  -0.00524423  0.68350109  0.25445446  1
  Ru4+  Ru94  1  0.00287158  0.67307201  0.50433162  1
  Ru4+  Ru95  1  -0.00472215  0.66967904  0.74499681  1
  Ru4+  Ru96  1  0.49823838  0.00369829  -0.00209727  1
  Ru4+  Ru97  1  0.49024389  -0.01075720  0.25381772  1
  Ru4+  Ru98  1  0.50856497  -0.00047937  0.49267358  1
  Ru4+  Ru99  1  0.49349498  0.01105208  0.75375860  1
  Ru4+  Ru100  1  0.49962614  0.34085056  0.00172802  1
  Ru4+  Ru101  1  0.50215600  0.33357540  0.25579710  1
  Ru4+  Ru102  1  0.50557015  0.33466841  0.49163274  1
  Ru4+  Ru103  1  0.50026536  0.33830283  0.75159535  1
  Ru4+  Ru104  1  0.50180335  0.66456158  0.00319127  1
  Ru4+  Ru105  1  0.49632234  0.67198964  0.24147521  1
  Ru4+  Ru106  1  0.50053113  0.66409941  0.51322950  1
  Ru4+  Ru107  1  0.50139872  0.66070222  0.74845481  1
  Ru4+  Ru108  1  0.11301296  0.16121950  0.00065680  1
  Ru4+  Ru109  1  0.11031107  0.17011747  0.25013855  1
  Ru4+  Ru110  1  0.11318421  0.16505221  0.50136689  1
  Ru4+  Ru111  1  0.11394920  0.16606264  0.74821173  1
  Ru4+  Ru112  1  0.11112368  0.49482087  0.00085914  1
  Ru4+  Ru113  1  0.11662161  0.49511130  0.24771975  1
  Ru4+  Ru114  1  0.11147919  0.49252377  0.50789303  1
  Ru4+  Ru115  1  0.10853449  0.49892359  0.74902985  1
  Ru4+  Ru116  1  0.11192912  0.83300755  -0.00219725  1
  Ru4+  Ru117  1  0.10878404  0.82506276  0.26120881  1
  Ru4+  Ru118  1  0.11418595  0.82715506  0.49991771  1
  Ru4+  Ru119  1  0.11648637  0.83042609  0.75257968  1
  Ru4+  Ru120  1  0.61395021  0.16494628  -0.00107137  1
  Ru4+  Ru121  1  0.61141827  0.17141077  0.24932694  1
  Ru4+  Ru122  1  0.60800172  0.16057774  0.50074260  1
  Ru4+  Ru123  1  0.61464229  0.16726229  0.75448793  1
  Ru4+  Ru124  1  0.61072525  0.49700311  0.00140369  1
  Ru4+  Ru125  1  0.61146816  0.50244137  0.25061680  1
  Ru4+  Ru126  1  0.60686987  0.49576200  0.50340664  1
  Ru4+  Ru127  1  0.61249073  0.49497774  0.75136561  1
  Ru4+  Ru128  1  0.60871757  0.83205647  0.00099103  1
  Ru4+  Ru129  1  0.61007301  0.83086011  0.25023522  1
  Ru4+  Ru130  1  0.60595060  0.83972250  0.49820685  1
  Ru4+  Ru131  1  0.61463982  0.82862215  0.75347794  1
  Ru4+  Ru132  1  0.39522401  0.16736750  0.00339634  1
  Ru4+  Ru133  1  0.38463304  0.16576441  0.25268946  1
  Ru4+  Ru134  1  0.38609876  0.16407369  0.49688331  1
  Ru4+  Ru135  1  0.38504008  0.16718691  0.74863972  1
  Ru4+  Ru136  1  0.38739874  0.50323963  -0.00251061  1
  Ru4+  Ru137  1  0.39062824  0.49885322  0.25069434  1
  Ru4+  Ru138  1  0.38650462  0.49769509  0.50256547  1
  Ru4+  Ru139  1  0.38600358  0.49782902  0.74807867  1
  Ru4+  Ru140  1  0.38928941  0.83441610  -0.00005214  1
  Ru4+  Ru141  1  0.39037020  0.82933664  0.24939536  1
  Ru4+  Ru142  1  0.38414446  0.82956117  0.49880291  1
  Ru4+  Ru143  1  0.38052098  0.83606429  0.75000334  1
  Ru4+  Ru144  1  0.88670473  0.16759249  -0.00175557  1
  Ru4+  Ru145  1  0.88615910  0.17345563  0.24562248  1
  Ru4+  Ru146  1  0.89301431  0.16627735  0.50038712  1
  Ru4+  Ru147  1  0.88923228  0.16754925  0.75016721  1
  Ru4+  Ru148  1  0.89085270  0.48963182  -0.00316358  1
  Ru4+  Ru149  1  0.88357916  0.50426437  0.24588577  1
  Ru4+  Ru150  1  0.88740897  0.49352103  0.50200779  1
  Ru4+  Ru151  1  0.88868275  0.50045781  0.75036413  1
  Ru4+  Ru152  1  0.88505763  0.83946349  -0.00391297  1
  Ru4+  Ru153  1  0.89653090  0.83313967  0.25721861  1
  Ru4+  Ru154  1  0.89300980  0.83252302  0.49850815  1
  Ru4+  Ru155  1  0.89113743  0.82571304  0.75925006  1
  Ru4+  Ru156  1  0.24915372  0.09106094  0.26050461  1
  Ru4+  Ru157  1  0.25084025  0.63466107  0.49631168  1
  Ru4+  Ru158  1  0.75050016  0.94206825  0.25567205  1
  Ru4+  Ru159  1  0.74914149  0.71091763  0.76248754  1
  Ru4+  Ru160  1  0.25054699  0.23314169  0.52537438  1
  Ru4+  Ru161  1  0.75009768  0.71298518  0.49994834  1
  Ru4+  Ru162  1  0.74957716  0.57731606  0.76037073  1
  Ru4+  Ru163  1  0.75203050  0.65708627  0.24060132  1
  Ru4+  Ru164  1  0.74983663  0.58938777  -0.00322643  1
  Ru4+  Ru165  1  0.25026151  0.90649923  0.50799179  1
  Ru4+  Ru166  1  0.75014606  0.40700487  0.75342751  1
  Ru4+  Ru167  1  0.74941216  0.42490858  0.25848961  1
  Ru4+  Ru168  1  0.24879602  0.91203969  0.74190998  1
  Ru4+  Ru169  1  0.75023072  0.96661004  0.77495776  1
  Ru4+  Ru170  1  0.75043857  0.10121096  0.74803954  1
  Ru4+  Ru171  1  0.74882503  0.39474372  0.51024471  1
  Ru4+  Ru172  1  0.74874176  0.27109311  0.27856715  1
  Ru4+  Ru173  1  0.25083709  0.37765659  0.52515276  1
  Ru4+  Ru174  1  0.24998186  0.91236051  0.25483323  1
  Ru4+  Ru175  1  0.74949009  0.41704873  -0.01068352  1
  Ru4+  Ru176  1  0.25083797  0.42616362  -0.00034654  1
  Ru4+  Ru177  1  0.25008492  0.74937405  0.25082586  1
  Ru4+  Ru178  1  0.25064707  0.06756846  -0.00791392  1
  Ru4+  Ru179  1  0.75020033  0.24879199  0.74746437  1
  O2-  O180  1  0.16637659  0.07783612  -0.00024273  1
  O2-  O181  1  0.16488892  0.07886998  0.25348505  1
  O2-  O182  1  0.16470419  0.08124335  0.49620780  1
  O2-  O183  1  0.16337049  0.07862152  0.74948640  1
  O2-  O184  1  0.17026715  0.41464873  0.00515048  1
  O2-  O185  1  0.17274602  0.41350521  0.25060827  1
  O2-  O186  1  0.17099414  0.40902193  0.49498446  1
  O2-  O187  1  0.16451589  0.41533742  0.75105605  1
  O2-  O188  1  0.17095794  0.74825827  0.00330316  1
  O2-  O189  1  0.16910653  0.74554999  0.24610806  1
  O2-  O190  1  0.16780458  0.74940264  0.49864092  1
  O2-  O191  1  0.17063858  0.75320759  0.74674288  1
  O2-  O192  1  0.66375736  0.08216709  -0.00007348  1
  O2-  O193  1  0.66363348  0.08180397  0.24648003  1
  O2-  O194  1  0.66931937  0.08230900  0.50707202  1
  O2-  O195  1  0.66915301  0.08229562  0.74735196  1
  O2-  O196  1  0.66849493  0.41610191  -0.00539946  1
  O2-  O197  1  0.66430431  0.41588702  0.25277395  1
  O2-  O198  1  0.66850376  0.41367716  0.49645248  1
  O2-  O199  1  0.66629673  0.41279341  0.75026904  1
  O2-  O200  1  0.66216475  0.74623317  -0.00103879  1
  O2-  O201  1  0.66315581  0.73973273  0.24536327  1
  O2-  O202  1  0.66293761  0.74387513  0.49986561  1
  O2-  O203  1  0.66661463  0.74437263  0.74927315  1
  O2-  O204  1  0.33864153  0.25837776  0.00330031  1
  O2-  O205  1  0.33069176  0.25020098  0.24753486  1
  O2-  O206  1  0.32921150  0.24985189  0.50197760  1
  O2-  O207  1  0.33507263  0.25135331  0.75191351  1
  O2-  O208  1  0.33678458  0.58490650  0.00231215  1
  O2-  O209  1  0.33188472  0.58409827  0.24632798  1
  O2-  O210  1  0.32870754  0.58952391  0.49722758  1
  O2-  O211  1  0.33040038  0.58350276  0.74962664  1
  O2-  O212  1  0.33588024  0.91572644  -0.00252479  1
  O2-  O213  1  0.33481583  0.91651107  0.25124474  1
  O2-  O214  1  0.33408488  0.92049040  0.50005948  1
  O2-  O215  1  0.33095145  0.91969209  0.75042493  1
  O2-  O216  1  0.83565381  0.25095367  0.00122589  1
  O2-  O217  1  0.83099149  0.25614466  0.24840592  1
  O2-  O218  1  0.83110466  0.25303906  0.50285665  1
  O2-  O219  1  0.83203984  0.24834745  0.74462346  1
  O2-  O220  1  0.83591644  0.57975686  0.00072857  1
  O2-  O221  1  0.83159945  0.58891350  0.25247951  1
  O2-  O222  1  0.83651877  0.58563569  0.49823761  1
  O2-  O223  1  0.83174653  0.58424043  0.74986989  1
  O2-  O224  1  0.83550330  0.92320366  -0.00055896  1
  O2-  O225  1  0.83428003  0.92101694  0.24811241  1
  O2-  O226  1  0.84445175  0.92198287  0.50139512  1
  O2-  O227  1  0.83614394  0.92151347  0.74946719  1
  O2-  O228  1  0.16335016  0.25634755  0.00332237  1
  O2-  O229  1  0.16389533  0.25324288  0.25148741  1
  O2-  O230  1  0.16813112  0.24953551  0.49896042  1
  O2-  O231  1  0.16563299  0.24755120  0.75174681  1
  O2-  O232  1  0.16225141  0.58275319  0.00371943  1
  O2-  O233  1  0.17083857  0.58241957  0.24538109  1
  O2-  O234  1  0.16612051  0.58543978  0.50027019  1
  O2-  O235  1  0.16311940  0.58485236  0.74792622  1
  O2-  O236  1  0.16722707  0.91537460  0.00051205  1
  O2-  O237  1  0.16196084  0.91760052  0.25136208  1
  O2-  O238  1  0.16438025  0.91990782  0.49784238  1
  O2-  O239  1  0.16653500  0.91674785  0.74982097  1
  O2-  O240  1  0.66491334  0.25250543  -0.00266766  1
  O2-  O241  1  0.66591919  0.25371922  0.25296631  1
  O2-  O242  1  0.66749793  0.25052445  0.49929511  1
  O2-  O243  1  0.66845328  0.25154384  0.74933898  1
  O2-  O244  1  0.66453788  0.58476511  -0.00167914  1
  O2-  O245  1  0.66880460  0.58601668  0.25110151  1
  O2-  O246  1  0.66336050  0.58310605  0.49863655  1
  O2-  O247  1  0.66622153  0.58667253  0.75099020  1
  O2-  O248  1  0.66059305  0.92012986  -0.00075885  1
  O2-  O249  1  0.66487531  0.92156751  0.24694359  1
  O2-  O250  1  0.66166452  0.92284973  0.50394138  1
  O2-  O251  1  0.66627962  0.92134403  0.74996473  1
  O2-  O252  1  0.33503504  0.08000868  -0.00429325  1
  O2-  O253  1  0.33304671  0.08326406  0.25442606  1
  O2-  O254  1  0.33705673  0.08280487  0.50028207  1
  O2-  O255  1  0.33853485  0.07803891  0.75009376  1
  O2-  O256  1  0.33286847  0.41440309  0.00329675  1
  O2-  O257  1  0.32936006  0.41266943  0.24875550  1
  O2-  O258  1  0.33451684  0.40997177  0.49733031  1
  O2-  O259  1  0.33345287  0.41576212  0.75072358  1
  O2-  O260  1  0.33259573  0.74705093  0.00199137  1
  O2-  O261  1  0.33250096  0.74779837  0.24810828  1
  O2-  O262  1  0.33725352  0.74787987  0.50156258  1
  O2-  O263  1  0.33376385  0.74993224  0.74839704  1
  O2-  O264  1  0.83711733  0.08209636  0.00116863  1
  O2-  O265  1  0.83626712  0.08293493  0.25015738  1
  O2-  O266  1  0.83325399  0.08133712  0.50680769  1
  O2-  O267  1  0.83054642  0.08303673  0.74892903  1
  O2-  O268  1  0.82856104  0.41881872  0.00223547  1
  O2-  O269  1  0.83317497  0.41395775  0.25075453  1
  O2-  O270  1  0.82899249  0.41297094  0.50163213  1
  O2-  O271  1  0.83474735  0.41436350  0.74788936  1
  O2-  O272  1  0.83369069  0.75102126  -0.00062473  1
  O2-  O273  1  0.83371403  0.74402005  0.25229943  1
  O2-  O274  1  0.83709854  0.74470431  0.49980230  1
  O2-  O275  1  0.82890390  0.74252224  0.74628009  1
  O2-  O276  1  0.55194157  0.56868805  0.74299493  1
  O2-  O277  1  0.94869683  0.10034572  0.76024193  1
  O2-  O278  1  0.44960531  0.57489519  0.73053525  1
  O2-  O279  1  0.44655913  0.57100006  0.51329120  1
  O2-  O280  1  0.04482363  0.09495311  0.48964182  1
  O2-  O281  1  0.45665988  0.23664612  0.25067730  1
  O2-  O282  1  0.44478966  0.90435011  0.29541569  1
  O2-  O283  1  0.05011746  0.10386482  0.76122182  1
  O2-  O284  1  0.04446766  0.43721355  0.74215318  1
  O2-  O285  1  0.55082245  0.23563149  0.52017169  1
  O2-  O286  1  0.96811063  0.45252426  1.00804048  1
  O2-  O287  1  0.94772330  0.76170227  0.00599724  1
  O2-  O288  1  0.04883137  0.41845285  0.45288212  1
  O2-  O289  1  0.04663641  0.24218665  0.03015127  1
  O2-  O290  1  0.03895279  0.78504228  0.76261220  1
  O2-  O291  1  0.94831188  0.76933035  0.70064101  1
  O2-  O292  1  0.04895810  0.57432244  0.23116575  1
  O2-  O293  1  0.05232448  0.57831976  0.26966702  1
  O2-  O294  1  0.95683051  0.90079839  0.48799731  1
  O2-  O295  1  0.95801890  0.09909774  0.23407235  1
  O2-  O296  1  0.53083509  0.44441476  0.46177529  1
  O2-  O297  1  0.54718697  0.75500390  0.48897611  1
  O2-  O298  1  0.54311291  0.44970359  0.95435295  1
  O2-  O299  1  0.96610250  0.45563381  0.01770370  1
  O2-  O300  1  0.54386320  0.43361478  0.23973403  1
  O2-  O301  1  0.94617466  0.42470338  0.25065365  1
  O2-  O302  1  0.54931325  0.09269276  0.23431072  1
  O2-  O303  1  0.54935170  0.75822770  0.76933743  1
  O2-  O304  1  0.03940998  0.22615348  0.99679550  1
  O2-  O305  1  0.45566672  0.76783526  0.00788273  1
  O2-  O306  1  0.44670648  0.43194172  0.99363899  1
  O2-  O307  1  0.44854369  0.90125244  0.48797669  1
  O2-  O308  1  0.04525606  0.23828979  0.50556978  1
  O2-  O309  1  0.94915587  0.24896344  0.19959771  1
  O2-  O310  1  0.54907422  0.90220572  0.24784398  1
  O2-  O311  1  0.44957281  0.22751956  0.22651772  1
  O2-  O312  1  0.05348898  0.41921032  0.25992614  1
  O2-  O313  1  0.44979056  0.76958887  0.76214335  1
  O2-  O314  1  0.94971851  0.56983672  0.49690083  1
  O2-  O315  1  0.45083031  0.55826076  0.75294344  1
  O2-  O316  1  0.54353285  0.23451128  0.98922011  1
  O2-  O317  1  0.55258197  0.57393009  0.51172503  1
  O2-  O318  1  0.45403703  0.22533087  0.53237368  1
  O2-  O319  1  0.96288471  0.90258679  0.20688292  1
  O2-  O320  1  0.05983189  0.75840454  0.19562359  1
  O2-  O321  1  0.54813894  0.90393273  0.76122945  1
  O2-  O322  1  0.55550704  0.90767412  0.56049869  1
  O2-  O323  1  0.96178329  0.78237313  0.30169742  1
  O2-  O324  1  0.42904604  0.59533970  0.78282869  1
  O2-  O325  1  0.57824703  0.39205828  0.05132596  1
  O2-  O326  1  0.05791031  0.41028417  0.44064887  1
  O2-  O327  1  0.06730801  0.40613818  0.07653390  1
  O2-  O328  1  0.94369274  0.25092343  0.19355743  1
  O2-  O329  1  0.43937050  0.91511464  0.30745459  1
  O2-  O330  1  0.06382980  0.92217610  0.98324745  1
  O2-  O331  1  0.56283468  0.07665519  0.78358030  1
  O2-  O332  1  0.93194798  0.42069626  0.56958495  1
  O2-  O333  1  0.44002728  0.25584057  0.71568307  1
  O2-  O334  1  0.43709641  0.74042872  0.77410919  1
  O2-  O335  1  0.93670948  0.27178021  0.34713588  1
  O2-  O336  1  0.92435039  0.73192507  0.19293297  1
  O2-  O337  1  0.43420820  0.07395056  0.28171624  1
  O2-  O338  1  0.56206322  0.74050865  0.28374290  1
  O2-  O339  1  0.08500130  0.42095961  0.59143340  1
  O2-  O340  1  0.43884812  0.73100909  0.32530297  1
  O2-  O341  1  0.43145394  0.27777761  0.21272594  1
  O2-  O342  1  0.94620123  0.08178175  0.20500447  1
  O2-  O343  1  0.07318640  0.42110192  0.93779148  1
  O2-  O344  1  0.43877603  0.93209859  0.47471082  1
  O2-  O345  1  0.06565189  0.73592771  0.03048603  1
  O2-  O346  1  0.06114486  0.74484708  0.52235662  1
  O2-  O347  1  0.43872892  0.40762378  0.71468400  1
  O2-  O348  1  0.43760683  0.74342831  0.17738237  1
  O2-  O349  1  0.07657626  0.72356150  0.77822319  1
  O2-  O350  1  0.57717394  0.91711896  0.41618504  1
  O2-  O351  1  0.56728284  0.08696646  0.43787179  1
  O2-  O352  1  0.92745296  0.94656420  0.31663905  1
  O2-  O353  1  0.42991412  0.26840759  0.46213394  1
  O2-  O354  1  0.93497001  0.40348016  0.42518275  1
  O2-  O355  1  0.93736529  0.58779042  0.72415622  1
  O2-  O356  1  0.06672857  0.25724257  0.77694927  1
  O2-  O357  1  0.91794937  0.75155538  0.83856176  1
  O2-  O358  1  0.56163618  0.92996138  0.77869040  1
  O2-  O359  1  0.93992975  0.75613886  0.69482187  1
  O2-  O360  1  0.43958126  0.94545102  0.14975406  1
  O2-  O361  1  0.55950380  0.59341088  0.28567461  1
  O2-  O362  1  0.55599414  0.07582931  0.20116347  1
  O2-  O363  1  0.56983131  0.38717199  0.56862514  1
  O2-  O364  1  0.07180414  0.73447826  0.34246861  1
  O2-  O365  1  0.93762603  0.74460130  0.03679393  1
  O2-  O366  1  0.43779781  0.58318230  0.52144496  1
  O2-  O367  1  0.56219406  0.26195254  0.78452165  1
  O2-  O368  1  0.56029641  0.07512689  0.57674405  1
  O2-  O369  1  0.05539954  0.75195729  0.19724912  1
  O2-  O370  1  0.91013829  0.37134758  0.95722757  1
  O2-  O371  1  0.54710980  0.91841109  0.55776372  1
  O2-  O372  1  0.74875035  0.66683284  0.89755281  1
  O2-  O373  1  0.74997064  0.02959953  0.33604129  1
  O2-  O374  1  0.75018928  -0.00621543  0.06990184  1
  O2-  O375  1  0.75023359  0.01758067  0.42717484  1
  O2-  O376  1  0.25036943  0.00049168  0.67394901  1
  O2-  O377  1  0.24960908  0.33303203  0.40173982  1
  O2-  O378  1  0.25088746  0.65982709  0.35041109  1
  O2-  O379  1  0.25081698  0.00375820  0.58019745  1
  O2-  O380  1  0.74992184  0.65706754  0.38353685  1
  O2-  O381  1  0.75001971  0.65466880  0.61225781  1
  O2-  O382  1  0.24979137  0.66889495  0.60715151  1
  O2-  O383  1  0.74971737  0.66243289  0.09910678  1
  O2-  O384  1  0.25024387  -0.01951124  0.06272077  1
  O2-  O385  1  0.24866595  0.66304330  0.85043014  1
  O2-  O386  1  0.75019453  0.01730356  0.15710643  1
  O2-  O387  1  0.24996390  0.33997479  0.83095218  1
  O2-  O388  1  0.25076048  -0.00887844  0.89617380  1
  O2-  O389  1  0.25108339  0.33673745  0.64048816  1
  O2-  O390  1  0.74997858  0.32820146  0.04968450  1
  O2-  O391  1  0.74996299  0.33855566  0.17940911  1
  O2-  O392  1  0.24981196  0.33883902  0.92297050  1
  O2-  O393  1  0.74904165  -0.00174548  0.89167375  1
  O2-  O394  1  0.24952994  0.00520537  0.18748459  1
  O2-  O395  1  0.74898474  0.32827914  0.85356138  1
  O2-  O396  1  0.24978608  0.84176949  0.59601494  1
  O2-  O397  1  0.74927090  0.50024102  0.06576534  1
  O2-  O398  1  0.24959578  0.49275031  0.56290120  1
  O2-  O399  1  0.74983970  0.49614808  0.67743001  1
  O2-  O400  1  0.25020604  0.82621339  0.42770176  1
  O2-  O401  1  0.25029554  0.18109614  0.62560954  1
  O2-  O402  1  0.75582826  0.87313854  0.15839893  1
  O2-  O403  1  0.74557224  0.79459278  0.12350984  1
  O2-  O404  1  0.74990666  0.48869012  0.58913824  1
  O2-  O405  1  0.74848162  0.79594673  0.42840735  1
  O2-  O406  1  0.74860848  0.81947549  0.80302259  1
  O2-  O407  1  0.24995315  0.83034165  0.15287947  1
  O2-  O408  1  0.75107959  0.83015157  0.88514618  1
  O2-  O409  1  0.25010974  0.49783213  0.91751678  1
  O2-  O410  1  0.74992820  0.50722228  0.19408331  1
  O2-  O411  1  0.24966126  0.15496148  0.09567113  1
  O2-  O412  1  0.75425109  0.89405672  0.36859828  1
  O2-  O413  1  0.75034249  0.17979916  0.36220746  1
  O2-  O414  1  0.74936191  0.79339789  0.57606893  1
  O2-  O415  1  0.74988191  0.49834747  0.84967654  1
  O2-  O416  1  0.25005958  0.50238409  0.64938483  1
  O2-  O417  1  0.24959704  0.83007490  0.32621041  1
  O2-  O418  1  0.24947598  0.17193062  0.18374320  1
  O2-  O419  1  0.25018805  0.15373028  0.84518058  1
  O2-  O420  1  0.54560842  0.67142040  0.62818856  1
  O2-  O421  1  0.02723480  0.31959335  0.62984248  1
  O2-  O422  1  0.97094904  0.66238812  0.37966702  1
  O2-  O423  1  0.52984009  0.66662052  0.12194691  1
  O2-  O424  1  0.96767953  0.31926192  0.63752926  1
  O2-  O425  1  0.54755362  0.32334998  0.36881042  1
  O2-  O426  1  0.02565253  0.33219044  0.87603212  1
  O2-  O427  1  0.97205384  0.64838771  0.88305741  1
  O2-  O428  1  0.48023414  0.66597108  0.88708108  1
  O2-  O429  1  0.03212678  0.65403466  0.88499626  1
  O2-  O430  1  0.45809486  0.68843927  0.62891162  1
  O2-  O431  1  0.45843238  0.35622819  0.35981846  1
  O2-  O432  1  0.51985615  0.00955108  0.36006259  1
  O2-  O433  1  0.95969777  0.66216474  0.59537493  1
  O2-  O434  1  0.03056015  0.00042936  0.37690125  1
  O2-  O435  1  0.47089425  0.32770296  0.87697964  1
  O2-  O436  1  0.04440002  0.65439094  0.63908554  1
  O2-  O437  1  0.52286441  0.31530048  0.13371755  1
  O2-  O438  1  0.98085833  0.64646230  0.12146594  1
  O2-  O439  1  0.04268094  0.00646374  0.86626630  1
  O2-  O440  1  0.95441692  -0.00025325  0.62501416  1
  O2-  O441  1  0.95249901  -0.00358805  0.88096389  1
  O2-  O442  1  0.96793854  0.31838662  0.86290431  1
  O2-  O443  1  0.04706683  -0.00682907  0.62823004  1
