# generated using pymatgen
data_La7(Ru4O11)2
_symmetry_space_group_name_H-M   'P 1'
_cell_length_a   23.98914143
_cell_length_b   16.82896160
_cell_length_c   15.42611749
_cell_angle_alpha   89.99986680
_cell_angle_beta   90.00008771
_cell_angle_gamma   89.99963104
_symmetry_Int_Tables_number   1
_chemical_formula_structural   La7(Ru4O11)2
_chemical_formula_sum   'La84 Ru96 O264'
_cell_volume   6227.71398753
_cell_formula_units_Z   12
loop_
 _symmetry_equiv_pos_site_id
 _symmetry_equiv_pos_as_xyz
  1  'x, y, z'
loop_
 _atom_type_symbol
 _atom_type_oxidation_number
  La3+  3.0
  Ru4+  4.0
  O2-  -2.0
loop_
 _atom_site_type_symbol
 _atom_site_label
 _atom_site_symmetry_multiplicity
 _atom_site_fract_x
 _atom_site_fract_y
 _atom_site_fract_z
 _atom_site_occupancy
  La3+  La0  1  0.13712642  -0.00089185  0.12496505  1
  La3+  La1  1  0.13749813  -0.00148637  0.37613393  1
  La3+  La2  1  0.13813580  -0.00067017  0.62286792  1
  La3+  La3  1  0.13774578  -0.00038299  0.87606805  1
  La3+  La4  1  0.13930389  0.33539093  0.12488124  1
  La3+  La5  1  0.13761096  0.33354243  0.37476506  1
  La3+  La6  1  0.13745754  0.33222828  0.62562007  1
  La3+  La7  1  0.13870499  0.33374418  0.87462025  1
  La3+  La8  1  0.13909133  0.66740503  0.12581718  1
  La3+  La9  1  0.13930036  0.66778285  0.37389839  1
  La3+  La10  1  0.13831167  0.66656967  0.62597493  1
  La3+  La11  1  0.14050083  0.66693160  0.87356935  1
  La3+  La12  1  0.63806701  0.00059301  0.12262280  1
  La3+  La13  1  0.63591796  0.00026660  0.37529567  1
  La3+  La14  1  0.63769655  -0.00024486  0.62616499  1
  La3+  La15  1  0.63898152  0.00100349  0.87629976  1
  La3+  La16  1  0.64022411  0.33283704  0.12586650  1
  La3+  La17  1  0.64037373  0.33476753  0.37543927  1
  La3+  La18  1  0.64028922  0.33321238  0.62512647  1
  La3+  La19  1  0.63803855  0.33169548  0.87392477  1
  La3+  La20  1  0.63943771  0.66605074  0.12468805  1
  La3+  La21  1  0.63721997  0.66424605  0.37389305  1
  La3+  La22  1  0.63817173  0.66605894  0.62557639  1
  La3+  La23  1  0.64021657  0.66697604  0.87583040  1
  La3+  La24  1  0.36126514  -0.00107329  0.12535852  1
  La3+  La25  1  0.36144750  -0.00079937  0.37547953  1
  La3+  La26  1  0.36030829  0.00065362  0.62308086  1
  La3+  La27  1  0.36120073  -0.00043365  0.87495538  1
  La3+  La28  1  0.36164498  0.33358911  0.12493156  1
  La3+  La29  1  0.36295062  0.33280867  0.37517386  1
  La3+  La30  1  0.36248314  0.33189322  0.62578601  1
  La3+  La31  1  0.36133060  0.33330418  0.87430616  1
  La3+  La32  1  0.35995006  0.66774139  0.12656759  1
  La3+  La33  1  0.35980379  0.66779136  0.37275844  1
  La3+  La34  1  0.36074561  0.66785012  0.62771053  1
  La3+  La35  1  0.35970361  0.66646169  0.87335532  1
  La3+  La36  1  0.86126494  0.00028199  0.12251416  1
  La3+  La37  1  0.86362873  0.00020503  0.37537346  1
  La3+  La38  1  0.86470677  -0.00195003  0.62936363  1
  La3+  La39  1  0.86148451  -0.00253327  0.87271638  1
  La3+  La40  1  0.85937841  0.33256036  0.12545486  1
  La3+  La41  1  0.86124540  0.33273403  0.37795482  1
  La3+  La42  1  0.86167658  0.33175166  0.62222349  1
  La3+  La43  1  0.86065298  0.33206316  0.87405515  1
  La3+  La44  1  0.86118711  0.66688680  0.12422742  1
  La3+  La45  1  0.86323343  0.66477940  0.37405142  1
  La3+  La46  1  0.86216425  0.66582333  0.62624180  1
  La3+  La47  1  0.85991610  0.66771606  0.87565870  1
  La3+  La48  1  0.00261277  0.16788072  0.88045199  1
  La3+  La49  1  -0.00149006  0.16667508  0.36964854  1
  La3+  La50  1  -0.00126906  0.16830482  0.38936275  1
  La3+  La51  1  0.00044820  0.83618387  0.63609921  1
  La3+  La52  1  0.50020555  0.50051471  0.11566330  1
  La3+  La53  1  0.00044359  0.50066002  0.63316440  1
  La3+  La54  1  -0.00033714  0.50088525  0.61544274  1
  La3+  La55  1  0.49858186  0.83654189  0.11854864  1
  La3+  La56  1  0.49963534  0.49933221  0.13300702  1
  La3+  La57  1  0.50138787  0.83338230  0.86562868  1
  La3+  La58  1  0.50340269  0.16643375  0.11509641  1
  La3+  La59  1  0.50045318  0.83424665  0.38392989  1
  La3+  La60  1  0.00074481  0.83498011  0.86817729  1
  La3+  La61  1  0.50163080  0.49992395  0.88091694  1
  La3+  La62  1  -0.00126869  0.83711348  0.61858101  1
  La3+  La63  1  0.49947159  0.49935285  0.63793734  1
  La3+  La64  1  0.49890043  0.16711691  0.38460172  1
  La3+  La65  1  0.50195696  0.50135958  0.61602394  1
  La3+  La66  1  0.00214222  0.50374599  0.36812664  1
  La3+  La67  1  0.50075685  0.50006892  0.38378440  1
  La3+  La68  1  0.00027056  0.50037260  0.86320075  1
  La3+  La69  1  0.49780783  0.16991671  0.86822334  1
  La3+  La70  1  0.50085958  0.83479486  0.36654942  1
  La3+  La71  1  0.50153131  0.16308580  0.13666647  1
  La3+  La72  1  0.74988554  0.52961756  -0.02769592  1
  La3+  La73  1  0.75021894  0.49935263  0.74630574  1
  La3+  La74  1  0.25030815  0.17119053  0.24651838  1
  La3+  La75  1  0.24988947  0.19309472  0.75135625  1
  La3+  La76  1  0.74935623  0.83896465  0.22425477  1
  La3+  La77  1  0.24999175  0.50169583  0.24361272  1
  La3+  La78  1  0.25005991  0.49800402  0.54992658  1
  La3+  La79  1  0.75032775  0.83399566  0.52708276  1
  La3+  La80  1  0.24989963  0.83247706  0.23357740  1
  La3+  La81  1  0.74973121  0.20066511  0.50178906  1
  La3+  La82  1  0.24993256  0.16535635  0.48716856  1
  La3+  La83  1  0.74995868  0.16830951  0.24966670  1
  Ru4+  Ru84  1  0.00364211  -0.00851894  0.00054522  1
  Ru4+  Ru85  1  0.00218816  -0.00352724  0.24791412  1
  Ru4+  Ru86  1  -0.00202358  0.00332973  0.50123856  1
  Ru4+  Ru87  1  0.00170647  -0.00244718  0.74986347  1
  Ru4+  Ru88  1  0.00223871  0.33474272  -0.00190709  1
  Ru4+  Ru89  1  0.00035528  0.33349502  0.25252782  1
  Ru4+  Ru90  1  0.00003930  0.33206676  0.50026252  1
  Ru4+  Ru91  1  -0.00026171  0.33366308  0.74874695  1
  Ru4+  Ru92  1  0.00015727  0.67210738  0.00394093  1
  Ru4+  Ru93  1  -0.00125072  0.66663678  0.24800824  1
  Ru4+  Ru94  1  -0.00363590  0.67137256  0.49679113  1
  Ru4+  Ru95  1  0.00008495  0.66545060  0.74853572  1
  Ru4+  Ru96  1  0.49810455  -0.00533389  -0.00174669  1
  Ru4+  Ru97  1  0.50009623  0.00037677  0.25016122  1
  Ru4+  Ru98  1  0.49736525  0.00505481  0.49909446  1
  Ru4+  Ru99  1  0.49815190  -0.00417319  0.75221270  1
  Ru4+  Ru100  1  0.50018716  0.33379204  -0.00169158  1
  Ru4+  Ru101  1  0.49975755  0.33327590  0.25079940  1
  Ru4+  Ru102  1  0.49938609  0.33143607  0.50152911  1
  Ru4+  Ru103  1  0.49909790  0.33164097  0.74966301  1
  Ru4+  Ru104  1  0.49988193  0.66837244  0.00219118  1
  Ru4+  Ru105  1  0.50011977  0.66645362  0.24848776  1
  Ru4+  Ru106  1  0.50070131  0.66906033  0.50284004  1
  Ru4+  Ru107  1  0.49938832  0.66808757  0.74812328  1
  Ru4+  Ru108  1  0.11263753  0.16624591  0.00012899  1
  Ru4+  Ru109  1  0.11199342  0.16457758  0.24913477  1
  Ru4+  Ru110  1  0.11165073  0.16631072  0.49975670  1
  Ru4+  Ru111  1  0.11147160  0.16773941  0.75060238  1
  Ru4+  Ru112  1  0.11298310  0.49765749  0.00069558  1
  Ru4+  Ru113  1  0.11162549  0.50077096  0.24956165  1
  Ru4+  Ru114  1  0.11430351  0.49727607  0.49995666  1
  Ru4+  Ru115  1  0.11301237  0.50180873  0.75013372  1
  Ru4+  Ru116  1  0.11107783  0.83315221  -0.00027413  1
  Ru4+  Ru117  1  0.11058411  0.83523836  0.25062685  1
  Ru4+  Ru118  1  0.11472251  0.83006039  0.49997969  1
  Ru4+  Ru119  1  0.11306491  0.83161180  0.75002405  1
  Ru4+  Ru120  1  0.61665264  0.16896426  -0.00024255  1
  Ru4+  Ru121  1  0.61133669  0.16685528  0.25034864  1
  Ru4+  Ru122  1  0.61152503  0.16738367  0.49979336  1
  Ru4+  Ru123  1  0.61677019  0.17104267  0.74815663  1
  Ru4+  Ru124  1  0.61243358  0.50105925  0.00039732  1
  Ru4+  Ru125  1  0.61436309  0.50119780  0.25032378  1
  Ru4+  Ru126  1  0.61389944  0.49864993  0.49933273  1
  Ru4+  Ru127  1  0.61222514  0.50096482  0.74992312  1
  Ru4+  Ru128  1  0.61539123  0.83469814  -0.00052136  1
  Ru4+  Ru129  1  0.61154202  0.83357813  0.24842673  1
  Ru4+  Ru130  1  0.61328893  0.83068391  0.50028651  1
  Ru4+  Ru131  1  0.61247361  0.83423225  0.75038954  1
  Ru4+  Ru132  1  0.38651551  0.16687871  -0.00031378  1
  Ru4+  Ru133  1  0.38849188  0.16522585  0.25023600  1
  Ru4+  Ru134  1  0.38807489  0.16616408  0.49969673  1
  Ru4+  Ru135  1  0.38884796  0.16808317  0.74964563  1
  Ru4+  Ru136  1  0.38583867  0.49893343  -0.00062560  1
  Ru4+  Ru137  1  0.38830667  0.50155009  0.24962136  1
  Ru4+  Ru138  1  0.38649919  0.49928040  0.49949271  1
  Ru4+  Ru139  1  0.38654368  0.50086568  0.75017880  1
  Ru4+  Ru140  1  0.38778540  0.83383864  -0.00021934  1
  Ru4+  Ru141  1  0.38761493  0.83348405  0.25050844  1
  Ru4+  Ru142  1  0.38705379  0.83262869  0.50005222  1
  Ru4+  Ru143  1  0.38632825  0.83099302  0.74958774  1
  Ru4+  Ru144  1  0.88161424  0.16906739  0.00059203  1
  Ru4+  Ru145  1  0.88844889  0.16642778  0.25009561  1
  Ru4+  Ru146  1  0.88858499  0.16782234  0.50150584  1
  Ru4+  Ru147  1  0.88537728  0.16743804  0.74916378  1
  Ru4+  Ru148  1  0.88666501  0.50042103  0.00062422  1
  Ru4+  Ru149  1  0.88428974  0.50156034  0.24978645  1
  Ru4+  Ru150  1  0.88586043  0.49790910  0.50019392  1
  Ru4+  Ru151  1  0.88872947  0.49965379  0.74998756  1
  Ru4+  Ru152  1  0.88690604  0.83355930  -0.00060941  1
  Ru4+  Ru153  1  0.89000896  0.83499720  0.25057474  1
  Ru4+  Ru154  1  0.88922342  0.83431254  0.50028625  1
  Ru4+  Ru155  1  0.88933924  0.83613360  0.75071845  1
  Ru4+  Ru156  1  0.24997534  0.91159502  0.74629610  1
  Ru4+  Ru157  1  0.75000250  0.71532407  0.51276038  1
  Ru4+  Ru158  1  0.25007226  0.37593678  0.49394004  1
  Ru4+  Ru159  1  0.24988906  0.08566800  0.00160369  1
  Ru4+  Ru160  1  0.24994040  0.58894552  -0.00932928  1
  Ru4+  Ru161  1  0.25004841  0.05840927  0.74858978  1
  Ru4+  Ru162  1  0.25001633  0.29078227  0.25090078  1
  Ru4+  Ru163  1  0.24984995  0.42341838  0.75275701  1
  Ru4+  Ru164  1  0.75004114  0.07152147  0.48953296  1
  Ru4+  Ru165  1  0.75002434  0.72098055  0.24350415  1
  Ru4+  Ru166  1  0.75010741  0.94605472  0.48123883  1
  Ru4+  Ru167  1  0.25008861  0.75762803  0.49583588  1
  Ru4+  Ru168  1  0.74981701  0.75222599  0.74895831  1
  Ru4+  Ru169  1  0.24989292  0.05328441  0.24455143  1
  Ru4+  Ru170  1  0.24990818  0.91370407  -0.00074956  1
  Ru4+  Ru171  1  0.75015210  0.95625526  0.25294197  1
  Ru4+  Ru172  1  0.74974148  0.91487608  0.75368964  1
  Ru4+  Ru173  1  0.24973684  0.41265032  -0.00794713  1
  Ru4+  Ru174  1  0.25008536  0.61685590  0.48007474  1
  Ru4+  Ru175  1  0.24991444  0.75112781  -0.00371521  1
  Ru4+  Ru176  1  0.24967008  0.24804153  0.00008400  1
  Ru4+  Ru177  1  0.74983791  0.57338131  0.50193618  1
  Ru4+  Ru178  1  0.25012615  0.91212714  0.50168424  1
  Ru4+  Ru179  1  0.74999875  0.39393041  -0.00049718  1
  O2-  O180  1  0.16809203  0.08122544  0.00056189  1
  O2-  O181  1  0.16612578  0.07923038  0.25045516  1
  O2-  O182  1  0.16689471  0.08021779  0.49963447  1
  O2-  O183  1  0.16704354  0.07985695  0.74977958  1
  O2-  O184  1  0.16824227  0.41571080  -0.00063996  1
  O2-  O185  1  0.16844663  0.41281332  0.25107453  1
  O2-  O186  1  0.16660921  0.41285495  0.49936666  1
  O2-  O187  1  0.16793432  0.41285506  0.74931865  1
  O2-  O188  1  0.16799358  0.74847151  0.00004402  1
  O2-  O189  1  0.16639733  0.74765027  0.24931239  1
  O2-  O190  1  0.16811902  0.74792903  0.49935456  1
  O2-  O191  1  0.16589832  0.74885800  0.74994494  1
  O2-  O192  1  0.66774193  0.08176949  0.00167806  1
  O2-  O193  1  0.66909992  0.07937465  0.25012052  1
  O2-  O194  1  0.66669453  0.07976146  0.49961428  1
  O2-  O195  1  0.66705928  0.08165580  0.74944186  1
  O2-  O196  1  0.66665169  0.41312433  -0.00079150  1
  O2-  O197  1  0.66642155  0.41414446  0.24918985  1
  O2-  O198  1  0.66676278  0.41516706  0.50006382  1
  O2-  O199  1  0.66824912  0.41363816  0.75082524  1
  O2-  O200  1  0.66752185  0.74806594  0.00108134  1
  O2-  O201  1  0.66641456  0.74608812  0.25083998  1
  O2-  O202  1  0.66569981  0.74577765  0.50085723  1
  O2-  O203  1  0.66754232  0.74755233  0.74906095  1
  O2-  O204  1  0.33235772  0.25259624  -0.00027957  1
  O2-  O205  1  0.33357725  0.25542497  0.25024233  1
  O2-  O206  1  0.33244547  0.25429670  0.49960225  1
  O2-  O207  1  0.33208101  0.25447391  0.75049894  1
  O2-  O208  1  0.33157918  0.58538275  0.00000556  1
  O2-  O209  1  0.33296802  0.58571183  0.24965071  1
  O2-  O210  1  0.33292389  0.58705702  0.49967743  1
  O2-  O211  1  0.33386985  0.58485696  0.74977149  1
  O2-  O212  1  0.33242348  0.91924609  0.00029991  1
  O2-  O213  1  0.33240931  0.91977487  0.24945790  1
  O2-  O214  1  0.33202930  0.91893082  0.49960404  1
  O2-  O215  1  0.33146656  0.91901345  0.75108632  1
  O2-  O216  1  0.83198317  0.25226519  -0.00093906  1
  O2-  O217  1  0.83117797  0.25240314  0.25021117  1
  O2-  O218  1  0.83281344  0.25258132  0.49912545  1
  O2-  O219  1  0.83378784  0.25155345  0.75047522  1
  O2-  O220  1  0.83280981  0.58585718  0.00060793  1
  O2-  O221  1  0.83432897  0.58498335  0.25055357  1
  O2-  O222  1  0.83275918  0.58658963  0.49964196  1
  O2-  O223  1  0.83142883  0.58710625  0.74931056  1
  O2-  O224  1  0.83323228  0.91895953  0.00152209  1
  O2-  O225  1  0.83373214  0.92124540  0.25013624  1
  O2-  O226  1  0.83338400  0.92105536  0.49953697  1
  O2-  O227  1  0.83192435  0.91791894  0.74914734  1
  O2-  O228  1  0.16865686  0.25195083  -0.00010959  1
  O2-  O229  1  0.16677578  0.25467952  0.25120688  1
  O2-  O230  1  0.16782845  0.25459457  0.49980884  1
  O2-  O231  1  0.16774570  0.25422538  0.74925941  1
  O2-  O232  1  0.16825996  0.58543554  -0.00032624  1
  O2-  O233  1  0.16653804  0.58545924  0.24970091  1
  O2-  O234  1  0.16682039  0.58680646  0.49922011  1
  O2-  O235  1  0.16576640  0.58468347  0.74958356  1
  O2-  O236  1  0.16778698  0.91929288  0.00018699  1
  O2-  O237  1  0.16704491  0.91948461  0.24992663  1
  O2-  O238  1  0.16754657  0.91865014  0.49940689  1
  O2-  O239  1  0.16798113  0.91987396  0.75040297  1
  O2-  O240  1  0.66661348  0.25187299  -0.00000108  1
  O2-  O241  1  0.66860525  0.25286871  0.24914256  1
  O2-  O242  1  0.66646632  0.25255718  0.50002653  1
  O2-  O243  1  0.66759122  0.25198235  0.75055786  1
  O2-  O244  1  0.66756004  0.58625470  0.00048197  1
  O2-  O245  1  0.66719801  0.58490850  0.24977633  1
  O2-  O246  1  0.66797724  0.58638613  0.50074735  1
  O2-  O247  1  0.66823642  0.58625881  0.74897755  1
  O2-  O248  1  0.66668724  0.91850873  0.00123542  1
  O2-  O249  1  0.66666849  0.92153741  0.25080490  1
  O2-  O250  1  0.66604875  0.92035715  0.49948760  1
  O2-  O251  1  0.66804783  0.91853647  0.74923050  1
  O2-  O252  1  0.33238610  0.08058883  0.00026232  1
  O2-  O253  1  0.33437091  0.07911523  0.25019265  1
  O2-  O254  1  0.33314674  0.08051887  0.49942881  1
  O2-  O255  1  0.33282635  0.07972026  0.75059870  1
  O2-  O256  1  0.33238758  0.41417154  0.00012697  1
  O2-  O257  1  0.33210269  0.41227026  0.25038453  1
  O2-  O258  1  0.33344498  0.41245305  0.49936592  1
  O2-  O259  1  0.33230396  0.41324077  0.74990133  1
  O2-  O260  1  0.33204332  0.74731509  -0.00022181  1
  O2-  O261  1  0.33338054  0.74754785  0.24883888  1
  O2-  O262  1  0.33203384  0.74794366  0.50002037  1
  O2-  O263  1  0.33418193  0.74959206  0.75048366  1
  O2-  O264  1  0.83157771  0.08218108  0.00148350  1
  O2-  O265  1  0.83117129  0.08034222  0.24981375  1
  O2-  O266  1  0.83336907  0.08008134  0.49920893  1
  O2-  O267  1  0.83252894  0.08158001  0.74931593  1
  O2-  O268  1  0.83280994  0.41388248  -0.00105361  1
  O2-  O269  1  0.83253509  0.41476191  0.25058223  1
  O2-  O270  1  0.83301603  0.41486806  0.49941835  1
  O2-  O271  1  0.83177865  0.41374042  0.75079178  1
  O2-  O272  1  0.83356238  0.74798937  0.00052656  1
  O2-  O273  1  0.83433308  0.74629698  0.25073964  1
  O2-  O274  1  0.83443455  0.74534169  0.50008566  1
  O2-  O275  1  0.83276714  0.74784056  0.74901672  1
  O2-  O276  1  0.45352345  0.90179329  0.48543834  1
  O2-  O277  1  0.04674513  0.90061021  0.00423971  1
  O2-  O278  1  0.45226119  0.23720974  0.01210135  1
  O2-  O279  1  0.96432112  0.11389678  1.00292609  1
  O2-  O280  1  0.54462790  0.09626411  0.48513085  1
  O2-  O281  1  0.45416107  0.43255893  0.51290331  1
  O2-  O282  1  0.04861080  0.89925912  0.26430550  1
  O2-  O283  1  0.02831988  0.20958577  0.02107873  1
  O2-  O284  1  0.54558270  0.43211015  0.26468402  1
  O2-  O285  1  0.45479077  0.56634743  0.76368041  1
  O2-  O286  1  0.45340916  0.43358880  0.23524463  1
  O2-  O287  1  0.04534855  0.43020957  0.51230703  1
  O2-  O288  1  0.95414968  0.76391827  0.76249993  1
  O2-  O289  1  0.46460167  0.88804613  0.74151036  1
  O2-  O290  1  0.95910840  0.89427709  0.75679133  1
  O2-  O291  1  0.45304532  0.09485701  0.01294050  1
  O2-  O292  1  0.54586818  0.76444533  0.48674521  1
  O2-  O293  1  0.54770729  0.09803769  0.98321593  1
  O2-  O294  1  0.54711497  0.43165995  0.98892798  1
  O2-  O295  1  0.95348369  0.56758250  0.48605808  1
  O2-  O296  1  0.45376467  0.23559515  0.23877577  1
  O2-  O297  1  0.54904570  0.90274924  0.48180367  1
  O2-  O298  1  0.54451603  0.90199233  0.98762242  1
  O2-  O299  1  0.04059127  0.56041628  0.97488601  1
  O2-  O300  1  0.95179819  0.90183908  0.26474769  1
  O2-  O301  1  0.04812763  0.56941870  0.51664747  1
  O2-  O302  1  0.95501083  0.23323484  0.23660679  1
  O2-  O303  1  0.04648486  0.43325430  0.24208064  1
  O2-  O304  1  0.04732672  0.90150178  0.51621337  1
  O2-  O305  1  0.04770608  0.90066896  0.99485852  1
  O2-  O306  1  0.45299854  0.76654478  0.98539479  1
  O2-  O307  1  0.54226696  0.76984415  0.02660644  1
  O2-  O308  1  0.95115625  0.90557237  0.73414777  1
  O2-  O309  1  0.54495910  0.43241111  0.76298975  1
  O2-  O310  1  0.95377748  0.23719552  0.48245533  1
  O2-  O311  1  0.55447593  0.08738130  0.78038593  1
  O2-  O312  1  0.04743790  0.43209046  0.25900042  1
  O2-  O313  1  0.54497578  0.23697488  0.48510838  1
  O2-  O314  1  0.45364353  0.76356003  0.76375333  1
  O2-  O315  1  0.54675000  0.23535977  0.98571812  1
  O2-  O316  1  0.45312907  0.43018256  0.98704573  1
  O2-  O317  1  0.95484914  0.76416469  0.01355700  1
  O2-  O318  1  0.95160876  0.90338626  0.98440891  1
  O2-  O319  1  0.95814068  0.22733174  0.50819959  1
  O2-  O320  1  0.95545153  0.43772860  0.27525408  1
  O2-  O321  1  0.96202524  0.11073378  0.00227901  1
  O2-  O322  1  0.96004884  0.43886051  0.97274137  1
  O2-  O323  1  0.45149953  0.57193097  0.96467870  1
  O2-  O324  1  0.56381324  0.40268295  0.46660179  1
  O2-  O325  1  0.42400789  0.94358663  0.71501106  1
  O2-  O326  1  0.43372314  0.59307101  0.45109877  1
  O2-  O327  1  0.56478807  0.59420131  0.27940187  1
  O2-  O328  1  0.06394454  0.26391190  0.78217443  1
  O2-  O329  1  0.93609615  0.06948357  0.53202572  1
  O2-  O330  1  0.92863781  0.05501891  0.05993774  1
  O2-  O331  1  0.93447454  0.59481281  0.04600427  1
  O2-  O332  1  0.56382342  0.73719307  0.21620895  1
  O2-  O333  1  0.56411325  0.93070456  0.21693136  1
  O2-  O334  1  0.57065723  0.73111084  0.95861308  1
  O2-  O335  1  0.06549434  0.73778399  0.97034267  1
  O2-  O336  1  0.93409432  0.26585849  0.53206045  1
  O2-  O337  1  0.93339649  0.25959463  0.04504747  1
  O2-  O338  1  0.93308308  0.59360631  0.95416749  1
  O2-  O339  1  0.06541612  0.40642041  0.02899664  1
  O2-  O340  1  0.55453144  0.08729204  0.78023952  1
  O2-  O341  1  0.56973812  0.06842121  0.70332702  1
  O2-  O342  1  0.56419945  0.07260447  0.97226309  1
  O2-  O343  1  0.93578828  0.26490968  0.94960747  1
  O2-  O344  1  0.43021276  0.60799551  0.07121108  1
  O2-  O345  1  0.43378873  0.59510274  0.55010776  1
  O2-  O346  1  0.44354651  0.58253054  0.95766604  1
  O2-  O347  1  0.06870622  0.60271129  0.04442742  1
  O2-  O348  1  0.92745122  0.05300268  0.93932972  1
  O2-  O349  1  0.06334763  0.73782429  0.53326562  1
  O2-  O350  1  0.56553980  0.59437517  0.47058428  1
  O2-  O351  1  0.92959440  0.39948109  0.04043566  1
  O2-  O352  1  0.56639092  0.92750854  0.77970819  1
  O2-  O353  1  0.06501539  0.07199009  0.22179574  1
  O2-  O354  1  0.06604420  0.07141346  0.96983606  1
  O2-  O355  1  0.93538614  0.92986248  0.46713039  1
  O2-  O356  1  0.93306214  0.93175849  0.78204345  1
  O2-  O357  1  0.06282421  0.59396009  0.53401515  1
  O2-  O358  1  0.56362375  0.59658392  0.03393779  1
  O2-  O359  1  0.93571755  0.07278136  0.79867699  1
  O2-  O360  1  0.06417583  0.26486460  0.30284508  1
  O2-  O361  1  0.56404535  0.26441054  0.71751012  1
  O2-  O362  1  0.43607659  0.93088056  0.28284328  1
  O2-  O363  1  0.92956982  0.39743241  0.21002644  1
  O2-  O364  1  0.93598812  0.07038851  0.70108574  1
  O2-  O365  1  0.43508347  0.26233955  0.72195597  1
  O2-  O366  1  0.56245961  0.92904321  0.46487919  1
  O2-  O367  1  0.06941045  0.27376864  0.93480092  1
  O2-  O368  1  0.06582124  0.26015116  0.20254184  1
  O2-  O369  1  0.93580751  0.40512216  0.53377720  1
  O2-  O370  1  0.06297028  0.92611493  0.53171916  1
  O2-  O371  1  0.07657530  0.27323719  0.05578350  1
  O2-  O372  1  0.74994564  0.00112006  0.58899464  1
  O2-  O373  1  0.75012201  -0.00282609  0.84076020  1
  O2-  O374  1  0.25013355  -0.00028528  0.90744246  1
  O2-  O375  1  0.74994703  0.33361598  0.66913867  1
  O2-  O376  1  0.25019325  -0.00379710  0.15049435  1
  O2-  O377  1  0.25012017  0.66720003  0.85109835  1
  O2-  O378  1  0.74999613  0.00269422  0.67849433  1
  O2-  O379  1  0.25007189  0.33357019  0.09319496  1
  O2-  O380  1  0.74999063  0.66486417  0.82861277  1
  O2-  O381  1  0.25000031  0.66584973  0.09288602  1
  O2-  O382  1  0.25012073  -0.00229387  0.59220443  1
  O2-  O383  1  0.25006300  0.67425140  0.58489689  1
  O2-  O384  1  0.25004835  0.00208980  0.42489252  1
  O2-  O385  1  0.24986337  0.66513493  0.34783130  1
  O2-  O386  1  0.75009541  0.33190078  0.41906189  1
  O2-  O387  1  0.74995722  0.66342033  0.15135183  1
  O2-  O388  1  0.75009169  0.65623856  0.32970822  1
  O2-  O389  1  0.75014946  0.33169928  0.33065810  1
  O2-  O390  1  0.75004243  0.33198106  0.58104792  1
  O2-  O391  1  0.74982102  0.33178868  0.09533059  1
  O2-  O392  1  0.75003712  0.65858226  0.41710029  1
  O2-  O393  1  0.25003250  -0.00980617  0.33533988  1
  O2-  O394  1  0.24999103  0.66619853  0.67374185  1
  O2-  O395  1  0.74996113  0.66649795  0.92001071  1
  O2-  O396  1  0.25004671  0.83694016  0.66083953  1
  O2-  O397  1  0.74991372  0.83251307  0.64032894  1
  O2-  O398  1  0.75004107  0.83270146  0.11195252  1
  O2-  O399  1  0.25002464  0.16720976  0.61267053  1
  O2-  O400  1  0.74984067  0.83332597  0.41165558  1
  O2-  O401  1  0.25008405  0.50036833  0.42813505  1
  O2-  O402  1  0.25014800  0.50008240  0.35390068  1
  O2-  O403  1  0.75003383  0.83308088  0.83379115  1
  O2-  O404  1  0.74990278  0.83307629  0.91797246  1
  O2-  O405  1  0.74999496  0.50083874  0.34358377  1
  O2-  O406  1  0.24981533  0.49993965  0.13306937  1
  O2-  O407  1  0.75009485  0.83175724  0.33926039  1
  O2-  O408  1  0.25014036  0.83367178  0.36468278  1
  O2-  O409  1  0.24994521  0.16598794  0.36592149  1
  O2-  O410  1  0.24992719  0.16562729  0.12624083  1
  O2-  O411  1  0.25010394  0.50037422  0.05814098  1
  O2-  O412  1  0.75007394  0.16687723  0.83994470  1
  O2-  O413  1  0.75012784  0.49774471  0.09721105  1
  O2-  O414  1  0.74998804  0.50235355  0.59083329  1
  O2-  O415  1  0.25002303  0.49610039  0.84100575  1
  O2-  O416  1  0.75007210  0.49988105  0.17923928  1
  O2-  O417  1  0.25005364  0.16726705  0.90923515  1
  O2-  O418  1  0.25007843  0.83356016  0.08827587  1
  O2-  O419  1  0.25006712  0.49790767  0.66771942  1
  O2-  O420  1  0.03021553  0.66524177  0.87070606  1
  O2-  O421  1  0.53037429  0.66314088  0.86879013  1
  O2-  O422  1  0.53066212  0.67197179  0.37465283  1
  O2-  O423  1  0.47430746  0.66904625  0.62928482  1
  O2-  O424  1  0.52752430  0.33241271  0.87392781  1
  O2-  O425  1  0.97036860  0.66910695  0.87037314  1
  O2-  O426  1  0.02699675  -0.00127940  0.86952063  1
  O2-  O427  1  0.02680694  0.00242708  0.37573730  1
  O2-  O428  1  0.47048244  0.00410695  0.62037284  1
  O2-  O429  1  0.97252853  0.66735262  0.37289387  1
  O2-  O430  1  0.47220723  0.33322267  0.37509253  1
  O2-  O431  1  0.02658848  0.00208418  0.62912224  1
  O2-  O432  1  0.02853565  0.33344256  0.62619285  1
  O2-  O433  1  0.46807543  0.67087613  0.36887231  1
  O2-  O434  1  0.02700402  0.33910660  0.12653845  1
  O2-  O435  1  0.97301443  0.33106071  0.12746958  1
  O2-  O436  1  0.97204857  0.66699364  0.62579282  1
  O2-  O437  1  0.47028973  0.67025976  0.86985526  1
  O2-  O438  1  0.02555332  -0.00158210  0.12396593  1
  O2-  O439  1  0.47373783  0.33637155  0.62204287  1
  O2-  O440  1  0.47300089  0.33466815  0.12476885  1
  O2-  O441  1  0.52930127  -0.00381974  0.62179369  1
  O2-  O442  1  0.97497288  0.66861724  0.13271236  1
  O2-  O443  1  0.52212334  -0.00395991  0.87554888  1
