# generated using pymatgen
data_La7(Ru4O11)2
_symmetry_space_group_name_H-M   'P 1'
_cell_length_a   23.99315253
_cell_length_b   16.83226470
_cell_length_c   15.42885790
_cell_angle_alpha   89.99877399
_cell_angle_beta   89.99900439
_cell_angle_gamma   90.00072566
_symmetry_Int_Tables_number   1
_chemical_formula_structural   La7(Ru4O11)2
_chemical_formula_sum   'La84 Ru96 O264'
_cell_volume   6231.08457463
_cell_formula_units_Z   12
loop_
 _symmetry_equiv_pos_site_id
 _symmetry_equiv_pos_as_xyz
  1  'x, y, z'
loop_
 _atom_type_symbol
 _atom_type_oxidation_number
  La3+  3.0
  Ru4+  4.0
  O2-  -2.0
loop_
 _atom_site_type_symbol
 _atom_site_label
 _atom_site_symmetry_multiplicity
 _atom_site_fract_x
 _atom_site_fract_y
 _atom_site_fract_z
 _atom_site_occupancy
  La3+  La0  1  0.13015197  0.00170014  0.12461685  1
  La3+  La1  1  0.14428737  -0.00056445  0.38127842  1
  La3+  La2  1  0.14183177  -0.00065821  0.62308139  1
  La3+  La3  1  0.14679304  -0.00458860  0.87984097  1
  La3+  La4  1  0.13605414  0.33144234  0.11835802  1
  La3+  La5  1  0.14015542  0.33838263  0.37809218  1
  La3+  La6  1  0.14242045  0.33774995  0.62270389  1
  La3+  La7  1  0.15197637  0.33383769  0.87124227  1
  La3+  La8  1  0.13543614  0.66259515  0.12488886  1
  La3+  La9  1  0.13964790  0.66326693  0.37344006  1
  La3+  La10  1  0.14644792  0.66445079  0.62126964  1
  La3+  La11  1  0.13030733  0.66749761  0.87673026  1
  La3+  La12  1  0.64118508  -0.00092025  0.12589837  1
  La3+  La13  1  0.63573097  0.00596940  0.38018009  1
  La3+  La14  1  0.63451151  0.00449584  0.61820277  1
  La3+  La15  1  0.63535635  -0.00111705  0.87611504  1
  La3+  La16  1  0.63104198  0.33630055  0.11991456  1
  La3+  La17  1  0.64270683  0.33721020  0.37518705  1
  La3+  La18  1  0.63924139  0.33593117  0.62697972  1
  La3+  La19  1  0.63448605  0.33126401  0.88197299  1
  La3+  La20  1  0.64294579  0.66456805  0.13104101  1
  La3+  La21  1  0.63645620  0.66346163  0.37690464  1
  La3+  La22  1  0.64122245  0.66174951  0.62365002  1
  La3+  La23  1  0.64078222  0.66812531  0.87321509  1
  La3+  La24  1  0.36508152  -0.00052832  0.12712883  1
  La3+  La25  1  0.35570945  -0.00465948  0.38428193  1
  La3+  La26  1  0.35970926  0.00212330  0.61486647  1
  La3+  La27  1  0.36178226  -0.00111734  0.87452590  1
  La3+  La28  1  0.36152694  0.33043788  0.12285029  1
  La3+  La29  1  0.36047447  0.33703550  0.37518049  1
  La3+  La30  1  0.35360719  0.33698065  0.62768411  1
  La3+  La31  1  0.36224922  0.32971705  0.87626862  1
  La3+  La32  1  0.36112070  0.66693451  0.12682642  1
  La3+  La33  1  0.35410705  0.66163491  0.37352566  1
  La3+  La34  1  0.35075545  0.66365454  0.62392294  1
  La3+  La35  1  0.36433778  0.66576224  0.87041529  1
  La3+  La36  1  0.86314111  0.00204854  0.12300655  1
  La3+  La37  1  0.85809283  0.00505430  0.37702315  1
  La3+  La38  1  0.86528850  0.00159824  0.62314669  1
  La3+  La39  1  0.86752601  -0.00254975  0.87842066  1
  La3+  La40  1  0.86926503  0.33964372  0.12796886  1
  La3+  La41  1  0.86408788  0.33555867  0.37124817  1
  La3+  La42  1  0.86255977  0.33179098  0.62522889  1
  La3+  La43  1  0.86247561  0.33329988  0.87738070  1
  La3+  La44  1  0.86051698  0.66412271  0.12693008  1
  La3+  La45  1  0.85975633  0.65969575  0.37604558  1
  La3+  La46  1  0.85900052  0.66802641  0.61938991  1
  La3+  La47  1  0.86089563  0.66851099  0.87242014  1
  La3+  La48  1  0.50022840  0.49735352  0.87561946  1
  La3+  La49  1  -0.00275962  0.82671356  0.10132013  1
  La3+  La50  1  0.00138663  0.83335710  0.36578774  1
  La3+  La51  1  0.00003486  0.49632946  0.37897287  1
  La3+  La52  1  0.49875749  0.83669289  0.11395529  1
  La3+  La53  1  0.50114538  0.17527566  0.11299688  1
  La3+  La54  1  0.50090266  0.16244058  0.63321832  1
  La3+  La55  1  0.49921893  0.83144452  0.13446959  1
  La3+  La56  1  0.49923219  0.16163065  0.61297712  1
  La3+  La57  1  0.50251171  0.82325942  0.63436344  1
  La3+  La58  1  0.50289634  0.49562468  0.13889298  1
  La3+  La59  1  0.00001626  0.83035863  0.38810624  1
  La3+  La60  1  -0.00046630  0.16581352  0.87329869  1
  La3+  La61  1  0.50376815  0.16393338  0.87560493  1
  La3+  La62  1  0.50275505  0.49893447  0.11694183  1
  La3+  La63  1  -0.00206349  0.16312253  0.36498953  1
  La3+  La64  1  0.00593762  0.50408887  0.86741708  1
  La3+  La65  1  0.00245427  0.50213774  0.35785964  1
  La3+  La66  1  0.49833338  0.15689256  0.37773061  1
  La3+  La67  1  -0.00431039  0.51036332  0.62048723  1
  La3+  La68  1  -0.00711503  0.49826651  0.60324487  1
  La3+  La69  1  0.49939757  0.17223646  0.09592621  1
  La3+  La70  1  0.49968641  0.50452883  0.38325673  1
  La3+  La71  1  0.00211845  0.49917454  0.88852394  1
  La3+  La72  1  0.24946662  0.14997129  0.31029380  1
  La3+  La73  1  0.75064627  0.82575285  0.82752205  1
  La3+  La74  1  0.75041196  0.13877394  0.25168170  1
  La3+  La75  1  0.25011004  0.22862582  0.73828474  1
  La3+  La76  1  0.24964293  0.16262035  0.49065790  1
  La3+  La77  1  0.24989841  0.78240820  -0.01756643  1
  La3+  La78  1  0.74950795  0.79287147  0.45623061  1
  La3+  La79  1  0.74807991  0.22923429  0.74113406  1
  La3+  La80  1  0.74994872  0.50413779  0.26642731  1
  La3+  La81  1  0.25019105  0.54148400  -0.04239063  1
  La3+  La82  1  0.75021899  0.46369343  -0.00522371  1
  La3+  La83  1  0.74944429  0.79002027  0.23554204  1
  Ru4+  Ru84  1  -0.00340995  -0.00311192  -0.00152743  1
  Ru4+  Ru85  1  0.00540296  0.00127664  0.24455485  1
  Ru4+  Ru86  1  -0.00403803  -0.00240974  0.50543924  1
  Ru4+  Ru87  1  0.00580233  0.00898098  0.75213456  1
  Ru4+  Ru88  1  0.00393641  0.33121721  0.00489652  1
  Ru4+  Ru89  1  0.00148291  0.32635242  0.25113370  1
  Ru4+  Ru90  1  -0.00878516  0.32116265  0.50708567  1
  Ru4+  Ru91  1  0.00098516  0.32921205  0.74753175  1
  Ru4+  Ru92  1  -0.00241374  0.67384710  -0.00572560  1
  Ru4+  Ru93  1  0.00357426  0.66610428  0.24230625  1
  Ru4+  Ru94  1  0.00287679  0.67575691  0.50267487  1
  Ru4+  Ru95  1  0.00537527  0.68179671  0.74665019  1
  Ru4+  Ru96  1  0.49866828  -0.00486343  -0.00430568  1
  Ru4+  Ru97  1  0.49599541  0.00005794  0.25397060  1
  Ru4+  Ru98  1  0.50190224  -0.01383971  0.49323402  1
  Ru4+  Ru99  1  0.50059698  -0.00573978  0.75580939  1
  Ru4+  Ru100  1  0.49328728  0.34257106  -0.00323155  1
  Ru4+  Ru101  1  0.50136573  0.33002953  0.25701585  1
  Ru4+  Ru102  1  0.50148513  0.33675237  0.49948288  1
  Ru4+  Ru103  1  0.50069629  0.33915423  0.75278112  1
  Ru4+  Ru104  1  0.50084776  0.67241035  -0.01354593  1
  Ru4+  Ru105  1  0.49989353  0.66944225  0.25880990  1
  Ru4+  Ru106  1  0.50369722  0.67391300  0.49208335  1
  Ru4+  Ru107  1  0.50079660  0.66883088  0.75605866  1
  Ru4+  Ru108  1  0.11345393  0.17032662  -0.00195686  1
  Ru4+  Ru109  1  0.10799832  0.16589586  0.24996025  1
  Ru4+  Ru110  1  0.11057732  0.16722846  0.49880456  1
  Ru4+  Ru111  1  0.10541209  0.15746746  0.74892958  1
  Ru4+  Ru112  1  0.11415743  0.49430449  0.00704886  1
  Ru4+  Ru113  1  0.11851120  0.50076715  0.24933064  1
  Ru4+  Ru114  1  0.11938316  0.50488363  0.49875676  1
  Ru4+  Ru115  1  0.11732031  0.49523763  0.75038226  1
  Ru4+  Ru116  1  0.10742165  0.83212340  -0.00130834  1
  Ru4+  Ru117  1  0.11408405  0.83447070  0.24974753  1
  Ru4+  Ru118  1  0.11302839  0.83373968  0.50442532  1
  Ru4+  Ru119  1  0.10594846  0.82367775  0.74652596  1
  Ru4+  Ru120  1  0.61754367  0.16207246  -0.00132374  1
  Ru4+  Ru121  1  0.61133689  0.16808959  0.25679148  1
  Ru4+  Ru122  1  0.61721414  0.17021353  0.49993677  1
  Ru4+  Ru123  1  0.60624399  0.16572205  0.74882204  1
  Ru4+  Ru124  1  0.61555770  0.50754928  -0.00320034  1
  Ru4+  Ru125  1  0.61426093  0.50320704  0.24908049  1
  Ru4+  Ru126  1  0.61168511  0.50456923  0.50103132  1
  Ru4+  Ru127  1  0.61694995  0.49791609  0.74820388  1
  Ru4+  Ru128  1  0.61128224  0.83880218  0.00061988  1
  Ru4+  Ru129  1  0.60521634  0.83322646  0.24538101  1
  Ru4+  Ru130  1  0.60879428  0.83340887  0.49795301  1
  Ru4+  Ru131  1  0.61004228  0.83339287  0.75126380  1
  Ru4+  Ru132  1  0.38110474  0.16310615  -0.00166406  1
  Ru4+  Ru133  1  0.38924086  0.16459394  0.25101214  1
  Ru4+  Ru134  1  0.38566653  0.17307784  0.49995650  1
  Ru4+  Ru135  1  0.39136962  0.16559263  0.74947288  1
  Ru4+  Ru136  1  0.38957249  0.49567592  -0.00136441  1
  Ru4+  Ru137  1  0.38139591  0.49998616  0.25086827  1
  Ru4+  Ru138  1  0.38421561  0.50242650  0.50239549  1
  Ru4+  Ru139  1  0.38249183  0.49846585  0.74633907  1
  Ru4+  Ru140  1  0.38997558  0.83394645  0.00099665  1
  Ru4+  Ru141  1  0.38864244  0.82947104  0.24663164  1
  Ru4+  Ru142  1  0.39197315  0.82670853  0.49831004  1
  Ru4+  Ru143  1  0.38912661  0.83322180  0.74917871  1
  Ru4+  Ru144  1  0.88806901  0.16356235  0.00217430  1
  Ru4+  Ru145  1  0.89079498  0.16519458  0.24907748  1
  Ru4+  Ru146  1  0.89061669  0.17107313  0.49938185  1
  Ru4+  Ru147  1  0.89124020  0.16905839  0.74972732  1
  Ru4+  Ru148  1  0.88741897  0.50973460  0.00320295  1
  Ru4+  Ru149  1  0.88574922  0.50418204  0.24963122  1
  Ru4+  Ru150  1  0.88809258  0.50207111  0.50113814  1
  Ru4+  Ru151  1  0.88520970  0.50473290  0.74653742  1
  Ru4+  Ru152  1  0.88824392  0.83758480  -0.00325671  1
  Ru4+  Ru153  1  0.88902388  0.83084439  0.24752329  1
  Ru4+  Ru154  1  0.89285069  0.83314882  0.50624537  1
  Ru4+  Ru155  1  0.89143334  0.83758529  0.75164767  1
  Ru4+  Ru156  1  0.24992663  0.09629086  -0.00442668  1
  Ru4+  Ru157  1  0.24956825  0.04627489  0.20311227  1
  Ru4+  Ru158  1  0.75044856  0.07630823  0.01898204  1
  Ru4+  Ru159  1  0.75024883  0.25009706  0.49179477  1
  Ru4+  Ru160  1  0.75016250  0.93642403  0.51581145  1
  Ru4+  Ru161  1  0.74943715  0.93942779  0.72995537  1
  Ru4+  Ru162  1  0.24993846  0.90207073  0.75095053  1
  Ru4+  Ru163  1  0.74955353  0.60880865  -0.01804894  1
  Ru4+  Ru164  1  0.75039078  0.42438544  0.73810924  1
  Ru4+  Ru165  1  0.75000114  0.75719863  -0.00089641  1
  Ru4+  Ru166  1  0.25011682  0.42819783  0.48762346  1
  Ru4+  Ru167  1  0.74980380  0.28026088  0.24929536  1
  Ru4+  Ru168  1  0.75034850  0.42575172  0.50854658  1
  Ru4+  Ru169  1  0.75023453  0.70388371  0.72339862  1
  Ru4+  Ru170  1  0.24948660  0.27283643  0.24269951  1
  Ru4+  Ru171  1  0.25051606  0.91096906  0.25372217  1
  Ru4+  Ru172  1  0.74995453  0.07702621  0.74882372  1
  Ru4+  Ru173  1  0.25005702  0.93295774  0.02668353  1
  Ru4+  Ru174  1  0.25081201  0.08280685  0.74701828  1
  Ru4+  Ru175  1  0.24995967  0.75310429  0.75662422  1
  Ru4+  Ru176  1  0.74970449  0.93283531  0.24086351  1
  Ru4+  Ru177  1  0.75041102  0.25309158  0.01948697  1
  Ru4+  Ru178  1  0.25086006  0.40195079  -0.00515697  1
  Ru4+  Ru179  1  0.24948176  0.75331469  0.49801123  1
  O2-  O180  1  0.16534878  0.08338880  0.00504491  1
  O2-  O181  1  0.16632251  0.07919233  0.24900817  1
  O2-  O182  1  0.16270010  0.08352333  0.50167778  1
  O2-  O183  1  0.16815864  0.08320382  0.74542637  1
  O2-  O184  1  0.16807880  0.41488415  0.00237937  1
  O2-  O185  1  0.16131595  0.41226092  0.24871914  1
  O2-  O186  1  0.16887833  0.41553632  0.50109733  1
  O2-  O187  1  0.17135830  0.41936370  0.74426464  1
  O2-  O188  1  0.16336870  0.74280643  0.00275406  1
  O2-  O189  1  0.16235288  0.74795976  0.24901747  1
  O2-  O190  1  0.16672971  0.74660517  0.49581673  1
  O2-  O191  1  0.16774774  0.74945218  0.75559903  1
  O2-  O192  1  0.66858171  0.07698916  0.00190795  1
  O2-  O193  1  0.66320463  0.08171367  0.24734627  1
  O2-  O194  1  0.66418189  0.08160715  0.50404340  1
  O2-  O195  1  0.66497430  0.07810415  0.74979642  1
  O2-  O196  1  0.66347590  0.41019542  0.00133797  1
  O2-  O197  1  0.66691679  0.41265763  0.24973259  1
  O2-  O198  1  0.66629684  0.41424395  0.50220664  1
  O2-  O199  1  0.66837144  0.41586735  0.75041250  1
  O2-  O200  1  0.66743234  0.74964644  -0.00017557  1
  O2-  O201  1  0.66176535  0.74535362  0.25374848  1
  O2-  O202  1  0.66359043  0.74683097  0.49910942  1
  O2-  O203  1  0.67067613  0.74737285  0.75033604  1
  O2-  O204  1  0.33530538  0.25178471  -0.00007527  1
  O2-  O205  1  0.33399968  0.25258213  0.25187443  1
  O2-  O206  1  0.33299455  0.25528787  0.49778880  1
  O2-  O207  1  0.34316270  0.25686757  0.75384342  1
  O2-  O208  1  0.33330125  0.59071084  0.00066306  1
  O2-  O209  1  0.33482936  0.58730960  0.24459097  1
  O2-  O210  1  0.32877364  0.58012949  0.49678559  1
  O2-  O211  1  0.32755126  0.58156176  0.75912533  1
  O2-  O212  1  0.33347604  0.91930553  0.00038154  1
  O2-  O213  1  0.33584691  0.91930874  0.24802577  1
  O2-  O214  1  0.33542111  0.91112278  0.50534932  1
  O2-  O215  1  0.33427435  0.91876872  0.75087022  1
  O2-  O216  1  0.83459600  0.25384847  0.00543618  1
  O2-  O217  1  0.83092201  0.25422450  0.24702041  1
  O2-  O218  1  0.83197601  0.25462510  0.49882568  1
  O2-  O219  1  0.83950473  0.25703557  0.75450163  1
  O2-  O220  1  0.83048452  0.58748924  -0.00389683  1
  O2-  O221  1  0.83320154  0.58576042  0.25155864  1
  O2-  O222  1  0.83670243  0.58594722  0.50018650  1
  O2-  O223  1  0.83430409  0.58602478  0.74925823  1
  O2-  O224  1  0.83030418  0.91673708  -0.00060449  1
  O2-  O225  1  0.83348899  0.92085054  0.24972101  1
  O2-  O226  1  0.83217521  0.91752771  0.49766350  1
  O2-  O227  1  0.82997679  0.92101286  0.75145064  1
  O2-  O228  1  0.16867705  0.24526363  0.00779658  1
  O2-  O229  1  0.16448339  0.25459862  0.25103614  1
  O2-  O230  1  0.16483646  0.25446827  0.49902761  1
  O2-  O231  1  0.15518066  0.25167992  0.74670703  1
  O2-  O232  1  0.16642687  0.58766458  -0.00182726  1
  O2-  O233  1  0.16831960  0.58720807  0.24812880  1
  O2-  O234  1  0.17017017  0.58518507  0.49737201  1
  O2-  O235  1  0.16458958  0.58470772  0.75474847  1
  O2-  O236  1  0.16564263  0.91787791  0.00747588  1
  O2-  O237  1  0.16924214  0.91907633  0.24596186  1
  O2-  O238  1  0.16244797  0.91629850  0.50127489  1
  O2-  O239  1  0.16318916  0.91325771  0.74826939  1
  O2-  O240  1  0.66541362  0.25291234  0.00366688  1
  O2-  O241  1  0.66973046  0.25305979  0.24439267  1
  O2-  O242  1  0.66675548  0.25594803  0.50174541  1
  O2-  O243  1  0.65536873  0.25947764  0.75242733  1
  O2-  O244  1  0.66774081  0.59040315  -0.00196142  1
  O2-  O245  1  0.66791000  0.58589347  0.25417617  1
  O2-  O246  1  0.66753169  0.58345001  0.49627925  1
  O2-  O247  1  0.67098276  0.58154056  0.74877468  1
  O2-  O248  1  0.66564687  0.91899290  -0.00113422  1
  O2-  O249  1  0.66548804  0.92076188  0.24905201  1
  O2-  O250  1  0.66788796  0.91991254  0.50268583  1
  O2-  O251  1  0.66586641  0.92192421  0.75153353  1
  O2-  O252  1  0.33364640  0.07738376  -0.00004984  1
  O2-  O253  1  0.32900202  0.07924251  0.24688360  1
  O2-  O254  1  0.33411240  0.08461874  0.49992837  1
  O2-  O255  1  0.33340100  0.07890728  0.74971907  1
  O2-  O256  1  0.33427285  0.41312416  -0.00155397  1
  O2-  O257  1  0.33670509  0.41268223  0.24923042  1
  O2-  O258  1  0.33342199  0.41637451  0.49884221  1
  O2-  O259  1  0.33350016  0.41640298  0.75554250  1
  O2-  O260  1  0.33799005  0.74334716  0.00184599  1
  O2-  O261  1  0.33684629  0.74771509  0.24699266  1
  O2-  O262  1  0.32991461  0.74925202  0.49592610  1
  O2-  O263  1  0.33483030  0.74938803  0.75478261  1
  O2-  O264  1  0.83049663  0.07994232  0.00187139  1
  O2-  O265  1  0.83634014  0.08122418  0.24848894  1
  O2-  O266  1  0.83945649  0.08438762  0.50203610  1
  O2-  O267  1  0.83582968  0.08120256  0.75208219  1
  O2-  O268  1  0.83992095  0.41149740  0.00401568  1
  O2-  O269  1  0.83269280  0.41293019  0.24759187  1
  O2-  O270  1  0.83279271  0.41163719  0.49983657  1
  O2-  O271  1  0.83276114  0.41466208  0.75138928  1
  O2-  O272  1  0.83358821  0.75020064  -0.00125664  1
  O2-  O273  1  0.83688737  0.74652682  0.25471397  1
  O2-  O274  1  0.83222593  0.74802446  0.50185147  1
  O2-  O275  1  0.83367816  0.74789972  0.74823430  1
  O2-  O276  1  0.02758716  0.79902174  0.75282387  1
  O2-  O277  1  0.03274465  0.12466226  0.72144563  1
  O2-  O278  1  0.55033124  0.08973969  0.00853522  1
  O2-  O279  1  0.45132649  0.09635269  0.51113771  1
  O2-  O280  1  0.95411068  0.76084376  0.55119727  1
  O2-  O281  1  0.04767115  0.56465259  0.01854532  1
  O2-  O282  1  0.54694630  0.42882037  0.48643807  1
  O2-  O283  1  0.94966613  0.90466728  0.23715670  1
  O2-  O284  1  0.46472127  0.11293418  0.21719518  1
  O2-  O285  1  0.54637360  0.23959392  0.48825433  1
  O2-  O286  1  0.45198440  0.43279603  0.26125846  1
  O2-  O287  1  0.55053574  0.43067611  0.26928351  1
  O2-  O288  1  0.95517341  0.41981382  0.02018510  1
  O2-  O289  1  0.04285678  0.86921372  0.20998865  1
  O2-  O290  1  0.55225243  0.23517806  0.98750183  1
  O2-  O291  1  0.45477961  0.57168065  0.00731000  1
  O2-  O292  1  0.04911803  0.57983451  0.98303871  1
  O2-  O293  1  0.49336601  0.78385306  0.47827735  1
  O2-  O294  1  0.04942420  0.42631335  0.01696889  1
  O2-  O295  1  0.04512185  0.09102519  0.02979865  1
  O2-  O296  1  0.44908477  0.90331967  0.73674726  1
  O2-  O297  1  0.45762503  0.54988700  0.74307592  1
  O2-  O298  1  0.55049153  0.10014657  0.48828347  1
  O2-  O299  1  0.55030995  0.90455389  0.76217274  1
  O2-  O300  1  0.54520360  0.77416904  0.99463782  1
  O2-  O301  1  0.03101549  0.12045551  0.74065204  1
  O2-  O302  1  0.04751021  0.90336882  0.98412691  1
  O2-  O303  1  0.95066624  0.76292248  0.98295151  1
  O2-  O304  1  0.04675745  0.42858680  0.50659526  1
  O2-  O305  1  0.03408191  0.23154759  0.04333527  1
  O2-  O306  1  0.53862474  0.21545400  0.22354042  1
  O2-  O307  1  0.94865276  0.42982457  0.76917482  1
  O2-  O308  1  0.95395121  0.09815725  0.48559163  1
  O2-  O309  1  0.45377068  0.22652243  0.98511934  1
  O2-  O310  1  0.94111870  0.24137829  0.98072631  1
  O2-  O311  1  0.04997362  0.24454117  0.26189552  1
  O2-  O312  1  0.03683330  0.21583717  1.00884140  1
  O2-  O313  1  0.04419890  0.44646315  0.70892102  1
  O2-  O314  1  0.54230554  0.54628879  0.74705991  1
  O2-  O315  1  0.46509096  0.54691294  0.51294213  1
  O2-  O316  1  0.94390471  0.42361736  0.98530555  1
  O2-  O317  1  0.44731935  0.24825473  0.01490647  1
  O2-  O318  1  0.04740484  0.09683984  0.23958139  1
  O2-  O319  1  0.54548684  0.42836059  0.00556695  1
  O2-  O320  1  0.94963947  0.42588148  0.27108174  1
  O2-  O321  1  0.04391904  0.89853265  0.51053629  1
  O2-  O322  1  0.45980071  0.90216560  0.54867533  1
  O2-  O323  1  0.95898899  0.43337732  0.23547869  1
  O2-  O324  1  0.43991134  0.07497806  0.53709832  1
  O2-  O325  1  0.43771961  0.92777548  0.96946343  1
  O2-  O326  1  0.41905826  0.61114978  0.72376889  1
  O2-  O327  1  0.56426400  0.39917560  0.71808939  1
  O2-  O328  1  0.07712503  0.02242901  0.80522871  1
  O2-  O329  1  0.93141709  0.24849624  0.56592835  1
  O2-  O330  1  0.41676083  0.75517517  0.58436962  1
  O2-  O331  1  0.08797718  0.29369450  0.94750504  1
  O2-  O332  1  0.42428405  0.60453976  0.53188551  1
  O2-  O333  1  0.92913303  0.58084582  0.06534156  1
  O2-  O334  1  0.93815695  0.06875373  0.22334850  1
  O2-  O335  1  0.56496352  0.41555454  0.02604762  1
  O2-  O336  1  0.56630904  0.59191533  0.52055148  1
  O2-  O337  1  0.56278824  0.59841077  0.21278581  1
  O2-  O338  1  0.93577105  0.92929644  0.42170227  1
  O2-  O339  1  0.43686374  0.39960989  0.71638232  1
  O2-  O340  1  0.07760481  0.70062762  0.70799149  1
  O2-  O341  1  0.43854289  0.73837143  0.04131590  1
  O2-  O342  1  0.56055797  0.26653571  0.97363664  1
  O2-  O343  1  0.91955385  0.75483946  0.41142348  1
  O2-  O344  1  0.57972554  0.60587359  0.77836845  1
  O2-  O345  1  0.42525441  0.93133249  0.45001564  1
  O2-  O346  1  0.55925656  0.06867321  0.47586806  1
  O2-  O347  1  0.56514829  0.74350097  0.72947708  1
  O2-  O348  1  0.41612481  0.73405048  0.43544174  1
  O2-  O349  1  0.93497999  0.07257594  0.03117617  1
  O2-  O350  1  0.93609444  0.92554322  0.97906504  1
  O2-  O351  1  0.08010406  0.39405468  0.80949992  1
  O2-  O352  1  0.93506653  0.59701579  0.92258434  1
  O2-  O353  1  0.56366907  0.06998140  0.28432145  1
  O2-  O354  1  0.56551354  0.92339167  0.46646546  1
  O2-  O355  1  0.93909197  0.26341492  0.42754055  1
  O2-  O356  1  0.07825802  0.94166710  0.30198135  1
  O2-  O357  1  0.93506528  0.26028636  0.27584109  1
  O2-  O358  1  0.92881939  0.91730111  0.56592986  1
  O2-  O359  1  0.06107559  0.41033080  0.53181354  1
  O2-  O360  1  0.43447289  0.26458589  0.21579291  1
  O2-  O361  1  0.41594736  0.06270654  0.30577447  1
  O2-  O362  1  0.43980894  0.07014435  0.71989409  1
  O2-  O363  1  0.06459738  0.73728426  0.97702950  1
  O2-  O364  1  0.06795092  0.06343000  0.95215588  1
  O2-  O365  1  0.06805590  0.73689330  0.53522184  1
  O2-  O366  1  0.06324994  0.58820924  0.27700702  1
  O2-  O367  1  0.93507710  0.92449149  0.77074800  1
  O2-  O368  1  0.57274531  0.28126809  0.31939636  1
  O2-  O369  1  0.06022583  0.58504903  0.47393298  1
  O2-  O370  1  0.94821098  0.74688280  0.56067300  1
  O2-  O371  1  0.93828063  0.25958116  0.73137776  1
  O2-  O372  1  0.74971884  0.66824317  0.19507202  1
  O2-  O373  1  0.24955388  0.35911460  0.16038068  1
  O2-  O374  1  0.25021882  0.31857765  0.08026667  1
  O2-  O375  1  0.74960001  0.01195923  0.13930778  1
  O2-  O376  1  0.25020997  -0.00819790  0.81622604  1
  O2-  O377  1  0.75012262  0.67519232  0.07798032  1
  O2-  O378  1  0.74963977  0.33803965  0.64206037  1
  O2-  O379  1  0.25035212  0.00241313  0.93590746  1
  O2-  O380  1  0.25259119  0.33259699  0.89497561  1
  O2-  O381  1  0.75013317  0.67507344  0.60613320  1
  O2-  O382  1  0.25010687  0.33633684  0.63944255  1
  O2-  O383  1  0.24941877  0.66461330  0.67454969  1
  O2-  O384  1  0.74970597  0.01318864  0.31694417  1
  O2-  O385  1  0.24941151  0.00191655  0.57388146  1
  O2-  O386  1  0.24950514  0.01275441  0.43061069  1
  O2-  O387  1  0.25000125  0.32686969  0.42697098  1
  O2-  O388  1  0.75080075  0.66785794  0.85186889  1
  O2-  O389  1  0.75024052  0.01133333  0.43756723  1
  O2-  O390  1  0.24970177  0.34721554  0.33714351  1
  O2-  O391  1  0.25015252  -0.00153753  0.33368066  1
  O2-  O392  1  0.24980143  0.66460426  0.58019235  1
  O2-  O393  1  0.24968938  -0.00982357  0.66748057  1
  O2-  O394  1  0.75036704  0.33398672  0.94439907  1
  O2-  O395  1  0.74984312  0.34250566  0.81454659  1
  O2-  O396  1  0.25010138  0.15056791  0.86651722  1
  O2-  O397  1  0.24988785  0.84020460  0.41903973  1
  O2-  O398  1  0.25017213  0.50115878  0.18057925  1
  O2-  O399  1  0.25000358  0.83955728  0.85549757  1
  O2-  O400  1  0.24987877  0.16887367  0.15999786  1
  O2-  O401  1  0.75044124  0.84061074  0.58560975  1
  O2-  O402  1  0.74984061  0.49913844  0.12697255  1
  O2-  O403  1  0.25005113  0.49134162  0.37125938  1
  O2-  O404  1  0.75041861  0.13761295  0.84373668  1
  O2-  O405  1  0.75009916  0.49021600  0.59809027  1
  O2-  O406  1  0.25051985  0.17916824  0.06850673  1
  O2-  O407  1  0.25026379  0.82375921  0.66978242  1
  O2-  O408  1  0.74974851  0.15448360  0.54679181  1
  O2-  O409  1  0.75003910  0.49236072  0.41474590  1
  O2-  O410  1  0.74927350  0.16763076  0.95570535  1
  O2-  O411  1  0.25021246  0.49429803  0.09328337  1
  O2-  O412  1  0.25016507  0.81329225  0.18802331  1
  O2-  O413  1  0.75040055  0.14110681  0.63835549  1
  O2-  O414  1  0.24893707  0.83863562  0.55913032  1
  O2-  O415  1  0.25027316  0.85018748  0.10776713  1
  O2-  O416  1  0.25017493  0.82197980  0.33375433  1
  O2-  O417  1  0.25007573  0.15641602  0.62188377  1
  O2-  O418  1  0.74934690  0.83093088  0.67587190  1
  O2-  O419  1  0.74979535  0.17597769  0.40120638  1
  O2-  O420  1  0.54302165  0.66527152  0.88874433  1
  O2-  O421  1  0.45764502  0.64726719  0.35231820  1
  O2-  O422  1  0.47341431  -0.01042545  0.12539147  1
  O2-  O423  1  0.52823724  0.00672661  0.87613220  1
  O2-  O424  1  0.03228032  -0.00293309  0.62397041  1
  O2-  O425  1  0.04741599  0.67418432  0.13275167  1
  O2-  O426  1  0.97334279  0.01215544  0.63609052  1
  O2-  O427  1  0.02584008  0.65979219  0.86705176  1
  O2-  O428  1  0.97499356  0.02055815  0.87279043  1
  O2-  O429  1  0.45316089  0.66531808  0.86855888  1
  O2-  O430  1  0.47631689  0.67060539  0.63125166  1
  O2-  O431  1  0.47050695  0.33625174  0.87473491  1
  O2-  O432  1  0.46967202  0.32985742  0.37918086  1
  O2-  O433  1  0.48705144  -0.00368947  0.36939549  1
  O2-  O434  1  0.95607910  0.68586345  0.14499120  1
  O2-  O435  1  0.52505122  0.33270827  0.12740971  1
  O2-  O436  1  0.02470660  -0.00718732  0.12299403  1
  O2-  O437  1  0.54722199  0.66798742  0.37930042  1
  O2-  O438  1  0.04148973  0.69477391  0.37720798  1
  O2-  O439  1  0.01983350  0.01235781  0.38677587  1
  O2-  O440  1  0.97945291  0.35456221  0.62579446  1
  O2-  O441  1  0.95593988  0.63540868  0.34788018  1
  O2-  O442  1  0.53283085  0.66820214  0.62380110  1
  O2-  O443  1  0.00768565  0.32565899  0.86968237  1
