# generated using pymatgen
data_La7(Ru4O11)2
_symmetry_space_group_name_H-M   'P 1'
_cell_length_a   23.98975073
_cell_length_b   16.82942992
_cell_length_c   15.42656903
_cell_angle_alpha   89.99887990
_cell_angle_beta   90.00068095
_cell_angle_gamma   90.00018423
_symmetry_Int_Tables_number   1
_chemical_formula_structural   La7(Ru4O11)2
_chemical_formula_sum   'La84 Ru96 O264'
_cell_volume   6228.22777638
_cell_formula_units_Z   12
loop_
 _symmetry_equiv_pos_site_id
 _symmetry_equiv_pos_as_xyz
  1  'x, y, z'
loop_
 _atom_type_symbol
 _atom_type_oxidation_number
  La3+  3.0
  Ru4+  4.0
  O2-  -2.0
loop_
 _atom_site_type_symbol
 _atom_site_label
 _atom_site_symmetry_multiplicity
 _atom_site_fract_x
 _atom_site_fract_y
 _atom_site_fract_z
 _atom_site_occupancy
  La3+  La0  1  0.13662799  0.00153339  0.12395048  1
  La3+  La1  1  0.13822676  0.00024579  0.37270198  1
  La3+  La2  1  0.14144645  -0.00015197  0.62647390  1
  La3+  La3  1  0.13735864  -0.00036481  0.87735165  1
  La3+  La4  1  0.14152684  0.33336560  0.12507930  1
  La3+  La5  1  0.14240628  0.33252410  0.37294799  1
  La3+  La6  1  0.14003595  0.33268528  0.62372658  1
  La3+  La7  1  0.14209521  0.33464448  0.87612947  1
  La3+  La8  1  0.13801599  0.66604952  0.12437952  1
  La3+  La9  1  0.13884681  0.66673511  0.37621447  1
  La3+  La10  1  0.13874127  0.66508590  0.62599032  1
  La3+  La11  1  0.13875511  0.66599335  0.87532630  1
  La3+  La12  1  0.64177699  0.00096279  0.12200355  1
  La3+  La13  1  0.63920682  -0.00030759  0.37269323  1
  La3+  La14  1  0.63548364  -0.00058519  0.62415279  1
  La3+  La15  1  0.64028294  0.00096053  0.87977124  1
  La3+  La16  1  0.63869401  0.33084950  0.12409439  1
  La3+  La17  1  0.63901128  0.33295684  0.37049933  1
  La3+  La18  1  0.63675562  0.33393784  0.62624512  1
  La3+  La19  1  0.63789227  0.33209562  0.87810158  1
  La3+  La20  1  0.63893216  0.66654833  0.12586974  1
  La3+  La21  1  0.63768860  0.66751122  0.37387952  1
  La3+  La22  1  0.63746523  0.66591900  0.62330261  1
  La3+  La23  1  0.63837377  0.66646644  0.87508658  1
  La3+  La24  1  0.36148316  0.00044860  0.12590808  1
  La3+  La25  1  0.35807288  0.00168225  0.37649977  1
  La3+  La26  1  0.35910725  -0.00035000  0.62592667  1
  La3+  La27  1  0.36162913  -0.00099381  0.87509772  1
  La3+  La28  1  0.35787767  0.33300241  0.12522521  1
  La3+  La29  1  0.35632403  0.33262836  0.37278262  1
  La3+  La30  1  0.35857919  0.33250270  0.62442297  1
  La3+  La31  1  0.35910900  0.33368702  0.87552391  1
  La3+  La32  1  0.36183374  0.66722393  0.12515742  1
  La3+  La33  1  0.36459975  0.66482701  0.37639318  1
  La3+  La34  1  0.35968481  0.66384820  0.62482755  1
  La3+  La35  1  0.36059338  0.66614808  0.87320436  1
  La3+  La36  1  0.85862170  -0.00145310  0.12293093  1
  La3+  La37  1  0.85980734  -0.00083333  0.37419878  1
  La3+  La38  1  0.86367173  0.00037517  0.62367072  1
  La3+  La39  1  0.86042674  -0.00068979  0.87907777  1
  La3+  La40  1  0.86042860  0.33223216  0.12495551  1
  La3+  La41  1  0.86182109  0.33386336  0.37030838  1
  La3+  La42  1  0.86320449  0.33373956  0.62643070  1
  La3+  La43  1  0.86086809  0.33252822  0.87872361  1
  La3+  La44  1  0.86191667  0.66583887  0.12580172  1
  La3+  La45  1  0.86321480  0.66504783  0.37441588  1
  La3+  La46  1  0.86381776  0.66574474  0.62473666  1
  La3+  La47  1  0.86258637  0.66580643  0.87567433  1
  La3+  La48  1  0.50039893  0.16889594  0.86735662  1
  La3+  La49  1  0.50109952  0.49638204  0.88431665  1
  La3+  La50  1  0.49958577  0.83592349  0.86927300  1
  La3+  La51  1  -0.00194376  0.16221221  0.86421161  1
  La3+  La52  1  -0.00248975  0.50396167  0.62587472  1
  La3+  La53  1  0.50083009  0.16807928  0.88493480  1
  La3+  La54  1  -0.00099781  0.16724714  0.63081178  1
  La3+  La55  1  0.00076938  0.83445221  0.11651918  1
  La3+  La56  1  0.49808322  0.50399239  0.63710789  1
  La3+  La57  1  0.00165908  0.16746987  0.38170504  1
  La3+  La58  1  0.49923417  0.49835267  0.36517866  1
  La3+  La59  1  0.49859497  0.50281627  0.61986849  1
  La3+  La60  1  0.49671623  0.16994317  0.36063642  1
  La3+  La61  1  -0.00453525  0.17389426  0.88277569  1
  La3+  La62  1  0.49969623  0.16819235  0.38256394  1
  La3+  La63  1  0.49966316  0.50089295  0.86367647  1
  La3+  La64  1  0.50169696  0.82918094  0.13365299  1
  La3+  La65  1  -0.00051526  0.83328449  0.61600202  1
  La3+  La66  1  0.49984175  0.16569812  0.61947914  1
  La3+  La67  1  0.50015558  0.49877216  0.11808362  1
  La3+  La68  1  0.50308193  0.83726857  0.88514754  1
  La3+  La69  1  -0.00047370  0.49767607  0.13190048  1
  La3+  La70  1  -0.00423056  0.83687473  0.37038289  1
  La3+  La71  1  0.49913494  0.16851298  0.11801354  1
  La3+  La72  1  0.25012833  0.16669932  0.74701807  1
  La3+  La73  1  0.74975208  0.86740036  0.24733405  1
  La3+  La74  1  0.74985026  0.83123955  0.71953005  1
  La3+  La75  1  0.24976814  0.87032882  0.75658788  1
  La3+  La76  1  0.75018053  0.86804828  0.51944484  1
  La3+  La77  1  0.74978086  0.56013922  0.50624468  1
  La3+  La78  1  0.75015826  0.12546941  0.71274640  1
  La3+  La79  1  0.24980093  0.88241925  0.51380815  1
  La3+  La80  1  0.75012471  0.16524364  0.03763285  1
  La3+  La81  1  0.25049528  0.16991741  0.00937470  1
  La3+  La82  1  0.75035093  0.49683054  0.21103076  1
  La3+  La83  1  0.75000252  0.12320632  0.52936974  1
  Ru4+  Ru84  1  -0.00471446  -0.00908990  -0.00020561  1
  Ru4+  Ru85  1  -0.00326014  0.00606924  0.24879895  1
  Ru4+  Ru86  1  0.00043192  -0.00122995  0.50041859  1
  Ru4+  Ru87  1  0.00015250  -0.00161438  0.74894385  1
  Ru4+  Ru88  1  -0.00072888  0.33628089  0.01015942  1
  Ru4+  Ru89  1  -0.00109513  0.33166307  0.24878211  1
  Ru4+  Ru90  1  0.00110877  0.33296203  0.49950500  1
  Ru4+  Ru91  1  -0.00190370  0.33305436  0.74883644  1
  Ru4+  Ru92  1  -0.00043201  0.66557134  0.00001903  1
  Ru4+  Ru93  1  -0.00227364  0.66536646  0.25126177  1
  Ru4+  Ru94  1  -0.00148839  0.66469090  0.49776215  1
  Ru4+  Ru95  1  -0.00126385  0.66595367  0.74673451  1
  Ru4+  Ru96  1  0.49732624  -0.00102914  -0.00101247  1
  Ru4+  Ru97  1  0.49752858  -0.00051216  0.25383825  1
  Ru4+  Ru98  1  0.49978542  -0.00669210  0.49766533  1
  Ru4+  Ru99  1  0.49823211  0.00013753  0.75020077  1
  Ru4+  Ru100  1  0.49693191  0.34027295  -0.00045022  1
  Ru4+  Ru101  1  0.50043317  0.33650419  0.24870313  1
  Ru4+  Ru102  1  0.49800855  0.33389361  0.49892464  1
  Ru4+  Ru103  1  0.49858032  0.33463978  0.74978572  1
  Ru4+  Ru104  1  0.50019508  0.66984164  0.00098171  1
  Ru4+  Ru105  1  0.50048673  0.66617817  0.25241116  1
  Ru4+  Ru106  1  0.49766200  0.66900971  0.49804547  1
  Ru4+  Ru107  1  0.49900974  0.66298511  0.74628323  1
  Ru4+  Ru108  1  0.11819815  0.16815346  0.00021602  1
  Ru4+  Ru109  1  0.11492084  0.16572846  0.24885304  1
  Ru4+  Ru110  1  0.11373581  0.16933796  0.49935908  1
  Ru4+  Ru111  1  0.11381116  0.16636350  0.75003421  1
  Ru4+  Ru112  1  0.11376353  0.49637900  0.00066137  1
  Ru4+  Ru113  1  0.11513275  0.50058231  0.25101707  1
  Ru4+  Ru114  1  0.11158502  0.50009690  0.49929088  1
  Ru4+  Ru115  1  0.11458096  0.50316450  0.75041855  1
  Ru4+  Ru116  1  0.11329771  0.83400312  -0.00088362  1
  Ru4+  Ru117  1  0.11644271  0.83051037  0.24903596  1
  Ru4+  Ru118  1  0.11045336  0.83427175  0.50047120  1
  Ru4+  Ru119  1  0.11117338  0.83457896  0.74936644  1
  Ru4+  Ru120  1  0.61596907  0.16316660  0.00005151  1
  Ru4+  Ru121  1  0.61573249  0.16886417  0.24799321  1
  Ru4+  Ru122  1  0.61328345  0.16596750  0.50116494  1
  Ru4+  Ru123  1  0.61138267  0.16724895  0.75145874  1
  Ru4+  Ru124  1  0.61235981  0.49948880  -0.00039156  1
  Ru4+  Ru125  1  0.61187951  0.49878140  0.25029692  1
  Ru4+  Ru126  1  0.61153331  0.50138460  0.49918981  1
  Ru4+  Ru127  1  0.61127745  0.50058111  0.74935861  1
  Ru4+  Ru128  1  0.61382538  0.83412173  0.00001841  1
  Ru4+  Ru129  1  0.61199969  0.83128040  0.25051059  1
  Ru4+  Ru130  1  0.61170633  0.83918145  0.49996678  1
  Ru4+  Ru131  1  0.61164686  0.83451346  0.74865747  1
  Ru4+  Ru132  1  0.38840083  0.16683198  0.00072786  1
  Ru4+  Ru133  1  0.38418843  0.16675889  0.24852185  1
  Ru4+  Ru134  1  0.38473043  0.16986095  0.50149076  1
  Ru4+  Ru135  1  0.38855305  0.16652738  0.75111631  1
  Ru4+  Ru136  1  0.38651942  0.49621163  0.00008221  1
  Ru4+  Ru137  1  0.38649745  0.49733100  0.25039234  1
  Ru4+  Ru138  1  0.38550175  0.49824412  0.49907977  1
  Ru4+  Ru139  1  0.38775254  0.50172231  0.74940686  1
  Ru4+  Ru140  1  0.38690682  0.83500005  0.00099769  1
  Ru4+  Ru141  1  0.38664651  0.83142796  0.24937804  1
  Ru4+  Ru142  1  0.38830622  0.83604466  0.49847606  1
  Ru4+  Ru143  1  0.38820762  0.83425560  0.74887968  1
  Ru4+  Ru144  1  0.88765778  0.16763844  0.00090288  1
  Ru4+  Ru145  1  0.88659996  0.16911950  0.25080316  1
  Ru4+  Ru146  1  0.88967748  0.16798995  0.49946542  1
  Ru4+  Ru147  1  0.88866473  0.16502395  0.74914391  1
  Ru4+  Ru148  1  0.88866074  0.49980999  -0.00061627  1
  Ru4+  Ru149  1  0.88932209  0.49946698  0.25125268  1
  Ru4+  Ru150  1  0.89033732  0.50356966  0.49964569  1
  Ru4+  Ru151  1  0.88722732  0.50264474  0.75077882  1
  Ru4+  Ru152  1  0.88719525  0.83660361  -0.00108306  1
  Ru4+  Ru153  1  0.88961731  0.83527981  0.24902064  1
  Ru4+  Ru154  1  0.89008893  0.83403909  0.50035074  1
  Ru4+  Ru155  1  0.88922410  0.83181411  0.74941903  1
  Ru4+  Ru156  1  0.24968711  0.41480080  0.49726949  1
  Ru4+  Ru157  1  0.24980754  0.73320628  0.75663662  1
  Ru4+  Ru158  1  0.74963844  0.58343413  -0.00258625  1
  Ru4+  Ru159  1  0.75013676  0.72928444  0.23750070  1
  Ru4+  Ru160  1  0.75004626  0.96074202  0.73647191  1
  Ru4+  Ru161  1  0.75014490  0.25536364  0.49416030  1
  Ru4+  Ru162  1  0.75053970  0.73264685  0.50897113  1
  Ru4+  Ru163  1  0.24991011  0.75418850  -0.00458908  1
  Ru4+  Ru164  1  0.75004943  0.08262207  0.24471703  1
  Ru4+  Ru165  1  0.24980040  0.74221345  0.24323172  1
  Ru4+  Ru166  1  0.75006794  0.71111541  0.77154968  1
  Ru4+  Ru167  1  0.74970113  0.58192731  0.76392766  1
  Ru4+  Ru168  1  0.24968823  0.57720955  0.49328009  1
  Ru4+  Ru169  1  0.74990687  0.41079167  0.49802947  1
  Ru4+  Ru170  1  0.75014061  0.75420680  0.00195646  1
  Ru4+  Ru171  1  0.24994363  0.57936520  0.25338210  1
  Ru4+  Ru172  1  0.74985241  0.42260048  0.76290464  1
  Ru4+  Ru173  1  0.75015370  0.41950932  0.00199482  1
  Ru4+  Ru174  1  0.25020726  0.57185820  -0.00083167  1
  Ru4+  Ru175  1  0.25020412  0.92343062  0.24662336  1
  Ru4+  Ru176  1  0.24980013  0.73282190  0.48724394  1
  Ru4+  Ru177  1  0.25019995  0.41754475  0.75076650  1
  Ru4+  Ru178  1  0.75040980  0.25699386  0.75208520  1
  Ru4+  Ru179  1  0.25000995  0.09118140  0.49625237  1
  O2-  O180  1  0.17036153  0.08066211  0.00120805  1
  O2-  O181  1  0.16504957  0.08084394  0.24933002  1
  O2-  O182  1  0.16708641  0.08001745  0.50106746  1
  O2-  O183  1  0.16816702  0.08146586  0.75111825  1
  O2-  O184  1  0.16723803  0.41573745  -0.00087960  1
  O2-  O185  1  0.16631255  0.41688802  0.24965098  1
  O2-  O186  1  0.16733072  0.41518144  0.49988487  1
  O2-  O187  1  0.16852142  0.41465944  0.74934183  1
  O2-  O188  1  0.16882744  0.74680125  0.00079847  1
  O2-  O189  1  0.16874633  0.74799021  0.25000725  1
  O2-  O190  1  0.16690496  0.74555915  0.50006545  1
  O2-  O191  1  0.16622798  0.74575321  0.74984934  1
  O2-  O192  1  0.66900245  0.08255622  -0.00151374  1
  O2-  O193  1  0.66772583  0.08044729  0.25035198  1
  O2-  O194  1  0.66639290  0.07790649  0.49980497  1
  O2-  O195  1  0.66553738  0.07870268  0.74900567  1
  O2-  O196  1  0.66617840  0.41473996  -0.00023934  1
  O2-  O197  1  0.66652730  0.41484533  0.24859064  1
  O2-  O198  1  0.66730040  0.41257342  0.50109799  1
  O2-  O199  1  0.66777871  0.41284186  0.75004227  1
  O2-  O200  1  0.66792463  0.74707829  -0.00092171  1
  O2-  O201  1  0.66732015  0.74701342  0.24957710  1
  O2-  O202  1  0.66685733  0.74657625  0.50091199  1
  O2-  O203  1  0.66715396  0.74600090  0.75065381  1
  O2-  O204  1  0.33125777  0.25224119  -0.00170781  1
  O2-  O205  1  0.33528836  0.25134230  0.24952748  1
  O2-  O206  1  0.33252996  0.25075913  0.50017501  1
  O2-  O207  1  0.33044656  0.25160153  0.74931286  1
  O2-  O208  1  0.33245834  0.58788516  -0.00017527  1
  O2-  O209  1  0.33206689  0.58716260  0.24947316  1
  O2-  O210  1  0.33162802  0.58466430  0.49818343  1
  O2-  O211  1  0.33403890  0.58523752  0.75105593  1
  O2-  O212  1  0.33402857  0.91952504  -0.00005353  1
  O2-  O213  1  0.33159796  0.91821194  0.24788177  1
  O2-  O214  1  0.33536806  0.92154263  0.50042478  1
  O2-  O215  1  0.33444790  0.92033686  0.75055383  1
  O2-  O216  1  0.83205924  0.25178137  -0.00005723  1
  O2-  O217  1  0.83465226  0.25091985  0.24994728  1
  O2-  O218  1  0.83401171  0.25344571  0.50081186  1
  O2-  O219  1  0.83267462  0.25471696  0.74932825  1
  O2-  O220  1  0.83300205  0.58637557  -0.00064692  1
  O2-  O221  1  0.83186099  0.58565551  0.24764241  1
  O2-  O222  1  0.83655750  0.58745465  0.50064977  1
  O2-  O223  1  0.83278310  0.58520823  0.75107135  1
  O2-  O224  1  0.83396216  0.91627390  0.00035600  1
  O2-  O225  1  0.83369635  0.92148830  0.25030046  1
  O2-  O226  1  0.83412317  0.92280457  0.49965676  1
  O2-  O227  1  0.83309301  0.92069969  0.74971604  1
  O2-  O228  1  0.16910319  0.25180374  -0.00041169  1
  O2-  O229  1  0.16460504  0.25058320  0.25081477  1
  O2-  O230  1  0.16704492  0.25100058  0.50116239  1
  O2-  O231  1  0.16856202  0.25180318  0.74876917  1
  O2-  O232  1  0.16651463  0.58687412  -0.00061763  1
  O2-  O233  1  0.16824869  0.58502538  0.24883140  1
  O2-  O234  1  0.16725786  0.58592951  0.49998949  1
  O2-  O235  1  0.16564301  0.58461964  0.74962356  1
  O2-  O236  1  0.16545918  0.91957336  0.00132246  1
  O2-  O237  1  0.16701645  0.91877714  0.24831065  1
  O2-  O238  1  0.16298777  0.92288494  0.49928231  1
  O2-  O239  1  0.16413702  0.92084611  0.75066282  1
  O2-  O240  1  0.66708670  0.25227225  -0.00047627  1
  O2-  O241  1  0.66508219  0.25123139  0.24879550  1
  O2-  O242  1  0.66619933  0.25405132  0.50062768  1
  O2-  O243  1  0.66676647  0.25417893  0.74960326  1
  O2-  O244  1  0.66891806  0.58748124  -0.00025505  1
  O2-  O245  1  0.66729644  0.58680647  0.24936981  1
  O2-  O246  1  0.66215287  0.58791549  0.49946048  1
  O2-  O247  1  0.66669685  0.58623671  0.75094164  1
  O2-  O248  1  0.66519740  0.91743699  -0.00102550  1
  O2-  O249  1  0.66588679  0.92014469  0.25069177  1
  O2-  O250  1  0.66530490  0.92044406  0.50023867  1
  O2-  O251  1  0.66566350  0.92083598  0.74926642  1
  O2-  O252  1  0.33209059  0.08018787  -0.00083382  1
  O2-  O253  1  0.33465441  0.08088980  0.24862625  1
  O2-  O254  1  0.33231938  0.08089742  0.50184335  1
  O2-  O255  1  0.33240487  0.08142808  0.75141153  1
  O2-  O256  1  0.33477522  0.41498776  -0.00009578  1
  O2-  O257  1  0.33512541  0.41655432  0.24886695  1
  O2-  O258  1  0.33182098  0.41433338  0.49951831  1
  O2-  O259  1  0.33233728  0.41359029  0.75053895  1
  O2-  O260  1  0.33110396  0.74620068  0.00046670  1
  O2-  O261  1  0.33116492  0.74754736  0.24969897  1
  O2-  O262  1  0.33395797  0.74691313  0.49908380  1
  O2-  O263  1  0.33257360  0.74703271  0.75101292  1
  O2-  O264  1  0.83481741  0.08210615  -0.00031843  1
  O2-  O265  1  0.83403065  0.08064480  0.24968493  1
  O2-  O266  1  0.83382522  0.07753707  0.49925036  1
  O2-  O267  1  0.83436494  0.07920263  0.74922555  1
  O2-  O268  1  0.83235545  0.41593573  0.00016149  1
  O2-  O269  1  0.83189177  0.41497500  0.24857153  1
  O2-  O270  1  0.83345659  0.41314951  0.49992125  1
  O2-  O271  1  0.83205491  0.41437576  0.74952568  1
  O2-  O272  1  0.83272091  0.74639791  -0.00039106  1
  O2-  O273  1  0.83353312  0.74708282  0.24910944  1
  O2-  O274  1  0.83319274  0.74559084  0.50121482  1
  O2-  O275  1  0.83519327  0.74595667  0.75051120  1
  O2-  O276  1  0.54872202  0.09330537  0.48788022  1
  O2-  O277  1  0.03398658  0.55735785  0.25754966  1
  O2-  O278  1  0.54373563  0.89727243  0.01139142  1
  O2-  O279  1  0.45420169  0.56764639  0.98632794  1
  O2-  O280  1  0.55105354  0.08826233  0.26906341  1
  O2-  O281  1  0.54738195  0.89395132  0.28100867  1
  O2-  O282  1  0.04575004  0.57303663  0.73652834  1
  O2-  O283  1  0.53252037  0.10306466  0.00889264  1
  O2-  O284  1  0.45521796  0.88566952  0.23178139  1
  O2-  O285  1  0.95548523  0.76301212  0.73540258  1
  O2-  O286  1  0.95319643  0.76400599  0.01381905  1
  O2-  O287  1  0.45220790  0.09841660  0.51407434  1
  O2-  O288  1  0.04599892  0.56779717  0.48620001  1
  O2-  O289  1  0.04099186  0.43536851  0.27639987  1
  O2-  O290  1  0.95515056  0.23318903  0.26321616  1
  O2-  O291  1  0.94755951  0.91295472  0.22828595  1
  O2-  O292  1  0.46255616  0.88970525  0.24505925  1
  O2-  O293  1  0.04004769  0.22994259  0.02775706  1
  O2-  O294  1  0.54504042  0.23377807  0.23419428  1
  O2-  O295  1  0.04618518  0.43601296  0.72236520  1
  O2-  O296  1  0.54645153  0.76461486  0.51953901  1
  O2-  O297  1  0.53562480  0.77843669  0.74035582  1
  O2-  O298  1  0.54285072  0.75798399  0.48164932  1
  O2-  O299  1  0.54809961  0.56879048  0.26414200  1
  O2-  O300  1  0.54619634  0.90332396  0.73844514  1
  O2-  O301  1  0.04887918  0.90135915  0.22858405  1
  O2-  O302  1  0.45266385  0.56664064  0.23286777  1
  O2-  O303  1  0.54481442  0.10030668  0.73839328  1
  O2-  O304  1  0.44686982  0.75943420  0.79547967  1
  O2-  O305  1  0.04443995  0.09769401  0.23584319  1
  O2-  O306  1  0.04480469  0.09510169  0.73356426  1
  O2-  O307  1  0.04588796  0.23647855  0.76155988  1
  O2-  O308  1  0.03841207  0.76901337  0.27985195  1
  O2-  O309  1  0.95477367  0.56959483  0.98672817  1
  O2-  O310  1  0.95447573  0.09900193  0.48633470  1
  O2-  O311  1  0.54010897  0.44203235  0.53112611  1
  O2-  O312  1  0.96045113  0.89444128  0.77734053  1
  O2-  O313  1  0.04109147  0.10042407  0.01341924  1
  O2-  O314  1  0.54189908  0.11585165  0.98444026  1
  O2-  O315  1  0.04711877  0.90617867  0.26742763  1
  O2-  O316  1  0.54545707  0.24170435  0.01304636  1
  O2-  O317  1  0.96255104  0.44908320  0.75894763  1
  O2-  O318  1  0.04116550  0.10032755  1.01352551  1
  O2-  O319  1  0.96078612  0.44115600  0.47521536  1
  O2-  O320  1  0.54659540  0.90517365  0.48416784  1
  O2-  O321  1  0.45452864  0.56406667  0.50757314  1
  O2-  O322  1  0.46230141  0.56090213  0.48215016  1
  O2-  O323  1  0.54657260  0.23768076  0.51541544  1
  O2-  O324  1  0.43583813  0.73501565  0.21686875  1
  O2-  O325  1  0.93155081  0.39480726  0.54538038  1
  O2-  O326  1  0.56354241  0.59776493  0.06498370  1
  O2-  O327  1  0.43635383  0.26191494  0.56429207  1
  O2-  O328  1  0.93354266  0.40660898  0.27681793  1
  O2-  O329  1  0.57734001  0.72382519  0.71523244  1
  O2-  O330  1  0.43488785  0.59663750  0.45461888  1
  O2-  O331  1  0.43645871  0.40608332  0.43784317  1
  O2-  O332  1  0.07696862  0.05752729  0.95822699  1
  O2-  O333  1  0.56685930  0.59161743  0.94218703  1
  O2-  O334  1  0.43644400  0.73564919  0.03190874  1
  O2-  O335  1  0.43166854  0.61081410  0.56283060  1
  O2-  O336  1  0.57693442  0.06373866  0.05585422  1
  O2-  O337  1  0.93572207  0.92888112  0.97484980  1
  O2-  O338  1  0.56380660  0.26184488  0.78543032  1
  O2-  O339  1  0.43633324  0.26283277  0.03381062  1
  O2-  O340  1  0.07358612  0.39828805  0.78927016  1
  O2-  O341  1  0.93591521  0.26115170  0.03094962  1
  O2-  O342  1  0.56007882  0.07621922  0.27759209  1
  O2-  O343  1  0.57447389  0.39354493  0.45161709  1
  O2-  O344  1  0.92238519  0.39266160  0.78391061  1
  O2-  O345  1  0.07243070  0.26673071  0.95975456  1
  O2-  O346  1  0.57025793  0.05518797  0.93587045  1
  O2-  O347  1  0.57245687  0.93189471  0.21030324  1
  O2-  O348  1  0.94336840  0.91927725  0.22540575  1
  O2-  O349  1  0.43518252  0.40623732  0.56371957  1
  O2-  O350  1  0.06410405  0.26060203  0.47296217  1
  O2-  O351  1  0.43583890  0.93117169  0.46882338  1
  O2-  O352  1  0.93515732  0.25776459  0.77705201  1
  O2-  O353  1  0.93480098  0.59572978  0.27561959  1
  O2-  O354  1  0.42985519  0.72371717  0.67140314  1
  O2-  O355  1  0.43600074  0.26184762  0.43726927  1
  O2-  O356  1  0.43638713  0.25910046  0.77936924  1
  O2-  O357  1  0.06509329  0.40811881  0.02843832  1
  O2-  O358  1  0.93334190  0.59489374  0.72236191  1
  O2-  O359  1  0.44508385  0.75076231  0.80076381  1
  O2-  O360  1  0.56420667  0.73524766  0.28087935  1
  O2-  O361  1  0.92997742  0.93455501  0.71057217  1
  O2-  O362  1  0.42126849  0.96015870  0.30562438  1
  O2-  O363  1  0.07429308  0.61186930  0.29107715  1
  O2-  O364  1  0.06404568  0.73527321  0.96779587  1
  O2-  O365  1  0.56290148  0.40372758  0.71511213  1
  O2-  O366  1  0.07322951  0.73089749  0.20408543  1
  O2-  O367  1  0.07025427  0.39960157  0.21047927  1
  O2-  O368  1  0.93627977  0.40512207  0.03368865  1
  O2-  O369  1  0.93338237  0.59502663  0.47302966  1
  O2-  O370  1  0.43492900  0.92673194  0.78020972  1
  O2-  O371  1  0.56626750  0.25711406  0.02734177  1
  O2-  O372  1  0.75007486  0.32965166  0.92966441  1
  O2-  O373  1  0.75000016  0.34370836  0.67475722  1
  O2-  O374  1  0.75005572  0.00088573  0.34285668  1
  O2-  O375  1  0.24989060  0.66086840  0.57706645  1
  O2-  O376  1  0.75016436  0.00492858  0.10292765  1
  O2-  O377  1  0.74988837  -0.00109978  0.92590900  1
  O2-  O378  1  0.24996306  0.65711389  0.67358782  1
  O2-  O379  1  0.24997601  0.33323144  0.16811314  1
  O2-  O380  1  0.24981988  0.33621415  0.35205264  1
  O2-  O381  1  0.24984078  0.00168653  0.65171135  1
  O2-  O382  1  0.75002188  0.01554945  0.83879275  1
  O2-  O383  1  0.25005930  0.33182781  0.08079397  1
  O2-  O384  1  0.24978362  0.33567406  0.59307407  1
  O2-  O385  1  0.74995315  0.66187819  0.64552478  1
  O2-  O386  1  0.75002156  0.33060282  0.58325984  1
  O2-  O387  1  0.25006172  0.33351222  0.84128880  1
  O2-  O388  1  0.74988245  0.65863069  0.41956960  1
  O2-  O389  1  0.74996176  0.33848880  0.83800658  1
  O2-  O390  1  0.75003615  0.33540730  0.09261266  1
  O2-  O391  1  0.75014488  0.33464371  0.32016601  1
  O2-  O392  1  0.74970748  0.65840453  0.32632525  1
  O2-  O393  1  0.25006964  0.66331954  0.85050751  1
  O2-  O394  1  0.24977524  -0.00293305  0.34261210  1
  O2-  O395  1  0.75010415  0.33496305  0.40924388  1
  O2-  O396  1  0.24984073  0.50060453  0.67060723  1
  O2-  O397  1  0.25003054  0.16064549  0.41618160  1
  O2-  O398  1  0.74999741  0.50535181  0.33022222  1
  O2-  O399  1  0.25004511  0.50600586  0.08977276  1
  O2-  O400  1  0.25013551  0.49850198  0.58054966  1
  O2-  O401  1  0.74998552  0.17035414  0.40521546  1
  O2-  O402  1  0.74999275  0.17053573  0.31598830  1
  O2-  O403  1  0.24998309  0.50527875  0.91212938  1
  O2-  O404  1  0.75005611  0.50305291  0.08218414  1
  O2-  O405  1  0.25000240  0.81992851  0.62827881  1
  O2-  O406  1  0.24998198  0.83007131  0.91104479  1
  O2-  O407  1  0.25009598  0.81908951  0.39824944  1
  O2-  O408  1  0.75000037  0.50395636  0.68456020  1
  O2-  O409  1  0.24997529  0.83324334  0.31191058  1
  O2-  O410  1  0.74996580  0.82781223  0.08900367  1
  O2-  O411  1  0.75009155  0.16627293  0.91433316  1
  O2-  O412  1  0.75014311  0.47999798  0.60038557  1
  O2-  O413  1  0.75011716  0.16486594  0.16807504  1
  O2-  O414  1  0.75011290  0.48273382  0.40740497  1
  O2-  O415  1  0.74991549  0.82923595  0.38965797  1
  O2-  O416  1  0.25001129  0.50533162  0.33993548  1
  O2-  O417  1  0.74999737  0.82828076  0.86252513  1
  O2-  O418  1  0.75002807  0.17192678  0.83226836  1
  O2-  O419  1  0.25001544  0.16587167  0.15206833  1
  O2-  O420  1  0.52613363  0.65797207  0.62002686  1
  O2-  O421  1  0.02201134  0.32787063  0.12745580  1
  O2-  O422  1  0.46102350  0.00222962  0.12011448  1
  O2-  O423  1  0.02911396  0.33409560  0.37248114  1
  O2-  O424  1  0.02486153  0.66078340  0.12002325  1
  O2-  O425  1  0.96204108  0.00880028  0.87158737  1
  O2-  O426  1  0.53310586  0.00234876  0.62364864  1
  O2-  O427  1  0.47327302  0.67012643  0.37013472  1
  O2-  O428  1  0.52526732  0.32866367  0.36590501  1
  O2-  O429  1  0.97615568  0.67510181  0.37538501  1
  O2-  O430  1  0.47376213  0.33783622  0.88036694  1
  O2-  O431  1  0.47343866  0.00339864  0.87908097  1
  O2-  O432  1  0.03778710  -0.00537843  0.86571890  1
  O2-  O433  1  0.97556572  0.66962960  0.61768787  1
  O2-  O434  1  0.97475896  0.00426979  0.61950670  1
  O2-  O435  1  0.02756086  0.33213072  0.62324181  1
  O2-  O436  1  0.52509649  0.34023405  0.12803278  1
  O2-  O437  1  0.52990259  0.00057929  0.12660758  1
  O2-  O438  1  0.02727210  0.33467886  0.87598788  1
  O2-  O439  1  0.52540055  0.67068422  0.86843239  1
  O2-  O440  1  0.46740855  -0.00030183  0.62837555  1
  O2-  O441  1  0.96932564  0.33156709  0.88400443  1
  O2-  O442  1  0.02735990  0.00052937  0.37878401  1
  O2-  O443  1  0.97049640  0.32812177  0.37821947  1
