# generated using pymatgen
data_La7(Ru4O11)2
_symmetry_space_group_name_H-M   'P 1'
_cell_length_a   23.98952844
_cell_length_b   16.82910024
_cell_length_c   15.42646018
_cell_angle_alpha   89.99853533
_cell_angle_beta   89.99975491
_cell_angle_gamma   90.00062482
_symmetry_Int_Tables_number   1
_chemical_formula_structural   La7(Ru4O11)2
_chemical_formula_sum   'La84 Ru96 O264'
_cell_volume   6228.00411347
_cell_formula_units_Z   12
loop_
 _symmetry_equiv_pos_site_id
 _symmetry_equiv_pos_as_xyz
  1  'x, y, z'
loop_
 _atom_type_symbol
 _atom_type_oxidation_number
  La3+  3.0
  Ru4+  4.0
  O2-  -2.0
loop_
 _atom_site_type_symbol
 _atom_site_label
 _atom_site_symmetry_multiplicity
 _atom_site_fract_x
 _atom_site_fract_y
 _atom_site_fract_z
 _atom_site_occupancy
  La3+  La0  1  0.14157576  0.00036806  0.12643369  1
  La3+  La1  1  0.13434171  0.00348437  0.38148696  1
  La3+  La2  1  0.13016294  0.00417841  0.61958689  1
  La3+  La3  1  0.14028107  -0.00063184  0.87152327  1
  La3+  La4  1  0.13787838  0.33373774  0.12333468  1
  La3+  La5  1  0.13924563  0.33456261  0.37732864  1
  La3+  La6  1  0.14114351  0.33300942  0.62103679  1
  La3+  La7  1  0.13779408  0.33360260  0.87609834  1
  La3+  La8  1  0.14002508  0.66488532  0.12355555  1
  La3+  La9  1  0.14167230  0.66553575  0.37644426  1
  La3+  La10  1  0.14076945  0.66947524  0.62503041  1
  La3+  La11  1  0.14233422  0.66797062  0.87783598  1
  La3+  La12  1  0.63359337  0.00164544  0.12744164  1
  La3+  La13  1  0.63512679  0.00112306  0.37380125  1
  La3+  La14  1  0.64179168  -0.00003738  0.62633113  1
  La3+  La15  1  0.63899947  -0.00034636  0.87297863  1
  La3+  La16  1  0.63828594  0.33306642  0.11957628  1
  La3+  La17  1  0.63775258  0.33268294  0.37549055  1
  La3+  La18  1  0.63567459  0.33268526  0.62543088  1
  La3+  La19  1  0.63680073  0.33398605  0.87953576  1
  La3+  La20  1  0.64051224  0.66431736  0.12174416  1
  La3+  La21  1  0.63917618  0.66536315  0.37788722  1
  La3+  La22  1  0.64037019  0.66493086  0.62366536  1
  La3+  La23  1  0.64145022  0.66363136  0.87726464  1
  La3+  La24  1  0.35918165  -0.00043539  0.12613822  1
  La3+  La25  1  0.36036048  0.00129773  0.37263292  1
  La3+  La26  1  0.36064963  0.00040454  0.62663320  1
  La3+  La27  1  0.35804651  0.00021676  0.87332883  1
  La3+  La28  1  0.36169826  0.33557223  0.12312700  1
  La3+  La29  1  0.36114515  0.33338085  0.37530651  1
  La3+  La30  1  0.36007127  0.33317685  0.62354710  1
  La3+  La31  1  0.36124425  0.33512818  0.87612423  1
  La3+  La32  1  0.36284749  0.66140897  0.11860983  1
  La3+  La33  1  0.36010646  0.66650746  0.37631107  1
  La3+  La34  1  0.36177156  0.66780533  0.62270819  1
  La3+  La35  1  0.36156308  0.66270076  0.88366795  1
  La3+  La36  1  0.86262137  0.00166181  0.12479759  1
  La3+  La37  1  0.86114571  0.00043295  0.37673647  1
  La3+  La38  1  0.85905253  0.00057775  0.62749960  1
  La3+  La39  1  0.86149124  0.00064364  0.87162704  1
  La3+  La40  1  0.85805549  0.33294029  0.12161771  1
  La3+  La41  1  0.86371807  0.33474512  0.37773629  1
  La3+  La42  1  0.86458787  0.33678864  0.62205762  1
  La3+  La43  1  0.86036744  0.33453288  0.87930917  1
  La3+  La44  1  0.85722545  0.66531125  0.12215539  1
  La3+  La45  1  0.86083713  0.66470701  0.37698717  1
  La3+  La46  1  0.86060017  0.66401618  0.62346784  1
  La3+  La47  1  0.86128656  0.66468867  0.87604026  1
  La3+  La48  1  0.00977954  0.15570255  0.38639642  1
  La3+  La49  1  0.00149960  0.16583759  0.61479485  1
  La3+  La50  1  0.49799852  0.82810159  0.37142830  1
  La3+  La51  1  -0.00107621  0.49916223  0.88006442  1
  La3+  La52  1  0.49914640  0.16472698  0.63283137  1
  La3+  La53  1  -0.00123720  0.16973363  0.13723578  1
  La3+  La54  1  0.49808840  0.50205367  0.87683745  1
  La3+  La55  1  0.00224160  0.83479795  0.62871792  1
  La3+  La56  1  0.00584985  0.16329028  0.63012257  1
  La3+  La57  1  0.00154710  0.49860337  0.13894441  1
  La3+  La58  1  0.50000811  0.50195496  0.11586723  1
  La3+  La59  1  -0.00066743  0.50391790  0.11760146  1
  La3+  La60  1  0.50076997  0.83380397  0.88293819  1
  La3+  La61  1  0.50150686  0.16865811  0.86425068  1
  La3+  La62  1  0.00110928  0.16596178  0.87171636  1
  La3+  La63  1  0.49923580  0.17391252  0.61336425  1
  La3+  La64  1  0.49981038  0.49821212  0.36415520  1
  La3+  La65  1  -0.00153442  0.82937419  0.38064010  1
  La3+  La66  1  0.49541646  0.83723958  0.12122016  1
  La3+  La67  1  0.49950360  0.49919755  0.61599865  1
  La3+  La68  1  -0.00128134  0.83281152  0.11190891  1
  La3+  La69  1  0.50225975  0.16957315  0.88694270  1
  La3+  La70  1  0.49725940  0.83642031  0.62471068  1
  La3+  La71  1  0.50085397  0.16827878  0.12062886  1
  La3+  La72  1  0.74983703  0.53079820  0.27579586  1
  La3+  La73  1  0.75012659  0.16549946  0.47855877  1
  La3+  La74  1  0.74967767  0.78260279  -0.03119535  1
  La3+  La75  1  0.24976037  0.49781889  0.53294479  1
  La3+  La76  1  0.74986436  0.12658768  0.79997643  1
  La3+  La77  1  0.75064561  0.82399970  0.25980358  1
  La3+  La78  1  0.24985557  0.13278638  0.22734503  1
  La3+  La79  1  0.24968242  0.83337066  0.78183298  1
  La3+  La80  1  0.25019564  0.13553974  -0.00517761  1
  La3+  La81  1  0.74994201  0.53351056  0.77904825  1
  La3+  La82  1  0.75038205  0.88155884  0.74074364  1
  La3+  La83  1  0.25003015  0.86825677  0.25118728  1
  Ru4+  Ru84  1  -0.00163160  -0.00075902  -0.00277501  1
  Ru4+  Ru85  1  -0.00004649  0.00084351  0.25250966  1
  Ru4+  Ru86  1  -0.00309854  0.00315165  0.50122507  1
  Ru4+  Ru87  1  0.00265042  -0.00317800  0.75287758  1
  Ru4+  Ru88  1  -0.00285259  0.33459044  -0.00167957  1
  Ru4+  Ru89  1  0.00625344  0.34266478  0.24806053  1
  Ru4+  Ru90  1  0.00132338  0.33642032  0.50225021  1
  Ru4+  Ru91  1  -0.00248479  0.33529012  0.75045080  1
  Ru4+  Ru92  1  0.00148193  0.66662451  -0.00339762  1
  Ru4+  Ru93  1  0.00032796  0.66833633  0.25021740  1
  Ru4+  Ru94  1  -0.00109449  0.66173043  0.49645375  1
  Ru4+  Ru95  1  -0.00132538  0.66877027  0.75545150  1
  Ru4+  Ru96  1  0.50101186  -0.00265291  0.00234420  1
  Ru4+  Ru97  1  0.49518014  0.00302327  0.25444988  1
  Ru4+  Ru98  1  0.49914375  -0.00149727  0.49722867  1
  Ru4+  Ru99  1  0.50071772  -0.00119825  0.74659165  1
  Ru4+  Ru100  1  0.49453412  0.33582468  0.00580410  1
  Ru4+  Ru101  1  0.49970148  0.33061293  0.24690068  1
  Ru4+  Ru102  1  0.50033204  0.33481805  0.50084352  1
  Ru4+  Ru103  1  0.49582956  0.33944228  0.75093998  1
  Ru4+  Ru104  1  0.49973808  0.66428789  -0.00028609  1
  Ru4+  Ru105  1  0.49975308  0.66588469  0.24607055  1
  Ru4+  Ru106  1  0.49969902  0.66578974  0.50334324  1
  Ru4+  Ru107  1  0.50014839  0.66677255  0.74906970  1
  Ru4+  Ru108  1  0.11555136  0.16255873  -0.00117926  1
  Ru4+  Ru109  1  0.11049224  0.16616599  0.25267711  1
  Ru4+  Ru110  1  0.11208238  0.16521638  0.50030421  1
  Ru4+  Ru111  1  0.11486009  0.16345384  0.74890803  1
  Ru4+  Ru112  1  0.11510400  0.50233407  -0.00023053  1
  Ru4+  Ru113  1  0.11376103  0.50181813  0.24936755  1
  Ru4+  Ru114  1  0.11004261  0.50100473  0.49902398  1
  Ru4+  Ru115  1  0.11297083  0.50178461  0.74931685  1
  Ru4+  Ru116  1  0.11382883  0.83001170  -0.00065247  1
  Ru4+  Ru117  1  0.11163421  0.83476237  0.25054038  1
  Ru4+  Ru118  1  0.11651338  0.82884021  0.49973790  1
  Ru4+  Ru119  1  0.11342970  0.82790179  0.75074891  1
  Ru4+  Ru120  1  0.61736397  0.16437490  -0.00125676  1
  Ru4+  Ru121  1  0.61369448  0.17175981  0.25048347  1
  Ru4+  Ru122  1  0.61182636  0.16796113  0.50053875  1
  Ru4+  Ru123  1  0.61596082  0.16202980  0.75112442  1
  Ru4+  Ru124  1  0.61727066  0.50340352  -0.00068934  1
  Ru4+  Ru125  1  0.61069095  0.49954708  0.24997006  1
  Ru4+  Ru126  1  0.61240594  0.50184348  0.49972976  1
  Ru4+  Ru127  1  0.61100889  0.50156988  0.74917815  1
  Ru4+  Ru128  1  0.61134630  0.83313697  -0.00053676  1
  Ru4+  Ru129  1  0.61435943  0.82966579  0.25072557  1
  Ru4+  Ru130  1  0.61217335  0.83310083  0.49842142  1
  Ru4+  Ru131  1  0.61114200  0.83398533  0.75180156  1
  Ru4+  Ru132  1  0.38746273  0.16617667  0.00145144  1
  Ru4+  Ru133  1  0.38898624  0.16658166  0.25246542  1
  Ru4+  Ru134  1  0.38835748  0.16655641  0.50088310  1
  Ru4+  Ru135  1  0.38764614  0.16486695  0.74973550  1
  Ru4+  Ru136  1  0.38661212  0.50308363  0.00107078  1
  Ru4+  Ru137  1  0.38702001  0.50203865  0.24923257  1
  Ru4+  Ru138  1  0.38875917  0.50017512  0.50051656  1
  Ru4+  Ru139  1  0.38753443  0.49989369  0.75118739  1
  Ru4+  Ru140  1  0.38580465  0.83161856  -0.00041578  1
  Ru4+  Ru141  1  0.38875952  0.83331532  0.25124317  1
  Ru4+  Ru142  1  0.38592373  0.83119210  0.49997233  1
  Ru4+  Ru143  1  0.38780067  0.83176341  0.74980700  1
  Ru4+  Ru144  1  0.88615216  0.16832684  -0.00022652  1
  Ru4+  Ru145  1  0.88358811  0.16302367  0.24619558  1
  Ru4+  Ru146  1  0.88685068  0.16462171  0.50013658  1
  Ru4+  Ru147  1  0.88518472  0.17116562  0.75082113  1
  Ru4+  Ru148  1  0.88451170  0.49901733  -0.00050284  1
  Ru4+  Ru149  1  0.88824408  0.50014463  0.24949091  1
  Ru4+  Ru150  1  0.88809246  0.50600001  0.50016942  1
  Ru4+  Ru151  1  0.89036213  0.50119656  0.75034196  1
  Ru4+  Ru152  1  0.88903106  0.83364978  0.00010109  1
  Ru4+  Ru153  1  0.88976874  0.83433327  0.24970649  1
  Ru4+  Ru154  1  0.88633633  0.83514744  0.49968489  1
  Ru4+  Ru155  1  0.88988510  0.83220614  0.75063976  1
  Ru4+  Ru156  1  0.74997437  0.73987726  0.51078912  1
  Ru4+  Ru157  1  0.24961601  0.42456963  0.75064322  1
  Ru4+  Ru158  1  0.75055979  0.95567413  0.22819592  1
  Ru4+  Ru159  1  0.25004081  0.91218753  -0.00133638  1
  Ru4+  Ru160  1  0.25009156  0.09234884  0.49993565  1
  Ru4+  Ru161  1  0.74980570  0.40367431  0.73936614  1
  Ru4+  Ru162  1  0.25027105  0.72329535  0.25014692  1
  Ru4+  Ru163  1  0.25011577  0.91274551  0.49701653  1
  Ru4+  Ru164  1  0.25033797  0.41721058  0.24737498  1
  Ru4+  Ru165  1  0.74983114  0.39180031  0.23465857  1
  Ru4+  Ru166  1  0.74991979  0.42173678  0.50463458  1
  Ru4+  Ru167  1  0.75002342  0.08586589  -0.00116195  1
  Ru4+  Ru168  1  0.75000165  0.73224472  0.73690717  1
  Ru4+  Ru169  1  0.74995342  0.24819737  0.24731711  1
  Ru4+  Ru170  1  0.74994144  0.92472165  0.51937861  1
  Ru4+  Ru171  1  0.25051349  0.24688339  0.49851755  1
  Ru4+  Ru172  1  0.24990809  0.57802445  0.75649845  1
  Ru4+  Ru173  1  0.25022038  0.27577242  -0.00333185  1
  Ru4+  Ru174  1  0.75008711  0.69433685  0.24332474  1
  Ru4+  Ru175  1  0.74989674  0.94126842  -0.01037392  1
  Ru4+  Ru176  1  0.74994458  0.26698149  0.74508380  1
  Ru4+  Ru177  1  0.25028277  0.24001491  0.74816627  1
  Ru4+  Ru178  1  0.24993053  0.27518375  0.25534853  1
  Ru4+  Ru179  1  0.74958657  0.09344433  0.24976645  1
  O2-  O180  1  0.16754120  0.08000763  0.00146059  1
  O2-  O181  1  0.16340049  0.08013208  0.25065354  1
  O2-  O182  1  0.16989480  0.08022372  0.50095752  1
  O2-  O183  1  0.16486375  0.08173716  0.74784432  1
  O2-  O184  1  0.16636829  0.41306836  -0.00116204  1
  O2-  O185  1  0.16632185  0.41321523  0.24965251  1
  O2-  O186  1  0.16759569  0.41651322  0.50150995  1
  O2-  O187  1  0.16951160  0.41421171  0.75037377  1
  O2-  O188  1  0.16627370  0.75021208  0.00155123  1
  O2-  O189  1  0.16756763  0.74731284  0.24824556  1
  O2-  O190  1  0.16587857  0.74839959  0.50092340  1
  O2-  O191  1  0.16729150  0.74837975  0.75053582  1
  O2-  O192  1  0.66881024  0.08118033  0.00063699  1
  O2-  O193  1  0.66665005  0.08112633  0.25002629  1
  O2-  O194  1  0.66610449  0.07995357  0.50073169  1
  O2-  O195  1  0.66743365  0.07969261  0.74896953  1
  O2-  O196  1  0.66529584  0.41538131  -0.00034663  1
  O2-  O197  1  0.66856720  0.41210171  0.25207501  1
  O2-  O198  1  0.66918208  0.41316664  0.49959796  1
  O2-  O199  1  0.66668647  0.41251052  0.74926137  1
  O2-  O200  1  0.66476157  0.74715812  0.00280493  1
  O2-  O201  1  0.66569978  0.74438277  0.24976238  1
  O2-  O202  1  0.66760566  0.74749515  0.50042827  1
  O2-  O203  1  0.66779580  0.74701621  0.74774966  1
  O2-  O204  1  0.33285342  0.25295170  -0.00087131  1
  O2-  O205  1  0.33217610  0.25315615  0.24839769  1
  O2-  O206  1  0.33179759  0.25236258  0.50032034  1
  O2-  O207  1  0.33274535  0.25434237  0.74954684  1
  O2-  O208  1  0.33180997  0.58393293  -0.00027987  1
  O2-  O209  1  0.33560320  0.58436012  0.24941152  1
  O2-  O210  1  0.33041137  0.58667588  0.50091165  1
  O2-  O211  1  0.33154654  0.58520055  0.74908792  1
  O2-  O212  1  0.33216489  0.91852567  0.00132249  1
  O2-  O213  1  0.33592015  0.91924394  0.25032780  1
  O2-  O214  1  0.33345723  0.91949672  0.50081753  1
  O2-  O215  1  0.33306406  0.91952238  0.74846912  1
  O2-  O216  1  0.83353096  0.25107399  -0.00113834  1
  O2-  O217  1  0.83192124  0.25227307  0.25259553  1
  O2-  O218  1  0.83149235  0.25358930  0.49869008  1
  O2-  O219  1  0.83311915  0.25379583  0.74968928  1
  O2-  O220  1  0.83587912  0.58489708  -0.00007568  1
  O2-  O221  1  0.83289566  0.58802984  0.24976936  1
  O2-  O222  1  0.83472041  0.58279065  0.50001814  1
  O2-  O223  1  0.83410272  0.58755342  0.74863636  1
  O2-  O224  1  0.83388572  0.92041536  -0.00094051  1
  O2-  O225  1  0.83450904  0.92145877  0.24921042  1
  O2-  O226  1  0.83310474  0.91789755  0.50075186  1
  O2-  O227  1  0.83864859  0.92073785  0.75141276  1
  O2-  O228  1  0.16655692  0.25283664  -0.00032016  1
  O2-  O229  1  0.16878412  0.25415600  0.24846327  1
  O2-  O230  1  0.16680579  0.25086260  0.50009090  1
  O2-  O231  1  0.16714528  0.25399264  0.74995211  1
  O2-  O232  1  0.16560783  0.58467001  0.00044795  1
  O2-  O233  1  0.16692216  0.58419908  0.24974149  1
  O2-  O234  1  0.17025887  0.58432362  0.50150605  1
  O2-  O235  1  0.16833056  0.58394266  0.75031289  1
  O2-  O236  1  0.16746886  0.91886277  0.00181980  1
  O2-  O237  1  0.16407396  0.91891756  0.25033629  1
  O2-  O238  1  0.16638985  0.92087085  0.50060421  1
  O2-  O239  1  0.16683951  0.91840662  0.74823566  1
  O2-  O240  1  0.66686930  0.25065942  -0.00141642  1
  O2-  O241  1  0.66654991  0.25165158  0.25168273  1
  O2-  O242  1  0.66681928  0.25409680  0.49948515  1
  O2-  O243  1  0.66716537  0.25361972  0.74920689  1
  O2-  O244  1  0.66540111  0.58394148  0.00143949  1
  O2-  O245  1  0.66438483  0.58803945  0.25067135  1
  O2-  O246  1  0.66493209  0.58485970  0.49960997  1
  O2-  O247  1  0.66444436  0.58719588  0.74744560  1
  O2-  O248  1  0.66601105  0.92025048  0.00051338  1
  O2-  O249  1  0.66734740  0.92116286  0.24885140  1
  O2-  O250  1  0.66648509  0.91915393  0.50124008  1
  O2-  O251  1  0.66328347  0.91965556  0.74931315  1
  O2-  O252  1  0.33315425  0.07966248  0.00017082  1
  O2-  O253  1  0.33510185  0.08132469  0.25005660  1
  O2-  O254  1  0.33189043  0.08059209  0.50043019  1
  O2-  O255  1  0.33491869  0.08051379  0.74876745  1
  O2-  O256  1  0.33518494  0.41516416  -0.00146379  1
  O2-  O257  1  0.33209054  0.41325775  0.24958819  1
  O2-  O258  1  0.33437626  0.41495441  0.50058430  1
  O2-  O259  1  0.33197227  0.41504767  0.74898779  1
  O2-  O260  1  0.33389215  0.74900163  0.00156436  1
  O2-  O261  1  0.33281587  0.74679341  0.24949455  1
  O2-  O262  1  0.33350744  0.74789890  0.50110282  1
  O2-  O263  1  0.33315273  0.74704598  0.75008184  1
  O2-  O264  1  0.83263423  0.08096053  -0.00020453  1
  O2-  O265  1  0.83197302  0.07957383  0.25027294  1
  O2-  O266  1  0.83245504  0.08082869  0.50015312  1
  O2-  O267  1  0.83438132  0.07985999  0.75024878  1
  O2-  O268  1  0.83396246  0.41503751  -0.00026746  1
  O2-  O269  1  0.83382102  0.41262308  0.25140311  1
  O2-  O270  1  0.83009128  0.41473720  0.49948200  1
  O2-  O271  1  0.83369991  0.41314307  0.74966952  1
  O2-  O272  1  0.83535076  0.74725492  -0.00011772  1
  O2-  O273  1  0.83376015  0.74485084  0.25002462  1
  O2-  O274  1  0.83153210  0.74776381  0.50136957  1
  O2-  O275  1  0.83287920  0.74624683  0.74933083  1
  O2-  O276  1  0.95155806  0.43323428  0.48048642  1
  O2-  O277  1  0.54931259  0.43548915  0.76114906  1
  O2-  O278  1  0.04477059  0.90247586  0.76812931  1
  O2-  O279  1  0.54950559  0.57232282  0.98567518  1
  O2-  O280  1  0.04828368  0.76127585  0.76428731  1
  O2-  O281  1  0.96160943  0.22358105  0.46609563  1
  O2-  O282  1  0.03067562  0.53880863  0.52022633  1
  O2-  O283  1  0.04534355  0.43302992  0.01225248  1
  O2-  O284  1  0.05036207  0.23464802  0.98123379  1
  O2-  O285  1  0.04727920  0.23944292  0.01992448  1
  O2-  O286  1  0.54723788  0.09779225  0.22916723  1
  O2-  O287  1  0.45422770  0.90221001  0.73584769  1
  O2-  O288  1  0.95042226  0.76873186  0.76217201  1
  O2-  O289  1  0.54597500  0.09831623  0.26822368  1
  O2-  O290  1  0.45494904  0.56312934  0.00820173  1
  O2-  O291  1  0.53800008  0.77846790  0.03005765  1
  O2-  O292  1  0.95093100  0.23444905  0.98492544  1
  O2-  O293  1  0.96140387  0.77682264  0.52828712  1
  O2-  O294  1  0.53913827  0.89567518  0.24830770  1
  O2-  O295  1  0.94532884  0.24290958  0.28154158  1
  O2-  O296  1  0.54882345  0.43055118  0.97819848  1
  O2-  O297  1  0.53963148  0.89687586  0.22921246  1
  O2-  O298  1  0.94932237  0.43282470  0.73953691  1
  O2-  O299  1  0.95950952  0.77953238  0.97222606  1
  O2-  O300  1  0.04046710  0.45079449  0.74348181  1
  O2-  O301  1  0.04702399  0.90326241  0.72905147  1
  O2-  O302  1  0.45477103  0.57327001  0.76287414  1
  O2-  O303  1  0.95063209  0.76664337  0.23589142  1
  O2-  O304  1  0.04118558  0.77873660  0.21778165  1
  O2-  O305  1  0.95290290  0.09648441  0.72953604  1
  O2-  O306  1  0.54913829  0.42932159  0.01749954  1
  O2-  O307  1  0.54637918  0.23751312  0.23726951  1
  O2-  O308  1  0.95393001  0.09670224  0.76868830  1
  O2-  O309  1  0.44939605  0.42945024  0.01550896  1
  O2-  O310  1  0.04989539  0.09696062  0.51512145  1
  O2-  O311  1  0.54503758  0.23521487  0.73651999  1
  O2-  O312  1  0.04723377  0.90131250  0.48005274  1
  O2-  O313  1  0.44898820  0.57407008  0.98365133  1
  O2-  O314  1  0.54624559  0.76208584  0.23779421  1
  O2-  O315  1  0.04743123  0.90326467  0.51930677  1
  O2-  O316  1  0.94692187  0.56903510  0.51444131  1
  O2-  O317  1  0.53736299  0.77597337  0.71767355  1
  O2-  O318  1  0.54573551  0.09713531  0.51407007  1
  O2-  O319  1  0.45103504  0.43087636  0.76151896  1
  O2-  O320  1  0.54770127  0.23364441  0.01073322  1
  O2-  O321  1  0.03631814  0.10173319  0.03421784  1
  O2-  O322  1  0.04538507  0.23527547  0.76260355  1
  O2-  O323  1  0.95413112  0.43056757  0.51918753  1
  O2-  O324  1  0.43665474  0.73594310  0.28294562  1
  O2-  O325  1  0.93647799  0.06976569  0.21622278  1
  O2-  O326  1  0.43608385  0.26189781  0.28160919  1
  O2-  O327  1  0.93483278  0.59374868  0.77823399  1
  O2-  O328  1  0.43603544  0.59123988  0.52768181  1
  O2-  O329  1  0.43719792  0.73890495  0.46685024  1
  O2-  O330  1  0.43835795  0.40675712  0.28320850  1
  O2-  O331  1  0.06716322  0.40302999  0.47382945  1
  O2-  O332  1  0.56543990  0.92446317  0.77797249  1
  O2-  O333  1  0.92533778  0.73014682  0.45521261  1
  O2-  O334  1  0.43596319  0.07290834  0.06486361  1
  O2-  O335  1  0.57964190  0.94650835  0.29624375  1
  O2-  O336  1  0.56571328  0.07455202  0.97185737  1
  O2-  O337  1  0.06959323  0.60549272  0.42697547  1
  O2-  O338  1  0.93621892  0.06959853  0.43488990  1
  O2-  O339  1  0.07367703  0.06645275  0.95477334  1
  O2-  O340  1  0.56268284  0.25907236  0.02610245  1
  O2-  O341  1  0.93153233  0.26976689  0.19628108  1
  O2-  O342  1  0.56438765  0.25448355  0.72281545  1
  O2-  O343  1  0.43657155  0.92762978  0.03220565  1
  O2-  O344  1  0.06568503  0.92278501  0.95326320  1
  O2-  O345  1  0.57038340  0.72139802  0.94562720  1
  O2-  O346  1  0.43779348  0.73893150  0.96521454  1
  O2-  O347  1  0.56392022  0.07479727  0.77793611  1
  O2-  O348  1  0.93704827  0.40408176  0.96637623  1
  O2-  O349  1  0.43292274  0.60185942  0.03534643  1
  O2-  O350  1  0.06524527  0.73632003  0.96833619  1
  O2-  O351  1  0.06603922  0.25859415  0.27746221  1
  O2-  O352  1  0.93617766  0.59853495  0.18661404  1
  O2-  O353  1  0.43574527  0.06773250  0.28123156  1
  O2-  O354  1  0.06349696  0.59117545  0.22121141  1
  O2-  O355  1  0.06170328  0.08109131  0.52791527  1
  O2-  O356  1  0.07079865  0.72599696  0.30343610  1
  O2-  O357  1  0.43243303  0.07769880  0.94277836  1
  O2-  O358  1  0.92512903  0.27212827  0.54783987  1
  O2-  O359  1  0.43746200  0.93085468  0.53270213  1
  O2-  O360  1  0.93079123  0.72723850  0.04826211  1
  O2-  O361  1  0.06476829  0.92999132  0.05277639  1
  O2-  O362  1  0.94567352  0.24248047  0.28220611  1
  O2-  O363  1  0.93509047  0.06859891  0.56461086  1
  O2-  O364  1  0.56241665  0.73539747  0.46651916  1
  O2-  O365  1  0.56458562  0.40847734  0.22499323  1
  O2-  O366  1  0.07887127  0.60690217  0.55953544  1
  O2-  O367  1  0.06815788  0.07002408  0.46764075  1
  O2-  O368  1  0.93420944  0.58921049  0.30463340  1
  O2-  O369  1  0.07354738  0.38701001  0.70989495  1
  O2-  O370  1  0.57160566  0.72108576  0.80429815  1
  O2-  O371  1  0.43574883  0.26222904  0.03329120  1
  O2-  O372  1  0.25004704  0.33065358  0.59385153  1
  O2-  O373  1  0.24970456  -0.00151794  0.15026863  1
  O2-  O374  1  0.25003304  0.66306132  0.89578940  1
  O2-  O375  1  0.25007953  0.66624199  0.15169387  1
  O2-  O376  1  0.25002621  0.33027521  0.40643999  1
  O2-  O377  1  0.24990349  0.00327867  0.42103510  1
  O2-  O378  1  0.24984009  0.00247361  0.92259027  1
  O2-  O379  1  0.25006183  0.33408904  0.84229248  1
  O2-  O380  1  0.25031753  0.66579262  0.34796387  1
  O2-  O381  1  0.74991756  0.66702963  0.59827134  1
  O2-  O382  1  0.74968707  0.66970339  0.40430949  1
  O2-  O383  1  0.74996276  0.00112872  0.43618147  1
  O2-  O384  1  0.75027609  0.33278453  0.10738285  1
  O2-  O385  1  0.74979143  -0.00204442  0.64850146  1
  O2-  O386  1  0.24991510  0.33438255  0.09977516  1
  O2-  O387  1  0.75000563  0.66105463  0.83076436  1
  O2-  O388  1  0.74997711  0.00272327  0.09933082  1
  O2-  O389  1  0.74986365  0.00850955  0.33187802  1
  O2-  O390  1  0.74994086  0.33257706  0.85142595  1
  O2-  O391  1  0.24997101  -0.00106678  0.32760450  1
  O2-  O392  1  0.74988690  0.66568175  0.92386608  1
  O2-  O393  1  0.75046021  -0.00033973  0.85192480  1
  O2-  O394  1  0.25005403  -0.00391661  0.83167748  1
  O2-  O395  1  0.74990654  0.67126069  0.10269593  1
  O2-  O396  1  0.74986416  0.83188741  0.14177663  1
  O2-  O397  1  0.24983507  0.82686491  0.56619877  1
  O2-  O398  1  0.75000583  0.82215577  0.61765859  1
  O2-  O399  1  0.25004051  0.83529980  0.40753030  1
  O2-  O400  1  0.24996266  0.50452065  0.31645774  1
  O2-  O401  1  0.75005950  0.83741133  0.37515475  1
  O2-  O402  1  0.24984195  0.50293185  0.16652922  1
  O2-  O403  1  0.24998152  0.49850578  0.40259510  1
  O2-  O404  1  0.74988149  0.83160494  0.85707123  1
  O2-  O405  1  0.74989410  0.48782253  0.63593746  1
  O2-  O406  1  0.75001569  0.17442997  0.67914882  1
  O2-  O407  1  0.24999312  0.17097525  0.65833807  1
  O2-  O408  1  0.75031288  0.85248552  0.06801008  1
  O2-  O409  1  0.25001443  0.83688982  0.91774885  1
  O2-  O410  1  0.25012657  0.17150221  0.36649588  1
  O2-  O411  1  0.75025732  0.16465657  0.59849880  1
  O2-  O412  1  0.24977340  0.49815639  0.08369568  1
  O2-  O413  1  0.75005830  0.49776807  0.90441361  1
  O2-  O414  1  0.25009480  0.83466518  0.65264985  1
  O2-  O415  1  0.74996454  0.16801245  0.35127134  1
  O2-  O416  1  0.75006415  0.83444951  0.45484377  1
  O2-  O417  1  0.24992752  0.17074311  0.84102040  1
  O2-  O418  1  0.75011099  0.16666867  0.15693852  1
  O2-  O419  1  0.75018996  0.49235750  0.14538761  1
  O2-  O420  1  0.52997975  -0.00467613  0.88195385  1
  O2-  O421  1  0.02722474  0.33628257  0.87352611  1
  O2-  O422  1  0.02638164  0.66767182  0.12024346  1
  O2-  O423  1  0.97523403  0.66428156  0.87857360  1
  O2-  O424  1  0.52492457  0.00085954  0.38392863  1
  O2-  O425  1  0.45766739  0.33263847  0.62588860  1
  O2-  O426  1  0.52828467  0.66274572  0.12668736  1
  O2-  O427  1  0.47390456  0.67098212  0.62884394  1
  O2-  O428  1  0.97953580  0.66915402  0.37456888  1
  O2-  O429  1  0.02718227  0.67497179  0.63236312  1
  O2-  O430  1  0.97006683  0.33755432  0.37543898  1
  O2-  O431  1  0.02114851  0.00312710  0.86591847  1
  O2-  O432  1  0.97722668  0.33240180  0.63055977  1
  O2-  O433  1  0.02672936  0.33476283  0.12832364  1
  O2-  O434  1  0.46628232  -0.00815973  0.86786633  1
  O2-  O435  1  0.02646308  -0.00384539  0.36618712  1
  O2-  O436  1  0.52785410  -0.00013951  0.12084443  1
  O2-  O437  1  0.54080072  0.32890853  0.87095059  1
  O2-  O438  1  0.02774754  0.33261575  0.37709681  1
  O2-  O439  1  0.53972824  0.33985723  0.61724908  1
  O2-  O440  1  0.45884750  0.33073146  0.87771076  1
  O2-  O441  1  0.02570211  -0.00244049  0.62990058  1
  O2-  O442  1  0.96839899  0.66709994  0.62892734  1
  O2-  O443  1  0.52171023  0.33424102  0.12441429  1
