# generated using pymatgen
data_La7(Ru4O11)2
_symmetry_space_group_name_H-M   'P 1'
_cell_length_a   23.99060490
_cell_length_b   16.83112777
_cell_length_c   15.42713057
_cell_angle_alpha   89.99927316
_cell_angle_beta   89.99899557
_cell_angle_gamma   90.00041846
_symmetry_Int_Tables_number   1
_chemical_formula_structural   La7(Ru4O11)2
_chemical_formula_sum   'La84 Ru96 O264'
_cell_volume   6229.30464041
_cell_formula_units_Z   12
loop_
 _symmetry_equiv_pos_site_id
 _symmetry_equiv_pos_as_xyz
  1  'x, y, z'
loop_
 _atom_type_symbol
 _atom_type_oxidation_number
  La3+  3.0
  Ru4+  4.0
  O2-  -2.0
loop_
 _atom_site_type_symbol
 _atom_site_label
 _atom_site_symmetry_multiplicity
 _atom_site_fract_x
 _atom_site_fract_y
 _atom_site_fract_z
 _atom_site_occupancy
  La3+  La0  1  0.13742350  -0.00475245  0.12381522  1
  La3+  La1  1  0.13597983  -0.00082482  0.37533170  1
  La3+  La2  1  0.13919061  -0.00003009  0.62417144  1
  La3+  La3  1  0.13232843  -0.00108989  0.88046137  1
  La3+  La4  1  0.14113041  0.33149948  0.12379255  1
  La3+  La5  1  0.13920636  0.33558640  0.38160969  1
  La3+  La6  1  0.14027636  0.33455193  0.61863510  1
  La3+  La7  1  0.13984878  0.33431169  0.87894923  1
  La3+  La8  1  0.14384824  0.66628066  0.12773141  1
  La3+  La9  1  0.14712062  0.66485824  0.37246720  1
  La3+  La10  1  0.13700658  0.65530186  0.62732195  1
  La3+  La11  1  0.13034227  0.65830581  0.86430053  1
  La3+  La12  1  0.64415956  -0.00305625  0.12831754  1
  La3+  La13  1  0.63806808  0.00079895  0.36975142  1
  La3+  La14  1  0.63615757  -0.00123162  0.62696773  1
  La3+  La15  1  0.63843556  -0.00353231  0.87589809  1
  La3+  La16  1  0.64121658  0.33529840  0.13006485  1
  La3+  La17  1  0.64531756  0.33259396  0.37641571  1
  La3+  La18  1  0.63870093  0.33219737  0.62513699  1
  La3+  La19  1  0.63718722  0.33497317  0.87551151  1
  La3+  La20  1  0.64148015  0.66643549  0.12666130  1
  La3+  La21  1  0.64749966  0.66890205  0.37528787  1
  La3+  La22  1  0.64391623  0.66143898  0.62148678  1
  La3+  La23  1  0.64703825  0.66016759  0.87628349  1
  La3+  La24  1  0.36395486  -0.00083093  0.12408830  1
  La3+  La25  1  0.36121751  -0.00294460  0.37582303  1
  La3+  La26  1  0.36226834  -0.00155922  0.62375261  1
  La3+  La27  1  0.36401120  0.00232438  0.87786461  1
  La3+  La28  1  0.36378456  0.33649109  0.12718427  1
  La3+  La29  1  0.36369477  0.33352794  0.37735172  1
  La3+  La30  1  0.36034694  0.33059484  0.61600667  1
  La3+  La31  1  0.36189656  0.33441150  0.87911459  1
  La3+  La32  1  0.36448220  0.66060414  0.13679749  1
  La3+  La33  1  0.36511267  0.65668173  0.36302573  1
  La3+  La34  1  0.36367659  0.66367293  0.61793923  1
  La3+  La35  1  0.36122927  0.66566177  0.87432801  1
  La3+  La36  1  0.85801183  -0.00104189  0.12763591  1
  La3+  La37  1  0.85870080  -0.00097810  0.37097372  1
  La3+  La38  1  0.86075609  -0.00013367  0.62511000  1
  La3+  La39  1  0.86290228  -0.00139452  0.87858660  1
  La3+  La40  1  0.85599321  0.33220869  0.13012985  1
  La3+  La41  1  0.85286030  0.33505451  0.37507262  1
  La3+  La42  1  0.85687980  0.33498994  0.62548930  1
  La3+  La43  1  0.85977222  0.33285650  0.87438922  1
  La3+  La44  1  0.85733533  0.66665660  0.12367244  1
  La3+  La45  1  0.85526610  0.66564864  0.37748690  1
  La3+  La46  1  0.86058508  0.66128323  0.61920138  1
  La3+  La47  1  0.85973236  0.66633655  0.87613639  1
  La3+  La48  1  -0.00124396  0.83202681  0.13358007  1
  La3+  La49  1  -0.00040543  0.50602313  0.85350321  1
  La3+  La50  1  -0.00119793  0.82670565  0.61276550  1
  La3+  La51  1  0.49954022  0.16508678  0.36832009  1
  La3+  La52  1  0.49691070  0.50838573  0.36156884  1
  La3+  La53  1  0.00059678  0.84553877  0.88624744  1
  La3+  La54  1  0.49538124  0.50573691  0.37849731  1
  La3+  La55  1  -0.00045687  0.83358808  0.63414914  1
  La3+  La56  1  0.50151087  0.17401464  0.10538656  1
  La3+  La57  1  0.48997474  0.49836389  0.12587705  1
  La3+  La58  1  0.49513268  0.17923359  0.62077654  1
  La3+  La59  1  0.50163078  0.83446565  0.88603511  1
  La3+  La60  1  0.00357580  0.50119870  0.62893830  1
  La3+  La61  1  0.00117155  0.16871273  0.62145789  1
  La3+  La62  1  -0.00142187  0.50516996  0.13424933  1
  La3+  La63  1  -0.00220580  0.16810182  0.64344225  1
  La3+  La64  1  0.50047612  0.83647417  0.38676907  1
  La3+  La65  1  0.50134993  0.83637481  0.13325722  1
  La3+  La66  1  0.49283180  0.49732344  0.62724644  1
  La3+  La67  1  -0.00435006  0.51121060  0.86828785  1
  La3+  La68  1  0.00153613  0.16951975  0.37889677  1
  La3+  La69  1  -0.00163809  0.16210583  0.35858231  1
  La3+  La70  1  -0.00340778  0.49217173  0.11733565  1
  La3+  La71  1  -0.00082801  0.50071806  0.37512242  1
  La3+  La72  1  0.74979104  0.49753448  0.50969361  1
  La3+  La73  1  0.75047941  0.50026332  0.24415805  1
  La3+  La74  1  0.74997926  0.21977722  0.51618265  1
  La3+  La75  1  0.24996955  0.87414986  -0.02996732  1
  La3+  La76  1  0.25039158  0.78307383  0.50155317  1
  La3+  La77  1  0.75006608  0.16807239  0.24527586  1
  La3+  La78  1  0.25045356  0.50354113  0.01867176  1
  La3+  La79  1  0.25079987  0.52724129  0.77330638  1
  La3+  La80  1  0.24971471  0.16919027  0.79547399  1
  La3+  La81  1  0.75044524  0.20713860  0.77582032  1
  La3+  La82  1  0.24979264  0.16644562  0.18871703  1
  La3+  La83  1  0.75011541  0.82973633  0.28228199  1
  Ru4+  Ru84  1  -0.00398963  0.00798155  0.00117533  1
  Ru4+  Ru85  1  -0.00170140  0.00316416  0.24704578  1
  Ru4+  Ru86  1  0.00148890  -0.00503607  0.49263559  1
  Ru4+  Ru87  1  -0.00213256  -0.00093059  0.75375079  1
  Ru4+  Ru88  1  0.00549764  0.32505906  0.00033390  1
  Ru4+  Ru89  1  -0.00466291  0.33479270  0.24725817  1
  Ru4+  Ru90  1  0.00065943  0.33698408  0.50805322  1
  Ru4+  Ru91  1  -0.00012455  0.33693635  0.74918443  1
  Ru4+  Ru92  1  0.00526389  0.67485230  -0.00476505  1
  Ru4+  Ru93  1  -0.00078985  0.66430323  0.25081844  1
  Ru4+  Ru94  1  0.00622121  0.67132759  0.50073282  1
  Ru4+  Ru95  1  -0.00211010  0.66542397  0.74740388  1
  Ru4+  Ru96  1  0.49439378  0.00172919  -0.00303840  1
  Ru4+  Ru97  1  0.49909365  0.00393609  0.25175561  1
  Ru4+  Ru98  1  0.50108520  -0.00299624  0.50512901  1
  Ru4+  Ru99  1  0.50316589  0.00114058  0.75286865  1
  Ru4+  Ru100  1  0.49687974  0.33039691  -0.00941793  1
  Ru4+  Ru101  1  0.50662611  0.32871521  0.25543481  1
  Ru4+  Ru102  1  0.49995328  0.34432059  0.50416706  1
  Ru4+  Ru103  1  0.50413952  0.33444283  0.75346444  1
  Ru4+  Ru104  1  0.49837150  0.66789588  -0.00205046  1
  Ru4+  Ru105  1  0.50632784  0.66100366  0.25554663  1
  Ru4+  Ru106  1  0.50149968  0.67470825  0.50634722  1
  Ru4+  Ru107  1  0.49888323  0.67500190  0.74336995  1
  Ru4+  Ru108  1  0.10929643  0.17362296  0.00062206  1
  Ru4+  Ru109  1  0.11028873  0.16283304  0.25064053  1
  Ru4+  Ru110  1  0.11629193  0.16793759  0.49969161  1
  Ru4+  Ru111  1  0.10952644  0.16582802  0.74959018  1
  Ru4+  Ru112  1  0.11428133  0.49490691  -0.00308507  1
  Ru4+  Ru113  1  0.11309433  0.50525061  0.25095950  1
  Ru4+  Ru114  1  0.11385829  0.49821075  0.50225656  1
  Ru4+  Ru115  1  0.11162692  0.49867949  0.74693331  1
  Ru4+  Ru116  1  0.11351276  0.82285831  -0.00039112  1
  Ru4+  Ru117  1  0.11335615  0.83050781  0.25043314  1
  Ru4+  Ru118  1  0.10973786  0.82976425  0.49899089  1
  Ru4+  Ru119  1  0.11457444  0.82892984  0.74789032  1
  Ru4+  Ru120  1  0.61267587  0.16592895  0.00044527  1
  Ru4+  Ru121  1  0.61033217  0.17029592  0.25088088  1
  Ru4+  Ru122  1  0.61289197  0.16203950  0.49917047  1
  Ru4+  Ru123  1  0.60781271  0.16512158  0.75255515  1
  Ru4+  Ru124  1  0.61506714  0.50533420  -0.00069416  1
  Ru4+  Ru125  1  0.61156226  0.50075733  0.25347185  1
  Ru4+  Ru126  1  0.61248034  0.50085278  0.50058036  1
  Ru4+  Ru127  1  0.61562546  0.50541759  0.75088967  1
  Ru4+  Ru128  1  0.61409589  0.83476473  -0.00048928  1
  Ru4+  Ru129  1  0.61049949  0.82927829  0.25075570  1
  Ru4+  Ru130  1  0.61398773  0.83098210  0.50044447  1
  Ru4+  Ru131  1  0.60952070  0.82976761  0.75078688  1
  Ru4+  Ru132  1  0.38805916  0.16611213  -0.00064717  1
  Ru4+  Ru133  1  0.39299953  0.16925051  0.25137123  1
  Ru4+  Ru134  1  0.38519808  0.16431980  0.50105441  1
  Ru4+  Ru135  1  0.39039418  0.16687748  0.75054602  1
  Ru4+  Ru136  1  0.38723329  0.50198237  0.00381692  1
  Ru4+  Ru137  1  0.38309520  0.50548021  0.24871963  1
  Ru4+  Ru138  1  0.38016929  0.49807406  0.49676015  1
  Ru4+  Ru139  1  0.39193797  0.50026654  0.75093573  1
  Ru4+  Ru140  1  0.38831775  0.83494636  0.00001893  1
  Ru4+  Ru141  1  0.38495603  0.83395927  0.24998492  1
  Ru4+  Ru142  1  0.39031215  0.83194760  0.50056385  1
  Ru4+  Ru143  1  0.38711396  0.83052227  0.74906452  1
  Ru4+  Ru144  1  0.88961369  0.16540831  0.00049335  1
  Ru4+  Ru145  1  0.88891571  0.16636124  0.24677798  1
  Ru4+  Ru146  1  0.89027599  0.17060915  0.50088453  1
  Ru4+  Ru147  1  0.89206812  0.16605914  0.74839771  1
  Ru4+  Ru148  1  0.88769936  0.50159244  0.00004566  1
  Ru4+  Ru149  1  0.89042104  0.50008630  0.24911494  1
  Ru4+  Ru150  1  0.88543962  0.49614477  0.49997221  1
  Ru4+  Ru151  1  0.88427953  0.50030217  0.75186199  1
  Ru4+  Ru152  1  0.88199157  0.83925027  -0.00164150  1
  Ru4+  Ru153  1  0.89044931  0.83265632  0.25154319  1
  Ru4+  Ru154  1  0.88685272  0.83019608  0.49943301  1
  Ru4+  Ru155  1  0.88618864  0.83184102  0.74761258  1
  Ru4+  Ru156  1  0.24949435  0.43155431  0.24817646  1
  Ru4+  Ru157  1  0.24954340  0.93230531  0.47328935  1
  Ru4+  Ru158  1  0.24983689  0.28697338  0.27317881  1
  Ru4+  Ru159  1  0.75020315  0.91317167  0.74882120  1
  Ru4+  Ru160  1  0.25046174  0.73883493  0.01147306  1
  Ru4+  Ru161  1  0.25050419  0.04529051  0.75160474  1
  Ru4+  Ru162  1  0.74999527  0.05755416  0.74189334  1
  Ru4+  Ru163  1  0.24977316  0.90203025  0.24971556  1
  Ru4+  Ru164  1  0.25091723  0.27188663  0.71174223  1
  Ru4+  Ru165  1  0.25029667  0.40395314  0.71992642  1
  Ru4+  Ru166  1  0.74962838  0.25772068  0.00838175  1
  Ru4+  Ru167  1  0.25026598  0.89421870  0.74835754  1
  Ru4+  Ru168  1  0.25015739  0.03887918  0.26340508  1
  Ru4+  Ru169  1  0.75020805  0.06777390  0.49487912  1
  Ru4+  Ru170  1  0.24961853  0.08441782  0.00733752  1
  Ru4+  Ru171  1  0.74952599  0.08300707  0.00226124  1
  Ru4+  Ru172  1  0.25020423  0.09313257  0.49888069  1
  Ru4+  Ru173  1  0.75028018  0.41787995  0.01145853  1
  Ru4+  Ru174  1  0.25146697  0.64829532  0.71254560  1
  Ru4+  Ru175  1  0.74992267  0.91160298  0.50237378  1
  Ru4+  Ru176  1  0.74988964  0.74712644  0.00016499  1
  Ru4+  Ru177  1  0.74961538  0.42500366  0.75183445  1
  Ru4+  Ru178  1  0.75001135  0.75002634  0.75534524  1
  Ru4+  Ru179  1  0.25018152  0.25383626  0.00174314  1
  O2-  O180  1  0.16718701  0.08191396  0.00017412  1
  O2-  O181  1  0.16728072  0.07800085  0.24896036  1
  O2-  O182  1  0.16718775  0.07930761  0.49911116  1
  O2-  O183  1  0.16642613  0.07637217  0.75128120  1
  O2-  O184  1  0.17022839  0.41304387  -0.00130556  1
  O2-  O185  1  0.16673921  0.41345951  0.25129496  1
  O2-  O186  1  0.16739488  0.41583297  0.49833974  1
  O2-  O187  1  0.16667222  0.41314287  0.75107973  1
  O2-  O188  1  0.16813848  0.74558000  -0.00156262  1
  O2-  O189  1  0.16299201  0.74988072  0.25043307  1
  O2-  O190  1  0.15945041  0.74426317  0.49928355  1
  O2-  O191  1  0.16769500  0.74825407  0.75225027  1
  O2-  O192  1  0.66563742  0.08117397  -0.00005822  1
  O2-  O193  1  0.66720931  0.08354048  0.25032421  1
  O2-  O194  1  0.66605632  0.07888302  0.50191144  1
  O2-  O195  1  0.66907252  0.07964714  0.74923301  1
  O2-  O196  1  0.66961988  0.41358566  -0.00150571  1
  O2-  O197  1  0.66681809  0.41644191  0.25154687  1
  O2-  O198  1  0.66479680  0.41455296  0.50356310  1
  O2-  O199  1  0.66462415  0.41434718  0.75000261  1
  O2-  O200  1  0.66735978  0.74792764  -0.00146570  1
  O2-  O201  1  0.66874936  0.74906623  0.24998468  1
  O2-  O202  1  0.66414116  0.75027581  0.50288098  1
  O2-  O203  1  0.67069272  0.74973007  0.74714369  1
  O2-  O204  1  0.33240454  0.25196693  0.00120820  1
  O2-  O205  1  0.33171417  0.25443523  0.25116576  1
  O2-  O206  1  0.33514041  0.25079009  0.49860664  1
  O2-  O207  1  0.33601150  0.25521198  0.75004761  1
  O2-  O208  1  0.33669645  0.58672430  0.00033464  1
  O2-  O209  1  0.33025602  0.58443571  0.25111849  1
  O2-  O210  1  0.33461107  0.58385394  0.49705709  1
  O2-  O211  1  0.33483566  0.58875589  0.74954006  1
  O2-  O212  1  0.33279209  0.92396573  0.00153471  1
  O2-  O213  1  0.33177003  0.91638871  0.24887748  1
  O2-  O214  1  0.33209749  0.91866682  0.50165950  1
  O2-  O215  1  0.33100940  0.91752548  0.74816633  1
  O2-  O216  1  0.83449954  0.25259406  -0.00064715  1
  O2-  O217  1  0.83242206  0.25118803  0.25252108  1
  O2-  O218  1  0.83983570  0.25592392  0.50163767  1
  O2-  O219  1  0.83965371  0.25472081  0.75027960  1
  O2-  O220  1  0.83633278  0.58600898  -0.00130643  1
  O2-  O221  1  0.83613356  0.58838092  0.24773459  1
  O2-  O222  1  0.83214394  0.58301862  0.50061183  1
  O2-  O223  1  0.83574536  0.58605674  0.74972102  1
  O2-  O224  1  0.83336570  0.92063509  -0.00131100  1
  O2-  O225  1  0.83473743  0.91848046  0.25220296  1
  O2-  O226  1  0.83340516  0.92015735  0.50092875  1
  O2-  O227  1  0.83496470  0.91977449  0.75049021  1
  O2-  O228  1  0.16817887  0.25012422  -0.00013459  1
  O2-  O229  1  0.16735611  0.25583063  0.25284314  1
  O2-  O230  1  0.16702369  0.25298900  0.49720827  1
  O2-  O231  1  0.16442061  0.25451338  0.75089996  1
  O2-  O232  1  0.16470267  0.58655888  -0.00114003  1
  O2-  O233  1  0.16364513  0.58461726  0.25053688  1
  O2-  O234  1  0.16289025  0.58363754  0.49760015  1
  O2-  O235  1  0.16624157  0.58780264  0.75084762  1
  O2-  O236  1  0.16275849  0.92158019  0.00035547  1
  O2-  O237  1  0.16722948  0.91867481  0.25027467  1
  O2-  O238  1  0.16667546  0.92109293  0.49823060  1
  O2-  O239  1  0.16561607  0.91822813  0.75075670  1
  O2-  O240  1  0.66644708  0.25465055  -0.00096383  1
  O2-  O241  1  0.66857835  0.25111391  0.25106420  1
  O2-  O242  1  0.66040706  0.25481106  0.50264050  1
  O2-  O243  1  0.66239751  0.25151866  0.75138315  1
  O2-  O244  1  0.66548900  0.58234892  0.00084617  1
  O2-  O245  1  0.66735994  0.58455594  0.24670130  1
  O2-  O246  1  0.66745645  0.58389275  0.50037219  1
  O2-  O247  1  0.66786075  0.58228370  0.74639293  1
  O2-  O248  1  0.66490511  0.91782522  -0.00020787  1
  O2-  O249  1  0.66694256  0.91634940  0.25328279  1
  O2-  O250  1  0.66521678  0.92016472  0.50119549  1
  O2-  O251  1  0.66723329  0.91730824  0.74822796  1
  O2-  O252  1  0.33107714  0.08154206  0.00222342  1
  O2-  O253  1  0.33131901  0.08015900  0.24644765  1
  O2-  O254  1  0.33464832  0.08151997  0.50022241  1
  O2-  O255  1  0.33533722  0.07593544  0.74806285  1
  O2-  O256  1  0.33617283  0.41279545  -0.00082066  1
  O2-  O257  1  0.33304258  0.41481781  0.25141280  1
  O2-  O258  1  0.33424358  0.41241246  0.49845224  1
  O2-  O259  1  0.33602762  0.41251658  0.75096766  1
  O2-  O260  1  0.33456605  0.74636473  0.00020744  1
  O2-  O261  1  0.33541204  0.74942798  0.25078265  1
  O2-  O262  1  0.33924894  0.74425195  0.49630398  1
  O2-  O263  1  0.33632201  0.75103152  0.75010354  1
  O2-  O264  1  0.83323331  0.08032230  -0.00201559  1
  O2-  O265  1  0.83234511  0.08114250  0.25370628  1
  O2-  O266  1  0.83373665  0.07744263  0.50065805  1
  O2-  O267  1  0.83296160  0.07721762  0.75134344  1
  O2-  O268  1  0.83167602  0.41286445  -0.00055636  1
  O2-  O269  1  0.83665832  0.41289782  0.25006859  1
  O2-  O270  1  0.83435182  0.41423312  0.50106030  1
  O2-  O271  1  0.83343625  0.41318673  0.75157842  1
  O2-  O272  1  0.83233363  0.74816985  -0.00182612  1
  O2-  O273  1  0.83464524  0.74723031  0.24939617  1
  O2-  O274  1  0.83589370  0.74859369  0.50200826  1
  O2-  O275  1  0.83051465  0.74769612  0.75074676  1
  O2-  O276  1  0.04652152  0.78173644  0.78743752  1
  O2-  O277  1  0.54503461  0.90981833  0.01281054  1
  O2-  O278  1  0.44491948  0.57514548  0.27555280  1
  O2-  O279  1  0.94874318  0.56791413  0.73262006  1
  O2-  O280  1  0.53449966  0.11266770  0.71611817  1
  O2-  O281  1  0.04748122  0.90374926  0.02327762  1
  O2-  O282  1  0.03794942  0.11396247  0.00462528  1
  O2-  O283  1  0.03520705  0.43173787  0.95661496  1
  O2-  O284  1  0.04905444  0.90010284  0.49086723  1
  O2-  O285  1  0.95377472  0.43291790  0.48659398  1
  O2-  O286  1  0.45001540  0.76719753  0.01132296  1
  O2-  O287  1  0.44824705  0.76262009  0.23319740  1
  O2-  O288  1  0.95378220  0.76031024  0.98616672  1
  O2-  O289  1  0.54345995  0.42770384  0.98280992  1
  O2-  O290  1  0.45546714  0.09657536  0.48831169  1
  O2-  O291  1  0.45882770  0.75639462  0.26821401  1
  O2-  O292  1  0.44995869  0.56203273  0.50903936  1
  O2-  O293  1  0.04761760  0.56921362  1.00010094  1
  O2-  O294  1  0.04775120  0.23553617  0.26370077  1
  O2-  O295  1  0.53961438  0.54900816  0.72096564  1
  O2-  O296  1  0.55123515  0.43692982  0.01881223  1
  O2-  O297  1  0.45513412  0.90263714  0.26740945  1
  O2-  O298  1  0.54389822  0.43267239  0.50282110  1
  O2-  O299  1  0.05290129  0.90639561  0.98505711  1
  O2-  O300  1  0.44916199  0.23786288  0.51104942  1
  O2-  O301  1  0.04628187  0.43341054  0.24569508  1
  O2-  O302  1  0.45328918  0.56245244  0.25461845  1
  O2-  O303  1  0.05540807  0.57718704  0.76943026  1
  O2-  O304  1  0.95514614  0.76564303  0.26269295  1
  O2-  O305  1  0.94973442  0.90229256  0.48573674  1
  O2-  O306  1  0.95376229  0.09497421  0.48867700  1
  O2-  O307  1  0.04472424  0.23285648  0.76335656  1
  O2-  O308  1  0.04559111  0.56254170  0.75179369  1
  O2-  O309  1  0.45591891  0.42251830  0.24125923  1
  O2-  O310  1  0.94702560  0.09574249  0.00746722  1
  O2-  O311  1  0.94794743  0.91170965  0.98609590  1
  O2-  O312  1  0.54616152  0.55347629  0.20899708  1
  O2-  O313  1  0.95537730  0.78501869  0.78751884  1
  O2-  O314  1  0.45422370  0.42820317  0.76355873  1
  O2-  O315  1  0.04726880  0.57083139  0.00126245  1
  O2-  O316  1  0.55035268  0.76529037  0.01320019  1
  O2-  O317  1  0.95569736  0.57554287  0.51569772  1
  O2-  O318  1  0.52237532  0.79228162  0.74314222  1
  O2-  O319  1  0.46614833  0.11924536  0.21556197  1
  O2-  O320  1  0.54950248  0.23174749  0.48335731  1
  O2-  O321  1  0.54666042  0.57200252  0.50393051  1
  O2-  O322  1  0.45878169  0.89454842  0.71917636  1
  O2-  O323  1  0.52614669  0.78528160  0.75061701  1
  O2-  O324  1  0.43631712  0.25796591  0.01628819  1
  O2-  O325  1  0.56208738  0.26336694  0.32222094  1
  O2-  O326  1  0.06448272  0.07496739  0.47593017  1
  O2-  O327  1  0.06532571  0.73714994  0.93099203  1
  O2-  O328  1  0.56680828  0.92413236  0.78670263  1
  O2-  O329  1  0.56809385  0.74609898  0.18810901  1
  O2-  O330  1  0.43571486  0.59600658  0.71651858  1
  O2-  O331  1  0.07801508  0.40405448  0.06124201  1
  O2-  O332  1  0.06604610  0.40949127  0.72842664  1
  O2-  O333  1  0.58425246  0.72523506  0.67904778  1
  O2-  O334  1  0.56063526  0.74744025  0.32520799  1
  O2-  O335  1  0.43010768  0.93221048  0.78569225  1
  O2-  O336  1  0.06034602  0.73640760  0.07423589  1
  O2-  O337  1  0.58583709  0.73454352  0.82421093  1
  O2-  O338  1  0.93292358  0.58956176  0.52387022  1
  O2-  O339  1  0.43455042  0.07891220  0.97714322  1
  O2-  O340  1  0.43619787  0.92823895  0.46771130  1
  O2-  O341  1  0.93570228  0.26121147  0.21970094  1
  O2-  O342  1  0.43104165  0.60160006  0.22448748  1
  O2-  O343  1  0.43190406  0.92120757  0.06229448  1
  O2-  O344  1  0.07243813  0.04947086  0.03836170  1
  O2-  O345  1  0.56449676  0.25866044  0.72407947  1
  O2-  O346  1  0.43962292  0.59158570  0.52463285  1
  O2-  O347  1  0.42858134  0.05557362  0.31247527  1
  O2-  O348  1  0.43158564  0.91979140  0.93717618  1
  O2-  O349  1  0.06756010  0.24872456  0.06454999  1
  O2-  O350  1  0.56285383  0.92811744  0.21699479  1
  O2-  O351  1  0.06380350  0.26464271  0.92986813  1
  O2-  O352  1  0.56705011  0.24502019  0.18536646  1
  O2-  O353  1  0.43301506  0.41271289  0.22884484  1
  O2-  O354  1  0.42971249  0.24927193  0.18427364  1
  O2-  O355  1  0.06690301  0.59663576  0.71289688  1
  O2-  O356  1  0.56379502  0.07819365  0.27631524  1
  O2-  O357  1  0.06328743  0.40638136  0.46045211  1
  O2-  O358  1  0.92093457  0.72442557  0.69601349  1
  O2-  O359  1  0.43966463  0.26436776  0.32437743  1
  O2-  O360  1  0.55798433  0.26375523  0.47113761  1
  O2-  O361  1  0.43963041  0.74121623  0.52889775  1
  O2-  O362  1  0.44055082  0.26485591  0.53332363  1
  O2-  O363  1  0.93130647  0.74710119  0.97506658  1
  O2-  O364  1  0.06164554  0.25173165  0.52162914  1
  O2-  O365  1  0.57467451  0.59946847  0.79979795  1
  O2-  O366  1  0.93581174  0.07541183  0.22866773  1
  O2-  O367  1  0.07358249  0.73457336  0.67613699  1
  O2-  O368  1  0.06392042  0.07049436  0.71218022  1
  O2-  O369  1  0.57164043  0.60402544  0.32124931  1
  O2-  O370  1  0.56288666  0.40796250  0.22389353  1
  O2-  O371  1  0.57542345  0.06166400  0.80945093  1
  O2-  O372  1  0.25077710  0.65037288  0.08506871  1
  O2-  O373  1  0.25072951  0.32804316  0.90519538  1
  O2-  O374  1  0.74939783  0.33402516  0.65613958  1
  O2-  O375  1  0.24981106  -0.02981535  0.66623011  1
  O2-  O376  1  0.24982786  0.67904340  0.83179618  1
  O2-  O377  1  0.74972842  0.00473740  0.16939562  1
  O2-  O378  1  0.74991364  -0.00570757  0.60172191  1
  O2-  O379  1  0.25043426  0.33446524  0.14629854  1
  O2-  O380  1  0.75053874  0.32927584  0.13701964  1
  O2-  O381  1  0.75001342  -0.00313216  0.07772359  1
  O2-  O382  1  0.24989892  0.66760473  0.17320096  1
  O2-  O383  1  0.75057873  0.67096982  0.09134536  1
  O2-  O384  1  0.25073549  0.33435097  0.60622313  1
  O2-  O385  1  0.24967847  -0.01649629  0.86404635  1
  O2-  O386  1  0.75092944  0.67222684  0.84704325  1
  O2-  O387  1  0.25017433  0.66689359  0.59607294  1
  O2-  O388  1  0.75029791  -0.00782779  0.39640127  1
  O2-  O389  1  0.74988988  0.33527281  0.84853094  1
  O2-  O390  1  0.25040026  0.00654695  0.56352228  1
  O2-  O391  1  0.75080331  0.33111755  0.40537554  1
  O2-  O392  1  0.25007233  0.66968727  0.35585506  1
  O2-  O393  1  0.75086422  0.66557986  0.41937570  1
  O2-  O394  1  0.25020188  0.65371017  0.91953541  1
  O2-  O395  1  0.75066937  0.66913570  0.32821084  1
  O2-  O396  1  0.74997265  0.49162294  0.83953340  1
  O2-  O397  1  0.75008699  0.15229226  0.39070935  1
  O2-  O398  1  0.75014386  0.83464708  0.42188185  1
  O2-  O399  1  0.75032736  0.14768169  0.64224440  1
  O2-  O400  1  0.75015919  0.83591261  0.84332612  1
  O2-  O401  1  0.24982996  0.49740488  0.63451537  1
  O2-  O402  1  0.24971148  0.49285736  0.33757081  1
  O2-  O403  1  0.75017004  0.49594709  0.66206896  1
  O2-  O404  1  0.24987154  0.84220873  0.63631115  1
  O2-  O405  1  0.75028392  0.16795251  0.08992214  1
  O2-  O406  1  0.24990466  0.17973757  0.43191179  1
  O2-  O407  1  0.25016113  0.16535684  0.92800341  1
  O2-  O408  1  0.24972694  0.49299398  0.15259391  1
  O2-  O409  1  0.24980313  0.48991547  0.89374692  1
  O2-  O410  1  0.24952837  0.83200140  0.11034924  1
  O2-  O411  1  0.24970585  0.85416156  0.37081083  1
  O2-  O412  1  0.75021378  0.83868634  0.05910073  1
  O2-  O413  1  0.75022185  0.16644022  0.91610465  1
  O2-  O414  1  0.75030732  0.49185457  0.10021816  1
  O2-  O415  1  0.74994303  0.83160144  0.14607714  1
  O2-  O416  1  0.25004680  0.17155123  0.34256903  1
  O2-  O417  1  0.24969744  0.15798524  0.63984351  1
  O2-  O418  1  0.75030645  0.83446481  0.65735145  1
  O2-  O419  1  0.75013252  0.50104002  0.37677760  1
  O2-  O420  1  0.53067644  0.33556775  0.10623927  1
  O2-  O421  1  0.53606642  0.66138916  0.90089025  1
  O2-  O422  1  0.97230245  0.00013176  0.62439142  1
  O2-  O423  1  0.52657429  -0.00738760  0.38255806  1
  O2-  O424  1  0.53449935  0.65054798  0.10937287  1
  O2-  O425  1  0.52425805  0.32967861  0.87209967  1
  O2-  O426  1  0.97174849  0.65422094  0.87467523  1
  O2-  O427  1  0.46274911  0.67284553  0.11726591  1
  O2-  O428  1  0.47948485  0.00662612  0.12837441  1
  O2-  O429  1  0.97585626  -0.01079673  0.12487580  1
  O2-  O430  1  0.98389108  0.66962488  0.61824763  1
  O2-  O431  1  0.02650634  0.00175325  0.87480006  1
  O2-  O432  1  0.02477850  -0.00084305  0.36416921  1
  O2-  O433  1  0.01606130  0.33578957  0.13273385  1
  O2-  O434  1  0.52097463  0.66183519  0.61952693  1
  O2-  O435  1  0.52333301  0.34035914  0.62630430  1
  O2-  O436  1  0.48504208  0.00973131  0.87331823  1
  O2-  O437  1  0.97015076  0.33558577  0.87520431  1
  O2-  O438  1  0.47201453  0.34737528  0.11478210  1
  O2-  O439  1  0.95106470  0.32921938  0.62538211  1
  O2-  O440  1  0.97284720  0.32779172  0.37455183  1
  O2-  O441  1  0.45453679  0.66871225  0.86809905  1
  O2-  O442  1  0.52705931  -0.00162389  0.61950551  1
  O2-  O443  1  0.03860994  0.33401266  0.62418662  1
