# generated using pymatgen
data_La7(Ru4O11)2
_symmetry_space_group_name_H-M   'P 1'
_cell_length_a   23.99050356
_cell_length_b   16.83039899
_cell_length_c   15.42680338
_cell_angle_alpha   89.99934793
_cell_angle_beta   89.99957660
_cell_angle_gamma   90.00067621
_symmetry_Int_Tables_number   1
_chemical_formula_structural   La7(Ru4O11)2
_chemical_formula_sum   'La84 Ru96 O264'
_cell_volume   6228.87649747
_cell_formula_units_Z   12
loop_
 _symmetry_equiv_pos_site_id
 _symmetry_equiv_pos_as_xyz
  1  'x, y, z'
loop_
 _atom_type_symbol
 _atom_type_oxidation_number
  La3+  3.0
  Ru4+  4.0
  O2-  -2.0
loop_
 _atom_site_type_symbol
 _atom_site_label
 _atom_site_symmetry_multiplicity
 _atom_site_fract_x
 _atom_site_fract_y
 _atom_site_fract_z
 _atom_site_occupancy
  La3+  La0  1  0.13670049  0.00047679  0.12481992  1
  La3+  La1  1  0.14046951  -0.00148975  0.37374959  1
  La3+  La2  1  0.13670387  -0.00020749  0.62380387  1
  La3+  La3  1  0.13784511  -0.00030475  0.87326649  1
  La3+  La4  1  0.13723361  0.33655885  0.12426736  1
  La3+  La5  1  0.13763632  0.33665370  0.37368543  1
  La3+  La6  1  0.13905096  0.33468959  0.62428943  1
  La3+  La7  1  0.13760945  0.33534406  0.87762813  1
  La3+  La8  1  0.13779881  0.66330832  0.12841405  1
  La3+  La9  1  0.13604581  0.66765819  0.37577657  1
  La3+  La10  1  0.13969345  0.66543700  0.62241601  1
  La3+  La11  1  0.13657480  0.66531380  0.87375631  1
  La3+  La12  1  0.64375983  0.00099254  0.12594146  1
  La3+  La13  1  0.63891317  0.00146233  0.37644661  1
  La3+  La14  1  0.63928565  0.00103074  0.62414289  1
  La3+  La15  1  0.64143090  -0.00256400  0.87604877  1
  La3+  La16  1  0.64143540  0.33095681  0.12893976  1
  La3+  La17  1  0.63720090  0.33202731  0.37296342  1
  La3+  La18  1  0.63603968  0.33154357  0.62279110  1
  La3+  La19  1  0.63787272  0.33181207  0.87520794  1
  La3+  La20  1  0.64019925  0.66838151  0.12551034  1
  La3+  La21  1  0.64143871  0.66762278  0.37640385  1
  La3+  La22  1  0.64015339  0.66866117  0.62786455  1
  La3+  La23  1  0.64129639  0.66755075  0.87316858  1
  La3+  La24  1  0.36393242  0.00109598  0.12716367  1
  La3+  La25  1  0.35784902  0.00271500  0.37777113  1
  La3+  La26  1  0.36280305  0.00032745  0.62434645  1
  La3+  La27  1  0.36310699  0.00170209  0.87559585  1
  La3+  La28  1  0.36186766  0.33513636  0.12601304  1
  La3+  La29  1  0.35947765  0.33235507  0.37663327  1
  La3+  La30  1  0.36153079  0.33345681  0.62425202  1
  La3+  La31  1  0.35840476  0.33393085  0.87486542  1
  La3+  La32  1  0.36182325  0.66327423  0.12800128  1
  La3+  La33  1  0.36257060  0.66585020  0.37469755  1
  La3+  La34  1  0.36038222  0.66666516  0.62440560  1
  La3+  La35  1  0.36290167  0.66458578  0.87362484  1
  La3+  La36  1  0.85564416  0.00054732  0.12527364  1
  La3+  La37  1  0.85975920  0.00017543  0.37405067  1
  La3+  La38  1  0.86221118  0.00037832  0.62317094  1
  La3+  La39  1  0.85946757  -0.00110560  0.87700832  1
  La3+  La40  1  0.85976894  0.33333988  0.12930311  1
  La3+  La41  1  0.86157582  0.33581679  0.37250708  1
  La3+  La42  1  0.86255842  0.33567932  0.62491727  1
  La3+  La43  1  0.86266885  0.33194041  0.87507310  1
  La3+  La44  1  0.86060897  0.66866168  0.12636742  1
  La3+  La45  1  0.85989831  0.66914462  0.37692257  1
  La3+  La46  1  0.86260196  0.66879578  0.62554389  1
  La3+  La47  1  0.85968118  0.66931808  0.87161771  1
  La3+  La48  1  -0.00077463  0.16562958  0.11255990  1
  La3+  La49  1  -0.00232362  0.83134852  0.13464539  1
  La3+  La50  1  -0.00282179  0.49961005  0.13138665  1
  La3+  La51  1  0.50375300  0.83353232  0.13127627  1
  La3+  La52  1  -0.00086396  0.50198455  0.38267071  1
  La3+  La53  1  0.50502254  0.50624537  0.12370968  1
  La3+  La54  1  0.50217980  0.49773943  0.37099616  1
  La3+  La55  1  0.49686754  0.16481856  0.88316427  1
  La3+  La56  1  -0.00080922  0.16702743  0.12924489  1
  La3+  La57  1  0.00128766  0.83333520  0.63459022  1
  La3+  La58  1  0.49904966  0.50023464  0.61393817  1
  La3+  La59  1  0.49952906  0.83302350  0.88194915  1
  La3+  La60  1  -0.00054418  0.16570865  0.36670170  1
  La3+  La61  1  -0.00233607  0.16635910  0.62128003  1
  La3+  La62  1  0.00038837  0.83241850  0.11243099  1
  La3+  La63  1  0.49914293  0.50199905  0.88351581  1
  La3+  La64  1  0.50235713  0.83442849  0.11464762  1
  La3+  La65  1  0.50119094  0.16851379  0.86221747  1
  La3+  La66  1  -0.00169760  0.16275234  0.63763881  1
  La3+  La67  1  0.49476501  0.83672428  0.38006892  1
  La3+  La68  1  0.00126745  0.49942849  0.88156592  1
  La3+  La69  1  0.49498712  0.83355797  0.36371277  1
  La3+  La70  1  -0.00154001  0.16367482  0.38910819  1
  La3+  La71  1  0.50189103  0.49527962  0.63376352  1
  La3+  La72  1  0.24932995  0.86593095  0.23168844  1
  La3+  La73  1  0.75035230  0.83611532  0.25633311  1
  La3+  La74  1  0.74998917  0.16184776  0.49481141  1
  La3+  La75  1  0.24989004  0.19812643  0.53107867  1
  La3+  La76  1  0.24991445  0.21121886  0.28057924  1
  La3+  La77  1  0.25011227  0.50017596  0.27834912  1
  La3+  La78  1  0.75007675  0.17396087  0.71370078  1
  La3+  La79  1  0.25000884  0.82419318  0.03129405  1
  La3+  La80  1  0.75024648  0.49327828  0.05948269  1
  La3+  La81  1  0.24977630  0.81950993  0.74474516  1
  La3+  La82  1  0.75001104  0.83492979  -0.00485386  1
  La3+  La83  1  0.75014273  0.50266401  0.71444429  1
  Ru4+  Ru84  1  0.00171613  0.00108379  0.00010909  1
  Ru4+  Ru85  1  -0.00327518  -0.00339780  0.25112039  1
  Ru4+  Ru86  1  0.00342161  -0.01281016  0.50029808  1
  Ru4+  Ru87  1  -0.00103539  -0.00161987  0.74777534  1
  Ru4+  Ru88  1  0.00169657  0.33523209  -0.00461731  1
  Ru4+  Ru89  1  0.00047429  0.32536912  0.24790470  1
  Ru4+  Ru90  1  -0.00166203  0.33812749  0.49990399  1
  Ru4+  Ru91  1  -0.00061001  0.33285271  0.75158122  1
  Ru4+  Ru92  1  0.00045251  0.66682273  -0.00307588  1
  Ru4+  Ru93  1  -0.00301068  0.67365955  0.24871808  1
  Ru4+  Ru94  1  0.00009219  0.66951144  0.50063639  1
  Ru4+  Ru95  1  -0.00145613  0.66501632  0.74990860  1
  Ru4+  Ru96  1  0.49972310  0.00104419  0.00139559  1
  Ru4+  Ru97  1  0.50043470  0.00510727  0.24950842  1
  Ru4+  Ru98  1  0.49924216  -0.00060240  0.49750294  1
  Ru4+  Ru99  1  0.50083829  -0.00132093  0.75226306  1
  Ru4+  Ru100  1  0.49939833  0.33348672  -0.00014441  1
  Ru4+  Ru101  1  0.49876636  0.32920966  0.24923839  1
  Ru4+  Ru102  1  0.49824368  0.33511392  0.50461395  1
  Ru4+  Ru103  1  0.49999147  0.33449131  0.75069604  1
  Ru4+  Ru104  1  0.50194135  0.66548813  -0.00097237  1
  Ru4+  Ru105  1  0.50299798  0.66871922  0.25141709  1
  Ru4+  Ru106  1  0.49998648  0.66478949  0.50087726  1
  Ru4+  Ru107  1  0.49909001  0.66886260  0.74641748  1
  Ru4+  Ru108  1  0.11169939  0.16449540  -0.00130750  1
  Ru4+  Ru109  1  0.11418212  0.16727357  0.24894083  1
  Ru4+  Ru110  1  0.11400799  0.16946642  0.50000116  1
  Ru4+  Ru111  1  0.11240330  0.16743209  0.75036025  1
  Ru4+  Ru112  1  0.11267567  0.49657089  -0.00045733  1
  Ru4+  Ru113  1  0.11860643  0.49986116  0.24850229  1
  Ru4+  Ru114  1  0.11172186  0.50115588  0.49948032  1
  Ru4+  Ru115  1  0.11425698  0.50203203  0.75002925  1
  Ru4+  Ru116  1  0.10933937  0.83207258  -0.00070190  1
  Ru4+  Ru117  1  0.11104581  0.83125718  0.25224958  1
  Ru4+  Ru118  1  0.11119302  0.83157103  0.49718857  1
  Ru4+  Ru119  1  0.10931516  0.83371890  0.75047636  1
  Ru4+  Ru120  1  0.61494045  0.16404527  0.00137453  1
  Ru4+  Ru121  1  0.61343420  0.16340770  0.24777621  1
  Ru4+  Ru122  1  0.61521099  0.16625144  0.50026103  1
  Ru4+  Ru123  1  0.61047317  0.16730757  0.75336530  1
  Ru4+  Ru124  1  0.61073147  0.50165065  -0.00106099  1
  Ru4+  Ru125  1  0.61440605  0.49656717  0.25030008  1
  Ru4+  Ru126  1  0.61214690  0.50182252  0.49968379  1
  Ru4+  Ru127  1  0.61153543  0.50036432  0.74947374  1
  Ru4+  Ru128  1  0.61135473  0.83384110  -0.00004660  1
  Ru4+  Ru129  1  0.61510482  0.83270405  0.25031768  1
  Ru4+  Ru130  1  0.61508393  0.83131888  0.50447148  1
  Ru4+  Ru131  1  0.61576908  0.83441536  0.75096364  1
  Ru4+  Ru132  1  0.38900611  0.16578929  0.00117327  1
  Ru4+  Ru133  1  0.39133552  0.16895355  0.25060678  1
  Ru4+  Ru134  1  0.38655028  0.16783807  0.50015567  1
  Ru4+  Ru135  1  0.38779019  0.16753148  0.75138837  1
  Ru4+  Ru136  1  0.38639645  0.49773894  -0.00090119  1
  Ru4+  Ru137  1  0.38424070  0.49368703  0.25120855  1
  Ru4+  Ru138  1  0.38936809  0.49979337  0.50092285  1
  Ru4+  Ru139  1  0.38625233  0.50030902  0.75032618  1
  Ru4+  Ru140  1  0.39030203  0.83632775  0.00057814  1
  Ru4+  Ru141  1  0.38540174  0.83253569  0.25198561  1
  Ru4+  Ru142  1  0.38664730  0.83078068  0.49937639  1
  Ru4+  Ru143  1  0.39090686  0.83072503  0.74913075  1
  Ru4+  Ru144  1  0.88428286  0.16569293  0.00004942  1
  Ru4+  Ru145  1  0.88251858  0.16496917  0.24958348  1
  Ru4+  Ru146  1  0.88243136  0.17142594  0.50052107  1
  Ru4+  Ru147  1  0.88931211  0.16864950  0.75180069  1
  Ru4+  Ru148  1  0.88933538  0.49913640  -0.00200795  1
  Ru4+  Ru149  1  0.88311866  0.50214075  0.25018915  1
  Ru4+  Ru150  1  0.88759960  0.49947365  0.49950754  1
  Ru4+  Ru151  1  0.89058391  0.50117821  0.74937050  1
  Ru4+  Ru152  1  0.88746823  0.83347670  0.00008989  1
  Ru4+  Ru153  1  0.88851161  0.83503924  0.25212772  1
  Ru4+  Ru154  1  0.88633958  0.82825124  0.49898793  1
  Ru4+  Ru155  1  0.88447221  0.83200102  0.75042683  1
  Ru4+  Ru156  1  0.25016370  0.06722458  0.25044245  1
  Ru4+  Ru157  1  0.74980884  0.30119575  0.75984526  1
  Ru4+  Ru158  1  0.25042659  0.42129759  0.50216295  1
  Ru4+  Ru159  1  0.25005501  0.70073677  -0.00859968  1
  Ru4+  Ru160  1  0.75028263  0.90957304  0.49602171  1
  Ru4+  Ru161  1  0.75029989  0.42250212  0.49579389  1
  Ru4+  Ru162  1  0.25012769  0.08978318  -0.00098438  1
  Ru4+  Ru163  1  0.25019270  0.57710335  0.50509427  1
  Ru4+  Ru164  1  0.24984969  0.43049604  0.75188372  1
  Ru4+  Ru165  1  0.24974907  0.72858024  0.26108681  1
  Ru4+  Ru166  1  0.24992570  0.24225284  0.75317884  1
  Ru4+  Ru167  1  0.24977687  0.90897449  0.49868875  1
  Ru4+  Ru168  1  0.74978493  0.58081065  0.49082237  1
  Ru4+  Ru169  1  0.75007260  0.57717316  0.26036000  1
  Ru4+  Ru170  1  0.74977918  0.05105934  0.76595045  1
  Ru4+  Ru171  1  0.25003718  0.57370819  -0.00697294  1
  Ru4+  Ru172  1  0.25013043  0.68863448  0.76186926  1
  Ru4+  Ru173  1  0.25010869  0.94688041  0.73549649  1
  Ru4+  Ru174  1  0.24985429  0.05632307  0.49640706  1
  Ru4+  Ru175  1  0.74987823  0.38148966  -0.01529722  1
  Ru4+  Ru176  1  0.24987739  0.25636575  -0.00722522  1
  Ru4+  Ru177  1  0.25029981  0.10179590  0.74376495  1
  Ru4+  Ru178  1  0.75009047  0.60924923  -0.00992590  1
  Ru4+  Ru179  1  0.24982913  0.95660281  0.02565358  1
  O2-  O180  1  0.16920222  0.08220543  0.00128868  1
  O2-  O181  1  0.16684440  0.08023711  0.24946424  1
  O2-  O182  1  0.16716860  0.07893138  0.50181558  1
  O2-  O183  1  0.16806473  0.08235044  0.74874904  1
  O2-  O184  1  0.16721313  0.41445149  0.00032370  1
  O2-  O185  1  0.16990237  0.41350397  0.25164008  1
  O2-  O186  1  0.16625864  0.41444775  0.50022005  1
  O2-  O187  1  0.16625363  0.41353425  0.75001146  1
  O2-  O188  1  0.16565750  0.74527051  0.00086343  1
  O2-  O189  1  0.16832382  0.74665815  0.24911155  1
  O2-  O190  1  0.16656708  0.74986587  0.50031427  1
  O2-  O191  1  0.16682903  0.74569190  0.75074047  1
  O2-  O192  1  0.66784016  0.08230244  -0.00058952  1
  O2-  O193  1  0.66532692  0.08297442  0.25243150  1
  O2-  O194  1  0.66811808  0.08394641  0.49982466  1
  O2-  O195  1  0.66600809  0.07878271  0.74961801  1
  O2-  O196  1  0.66545102  0.41114089  0.00061823  1
  O2-  O197  1  0.66693396  0.41520685  0.25030984  1
  O2-  O198  1  0.66690685  0.41336118  0.50012463  1
  O2-  O199  1  0.66688348  0.41231739  0.74920822  1
  O2-  O200  1  0.66511172  0.74602114  0.00130724  1
  O2-  O201  1  0.66761972  0.74634639  0.25005776  1
  O2-  O202  1  0.66749407  0.74878356  0.49957837  1
  O2-  O203  1  0.66752592  0.74987488  0.74811208  1
  O2-  O204  1  0.33344363  0.25333310  0.00082861  1
  O2-  O205  1  0.33527215  0.25534123  0.24744559  1
  O2-  O206  1  0.33592555  0.25301057  0.50104820  1
  O2-  O207  1  0.33338550  0.25180000  0.74822891  1
  O2-  O208  1  0.33401130  0.58529523  -0.00035449  1
  O2-  O209  1  0.33326638  0.58575622  0.25081910  1
  O2-  O210  1  0.33181822  0.58737164  0.50033258  1
  O2-  O211  1  0.33435913  0.58713184  0.75095178  1
  O2-  O212  1  0.33394305  0.92166112  0.00049727  1
  O2-  O213  1  0.33298488  0.91896753  0.24678428  1
  O2-  O214  1  0.33268520  0.91989691  0.50070331  1
  O2-  O215  1  0.33430611  0.92226148  0.74961906  1
  O2-  O216  1  0.83538162  0.25189043  -0.00002475  1
  O2-  O217  1  0.83371301  0.25288368  0.25103121  1
  O2-  O218  1  0.82801101  0.25341515  0.49959651  1
  O2-  O219  1  0.83249876  0.25481255  0.74874187  1
  O2-  O220  1  0.83485106  0.58828238  0.00027123  1
  O2-  O221  1  0.83348002  0.58592946  0.25091153  1
  O2-  O222  1  0.83343999  0.58538778  0.50130617  1
  O2-  O223  1  0.83382697  0.58496533  0.74816795  1
  O2-  O224  1  0.83248468  0.92056838  -0.00070508  1
  O2-  O225  1  0.83189111  0.91781077  0.25112930  1
  O2-  O226  1  0.83400715  0.91816472  0.50060750  1
  O2-  O227  1  0.83344163  0.91784725  0.75015794  1
  O2-  O228  1  0.16738636  0.25180442  -0.00001939  1
  O2-  O229  1  0.16495300  0.25644273  0.24961003  1
  O2-  O230  1  0.16597402  0.25372981  0.49952060  1
  O2-  O231  1  0.16695439  0.25231680  0.75030507  1
  O2-  O232  1  0.16834457  0.58619993  0.00074767  1
  O2-  O233  1  0.16740365  0.58588208  0.25139089  1
  O2-  O234  1  0.16936108  0.58519004  0.50123866  1
  O2-  O235  1  0.16481459  0.58568276  0.75062607  1
  O2-  O236  1  0.16639117  0.92214412  0.00118303  1
  O2-  O237  1  0.16360017  0.92108646  0.24856623  1
  O2-  O238  1  0.17013829  0.91798832  0.50066890  1
  O2-  O239  1  0.16549973  0.92080742  0.74892505  1
  O2-  O240  1  0.66483449  0.25207346  0.00013007  1
  O2-  O241  1  0.66486450  0.25152672  0.25203277  1
  O2-  O242  1  0.66978564  0.25146226  0.50085544  1
  O2-  O243  1  0.66632820  0.25639272  0.74865234  1
  O2-  O244  1  0.66694193  0.58739622  0.00154386  1
  O2-  O245  1  0.66656966  0.58630539  0.24972482  1
  O2-  O246  1  0.66880048  0.58593729  0.50013942  1
  O2-  O247  1  0.66843135  0.58488448  0.74935675  1
  O2-  O248  1  0.66572123  0.92028621  0.00003459  1
  O2-  O249  1  0.66754773  0.91940495  0.25233354  1
  O2-  O250  1  0.66719192  0.91753723  0.49905373  1
  O2-  O251  1  0.66548282  0.91630173  0.74878853  1
  O2-  O252  1  0.33230418  0.08018582  0.00024079  1
  O2-  O253  1  0.33408531  0.08114044  0.24948335  1
  O2-  O254  1  0.33311032  0.07983539  0.50309300  1
  O2-  O255  1  0.33155913  0.08055506  0.74869828  1
  O2-  O256  1  0.33209641  0.41426553  0.00205323  1
  O2-  O257  1  0.32916920  0.41446187  0.24786004  1
  O2-  O258  1  0.33270995  0.41386436  0.50102598  1
  O2-  O259  1  0.33335805  0.41386067  0.74951929  1
  O2-  O260  1  0.33409385  0.74354934  0.00039072  1
  O2-  O261  1  0.33220376  0.74597512  0.24952927  1
  O2-  O262  1  0.33492880  0.74704021  0.49916164  1
  O2-  O263  1  0.33362538  0.74661905  0.75101420  1
  O2-  O264  1  0.83267796  0.08233309  -0.00081499  1
  O2-  O265  1  0.83221536  0.08239918  0.25137987  1
  O2-  O266  1  0.83171770  0.08321296  0.49969081  1
  O2-  O267  1  0.83319692  0.07919156  0.74936367  1
  O2-  O268  1  0.83324563  0.41216931  0.00108507  1
  O2-  O269  1  0.83423715  0.41528479  0.25052734  1
  O2-  O270  1  0.83001763  0.41342778  0.49978462  1
  O2-  O271  1  0.83238230  0.41376743  0.74960377  1
  O2-  O272  1  0.83537468  0.74612161  -0.00009919  1
  O2-  O273  1  0.83338273  0.74683964  0.25036187  1
  O2-  O274  1  0.83278179  0.74885969  0.50218203  1
  O2-  O275  1  0.83517568  0.74782497  0.74939001  1
  O2-  O276  1  0.04749052  0.90226073  0.23708759  1
  O2-  O277  1  0.04567874  0.89857329  0.98539809  1
  O2-  O278  1  0.55191757  0.90402156  0.24640290  1
  O2-  O279  1  0.54425352  0.23913876  0.52006570  1
  O2-  O280  1  0.54827530  0.23557073  0.48188032  1
  O2-  O281  1  0.55276160  0.90423872  0.25607980  1
  O2-  O282  1  0.53818590  0.76978801  0.46995671  1
  O2-  O283  1  0.94946724  0.76458661  0.73688079  1
  O2-  O284  1  0.05813876  0.41480325  0.97764039  1
  O2-  O285  1  0.55516322  0.92289510  0.45392860  1
  O2-  O286  1  0.95463873  0.76609566  0.26359181  1
  O2-  O287  1  0.04067949  0.56123983  0.03956871  1
  O2-  O288  1  0.04740277  0.43167000  0.48455741  1
  O2-  O289  1  0.04655944  0.90383749  0.76156479  1
  O2-  O290  1  0.04521986  0.23065583  0.75977358  1
  O2-  O291  1  0.45433749  0.23498068  0.26122029  1
  O2-  O292  1  0.04604500  0.09647234  0.23468903  1
  O2-  O293  1  0.94752069  0.43266285  0.23707663  1
  O2-  O294  1  0.55021499  0.57126363  0.26324071  1
  O2-  O295  1  0.95492503  0.57188285  0.73832370  1
  O2-  O296  1  0.04243615  0.43639240  0.26139729  1
  O2-  O297  1  0.54802882  0.09913001  0.52027333  1
  O2-  O298  1  0.95421928  0.42935601  0.76531027  1
  O2-  O299  1  0.54656762  0.75926125  0.26176253  1
  O2-  O300  1  0.04803905  0.09865637  0.51632471  1
  O2-  O301  1  0.04295242  0.77129613  0.77701124  1
  O2-  O302  1  0.54521067  0.23603032  0.98823557  1
  O2-  O303  1  0.95169759  0.23534461  0.23413899  1
  O2-  O304  1  0.54921368  0.43081651  0.98608497  1
  O2-  O305  1  0.04850986  0.23708582  0.23554919  1
  O2-  O306  1  0.02720686  0.12731746  0.99485118  1
  O2-  O307  1  0.47276830  0.44367055  0.24341192  1
  O2-  O308  1  0.45470759  0.56832334  0.73734516  1
  O2-  O309  1  0.46247524  0.89050676  0.71697484  1
  O2-  O310  1  0.95304988  0.10053662  0.51352974  1
  O2-  O311  1  0.04901563  0.57164698  0.23644919  1
  O2-  O312  1  0.45942528  0.88011268  0.24315636  1
  O2-  O313  1  0.54485707  0.09466922  0.48197283  1
  O2-  O314  1  0.45437455  0.76319121  0.01218979  1
  O2-  O315  1  0.54568132  0.09894283  0.23850446  1
  O2-  O316  1  0.45603834  0.88847255  0.22830660  1
  O2-  O317  1  0.04228021  0.43630651  0.26145109  1
  O2-  O318  1  0.44966769  0.57496578  0.26802946  1
  O2-  O319  1  0.45023777  0.57498176  0.22869566  1
  O2-  O320  1  0.95043030  0.56958020  0.98552153  1
  O2-  O321  1  0.02612734  0.87616480  0.50030607  1
  O2-  O322  1  0.45829389  0.44481934  0.03728262  1
  O2-  O323  1  0.53460548  0.78207783  0.75356995  1
  O2-  O324  1  0.55232484  0.90637108  0.45641519  1
  O2-  O325  1  0.94042208  0.40408588  0.21580725  1
  O2-  O326  1  0.93467967  0.26344581  0.78300122  1
  O2-  O327  1  0.93588875  0.07536626  0.27805972  1
  O2-  O328  1  0.06821985  0.72693660  0.70355531  1
  O2-  O329  1  0.93258882  0.25382290  0.56108511  1
  O2-  O330  1  0.43463803  0.73425652  0.71828454  1
  O2-  O331  1  0.06401546  0.26456633  0.46620202  1
  O2-  O332  1  0.56968352  0.93989901  0.57844660  1
  O2-  O333  1  0.93713339  0.07662155  0.52868508  1
  O2-  O334  1  0.41701577  0.38404824  0.28766237  1
  O2-  O335  1  0.56348772  0.59577327  0.71716606  1
  O2-  O336  1  0.93556230  0.40192541  0.96715834  1
  O2-  O337  1  0.93751243  0.92811388  0.03445955  1
  O2-  O338  1  0.06597440  0.74052236  0.47392714  1
  O2-  O339  1  0.06678039  0.73995236  0.27535312  1
  O2-  O340  1  0.56352713  0.58989029  0.56573178  1
  O2-  O341  1  0.08325074  0.04686728  0.96546352  1
  O2-  O342  1  0.93194884  0.25520279  0.43669809  1
  O2-  O343  1  0.56572943  0.40529756  0.27650967  1
  O2-  O344  1  0.05408787  0.42034667  0.98173195  1
  O2-  O345  1  0.93278457  0.92412235  0.70245115  1
  O2-  O346  1  0.93480428  0.73937899  0.47418785  1
  O2-  O347  1  0.06353542  0.06952008  0.71492371  1
  O2-  O348  1  0.06407567  0.26245883  0.03675304  1
  O2-  O349  1  0.93478672  0.92515712  0.27580730  1
  O2-  O350  1  0.06500413  0.59179677  0.47364611  1
  O2-  O351  1  0.43686633  0.07324224  0.78224537  1
  O2-  O352  1  0.56530647  0.59240903  0.97538750  1
  O2-  O353  1  0.56244853  0.93241447  0.78379073  1
  O2-  O354  1  0.08305705  0.95071494  0.46575793  1
  O2-  O355  1  0.43543578  0.73409727  0.28269231  1
  O2-  O356  1  0.06214246  0.59643921  0.21653680  1
  O2-  O357  1  0.07382628  0.38840801  0.20130247  1
  O2-  O358  1  0.07481963  0.60329101  0.95420091  1
  O2-  O359  1  0.56292301  0.59770786  0.43392756  1
  O2-  O360  1  0.43041156  0.93578536  0.80137797  1
  O2-  O361  1  0.57139663  0.72800268  0.55578723  1
  O2-  O362  1  0.43389091  0.07449256  0.02422054  1
  O2-  O363  1  0.93360429  0.92487576  0.79690740  1
  O2-  O364  1  0.93654973  0.07208622  0.03542279  1
  O2-  O365  1  0.56661190  0.07868478  0.05687435  1
  O2-  O366  1  0.93600657  0.07686370  0.72121762  1
  O2-  O367  1  0.41517105  0.96040452  0.29913643  1
  O2-  O368  1  0.57596971  0.72846576  0.78296584  1
  O2-  O369  1  0.42883792  0.38533889  0.94025855  1
  O2-  O370  1  0.93356430  0.40871025  0.47248329  1
  O2-  O371  1  0.56273708  0.06770697  0.93275871  1
  O2-  O372  1  0.75012524  -0.01017558  0.86040170  1
  O2-  O373  1  0.75001863  0.31901676  0.08663862  1
  O2-  O374  1  0.74990280  0.32255854  0.88567804  1
  O2-  O375  1  0.25015753  0.01637461  0.63660991  1
  O2-  O376  1  0.25003217  0.66270352  0.64419743  1
  O2-  O377  1  0.74971325  -0.01201983  0.66320013  1
  O2-  O378  1  0.74984121  0.33651983  0.17448486  1
  O2-  O379  1  0.24976140  -0.00273810  0.34870026  1
  O2-  O380  1  0.24983915  0.33273107  0.68410731  1
  O2-  O381  1  0.25012704  0.00291265  0.91723685  1
  O2-  O382  1  0.74989818  0.00518157  0.57344060  1
  O2-  O383  1  0.25003629  0.33224743  0.56763768  1
  O2-  O384  1  0.24976521  0.01985308  0.82786799  1
  O2-  O385  1  0.25003274  0.66676383  0.15185013  1
  O2-  O386  1  0.75011144  0.66125080  0.40550295  1
  O2-  O387  1  0.75007288  -0.00247087  0.15482482  1
  O2-  O388  1  0.24984517  0.33504982  0.40610203  1
  O2-  O389  1  0.74998360  0.66345605  0.82155400  1
  O2-  O390  1  0.74997231  0.68043517  0.08547572  1
  O2-  O391  1  0.74949691  -0.00142673  0.40895031  1
  O2-  O392  1  0.74999993  0.66769115  0.17811045  1
  O2-  O393  1  0.25013295  -0.00578947  0.14913987  1
  O2-  O394  1  0.24988724  0.33242486  0.84370373  1
  O2-  O395  1  0.75011985  0.68877459  0.90709096  1
  O2-  O396  1  0.74989797  0.50199713  0.18076748  1
  O2-  O397  1  0.74984752  0.50038792  0.92171331  1
  O2-  O398  1  0.25005987  0.49761219  0.83987166  1
  O2-  O399  1  0.75007855  0.16650931  0.08505330  1
  O2-  O400  1  0.74980785  0.49926675  0.58194645  1
  O2-  O401  1  0.74997264  0.83281039  0.12478253  1
  O2-  O402  1  0.75000896  0.49919719  0.83676730  1
  O2-  O403  1  0.25007826  0.15370519  0.39991092  1
  O2-  O404  1  0.24993685  0.50338150  0.41415499  1
  O2-  O405  1  0.74998220  0.83411949  0.87225096  1
  O2-  O406  1  0.25003730  0.50126904  0.15017664  1
  O2-  O407  1  0.25010241  0.16752293  0.90525996  1
  O2-  O408  1  0.24997032  0.15725752  0.15833286  1
  O2-  O409  1  0.25024559  0.17461216  0.07125450  1
  O2-  O410  1  0.74993967  0.83512736  0.65078901  1
  O2-  O411  1  0.75001686  0.16300821  0.85441367  1
  O2-  O412  1  0.25024086  0.49164690  0.06456819  1
  O2-  O413  1  0.25000296  0.83383316  0.88962461  1
  O2-  O414  1  0.75015274  0.83644673  0.41356830  1
  O2-  O415  1  0.75007953  0.16667063  0.16477137  1
  O2-  O416  1  0.74994716  0.50344033  0.34326550  1
  O2-  O417  1  0.25017701  0.83851975  0.58897739  1
  O2-  O418  1  0.25003110  0.49470366  0.65675001  1
  O2-  O419  1  0.25018119  0.82501726  0.36210866  1
  O2-  O420  1  0.02643990  0.33115583  0.86984496  1
  O2-  O421  1  0.52786851  0.33204039  0.87007455  1
  O2-  O422  1  0.02741621  -0.00065644  0.12422675  1
  O2-  O423  1  0.02309718  0.66848789  0.86989372  1
  O2-  O424  1  0.47039890  0.33075862  0.38671168  1
  O2-  O425  1  0.96238486  0.34068175  0.63513812  1
  O2-  O426  1  0.53414417  -0.01059599  0.13196932  1
  O2-  O427  1  0.96815568  0.65891030  0.37245515  1
  O2-  O428  1  0.97327838  0.66722123  0.61918820  1
  O2-  O429  1  0.02758345  -0.00204960  0.86692592  1
  O2-  O430  1  0.97138365  0.66771024  0.12530666  1
  O2-  O431  1  0.47225725  0.33636287  0.62357633  1
  O2-  O432  1  0.02659575  0.66180417  0.36984701  1
  O2-  O433  1  0.46264496  -0.00325814  0.12677233  1
  O2-  O434  1  0.52992803  0.33212391  0.37913263  1
  O2-  O435  1  0.98173366  -0.00526335  0.62102962  1
  O2-  O436  1  0.47505878  0.00531598  0.38238932  1
  O2-  O437  1  0.03343099  0.00688237  0.36710370  1
  O2-  O438  1  0.97032012  0.00661441  0.88138767  1
  O2-  O439  1  0.45713113  0.66787447  0.87521035  1
  O2-  O440  1  0.04333480  0.33288401  0.62452451  1
  O2-  O441  1  0.96680119  0.00062531  0.38506688  1
  O2-  O442  1  0.97703105  0.33671983  0.36607820  1
  O2-  O443  1  0.53370584  0.66596263  0.87926125  1
