# generated using pymatgen
data_La7(Ru4O11)2
_symmetry_space_group_name_H-M   'P 1'
_cell_length_a   23.99113577
_cell_length_b   16.83085121
_cell_length_c   15.42714216
_cell_angle_alpha   90.00106142
_cell_angle_beta   89.99956543
_cell_angle_gamma   89.99992367
_symmetry_Int_Tables_number   1
_chemical_formula_structural   La7(Ru4O11)2
_chemical_formula_sum   'La84 Ru96 O264'
_cell_volume   6229.34480992
_cell_formula_units_Z   12
loop_
 _symmetry_equiv_pos_site_id
 _symmetry_equiv_pos_as_xyz
  1  'x, y, z'
loop_
 _atom_type_symbol
 _atom_type_oxidation_number
  La3+  3.0
  Ru4+  4.0
  O2-  -2.0
loop_
 _atom_site_type_symbol
 _atom_site_label
 _atom_site_symmetry_multiplicity
 _atom_site_fract_x
 _atom_site_fract_y
 _atom_site_fract_z
 _atom_site_occupancy
  La3+  La0  1  0.13677731  0.00340346  0.12688278  1
  La3+  La1  1  0.14027217  0.00039631  0.37961420  1
  La3+  La2  1  0.14718630  -0.00041099  0.62426677  1
  La3+  La3  1  0.13855042  0.00006139  0.87136408  1
  La3+  La4  1  0.13974735  0.33426739  0.12438664  1
  La3+  La5  1  0.14291673  0.33268849  0.37801576  1
  La3+  La6  1  0.14490158  0.33518318  0.62016469  1
  La3+  La7  1  0.13889210  0.33439965  0.87572277  1
  La3+  La8  1  0.13791468  0.66414510  0.12309318  1
  La3+  La9  1  0.13896005  0.66679562  0.38116464  1
  La3+  La10  1  0.14489372  0.66864934  0.62016531  1
  La3+  La11  1  0.14053592  0.66545661  0.87464561  1
  La3+  La12  1  0.64010021  0.00218174  0.12722442  1
  La3+  La13  1  0.63657799  -0.00009859  0.37673551  1
  La3+  La14  1  0.64234013  0.00046574  0.62659896  1
  La3+  La15  1  0.63745245  0.00099464  0.87423690  1
  La3+  La16  1  0.64013653  0.33021507  0.12841682  1
  La3+  La17  1  0.64116610  0.33390055  0.37108896  1
  La3+  La18  1  0.64244079  0.33264895  0.62391966  1
  La3+  La19  1  0.63840898  0.33112612  0.87521916  1
  La3+  La20  1  0.63771161  0.66586545  0.12953899  1
  La3+  La21  1  0.63857744  0.66416207  0.37474421  1
  La3+  La22  1  0.63450914  0.66556544  0.62184162  1
  La3+  La23  1  0.63888802  0.66876635  0.87332384  1
  La3+  La24  1  0.36502823  0.00302222  0.12563481  1
  La3+  La25  1  0.35628662  -0.00047260  0.37734654  1
  La3+  La26  1  0.35382075  -0.00290851  0.62510110  1
  La3+  La27  1  0.36495199  0.00041806  0.87395849  1
  La3+  La28  1  0.35958475  0.33476380  0.12341923  1
  La3+  La29  1  0.35690872  0.33144043  0.38072915  1
  La3+  La30  1  0.35610837  0.33075807  0.61791402  1
  La3+  La31  1  0.35802271  0.33623304  0.87460686  1
  La3+  La32  1  0.36165065  0.66331553  0.12084082  1
  La3+  La33  1  0.36160808  0.66485827  0.38177395  1
  La3+  La34  1  0.35600226  0.66831071  0.62178985  1
  La3+  La35  1  0.35995053  0.66648681  0.87368444  1
  La3+  La36  1  0.86211790  0.00317077  0.12608155  1
  La3+  La37  1  0.86252972  -0.00076395  0.37633019  1
  La3+  La38  1  0.86189893  -0.00132898  0.62263811  1
  La3+  La39  1  0.86260246  0.00087941  0.87555252  1
  La3+  La40  1  0.85757354  0.32851352  0.12735085  1
  La3+  La41  1  0.85898418  0.33477876  0.37221914  1
  La3+  La42  1  0.85965758  0.33488962  0.62595193  1
  La3+  La43  1  0.86182161  0.33427749  0.87893630  1
  La3+  La44  1  0.86130071  0.66713782  0.12622398  1
  La3+  La45  1  0.86159015  0.66511321  0.37372069  1
  La3+  La46  1  0.86020599  0.66923040  0.62324838  1
  La3+  La47  1  0.86414093  0.66578397  0.87283549  1
  La3+  La48  1  0.50257309  0.82403795  0.37804460  1
  La3+  La49  1  0.50109112  0.16696431  0.13681293  1
  La3+  La50  1  0.50033513  0.50539430  0.37470485  1
  La3+  La51  1  0.50105323  0.16708511  0.61864269  1
  La3+  La52  1  -0.00035064  0.83295257  0.86715483  1
  La3+  La53  1  0.49539197  0.51304893  0.86913378  1
  La3+  La54  1  0.00058793  0.82972528  0.11919767  1
  La3+  La55  1  0.50194349  0.16601729  0.12006033  1
  La3+  La56  1  0.00103271  0.16737848  0.62978106  1
  La3+  La57  1  0.00502229  0.50169605  0.87778990  1
  La3+  La58  1  0.00018951  0.82939413  0.62591418  1
  La3+  La59  1  -0.00045713  0.49785744  0.13634056  1
  La3+  La60  1  0.00057452  0.16827688  0.61304243  1
  La3+  La61  1  0.49880857  0.49959561  0.13749532  1
  La3+  La62  1  -0.00050164  0.50428691  0.62727912  1
  La3+  La63  1  -0.00213386  0.16503432  0.87314091  1
  La3+  La64  1  0.49855963  0.83397513  0.11579921  1
  La3+  La65  1  0.50246387  0.50570244  0.63302005  1
  La3+  La66  1  -0.00295702  0.16257307  0.88945044  1
  La3+  La67  1  0.49992637  0.49601713  0.11554644  1
  La3+  La68  1  0.49976293  0.16574124  0.63559985  1
  La3+  La69  1  0.00986842  0.50349268  0.37705919  1
  La3+  La70  1  0.49938643  0.49763142  0.61271046  1
  La3+  La71  1  0.49509900  0.51195014  0.88578526  1
  La3+  La72  1  0.24979712  0.83252800  0.02726112  1
  La3+  La73  1  0.75051262  0.49805307  -0.04357114  1
  La3+  La74  1  0.75006271  0.16904907  0.26756638  1
  La3+  La75  1  0.25022788  0.84792729  0.20341796  1
  La3+  La76  1  0.25051262  0.13131698  0.72120571  1
  La3+  La77  1  0.74997501  0.12808635  0.71619613  1
  La3+  La78  1  0.24950242  0.43823394  0.25241144  1
  La3+  La79  1  0.75072803  0.77680768  0.27876653  1
  La3+  La80  1  0.25031424  0.83228280  0.73857180  1
  La3+  La81  1  0.75003004  0.79800252  0.74844691  1
  La3+  La82  1  0.75059386  0.88362215  0.50772840  1
  La3+  La83  1  0.74963304  0.78821112  -0.01757288  1
  Ru4+  Ru84  1  -0.00255573  0.00010301  0.00479219  1
  Ru4+  Ru85  1  0.00049161  -0.00531011  0.24667610  1
  Ru4+  Ru86  1  0.00153339  -0.00366006  0.49806006  1
  Ru4+  Ru87  1  -0.00223829  -0.00034341  0.74801081  1
  Ru4+  Ru88  1  0.00292984  0.32759399  0.00328622  1
  Ru4+  Ru89  1  0.00268103  0.32909082  0.25592851  1
  Ru4+  Ru90  1  0.00325961  0.32989410  0.49450859  1
  Ru4+  Ru91  1  0.00272487  0.33539998  0.75413932  1
  Ru4+  Ru92  1  -0.00043314  0.66850541  -0.00289085  1
  Ru4+  Ru93  1  0.00074881  0.66845447  0.25096644  1
  Ru4+  Ru94  1  -0.00453676  0.66918179  0.49598658  1
  Ru4+  Ru95  1  -0.00456189  0.66420059  0.75167416  1
  Ru4+  Ru96  1  0.50221666  -0.00837892  -0.00034229  1
  Ru4+  Ru97  1  0.50095283  0.00237977  0.25615467  1
  Ru4+  Ru98  1  0.50440165  0.00221973  0.50002026  1
  Ru4+  Ru99  1  0.49957135  -0.00838309  0.74370804  1
  Ru4+  Ru100  1  0.50040923  0.32949726  -0.00474695  1
  Ru4+  Ru101  1  0.50091431  0.32816512  0.25360396  1
  Ru4+  Ru102  1  0.50264748  0.33918547  0.49404742  1
  Ru4+  Ru103  1  0.50076250  0.33111499  0.75526234  1
  Ru4+  Ru104  1  0.49859320  0.67341903  -0.00087941  1
  Ru4+  Ru105  1  0.50041689  0.66701921  0.24774428  1
  Ru4+  Ru106  1  0.49665418  0.67346299  0.50132234  1
  Ru4+  Ru107  1  0.50146743  0.67132989  0.74478975  1
  Ru4+  Ru108  1  0.11202400  0.16959236  0.00006024  1
  Ru4+  Ru109  1  0.11211670  0.16845403  0.24862719  1
  Ru4+  Ru110  1  0.11525810  0.16603225  0.49949067  1
  Ru4+  Ru111  1  0.11359991  0.16571868  0.74976694  1
  Ru4+  Ru112  1  0.11624180  0.49798693  0.00103220  1
  Ru4+  Ru113  1  0.11022528  0.49914799  0.24940583  1
  Ru4+  Ru114  1  0.11603956  0.50021190  0.49995320  1
  Ru4+  Ru115  1  0.11297698  0.49918224  0.74929257  1
  Ru4+  Ru116  1  0.10926142  0.83308570  -0.00164942  1
  Ru4+  Ru117  1  0.10912106  0.83429523  0.25051135  1
  Ru4+  Ru118  1  0.11211269  0.83597502  0.50128320  1
  Ru4+  Ru119  1  0.11204575  0.83136082  0.75012976  1
  Ru4+  Ru120  1  0.61411091  0.16925430  -0.00149232  1
  Ru4+  Ru121  1  0.61153804  0.16558441  0.25227231  1
  Ru4+  Ru122  1  0.61271214  0.16733738  0.50171401  1
  Ru4+  Ru123  1  0.60959593  0.16617304  0.74924431  1
  Ru4+  Ru124  1  0.61285214  0.49756573  0.00111650  1
  Ru4+  Ru125  1  0.61631888  0.50088849  0.25045645  1
  Ru4+  Ru126  1  0.61663615  0.49480726  0.49880293  1
  Ru4+  Ru127  1  0.61543449  0.49866531  0.74963697  1
  Ru4+  Ru128  1  0.60880760  0.83262195  -0.00060648  1
  Ru4+  Ru129  1  0.61043985  0.83429947  0.24968439  1
  Ru4+  Ru130  1  0.61301892  0.82989295  0.50009951  1
  Ru4+  Ru131  1  0.60559183  0.83293622  0.74821244  1
  Ru4+  Ru132  1  0.38432132  0.17179925  -0.00345749  1
  Ru4+  Ru133  1  0.38589818  0.16346237  0.25182153  1
  Ru4+  Ru134  1  0.38265275  0.16215101  0.49984831  1
  Ru4+  Ru135  1  0.38841061  0.16510011  0.74929471  1
  Ru4+  Ru136  1  0.38316573  0.49981372  -0.00006956  1
  Ru4+  Ru137  1  0.38854176  0.49992023  0.25011445  1
  Ru4+  Ru138  1  0.38425555  0.50128866  0.49959863  1
  Ru4+  Ru139  1  0.38405690  0.50204390  0.75005430  1
  Ru4+  Ru140  1  0.39017612  0.83364380  -0.00355798  1
  Ru4+  Ru141  1  0.39038045  0.83484693  0.24899415  1
  Ru4+  Ru142  1  0.38385471  0.83252230  0.50265564  1
  Ru4+  Ru143  1  0.39071311  0.83573564  0.75118630  1
  Ru4+  Ru144  1  0.88692631  0.16905685  0.00190027  1
  Ru4+  Ru145  1  0.88662963  0.16721820  0.24993955  1
  Ru4+  Ru146  1  0.88781716  0.16524557  0.49909544  1
  Ru4+  Ru147  1  0.88861817  0.16246241  0.74993814  1
  Ru4+  Ru148  1  0.88644432  0.50009435  0.00339995  1
  Ru4+  Ru149  1  0.88326552  0.50070022  0.24804112  1
  Ru4+  Ru150  1  0.88576078  0.50350724  0.49969263  1
  Ru4+  Ru151  1  0.88800452  0.50236418  0.74897945  1
  Ru4+  Ru152  1  0.88900820  0.83070145  0.00088480  1
  Ru4+  Ru153  1  0.89004830  0.83543880  0.25115634  1
  Ru4+  Ru154  1  0.89100430  0.83401545  0.49732366  1
  Ru4+  Ru155  1  0.88934775  0.83005479  0.75019254  1
  Ru4+  Ru156  1  0.74910608  0.57690588  0.48959554  1
  Ru4+  Ru157  1  0.24979213  0.96550980  -0.00783982  1
  Ru4+  Ru158  1  0.74985389  0.94035775  0.25440815  1
  Ru4+  Ru159  1  0.74999342  0.42393251  0.48459576  1
  Ru4+  Ru160  1  0.74993283  0.57769123  0.74570000  1
  Ru4+  Ru161  1  0.24978491  0.09681942  -0.00600942  1
  Ru4+  Ru162  1  0.24972938  0.25273883  0.25374268  1
  Ru4+  Ru163  1  0.25006519  0.73016485  0.26678036  1
  Ru4+  Ru164  1  0.75014230  0.94404368  0.00112178  1
  Ru4+  Ru165  1  0.24992054  0.42349524  0.75628143  1
  Ru4+  Ru166  1  0.75011377  0.94290366  0.75150840  1
  Ru4+  Ru167  1  0.24983535  0.58107380  0.75433083  1
  Ru4+  Ru168  1  0.25010192  0.70869497  -0.03569117  1
  Ru4+  Ru169  1  0.24999731  0.27805072  0.73506217  1
  Ru4+  Ru170  1  0.74991043  0.08527178  0.49649585  1
  Ru4+  Ru171  1  0.24971981  0.24507898  -0.00363325  1
  Ru4+  Ru172  1  0.75029909  0.72219325  0.49610157  1
  Ru4+  Ru173  1  0.74973490  0.36769856  0.01735384  1
  Ru4+  Ru174  1  0.75006463  0.08855881  0.01040203  1
  Ru4+  Ru175  1  0.75007709  0.26887666  0.76568174  1
  Ru4+  Ru176  1  0.74998140  0.24668644  0.48814270  1
  Ru4+  Ru177  1  0.74996273  0.61869250  0.03326549  1
  Ru4+  Ru178  1  0.24995163  0.97849406  0.23466835  1
  Ru4+  Ru179  1  0.24990439  0.57879558  0.25190474  1
  O2-  O180  1  0.16686414  0.07973193  -0.00036445  1
  O2-  O181  1  0.16498040  0.08172985  0.24846045  1
  O2-  O182  1  0.16503734  0.08249295  0.49834784  1
  O2-  O183  1  0.16510733  0.07891587  0.75350293  1
  O2-  O184  1  0.16749720  0.41511533  -0.00044551  1
  O2-  O185  1  0.15843737  0.41043308  0.25011878  1
  O2-  O186  1  0.16385576  0.41619104  0.49804332  1
  O2-  O187  1  0.16820535  0.41490238  0.75052506  1
  O2-  O188  1  0.16794416  0.74482108  -0.00010980  1
  O2-  O189  1  0.16612025  0.74502539  0.24996924  1
  O2-  O190  1  0.16398590  0.75100502  0.49750375  1
  O2-  O191  1  0.16573001  0.74763878  0.75083304  1
  O2-  O192  1  0.66664523  0.08028071  -0.00047317  1
  O2-  O193  1  0.66702929  0.08066625  0.25217770  1
  O2-  O194  1  0.66608969  0.08190244  0.49938758  1
  O2-  O195  1  0.66424784  0.07831668  0.75369895  1
  O2-  O196  1  0.66991803  0.41193046  -0.00053491  1
  O2-  O197  1  0.66463498  0.41459349  0.24834701  1
  O2-  O198  1  0.66752081  0.41271960  0.49778083  1
  O2-  O199  1  0.66786740  0.41675920  0.75322314  1
  O2-  O200  1  0.66135808  0.74432309  0.00144067  1
  O2-  O201  1  0.66358385  0.74574776  0.24517143  1
  O2-  O202  1  0.66931454  0.74683792  0.50059827  1
  O2-  O203  1  0.66183171  0.74544252  0.75031158  1
  O2-  O204  1  0.32887317  0.25109231  -0.00002342  1
  O2-  O205  1  0.33188683  0.25197695  0.25095493  1
  O2-  O206  1  0.33527639  0.25077189  0.49777061  1
  O2-  O207  1  0.33396380  0.25347230  0.74962218  1
  O2-  O208  1  0.33436304  0.58542513  -0.00090197  1
  O2-  O209  1  0.33536530  0.58734247  0.25036284  1
  O2-  O210  1  0.33358401  0.58343485  0.49983005  1
  O2-  O211  1  0.33169463  0.58526748  0.74955866  1
  O2-  O212  1  0.33339161  0.92169384  0.00156272  1
  O2-  O213  1  0.33289677  0.92000844  0.24750735  1
  O2-  O214  1  0.33356489  0.91583876  0.49774676  1
  O2-  O215  1  0.33292968  0.91826689  0.75461282  1
  O2-  O216  1  0.83279243  0.25130004  -0.00191159  1
  O2-  O217  1  0.83448873  0.25133152  0.25154797  1
  O2-  O218  1  0.83344237  0.25193129  0.49916783  1
  O2-  O219  1  0.83312151  0.25448380  0.75233537  1
  O2-  O220  1  0.83404612  0.58799376  -0.00078307  1
  O2-  O221  1  0.83255913  0.58352716  0.24986725  1
  O2-  O222  1  0.83042154  0.58575205  0.49960273  1
  O2-  O223  1  0.83094737  0.58384962  0.74978587  1
  O2-  O224  1  0.83333256  0.92127907  -0.00112872  1
  O2-  O225  1  0.83176910  0.92055187  0.25104225  1
  O2-  O226  1  0.83846508  0.92155462  0.50139730  1
  O2-  O227  1  0.83203237  0.92187196  0.75005295  1
  O2-  O228  1  0.16761018  0.25232979  -0.00026562  1
  O2-  O229  1  0.17050587  0.25104830  0.25134749  1
  O2-  O230  1  0.16291033  0.25017466  0.49831222  1
  O2-  O231  1  0.16778795  0.25388604  0.74958321  1
  O2-  O232  1  0.16287891  0.58501900  -0.00085118  1
  O2-  O233  1  0.16477173  0.58772364  0.25038382  1
  O2-  O234  1  0.16392680  0.58461420  0.49849209  1
  O2-  O235  1  0.16570483  0.58463336  0.75013337  1
  O2-  O236  1  0.16485465  0.92217498  0.00163606  1
  O2-  O237  1  0.16609817  0.92100957  0.24863662  1
  O2-  O238  1  0.16645448  0.91482522  0.49693531  1
  O2-  O239  1  0.16723620  0.91945150  0.75370703  1
  O2-  O240  1  0.66651571  0.25236512  0.00083436  1
  O2-  O241  1  0.66683542  0.25199020  0.25065059  1
  O2-  O242  1  0.66812713  0.25166025  0.49728817  1
  O2-  O243  1  0.66669670  0.25361387  0.75119611  1
  O2-  O244  1  0.66559247  0.58792578  0.00025476  1
  O2-  O245  1  0.66473447  0.58671028  0.24622779  1
  O2-  O246  1  0.66838272  0.58557196  0.49971820  1
  O2-  O247  1  0.66720989  0.58509205  0.74921036  1
  O2-  O248  1  0.66703474  0.92063828  -0.00076114  1
  O2-  O249  1  0.66786571  0.92040030  0.25070945  1
  O2-  O250  1  0.66300437  0.92000585  0.49815018  1
  O2-  O251  1  0.66732125  0.91943872  0.75162196  1
  O2-  O252  1  0.33369207  0.08179279  -0.00046685  1
  O2-  O253  1  0.33294607  0.08164320  0.24752370  1
  O2-  O254  1  0.33113716  0.08484305  0.49797643  1
  O2-  O255  1  0.33467294  0.07934494  0.75485122  1
  O2-  O256  1  0.33271743  0.41398875  0.00044058  1
  O2-  O257  1  0.33946351  0.41001225  0.25137550  1
  O2-  O258  1  0.33682519  0.41548891  0.49897308  1
  O2-  O259  1  0.33213910  0.41555823  0.74872807  1
  O2-  O260  1  0.33302640  0.74647099  0.00141721  1
  O2-  O261  1  0.33540225  0.74485441  0.25013423  1
  O2-  O262  1  0.33615838  0.74834579  0.49863430  1
  O2-  O263  1  0.33510912  0.74891639  0.75023114  1
  O2-  O264  1  0.83205518  0.08034787  -0.00045131  1
  O2-  O265  1  0.83472739  0.08029179  0.25118293  1
  O2-  O266  1  0.83319880  0.08190447  0.49992390  1
  O2-  O267  1  0.83552318  0.07748633  0.75100409  1
  O2-  O268  1  0.82835114  0.41241707  -0.00304348  1
  O2-  O269  1  0.83297586  0.41666105  0.25034307  1
  O2-  O270  1  0.83107720  0.41470156  0.49850425  1
  O2-  O271  1  0.83543543  0.41679390  0.75171949  1
  O2-  O272  1  0.83595533  0.74515453  -0.00055498  1
  O2-  O273  1  0.83869431  0.74619820  0.24635554  1
  O2-  O274  1  0.83099501  0.74714615  0.49947848  1
  O2-  O275  1  0.83726000  0.74469032  0.75068791  1
  O2-  O276  1  0.53726668  0.44105875  0.96846421  1
  O2-  O277  1  0.45166842  0.09299984  0.26293961  1
  O2-  O278  1  0.95955973  0.43723984  0.49058219  1
  O2-  O279  1  0.54979016  0.09220491  0.25944326  1
  O2-  O280  1  0.04877104  0.90153546  0.73843480  1
  O2-  O281  1  0.44989162  0.24367055  0.52252811  1
  O2-  O282  1  0.04517293  0.56759356  0.51271247  1
  O2-  O283  1  0.45504437  0.09458426  0.98344936  1
  O2-  O284  1  0.54572696  0.43357723  0.26208875  1
  O2-  O285  1  0.45347681  0.24288213  0.48368370  1
  O2-  O286  1  0.44799501  0.23898397  0.23219468  1
  O2-  O287  1  0.54492443  0.56787290  0.51081775  1
  O2-  O288  1  0.54993399  0.23707327  0.24390435  1
  O2-  O289  1  0.54642883  0.76145861  0.74122849  1
  O2-  O290  1  0.02794414  0.87237354  0.49526133  1
  O2-  O291  1  0.95476520  0.23361212  0.51525015  1
  O2-  O292  1  0.95953718  0.43724727  0.49082998  1
  O2-  O293  1  0.95973956  0.44004126  0.97695048  1
  O2-  O294  1  0.45212097  0.08961957  0.02206447  1
  O2-  O295  1  0.04696209  0.09586438  0.98863274  1
  O2-  O296  1  0.47186295  0.10880861  0.50544667  1
  O2-  O297  1  0.45321858  0.76781202  0.26008661  1
  O2-  O298  1  0.44802378  0.89889882  0.46726557  1
  O2-  O299  1  0.05829892  0.24618046  0.79470029  1
  O2-  O300  1  0.55298434  0.23369061  0.98596268  1
  O2-  O301  1  0.55062609  0.90916289  0.73634621  1
  O2-  O302  1  0.95198512  0.09473786  0.48688268  1
  O2-  O303  1  0.95476924  0.42801735  0.76522308  1
  O2-  O304  1  0.96151125  0.43597809  0.27479998  1
  O2-  O305  1  0.46805457  0.22082106  0.99884405  1
  O2-  O306  1  0.54632501  0.88541811  0.47120237  1
  O2-  O307  1  0.47407360  0.11323646  0.48768563  1
  O2-  O308  1  0.45350904  0.44833766  0.77788424  1
  O2-  O309  1  0.95013844  0.90159682  0.73971515  1
  O2-  O310  1  0.96372628  0.55966405  0.28020158  1
  O2-  O311  1  0.54801667  0.57686503  0.99098176  1
  O2-  O312  1  0.95160061  0.23664803  0.76181546  1
  O2-  O313  1  0.45355265  0.76492894  0.51153733  1
  O2-  O314  1  0.97218048  0.46107918  0.00210993  1
  O2-  O315  1  0.94504261  0.57727755  0.80524489  1
  O2-  O316  1  0.53269317  0.88624703  0.50356791  1
  O2-  O317  1  0.54673242  0.76021684  0.98563393  1
  O2-  O318  1  0.04722324  0.10146234  0.48969326  1
  O2-  O319  1  0.54755696  0.90605866  0.01363340  1
  O2-  O320  1  0.95518620  0.89954033  0.01018170  1
  O2-  O321  1  0.54601191  0.44999908  0.78314218  1
  O2-  O322  1  0.54740458  0.23665269  0.25310543  1
  O2-  O323  1  0.44946326  0.90036463  0.76713411  1
  O2-  O324  1  0.07627413  0.96124031  0.54780083  1
  O2-  O325  1  0.56312575  0.26241473  0.53479910  1
  O2-  O326  1  0.43092942  0.38181985  0.68467783  1
  O2-  O327  1  0.06313288  0.73408637  0.53327266  1
  O2-  O328  1  0.92236865  0.59477721  0.66948276  1
  O2-  O329  1  0.93418215  0.74201566  0.02708106  1
  O2-  O330  1  0.43531701  0.92938862  0.96804520  1
  O2-  O331  1  0.56713106  0.73950334  0.47273346  1
  O2-  O332  1  0.43762932  0.40434348  0.21701627  1
  O2-  O333  1  0.43529719  0.59213215  0.47400025  1
  O2-  O334  1  0.56579415  0.74108738  0.27472445  1
  O2-  O335  1  0.42594277  0.04836540  0.42207205  1
  O2-  O336  1  0.43800889  0.40795691  0.03627713  1
  O2-  O337  1  0.43787640  0.93074569  0.21489513  1
  O2-  O338  1  0.92611957  0.39971246  0.20729191  1
  O2-  O339  1  0.06181160  0.07058861  0.78508881  1
  O2-  O340  1  0.43719580  0.07628970  0.72619892  1
  O2-  O341  1  0.43786622  0.59417396  0.03585671  1
  O2-  O342  1  0.56454427  0.58347547  0.52863784  1
  O2-  O343  1  0.56904253  0.38173901  0.68522629  1
  O2-  O344  1  0.41690735  0.06374964  0.57403820  1
  O2-  O345  1  0.06275472  0.93176221  0.28083050  1
  O2-  O346  1  0.06968278  0.26416790  0.65654342  1
  O2-  O347  1  0.57860666  0.96938560  0.55985666  1
  O2-  O348  1  0.90989411  0.38136199  0.04936902  1
  O2-  O349  1  0.43551409  0.73875604  0.96803761  1
  O2-  O350  1  0.06650102  0.41089995  0.80775765  1
  O2-  O351  1  0.56605200  0.92054628  0.31011161  1
  O2-  O352  1  0.06339169  0.41128226  0.68589004  1
  O2-  O353  1  0.93322112  0.07441180  0.02463451  1
  O2-  O354  1  0.42762160  0.92948241  0.54483780  1
  O2-  O355  1  0.93775695  0.25315059  0.02148245  1
  O2-  O356  1  0.93364061  0.59251636  0.47113914  1
  O2-  O357  1  0.93529040  0.93171719  0.46950916  1
  O2-  O358  1  0.95133627  0.57124583  0.78903439  1
  O2-  O359  1  0.57888152  0.39333660  0.05420340  1
  O2-  O360  1  0.06458998  0.74234997  0.22564177  1
  O2-  O361  1  0.06627598  0.25743271  0.22715670  1
  O2-  O362  1  0.56261613  0.92826894  0.18079085  1
  O2-  O363  1  0.41450949  0.28175192  0.96595793  1
  O2-  O364  1  0.93504492  0.74493335  0.47470908  1
  O2-  O365  1  0.92046905  0.39350543  0.54267541  1
  O2-  O366  1  0.06524266  0.40721023  0.02595204  1
  O2-  O367  1  0.93651011  0.93058526  0.28132058  1
  O2-  O368  1  0.05116340  0.23347038  0.79352440  1
  O2-  O369  1  0.43651304  0.59993516  0.78439981  1
  O2-  O370  1  0.92242994  0.60346072  0.20099429  1
  O2-  O371  1  0.06396653  0.73836293  0.96590928  1
  O2-  O372  1  0.74962296  0.66578975  0.80677156  1
  O2-  O373  1  0.25034321  0.33041995  0.61327404  1
  O2-  O374  1  0.75009080  0.00296170  0.59804673  1
  O2-  O375  1  0.75009321  0.00273006  0.40287413  1
  O2-  O376  1  0.24986039  0.33518554  0.85113077  1
  O2-  O377  1  0.25059659  0.32874587  0.38767567  1
  O2-  O378  1  0.24970103  0.00069644  0.58185914  1
  O2-  O379  1  0.74969061  0.66679292  0.35950996  1
  O2-  O380  1  0.25001343  -0.00282042  0.67251728  1
  O2-  O381  1  0.74987110  0.67154716  0.92653189  1
  O2-  O382  1  0.24957958  0.66468902  0.60729764  1
  O2-  O383  1  0.75008788  0.00073343  0.14808594  1
  O2-  O384  1  0.25008398  0.66823127  0.43895821  1
  O2-  O385  1  0.24970492  0.65073336  0.06114525  1
  O2-  O386  1  0.25009237  0.65190430  0.35281041  1
  O2-  O387  1  0.24963592  0.02011259  0.34315604  1
  O2-  O388  1  0.24992169  0.66402337  0.17015715  1
  O2-  O389  1  0.75011148  0.34158033  0.68274605  1
  O2-  O390  1  0.24974711  -0.00384617  0.42708642  1
  O2-  O391  1  0.25001111  0.32819307  0.15614343  1
  O2-  O392  1  0.75008896  0.33426985  0.56042519  1
  O2-  O393  1  0.75004418  0.32801336  0.36066788  1
  O2-  O394  1  0.75020862  0.33212432  0.89821558  1
  O2-  O395  1  0.24973063  0.66622626  0.84307897  1
  O2-  O396  1  0.74973174  0.17058999  0.93725635  1
  O2-  O397  1  0.24992138  0.83093708  0.88873011  1
  O2-  O398  1  0.75010856  0.16397757  0.13127345  1
  O2-  O399  1  0.24994339  0.83247904  0.59710875  1
  O2-  O400  1  0.74990311  0.50177866  0.58961729  1
  O2-  O401  1  0.25006095  0.51290416  0.13719804  1
  O2-  O402  1  0.24969781  0.17084842  0.59671060  1
  O2-  O403  1  0.24983518  0.16964240  0.87323787  1
  O2-  O404  1  0.25022503  0.83254639  0.43303495  1
  O2-  O405  1  0.74973773  0.49944228  0.36182397  1
  O2-  O406  1  0.74964785  0.83498312  0.38895092  1
  O2-  O407  1  0.25013275  0.83043284  0.34803881  1
  O2-  O408  1  0.74980817  0.84689843  0.17487939  1
  O2-  O409  1  0.75022841  0.85326872  0.08932658  1
  O2-  O410  1  0.25013250  0.50036738  0.89007100  1
  O2-  O411  1  0.24992833  0.50074580  0.66863783  1
  O2-  O412  1  0.24985539  0.16821779  0.09400287  1
  O2-  O413  1  0.74996343  0.85739175  0.86947516  1
  O2-  O414  1  0.24985811  0.50043885  0.58182263  1
  O2-  O415  1  0.24999189  0.51296070  0.36530621  1
  O2-  O416  1  0.74994816  0.17030058  0.58376285  1
  O2-  O417  1  0.74996050  0.17290551  0.84794977  1
  O2-  O418  1  0.74977863  0.50357770  0.10325067  1
  O2-  O419  1  0.74980834  0.82074973  0.62005349  1
  O2-  O420  1  0.98061750  0.66996864  0.36741895  1
  O2-  O421  1  0.97456633  0.32434906  0.12919477  1
  O2-  O422  1  0.97698211  -0.00225518  0.13084705  1
  O2-  O423  1  0.45609742  0.66136928  0.62658620  1
  O2-  O424  1  0.52563490  0.00736418  0.38461745  1
  O2-  O425  1  0.97330225  0.00087178  0.87566456  1
  O2-  O426  1  0.52748185  0.33740841  0.37903259  1
  O2-  O427  1  0.04319499  0.33670432  0.37643901  1
  O2-  O428  1  0.46225368  0.33750335  0.86772845  1
  O2-  O429  1  0.97545625  0.32682773  0.63271584  1
  O2-  O430  1  0.01988668  0.33315135  0.88851602  1
  O2-  O431  1  0.98030997  0.67698969  0.61876674  1
  O2-  O432  1  0.54100380  0.66951883  0.63058579  1
  O2-  O433  1  0.52066671  0.32749725  0.12869058  1
  O2-  O434  1  0.97277282  0.00359063  0.62552477  1
  O2-  O435  1  0.46588940  0.67003520  0.37121195  1
  O2-  O436  1  0.97441575  0.66877459  0.12202953  1
  O2-  O437  1  0.03036609  0.33645878  0.12849125  1
  O2-  O438  1  0.97643386  0.67928261  0.88319283  1
  O2-  O439  1  0.53105900  0.65548976  0.37806890  1
  O2-  O440  1  0.48364230  -0.00431845  0.63085846  1
  O2-  O441  1  0.95796808  0.32728212  0.37204521  1
  O2-  O442  1  0.54417699  0.32932428  0.86915386  1
  O2-  O443  1  0.03297898  0.65838741  0.11972373  1
