# generated using pymatgen
data_La7(Ru4O11)2
_symmetry_space_group_name_H-M   'P 1'
_cell_length_a   23.99662574
_cell_length_b   16.83680137
_cell_length_c   15.43230085
_cell_angle_alpha   90.00196356
_cell_angle_beta   89.99553477
_cell_angle_gamma   90.00081847
_symmetry_Int_Tables_number   1
_chemical_formula_structural   La7(Ru4O11)2
_chemical_formula_sum   'La84 Ru96 O264'
_cell_volume   6235.05725970
_cell_formula_units_Z   12
loop_
 _symmetry_equiv_pos_site_id
 _symmetry_equiv_pos_as_xyz
  1  'x, y, z'
loop_
 _atom_type_symbol
 _atom_type_oxidation_number
  La3+  3.0
  Ru4+  4.0
  O2-  -2.0
loop_
 _atom_site_type_symbol
 _atom_site_label
 _atom_site_symmetry_multiplicity
 _atom_site_fract_x
 _atom_site_fract_y
 _atom_site_fract_z
 _atom_site_occupancy
  La3+  La0  1  0.14960058  0.00185018  0.11956013  1
  La3+  La1  1  0.15248313  0.00175929  0.37853800  1
  La3+  La2  1  0.15339946  0.00604291  0.61900305  1
  La3+  La3  1  0.14955395  -0.00662839  0.87985554  1
  La3+  La4  1  0.12899413  0.33727771  0.12549726  1
  La3+  La5  1  0.13566081  0.33215054  0.37325057  1
  La3+  La6  1  0.13577288  0.33121571  0.61788115  1
  La3+  La7  1  0.14174869  0.33924189  0.87420858  1
  La3+  La8  1  0.14652106  0.67788903  0.12322450  1
  La3+  La9  1  0.14510519  0.66622967  0.37681922  1
  La3+  La10  1  0.14050583  0.66284027  0.62617598  1
  La3+  La11  1  0.13930438  0.66704502  0.87603360  1
  La3+  La12  1  0.64623477  0.01620830  0.12631510  1
  La3+  La13  1  0.63491855  -0.00068657  0.36847317  1
  La3+  La14  1  0.64182198  -0.00394782  0.62075250  1
  La3+  La15  1  0.62904529  0.00997957  0.87792797  1
  La3+  La16  1  0.63856812  0.32455512  0.12635752  1
  La3+  La17  1  0.64343145  0.33729973  0.37688882  1
  La3+  La18  1  0.64371215  0.33722784  0.62596434  1
  La3+  La19  1  0.64156200  0.33074855  0.88086573  1
  La3+  La20  1  0.62527265  0.66982463  0.12580642  1
  La3+  La21  1  0.64112687  0.66655693  0.37546315  1
  La3+  La22  1  0.64150087  0.66962989  0.61663442  1
  La3+  La23  1  0.64049454  0.66754414  0.87657617  1
  La3+  La24  1  0.35608997  -0.00694889  0.12681062  1
  La3+  La25  1  0.36013387  0.00399466  0.37567359  1
  La3+  La26  1  0.35191386  0.00776501  0.61337967  1
  La3+  La27  1  0.35124479  -0.00008251  0.88441313  1
  La3+  La28  1  0.36151323  0.34356531  0.13044621  1
  La3+  La29  1  0.36232387  0.33737067  0.37717539  1
  La3+  La30  1  0.35926963  0.32837212  0.61749416  1
  La3+  La31  1  0.35342981  0.34009841  0.87698842  1
  La3+  La32  1  0.34982196  0.66904842  0.12122609  1
  La3+  La33  1  0.35534988  0.66699444  0.37338707  1
  La3+  La34  1  0.35698160  0.66365573  0.62250366  1
  La3+  La35  1  0.35655955  0.66764541  0.88051277  1
  La3+  La36  1  0.85356271  0.00764882  0.12550326  1
  La3+  La37  1  0.86378647  -0.00033707  0.37501273  1
  La3+  La38  1  0.86130055  -0.00287461  0.62298483  1
  La3+  La39  1  0.86608931  0.00661206  0.87760510  1
  La3+  La40  1  0.85899514  0.33134164  0.12994122  1
  La3+  La41  1  0.86284354  0.33824116  0.37251000  1
  La3+  La42  1  0.86352284  0.33982619  0.62648659  1
  La3+  La43  1  0.85557016  0.33787922  0.87028733  1
  La3+  La44  1  0.86850771  0.67134345  0.12335688  1
  La3+  La45  1  0.85510226  0.66790058  0.37507649  1
  La3+  La46  1  0.85234654  0.66847469  0.62330591  1
  La3+  La47  1  0.84641551  0.67279227  0.87816791  1
  La3+  La48  1  0.49695169  0.50347874  0.35655551  1
  La3+  La49  1  -0.00033019  0.16573907  0.37257698  1
  La3+  La50  1  0.00404609  0.48843661  0.36331580  1
  La3+  La51  1  0.01141911  0.82203671  0.85819404  1
  La3+  La52  1  0.49902761  0.83213258  0.88718347  1
  La3+  La53  1  0.49552954  0.15107597  0.61754786  1
  La3+  La54  1  -0.00077824  0.17199176  0.12418364  1
  La3+  La55  1  -0.00292852  0.17286608  0.14061420  1
  La3+  La56  1  -0.00354243  0.49421196  0.38141697  1
  La3+  La57  1  -0.00008917  0.50528886  0.11432859  1
  La3+  La58  1  0.49461602  0.16402691  0.36179298  1
  La3+  La59  1  0.49690925  0.82389992  0.61112958  1
  La3+  La60  1  0.49119873  0.16196683  0.63562220  1
  La3+  La61  1  0.00090034  0.16509581  0.86092502  1
  La3+  La62  1  0.00519361  0.49818167  0.63849201  1
  La3+  La63  1  0.50722267  0.83028584  0.86885405  1
  La3+  La64  1  0.50036058  0.15445233  0.13173846  1
  La3+  La65  1  0.50372172  0.16400304  0.37971060  1
  La3+  La66  1  -0.00079324  0.82934868  0.62424848  1
  La3+  La67  1  -0.01254514  0.83010241  0.10234032  1
  La3+  La68  1  0.00461961  0.16254008  0.39334672  1
  La3+  La69  1  -0.00026372  0.83819494  0.37076233  1
  La3+  La70  1  0.50908317  0.50779016  0.89058461  1
  La3+  La71  1  0.00087322  0.16448298  0.87763389  1
  La3+  La72  1  0.75004426  0.17656550  0.25200578  1
  La3+  La73  1  0.74932344  0.52260795  -0.02035444  1
  La3+  La74  1  0.25195845  0.13208624  0.19955104  1
  La3+  La75  1  0.75078617  0.83423713  0.24886592  1
  La3+  La76  1  0.24990074  0.13000724  0.78714919  1
  La3+  La77  1  0.25264458  0.89969819  0.71893753  1
  La3+  La78  1  0.74947246  0.82289726  0.45547786  1
  La3+  La79  1  0.75085568  0.88745858  -0.01236005  1
  La3+  La80  1  0.75229971  0.16875752  0.48271126  1
  La3+  La81  1  0.74476616  0.53669419  0.20307538  1
  La3+  La82  1  0.24898467  0.42874700  0.71274870  1
  La3+  La83  1  0.74693726  0.90182193  0.76084433  1
  Ru4+  Ru84  1  0.01456393  -0.00011051  0.00688875  1
  Ru4+  Ru85  1  0.00497604  -0.01562617  0.25530715  1
  Ru4+  Ru86  1  -0.00096051  -0.00848160  0.49362688  1
  Ru4+  Ru87  1  -0.00105852  0.00417446  0.74417735  1
  Ru4+  Ru88  1  -0.00291237  0.34002260  -0.00573731  1
  Ru4+  Ru89  1  0.00107213  0.33471280  0.24459376  1
  Ru4+  Ru90  1  0.00551385  0.32829030  0.51687833  1
  Ru4+  Ru91  1  0.00058173  0.33549064  0.75645803  1
  Ru4+  Ru92  1  0.01465964  0.65167336  -0.00903317  1
  Ru4+  Ru93  1  -0.00824817  0.66954800  0.23677624  1
  Ru4+  Ru94  1  -0.00676027  0.65779237  0.50477287  1
  Ru4+  Ru95  1  -0.01262825  0.63846760  0.77021825  1
  Ru4+  Ru96  1  0.49914733  0.00492428  -0.00233593  1
  Ru4+  Ru97  1  0.50206385  -0.02567699  0.26755137  1
  Ru4+  Ru98  1  0.49864242  -0.01572406  0.48909216  1
  Ru4+  Ru99  1  0.50170557  -0.00534866  0.73682725  1
  Ru4+  Ru100  1  0.49978582  0.33245179  0.00599032  1
  Ru4+  Ru101  1  0.49298665  0.33331048  0.24773129  1
  Ru4+  Ru102  1  0.50593633  0.34913444  0.48671264  1
  Ru4+  Ru103  1  0.49209177  0.34849145  0.74636378  1
  Ru4+  Ru104  1  0.50209178  0.66160268  0.00861880  1
  Ru4+  Ru105  1  0.48553487  0.67749801  0.26595618  1
  Ru4+  Ru106  1  0.50540188  0.66467625  0.48222853  1
  Ru4+  Ru107  1  0.49402576  0.66302241  0.72991953  1
  Ru4+  Ru108  1  0.11555514  0.16304517  0.00095054  1
  Ru4+  Ru109  1  0.11992577  0.15837116  0.24204906  1
  Ru4+  Ru110  1  0.11433257  0.17959204  0.51930754  1
  Ru4+  Ru111  1  0.10661477  0.16992216  0.74712741  1
  Ru4+  Ru112  1  0.10675703  0.50586484  0.00433400  1
  Ru4+  Ru113  1  0.11674868  0.50193624  0.24568191  1
  Ru4+  Ru114  1  0.12069990  0.50324636  0.50787552  1
  Ru4+  Ru115  1  0.10628823  0.50133656  0.75261801  1
  Ru4+  Ru116  1  0.10810101  0.84153289  0.00494317  1
  Ru4+  Ru117  1  0.10801434  0.83587288  0.25607822  1
  Ru4+  Ru118  1  0.11356518  0.83375451  0.49925284  1
  Ru4+  Ru119  1  0.10896386  0.83646022  0.75155913  1
  Ru4+  Ru120  1  0.61468373  0.17482488  -0.00409822  1
  Ru4+  Ru121  1  0.61711253  0.16884332  0.24596144  1
  Ru4+  Ru122  1  0.61648994  0.16798085  0.50630330  1
  Ru4+  Ru123  1  0.61295952  0.17072140  0.75261165  1
  Ru4+  Ru124  1  0.60796329  0.49865474  -0.00021176  1
  Ru4+  Ru125  1  0.60387626  0.49067663  0.23968752  1
  Ru4+  Ru126  1  0.60566555  0.49051723  0.51351164  1
  Ru4+  Ru127  1  0.61256947  0.49599305  0.75192454  1
  Ru4+  Ru128  1  0.61147305  0.83283548  0.00406737  1
  Ru4+  Ru129  1  0.60433647  0.84960361  0.24502168  1
  Ru4+  Ru130  1  0.61076886  0.83208601  0.49851451  1
  Ru4+  Ru131  1  0.60412224  0.83107479  0.75055808  1
  Ru4+  Ru132  1  0.39724958  0.17862218  -0.00317826  1
  Ru4+  Ru133  1  0.38368731  0.16809429  0.24643315  1
  Ru4+  Ru134  1  0.37689539  0.17189702  0.49813595  1
  Ru4+  Ru135  1  0.39143275  0.16871859  0.75168789  1
  Ru4+  Ru136  1  0.39189103  0.49432075  0.00012970  1
  Ru4+  Ru137  1  0.38872582  0.50376939  0.24776276  1
  Ru4+  Ru138  1  0.38410519  0.49533821  0.50052970  1
  Ru4+  Ru139  1  0.39763227  0.49633575  0.74142160  1
  Ru4+  Ru140  1  0.38714446  0.82954160  0.00146080  1
  Ru4+  Ru141  1  0.40006504  0.82222075  0.24123567  1
  Ru4+  Ru142  1  0.38911176  0.83502074  0.50108050  1
  Ru4+  Ru143  1  0.39207585  0.83664824  0.74848342  1
  Ru4+  Ru144  1  0.88055523  0.16612781  -0.00175769  1
  Ru4+  Ru145  1  0.88466767  0.16745119  0.24639196  1
  Ru4+  Ru146  1  0.89065338  0.16862708  0.51108777  1
  Ru4+  Ru147  1  0.89203891  0.16321190  0.75175465  1
  Ru4+  Ru148  1  0.89236128  0.49612152  -0.00120249  1
  Ru4+  Ru149  1  0.88402516  0.51631283  0.24636936  1
  Ru4+  Ru150  1  0.88808572  0.50763735  0.50637057  1
  Ru4+  Ru151  1  0.89715627  0.50350557  0.75746490  1
  Ru4+  Ru152  1  0.89361876  0.83605559  0.00040122  1
  Ru4+  Ru153  1  0.89277243  0.82595190  0.24812421  1
  Ru4+  Ru154  1  0.88871990  0.83418600  0.50026033  1
  Ru4+  Ru155  1  0.89088480  0.82984351  0.73846411  1
  Ru4+  Ru156  1  0.75068969  0.01350061  0.50987034  1
  Ru4+  Ru157  1  0.25074367  0.75623225  0.49687841  1
  Ru4+  Ru158  1  0.25000203  0.75724560  0.25740277  1
  Ru4+  Ru159  1  0.74997038  0.56328745  0.74090627  1
  Ru4+  Ru160  1  0.24720297  0.23856830  0.00985079  1
  Ru4+  Ru161  1  0.75244645  0.99490865  0.26276756  1
  Ru4+  Ru162  1  0.75175067  0.37043388  0.01194089  1
  Ru4+  Ru163  1  0.24998686  0.58487772  0.25202526  1
  Ru4+  Ru164  1  0.75059754  0.09431385  0.73823611  1
  Ru4+  Ru165  1  0.24784010  0.41183302  0.03070763  1
  Ru4+  Ru166  1  0.75117318  0.24005081  0.74500956  1
  Ru4+  Ru167  1  0.75056750  0.73564051  0.02676312  1
  Ru4+  Ru168  1  0.25023644  0.41871358  0.24638231  1
  Ru4+  Ru169  1  0.24841124  0.58710563  0.02016710  1
  Ru4+  Ru170  1  0.74829340  0.69079101  0.23161524  1
  Ru4+  Ru171  1  0.25145356  0.58131520  0.74013567  1
  Ru4+  Ru172  1  0.25182097  0.90235180  0.25356154  1
  Ru4+  Ru173  1  0.75151555  0.31866363  0.50010286  1
  Ru4+  Ru174  1  0.74721784  0.58255912  0.50761488  1
  Ru4+  Ru175  1  0.25000619  0.75607860  0.75073420  1
  Ru4+  Ru176  1  0.24932404  0.26193431  0.71592812  1
  Ru4+  Ru177  1  0.74751515  0.73850947  0.74387940  1
  Ru4+  Ru178  1  0.75194919  0.39467783  0.26098196  1
  Ru4+  Ru179  1  0.24870151  0.27425262  0.27330842  1
  O2-  O180  1  0.17103046  0.08661938  -0.00359984  1
  O2-  O181  1  0.17117756  0.07685654  0.25087109  1
  O2-  O182  1  0.15667825  0.08858497  0.50172638  1
  O2-  O183  1  0.16136030  0.08152211  0.75108120  1
  O2-  O184  1  0.16349365  0.41798072  0.00655238  1
  O2-  O185  1  0.16971446  0.41499587  0.24301240  1
  O2-  O186  1  0.16567080  0.41091087  0.50045553  1
  O2-  O187  1  0.15683103  0.41278591  0.74948814  1
  O2-  O188  1  0.15657773  0.75328756  -0.00254030  1
  O2-  O189  1  0.16421095  0.75100272  0.25515654  1
  O2-  O190  1  0.16626011  0.74793262  0.49978882  1
  O2-  O191  1  0.16381709  0.74831005  0.74978915  1
  O2-  O192  1  0.66012210  0.08204262  -0.00732260  1
  O2-  O193  1  0.67303913  0.07975236  0.26010504  1
  O2-  O194  1  0.67238075  0.07850598  0.49605886  1
  O2-  O195  1  0.66603605  0.08094001  0.74820721  1
  O2-  O196  1  0.67225674  0.41202286  0.00666594  1
  O2-  O197  1  0.67058144  0.41580940  0.23995338  1
  O2-  O198  1  0.66652971  0.41523319  0.50285814  1
  O2-  O199  1  0.66257124  0.41290353  0.75177565  1
  O2-  O200  1  0.66829763  0.74920229  0.00724822  1
  O2-  O201  1  0.65954252  0.75173643  0.24641906  1
  O2-  O202  1  0.67139906  0.75047054  0.49120352  1
  O2-  O203  1  0.66248510  0.74436227  0.74893728  1
  O2-  O204  1  0.32491553  0.24468141  0.00637627  1
  O2-  O205  1  0.32899428  0.25695138  0.25101987  1
  O2-  O206  1  0.33008099  0.25749828  0.49711699  1
  O2-  O207  1  0.33465280  0.25195926  0.74560994  1
  O2-  O208  1  0.33398447  0.58203586  0.00316672  1
  O2-  O209  1  0.33268047  0.58577171  0.24991450  1
  O2-  O210  1  0.34281942  0.58624452  0.49848694  1
  O2-  O211  1  0.33939139  0.58229566  0.74901114  1
  O2-  O212  1  0.34109429  0.91795217  0.00153471  1
  O2-  O213  1  0.33628393  0.90918040  0.25308053  1
  O2-  O214  1  0.33971263  0.91634690  0.49846491  1
  O2-  O215  1  0.34698509  0.92687704  0.75058867  1
  O2-  O216  1  0.83708652  0.25738896  0.00311649  1
  O2-  O217  1  0.83385083  0.25547179  0.25132333  1
  O2-  O218  1  0.83095313  0.25912896  0.49848899  1
  O2-  O219  1  0.83405306  0.25323924  0.74619127  1
  O2-  O220  1  0.84095530  0.58327233  0.00861751  1
  O2-  O221  1  0.82709637  0.59530585  0.24501122  1
  O2-  O222  1  0.83008482  0.58702435  0.49839018  1
  O2-  O223  1  0.83203798  0.57879494  0.74658718  1
  O2-  O224  1  0.84336670  0.92626241  -0.00105538  1
  O2-  O225  1  0.83072189  0.92169746  0.25238085  1
  O2-  O226  1  0.82888544  0.92195921  0.49451324  1
  O2-  O227  1  0.84209959  0.92291380  0.75531086  1
  O2-  O228  1  0.16450833  0.25206300  0.00279357  1
  O2-  O229  1  0.16694199  0.25359709  0.24815249  1
  O2-  O230  1  0.17107811  0.25647567  0.50242657  1
  O2-  O231  1  0.16383621  0.25173904  0.74889384  1
  O2-  O232  1  0.16506083  0.58552820  0.00065477  1
  O2-  O233  1  0.16704197  0.58849879  0.24926971  1
  O2-  O234  1  0.16588304  0.58772853  0.49909625  1
  O2-  O235  1  0.16538990  0.58386960  0.74896345  1
  O2-  O236  1  0.16681063  0.91405554  -0.00230823  1
  O2-  O237  1  0.16670157  0.91406049  0.24457709  1
  O2-  O238  1  0.16408666  0.91451697  0.50181065  1
  O2-  O239  1  0.15998675  0.92279612  0.74670494  1
  O2-  O240  1  0.66988816  0.25278603  0.00537822  1
  O2-  O241  1  0.66712139  0.25660820  0.25266776  1
  O2-  O242  1  0.67218509  0.25488671  0.50323157  1
  O2-  O243  1  0.66840098  0.25133018  0.75177248  1
  O2-  O244  1  0.65734714  0.58691302  0.00709191  1
  O2-  O245  1  0.65673516  0.58582944  0.24494369  1
  O2-  O246  1  0.66220038  0.58159229  0.49966987  1
  O2-  O247  1  0.66295818  0.58384285  0.74616349  1
  O2-  O248  1  0.65917727  0.92699827  -0.00133420  1
  O2-  O249  1  0.67737038  0.91838162  0.25855898  1
  O2-  O250  1  0.66817133  0.92036553  0.49125513  1
  O2-  O251  1  0.65252588  0.92780706  0.75397376  1
  O2-  O252  1  0.34796328  0.09121918  0.00184263  1
  O2-  O253  1  0.33214387  0.07867311  0.24805154  1
  O2-  O254  1  0.33200832  0.08393742  0.49752614  1
  O2-  O255  1  0.34013671  0.08021157  0.75138069  1
  O2-  O256  1  0.33167638  0.41403782  0.00985195  1
  O2-  O257  1  0.33008712  0.42032211  0.25541955  1
  O2-  O258  1  0.33261387  0.41317377  0.50218044  1
  O2-  O259  1  0.34318147  0.41382348  0.74768384  1
  O2-  O260  1  0.33470623  0.75020651  0.00022134  1
  O2-  O261  1  0.33154411  0.75193690  0.25507305  1
  O2-  O262  1  0.33592646  0.75012783  0.49915278  1
  O2-  O263  1  0.33648927  0.74832220  0.75023234  1
  O2-  O264  1  0.83401727  0.07618611  -0.00300576  1
  O2-  O265  1  0.82696191  0.07620514  0.25553392  1
  O2-  O266  1  0.83219407  0.07987687  0.50032334  1
  O2-  O267  1  0.83520636  0.08214481  0.74930204  1
  O2-  O268  1  0.83159908  0.41283130  0.00386148  1
  O2-  O269  1  0.83594693  0.41889415  0.24944133  1
  O2-  O270  1  0.83775669  0.41541749  0.50343857  1
  O2-  O271  1  0.83849964  0.42235673  0.74273673  1
  O2-  O272  1  0.83404641  0.75107158  0.00837900  1
  O2-  O273  1  0.83374865  0.74663504  0.24690626  1
  O2-  O274  1  0.83116814  0.75234623  0.49155650  1
  O2-  O275  1  0.83165749  0.74835762  0.75200490  1
  O2-  O276  1  0.45662398  0.09870132  0.49049559  1
  O2-  O277  1  0.94278731  0.91553732  0.53038020  1
  O2-  O278  1  0.54575917  0.10374409  0.74871515  1
  O2-  O279  1  0.95575998  0.75942893  0.49627809  1
  O2-  O280  1  0.04174374  0.87918541  0.20322393  1
  O2-  O281  1  0.47659535  0.16580570  -0.00492913  1
  O2-  O282  1  0.95724652  0.43116478  0.23362246  1
  O2-  O283  1  0.95303086  0.24238848  0.50523624  1
  O2-  O284  1  0.05718842  0.40685884  0.04021695  1
  O2-  O285  1  0.54595897  0.57610770  0.51471936  1
  O2-  O286  1  0.55564596  0.09233050  0.49786826  1
  O2-  O287  1  0.45315288  0.57293550  0.24633827  1
  O2-  O288  1  0.44473469  0.24192918  0.23689860  1
  O2-  O289  1  0.46310029  0.44829291  0.78586970  1
  O2-  O290  1  0.44992907  0.43449255  0.49416755  1
  O2-  O291  1  0.94537864  0.90632582  0.24009267  1
  O2-  O292  1  0.95368994  0.08600953  0.52097845  1
  O2-  O293  1  0.95747520  0.23197183  0.73894169  1
  O2-  O294  1  0.55190054  0.23941020  0.53414653  1
  O2-  O295  1  0.54541524  0.89603540  0.50611514  1
  O2-  O296  1  0.04048862  0.10149469  0.73442692  1
  O2-  O297  1  0.98322882  0.52369350  0.78371457  1
  O2-  O298  1  0.54513683  0.89935998  0.99452996  1
  O2-  O299  1  0.94253317  0.43481161  0.26527233  1
  O2-  O300  1  0.95049400  0.23459230  0.99506416  1
  O2-  O301  1  0.44717770  0.24275953  0.51144667  1
  O2-  O302  1  0.95164060  0.09148200  0.00855652  1
  O2-  O303  1  0.54244249  0.08912435  0.25047495  1
  O2-  O304  1  0.05085065  0.76069242  0.72505496  1
  O2-  O305  1  0.04768614  0.57246313  0.25023558  1
  O2-  O306  1  0.94877562  0.42210082  0.52022199  1
  O2-  O307  1  0.55044691  0.44093453  0.44889526  1
  O2-  O308  1  0.04549220  0.89505316  0.49162392  1
  O2-  O309  1  0.04919716  0.23952077  0.01416238  1
  O2-  O310  1  0.53659062  0.47654732  0.19382888  1
  O2-  O311  1  0.03592965  0.90375546  0.95635279  1
  O2-  O312  1  0.53046416  0.86625769  0.26756762  1
  O2-  O313  1  0.05443297  0.43125824  0.50378018  1
  O2-  O314  1  0.04305195  0.22727942  0.25109234  1
  O2-  O315  1  0.55361945  0.23945843  0.23083051  1
  O2-  O316  1  0.06206830  0.08599098  0.05959936  1
  O2-  O317  1  0.47202802  0.78673657  0.27105025  1
  O2-  O318  1  0.95050409  0.24366685  0.49606388  1
  O2-  O319  1  0.45189857  0.57587271  0.74107160  1
  O2-  O320  1  0.02811201  0.54760926  0.95639694  1
  O2-  O321  1  0.45624328  0.76320878  0.76004165  1
  O2-  O322  1  0.94170813  0.76428093  0.79954070  1
  O2-  O323  1  0.04650527  0.75968591  0.01365497  1
  O2-  O324  1  0.05483596  0.73677009  0.28479797  1
  O2-  O325  1  0.43394994  0.41261925  0.26827301  1
  O2-  O326  1  0.06086876  0.24288623  0.27299735  1
  O2-  O327  1  0.43442587  0.08339115  0.48313479  1
  O2-  O328  1  0.41102226  0.23862416  0.89978093  1
  O2-  O329  1  0.05972046  0.25991198  0.58545285  1
  O2-  O330  1  0.92670489  0.62447677  0.84143241  1
  O2-  O331  1  0.56406082  0.73878745  0.97693927  1
  O2-  O332  1  0.94247251  0.59053599  0.56881002  1
  O2-  O333  1  0.41855565  0.70559143  0.20162826  1
  O2-  O334  1  0.06932515  0.40121023  0.25877532  1
  O2-  O335  1  0.92761500  0.59410623  0.69372496  1
  O2-  O336  1  0.44135972  0.24692120  0.23061098  1
  O2-  O337  1  0.56326783  0.26190816  0.98582924  1
  O2-  O338  1  0.55823947  0.41409970  0.98297602  1
  O2-  O339  1  0.92954852  0.57803174  0.16564315  1
  O2-  O340  1  0.94195370  0.07792804  0.25619715  1
  O2-  O341  1  0.43821396  0.36965413  0.66606980  1
  O2-  O342  1  0.05720349  0.07689980  0.22454551  1
  O2-  O343  1  0.07256694  0.60260418  0.07365383  1
  O2-  O344  1  0.57559931  0.40237868  0.30144107  1
  O2-  O345  1  0.93475256  0.59965227  0.43515594  1
  O2-  O346  1  0.93758921  0.60736506  0.30236584  1
  O2-  O347  1  0.93707852  0.26376134  0.27446214  1
  O2-  O348  1  0.07328897  0.93432295  0.07657857  1
  O2-  O349  1  0.07282398  0.24676712  0.43177982  1
  O2-  O350  1  0.44131996  0.07848823  0.26739369  1
  O2-  O351  1  0.44158931  0.58990575  0.97008517  1
  O2-  O352  1  0.42933094  0.42355031  0.92549940  1
  O2-  O353  1  0.56272372  0.08646598  0.22740049  1
  O2-  O354  1  0.06175849  0.59790415  0.71351457  1
  O2-  O355  1  0.43643844  0.42763641  0.06823112  1
  O2-  O356  1  0.93287006  0.39884204  0.76153251  1
  O2-  O357  1  0.05928072  0.40535176  0.77907871  1
  O2-  O358  1  0.58501561  0.95663943  0.21953903  1
  O2-  O359  1  0.56157823  0.74262490  0.52493432  1
  O2-  O360  1  0.42062611  0.26392429  0.06553294  1
  O2-  O361  1  0.05946441  0.59606226  0.53068381  1
  O2-  O362  1  0.94386945  0.92545616  0.71551124  1
  O2-  O363  1  0.56375202  0.38615133  0.57920482  1
  O2-  O364  1  0.05794243  0.92991158  0.77800615  1
  O2-  O365  1  0.05947147  0.06027633  0.89488099  1
  O2-  O366  1  0.05383031  0.09341642  0.05083605  1
  O2-  O367  1  0.92399950  0.75268054  0.65523976  1
  O2-  O368  1  0.43196254  0.92493171  0.22493192  1
  O2-  O369  1  0.05713458  0.40923579  0.02055023  1
  O2-  O370  1  0.44155836  0.74186461  0.96033388  1
  O2-  O371  1  0.07557414  0.92632830  0.32359063  1
  O2-  O372  1  0.75328378  0.31451717  0.36587672  1
  O2-  O373  1  0.24826842  0.68417075  0.37891521  1
  O2-  O374  1  0.24992877  0.67741505  0.96603127  1
  O2-  O375  1  0.24874737  0.67407391  0.66945361  1
  O2-  O376  1  0.25269495  0.00777108  0.08307530  1
  O2-  O377  1  0.75210182  -0.01001839  0.13634664  1
  O2-  O378  1  0.24917439  0.66483964  0.15123474  1
  O2-  O379  1  0.25293285  -0.00586744  0.17439917  1
  O2-  O380  1  0.24707582  0.33268228  0.94866724  1
  O2-  O381  1  0.74643021  0.65165034  0.81646795  1
  O2-  O382  1  0.25184432  -0.00262470  0.82487715  1
  O2-  O383  1  0.25153595  0.66060325  0.53652993  1
  O2-  O384  1  0.75129923  0.34515922  0.14051016  1
  O2-  O385  1  0.75210013  0.00644477  0.64734329  1
  O2-  O386  1  0.24713069  -0.00060915  0.62436990  1
  O2-  O387  1  0.24897594  0.32828687  0.81547745  1
  O2-  O388  1  0.25085792  0.66723134  0.82716242  1
  O2-  O389  1  0.25130988  -0.00499806  0.41588441  1
  O2-  O390  1  0.25179233  0.00313155  0.32555492  1
  O2-  O391  1  0.74985349  0.65171591  0.95337781  1
  O2-  O392  1  0.74722082  0.65442228  0.61102281  1
  O2-  O393  1  0.75055786  0.33883129  0.89346494  1
  O2-  O394  1  0.25353441  0.00899012  0.91763429  1
  O2-  O395  1  0.74925751  0.67170551  0.36242784  1
  O2-  O396  1  0.75215381  0.80996738  0.65514265  1
  O2-  O397  1  0.75046177  0.81927793  0.11090362  1
  O2-  O398  1  0.74996167  0.49320266  0.45848323  1
  O2-  O399  1  0.75005105  0.17259482  0.63091675  1
  O2-  O400  1  0.24925417  0.17876604  0.34241973  1
  O2-  O401  1  0.25016890  0.82901236  0.15787799  1
  O2-  O402  1  0.25043805  0.80787011  0.60816146  1
  O2-  O403  1  0.25113980  0.51084066  0.82785179  1
  O2-  O404  1  0.75072225  0.16388480  0.91675377  1
  O2-  O405  1  0.74966057  0.16325160  0.12837275  1
  O2-  O406  1  0.74964762  0.16361830  0.82932051  1
  O2-  O407  1  0.25084420  0.82744622  0.85284965  1
  O2-  O408  1  0.24820512  0.50069051  0.32719299  1
  O2-  O409  1  0.24958658  0.17925373  0.64099677  1
  O2-  O410  1  0.25100413  0.83188933  0.94018972  1
  O2-  O411  1  0.74847191  0.86088270  0.58623290  1
  O2-  O412  1  0.25015126  0.49416425  0.41428824  1
  O2-  O413  1  0.24994605  0.49668719  0.95859751  1
  O2-  O414  1  0.75060628  0.48437103  0.32860816  1
  O2-  O415  1  0.25086604  0.53110375  0.62695065  1
  O2-  O416  1  0.74974858  0.80403090  0.86767474  1
  O2-  O417  1  0.24932105  0.17261624  0.42825587  1
  O2-  O418  1  0.24914638  0.83293576  0.35159139  1
  O2-  O419  1  0.74860910  0.50153640  0.83901718  1
  O2-  O420  1  0.55264784  0.66218830  0.65924430  1
  O2-  O421  1  0.54507870  0.00368887  0.37336426  1
  O2-  O422  1  0.50478190  0.33686231  0.12417060  1
  O2-  O423  1  0.03389808  0.67736447  0.87053004  1
  O2-  O424  1  0.45568281  0.67946922  0.60169396  1
  O2-  O425  1  0.52511554  -0.00222838  0.86943562  1
  O2-  O426  1  0.95751642  -0.02164654  0.37926259  1
  O2-  O427  1  0.52347258  0.65748735  0.85975925  1
  O2-  O428  1  0.55178560  0.29402556  0.39439667  1
  O2-  O429  1  0.04993057  0.04378481  0.40662457  1
  O2-  O430  1  0.00731741  0.34846308  0.38167234  1
  O2-  O431  1  0.45652070  -0.02905145  0.38205173  1
  O2-  O432  1  0.54039791  0.33924764  0.84519565  1
  O2-  O433  1  0.45456670  0.01140694  0.10069932  1
  O2-  O434  1  0.97838411  0.68907164  0.11015364  1
  O2-  O435  1  0.54762890  -0.00216085  0.62997846  1
  O2-  O436  1  0.45144094  0.00035629  0.62605564  1
  O2-  O437  1  0.47994465  0.31741397  0.87345180  1
  O2-  O438  1  0.45841222  0.32347041  0.37990412  1
  O2-  O439  1  0.45066272  0.66954541  0.38890970  1
  O2-  O440  1  0.54660919  0.66091004  0.36096187  1
  O2-  O441  1  0.53939455  0.01436444  0.10066485  1
  O2-  O442  1  0.97505285  0.31923958  0.87814290  1
  O2-  O443  1  0.52575308  0.66676535  0.13070819  1
