# generated using pymatgen
data_La7(Ru4O11)2
_symmetry_space_group_name_H-M   'P 1'
_cell_length_a   23.99562856
_cell_length_b   16.83636803
_cell_length_c   15.43466809
_cell_angle_alpha   90.00606680
_cell_angle_beta   89.99748529
_cell_angle_gamma   90.00031859
_symmetry_Int_Tables_number   1
_chemical_formula_structural   La7(Ru4O11)2
_chemical_formula_sum   'La84 Ru96 O264'
_cell_volume   6235.59403538
_cell_formula_units_Z   12
loop_
 _symmetry_equiv_pos_site_id
 _symmetry_equiv_pos_as_xyz
  1  'x, y, z'
loop_
 _atom_type_symbol
 _atom_type_oxidation_number
  La3+  3.0
  Ru4+  4.0
  O2-  -2.0
loop_
 _atom_site_type_symbol
 _atom_site_label
 _atom_site_symmetry_multiplicity
 _atom_site_fract_x
 _atom_site_fract_y
 _atom_site_fract_z
 _atom_site_occupancy
  La3+  La0  1  0.14803985  -0.00675814  0.13027830  1
  La3+  La1  1  0.13734648  -0.00387084  0.37528421  1
  La3+  La2  1  0.13698916  0.00110859  0.62536189  1
  La3+  La3  1  0.14427551  0.00259702  0.87020322  1
  La3+  La4  1  0.13480450  0.33578277  0.12884016  1
  La3+  La5  1  0.13823252  0.33228668  0.37420416  1
  La3+  La6  1  0.14753763  0.33493658  0.62831041  1
  La3+  La7  1  0.14391138  0.33894991  0.86866747  1
  La3+  La8  1  0.14162317  0.66246388  0.12600034  1
  La3+  La9  1  0.14517325  0.67990612  0.36688483  1
  La3+  La10  1  0.13962371  0.65762878  0.62212017  1
  La3+  La11  1  0.13915556  0.66014794  0.86845558  1
  La3+  La12  1  0.64048375  0.01022917  0.12207425  1
  La3+  La13  1  0.63387323  0.00507575  0.36635349  1
  La3+  La14  1  0.63274030  0.00439244  0.62576414  1
  La3+  La15  1  0.64331911  0.00192588  0.87832805  1
  La3+  La16  1  0.63809797  0.33007265  0.11970725  1
  La3+  La17  1  0.64621467  0.32832809  0.37547829  1
  La3+  La18  1  0.63503084  0.33119567  0.62569979  1
  La3+  La19  1  0.65324792  0.33778576  0.87873494  1
  La3+  La20  1  0.63825115  0.65697776  0.12148998  1
  La3+  La21  1  0.63926318  0.67331705  0.36896095  1
  La3+  La22  1  0.64473200  0.66590788  0.63111321  1
  La3+  La23  1  0.64380209  0.66525018  0.87758908  1
  La3+  La24  1  0.36006648  -0.00243858  0.13050117  1
  La3+  La25  1  0.36694647  -0.00111446  0.37278367  1
  La3+  La26  1  0.34803539  0.00104064  0.62878673  1
  La3+  La27  1  0.36222522  -0.00518369  0.87036258  1
  La3+  La28  1  0.36920943  0.34715508  0.13116115  1
  La3+  La29  1  0.36560009  0.33237777  0.36827786  1
  La3+  La30  1  0.35335647  0.32792035  0.63566509  1
  La3+  La31  1  0.36305946  0.32912539  0.87223385  1
  La3+  La32  1  0.36055624  0.66378908  0.12632547  1
  La3+  La33  1  0.36383747  0.67172890  0.37298712  1
  La3+  La34  1  0.35950729  0.66186091  0.62826828  1
  La3+  La35  1  0.36394834  0.65922157  0.87498226  1
  La3+  La36  1  0.86179611  0.00344328  0.12827944  1
  La3+  La37  1  0.86357760  0.00664758  0.37612675  1
  La3+  La38  1  0.85612106  0.01699001  0.62494903  1
  La3+  La39  1  0.85226819  0.00410471  0.87386329  1
  La3+  La40  1  0.86317737  0.33740986  0.11650465  1
  La3+  La41  1  0.85378045  0.33212827  0.37206345  1
  La3+  La42  1  0.85494608  0.34266136  0.62445885  1
  La3+  La43  1  0.84501172  0.33286797  0.87217317  1
  La3+  La44  1  0.86328226  0.66496684  0.12159250  1
  La3+  La45  1  0.85907429  0.66374334  0.38319365  1
  La3+  La46  1  0.85655168  0.66490460  0.63260874  1
  La3+  La47  1  0.85206284  0.66064395  0.87038717  1
  La3+  La48  1  -0.00326729  0.17716405  0.87713131  1
  La3+  La49  1  0.51677205  0.18337380  0.88538746  1
  La3+  La50  1  0.00262919  0.84190710  0.59633250  1
  La3+  La51  1  0.00434632  0.17967238  0.86644608  1
  La3+  La52  1  0.01054598  0.84269711  0.12698236  1
  La3+  La53  1  0.01101992  0.51505163  0.13784706  1
  La3+  La54  1  0.00194140  0.83647568  0.85714662  1
  La3+  La55  1  0.49919087  0.83374196  0.88287188  1
  La3+  La56  1  0.50429454  0.18203366  0.35855457  1
  La3+  La57  1  -0.00614528  0.83471887  0.60332700  1
  La3+  La58  1  0.49831902  0.83732651  0.61531064  1
  La3+  La59  1  -0.00048083  0.16799605  0.14017353  1
  La3+  La60  1  0.50136071  0.49600252  0.35671241  1
  La3+  La61  1  0.00276000  0.82810946  0.87746440  1
  La3+  La62  1  0.50176417  0.83356342  0.86697060  1
  La3+  La63  1  0.49337747  0.49970013  0.37455801  1
  La3+  La64  1  0.50175490  0.83863184  0.12514351  1
  La3+  La65  1  -0.00173298  0.15945313  0.12009222  1
  La3+  La66  1  0.49755238  0.16417545  0.63044089  1
  La3+  La67  1  0.00335384  0.16773588  0.37996831  1
  La3+  La68  1  0.49541187  0.49886703  0.62178843  1
  La3+  La69  1  -0.00504258  0.49183230  0.86214233  1
  La3+  La70  1  0.49332470  0.50217004  0.87245329  1
  La3+  La71  1  0.51664794  0.17144119  0.87516929  1
  La3+  La72  1  0.75081020  0.16494134  0.00228505  1
  La3+  La73  1  0.24936889  0.83694699  0.58135476  1
  La3+  La74  1  0.74334148  0.90563366  0.48578813  1
  La3+  La75  1  0.74153702  0.18895679  0.77179074  1
  La3+  La76  1  0.74955806  0.17481421  0.23796356  1
  La3+  La77  1  0.74956096  0.45240926  0.29905609  1
  La3+  La78  1  0.75389225  0.17539163  0.47378559  1
  La3+  La79  1  0.25235346  0.44363952  0.46683559  1
  La3+  La80  1  0.75208832  0.89851868  0.01735653  1
  La3+  La81  1  0.25041212  0.17443143  0.08330832  1
  La3+  La82  1  0.25146818  0.82437983  0.09942207  1
  La3+  La83  1  0.75242554  0.84832930  0.26768666  1
  Ru4+  Ru84  1  0.00455618  0.00356928  0.00219991  1
  Ru4+  Ru85  1  -0.01000306  -0.00826857  0.25589736  1
  Ru4+  Ru86  1  0.00517447  0.00706919  0.49740344  1
  Ru4+  Ru87  1  -0.00011601  -0.00198669  0.73247104  1
  Ru4+  Ru88  1  -0.00791003  0.34913406  -0.01525252  1
  Ru4+  Ru89  1  -0.00160917  0.33359386  0.24571519  1
  Ru4+  Ru90  1  -0.00862860  0.33373659  0.48659530  1
  Ru4+  Ru91  1  -0.00113228  0.33719174  0.74227111  1
  Ru4+  Ru92  1  -0.00511543  0.66984873  0.01566739  1
  Ru4+  Ru93  1  0.00251380  0.67103204  0.23690633  1
  Ru4+  Ru94  1  0.00550942  0.65363623  0.51397124  1
  Ru4+  Ru95  1  -0.00260783  0.66028420  0.75352553  1
  Ru4+  Ru96  1  0.50046472  0.00179449  0.00846352  1
  Ru4+  Ru97  1  0.50602522  -0.01158979  0.24505945  1
  Ru4+  Ru98  1  0.49307926  0.00220973  0.50669559  1
  Ru4+  Ru99  1  0.50036298  0.00258883  0.74623267  1
  Ru4+  Ru100  1  0.50569580  0.33711791  0.00290312  1
  Ru4+  Ru101  1  0.50435049  0.32337431  0.23859067  1
  Ru4+  Ru102  1  0.49825022  0.32717981  0.50651499  1
  Ru4+  Ru103  1  0.50358920  0.34131724  0.75004313  1
  Ru4+  Ru104  1  0.49831294  0.66228003  -0.00662939  1
  Ru4+  Ru105  1  0.50325772  0.67856580  0.24359734  1
  Ru4+  Ru106  1  0.49699266  0.66656387  0.50624115  1
  Ru4+  Ru107  1  0.50530020  0.66306270  0.74928615  1
  Ru4+  Ru108  1  0.11124543  0.16143619  0.00748787  1
  Ru4+  Ru109  1  0.11588307  0.17228948  0.25470801  1
  Ru4+  Ru110  1  0.11139271  0.16866237  0.49911510  1
  Ru4+  Ru111  1  0.11242534  0.17136362  0.74906140  1
  Ru4+  Ru112  1  0.10740355  0.49912615  0.00119072  1
  Ru4+  Ru113  1  0.10682865  0.49854521  0.25460895  1
  Ru4+  Ru114  1  0.10252905  0.50219160  0.48898681  1
  Ru4+  Ru115  1  0.11265584  0.49942138  0.74812691  1
  Ru4+  Ru116  1  0.11006879  0.82576294  0.00178259  1
  Ru4+  Ru117  1  0.11280441  0.83418996  0.24664852  1
  Ru4+  Ru118  1  0.11282222  0.83014853  0.49328035  1
  Ru4+  Ru119  1  0.11786106  0.83389127  0.75279580  1
  Ru4+  Ru120  1  0.61113073  0.16890955  0.00334333  1
  Ru4+  Ru121  1  0.60280850  0.17558878  0.25038717  1
  Ru4+  Ru122  1  0.61205338  0.16607323  0.50272506  1
  Ru4+  Ru123  1  0.60724944  0.16569765  0.74763545  1
  Ru4+  Ru124  1  0.61165448  0.49712630  0.00878083  1
  Ru4+  Ru125  1  0.61040831  0.49771315  0.24963369  1
  Ru4+  Ru126  1  0.61232492  0.49987529  0.50372712  1
  Ru4+  Ru127  1  0.61598041  0.49927570  0.74793258  1
  Ru4+  Ru128  1  0.61128097  0.82689285  0.00739348  1
  Ru4+  Ru129  1  0.60103245  0.84218395  0.25391344  1
  Ru4+  Ru130  1  0.60665950  0.83015838  0.50334001  1
  Ru4+  Ru131  1  0.61530820  0.82946998  0.74658475  1
  Ru4+  Ru132  1  0.39230261  0.17272933  0.01394303  1
  Ru4+  Ru133  1  0.38952248  0.16807108  0.24141783  1
  Ru4+  Ru134  1  0.38836353  0.16612947  0.49892829  1
  Ru4+  Ru135  1  0.38693752  0.15834710  0.74789118  1
  Ru4+  Ru136  1  0.38863851  0.49810734  0.00045697  1
  Ru4+  Ru137  1  0.38545168  0.50583667  0.24791482  1
  Ru4+  Ru138  1  0.39468698  0.50071751  0.50449483  1
  Ru4+  Ru139  1  0.38596864  0.50379421  0.74550084  1
  Ru4+  Ru140  1  0.39131976  0.83177065  -0.00163129  1
  Ru4+  Ru141  1  0.38842769  0.83752575  0.25164264  1
  Ru4+  Ru142  1  0.39046287  0.83173695  0.50269905  1
  Ru4+  Ru143  1  0.38688826  0.84075354  0.73984338  1
  Ru4+  Ru144  1  0.88965798  0.16436403  -0.00130494  1
  Ru4+  Ru145  1  0.88799906  0.17492145  0.24932159  1
  Ru4+  Ru146  1  0.90135133  0.17832537  0.49829979  1
  Ru4+  Ru147  1  0.89082399  0.17221788  0.74006108  1
  Ru4+  Ru148  1  0.88952167  0.49054832  0.00506488  1
  Ru4+  Ru149  1  0.89175379  0.49783566  0.25008874  1
  Ru4+  Ru150  1  0.88821361  0.49487271  0.49821025  1
  Ru4+  Ru151  1  0.88557675  0.49750167  0.74493956  1
  Ru4+  Ru152  1  0.89105686  0.82991907  -0.00147815  1
  Ru4+  Ru153  1  0.89806366  0.83265336  0.25256602  1
  Ru4+  Ru154  1  0.88224604  0.84099622  0.50098385  1
  Ru4+  Ru155  1  0.88727316  0.83466455  0.74553942  1
  Ru4+  Ru156  1  0.25100061  0.73281598  -0.03116455  1
  Ru4+  Ru157  1  0.74950444  0.57218475  0.51260549  1
  Ru4+  Ru158  1  0.25065395  0.95236675  0.46833427  1
  Ru4+  Ru159  1  0.74912646  0.73816809  0.51737060  1
  Ru4+  Ru160  1  0.24863452  0.43559314  0.00881113  1
  Ru4+  Ru161  1  0.24972736  0.29406862  -0.00364385  1
  Ru4+  Ru162  1  0.24889550  0.09611674  0.49568852  1
  Ru4+  Ru163  1  0.24976346  0.24461771  0.49860463  1
  Ru4+  Ru164  1  0.24812814  0.09665475  0.77192764  1
  Ru4+  Ru165  1  0.75040787  0.72653906  -0.01641059  1
  Ru4+  Ru166  1  0.25095359  0.73224431  0.46643698  1
  Ru4+  Ru167  1  0.24899947  0.58237979  0.24085207  1
  Ru4+  Ru168  1  0.74958626  0.91751957  0.74989674  1
  Ru4+  Ru169  1  0.24985494  0.92289997  -0.02152985  1
  Ru4+  Ru170  1  0.25209516  0.75979578  0.76429247  1
  Ru4+  Ru171  1  0.24936052  0.41385775  0.24839090  1
  Ru4+  Ru172  1  0.25255673  0.07004926  -0.02523350  1
  Ru4+  Ru173  1  0.74880489  0.41758588  0.49487387  1
  Ru4+  Ru174  1  0.24857729  0.57300245  -0.01405135  1
  Ru4+  Ru175  1  0.75176834  0.57904065  0.22801708  1
  Ru4+  Ru176  1  0.25159315  0.59283161  0.51437226  1
  Ru4+  Ru177  1  0.75005151  0.71920739  0.19965749  1
  Ru4+  Ru178  1  0.25057295  0.08328117  0.26223379  1
  Ru4+  Ru179  1  0.74949222  1.00035505  0.25073814  1
  O2-  O180  1  0.17038774  0.08294405  -0.00080216  1
  O2-  O181  1  0.16908129  0.08324260  0.24867231  1
  O2-  O182  1  0.16970415  0.08218941  0.49555236  1
  O2-  O183  1  0.16946118  0.08162359  0.74601678  1
  O2-  O184  1  0.16697981  0.41656082  0.00553363  1
  O2-  O185  1  0.16464514  0.41371873  0.24566390  1
  O2-  O186  1  0.16191411  0.41262157  0.50100205  1
  O2-  O187  1  0.16651175  0.41874366  0.75032713  1
  O2-  O188  1  0.16770500  0.74473654  -0.00097315  1
  O2-  O189  1  0.16192695  0.75227897  0.23898122  1
  O2-  O190  1  0.17154473  0.74745257  0.50576840  1
  O2-  O191  1  0.17197364  0.74906173  0.75092826  1
  O2-  O192  1  0.66706658  0.08344686  -0.00607958  1
  O2-  O193  1  0.66498375  0.08530618  0.25050396  1
  O2-  O194  1  0.66302821  0.07948521  0.49823002  1
  O2-  O195  1  0.66285835  0.07887617  0.74623763  1
  O2-  O196  1  0.66661996  0.41787649  0.00117266  1
  O2-  O197  1  0.66285754  0.41157768  0.24514262  1
  O2-  O198  1  0.66641738  0.41444857  0.50029854  1
  O2-  O199  1  0.66169811  0.41272061  0.74636720  1
  O2-  O200  1  0.66991069  0.74385116  0.00072285  1
  O2-  O201  1  0.66599961  0.75010683  0.24407289  1
  O2-  O202  1  0.66279241  0.74670832  0.50407963  1
  O2-  O203  1  0.66231721  0.74611400  0.75076603  1
  O2-  O204  1  0.32735198  0.25710018  0.00292619  1
  O2-  O205  1  0.33768796  0.25233346  0.24774161  1
  O2-  O206  1  0.33602078  0.25086109  0.49565151  1
  O2-  O207  1  0.33818107  0.24463129  0.75393014  1
  O2-  O208  1  0.33124216  0.58216421  0.00004047  1
  O2-  O209  1  0.33292693  0.58910181  0.25258633  1
  O2-  O210  1  0.33640797  0.58769681  0.49701894  1
  O2-  O211  1  0.33357595  0.58798982  0.75389655  1
  O2-  O212  1  0.33103277  0.91793050  0.00177844  1
  O2-  O213  1  0.33153025  0.91653043  0.24586702  1
  O2-  O214  1  0.33386794  0.91890682  0.49196973  1
  O2-  O215  1  0.32836588  0.91640374  0.75530463  1
  O2-  O216  1  0.83285440  0.25403949  0.00937183  1
  O2-  O217  1  0.83475344  0.25653971  0.24215172  1
  O2-  O218  1  0.83266204  0.24847404  0.50287689  1
  O2-  O219  1  0.82828923  0.24936011  0.74971314  1
  O2-  O220  1  0.84336084  0.58080873  -0.00266785  1
  O2-  O221  1  0.83692173  0.58176527  0.24879499  1
  O2-  O222  1  0.82998715  0.57810718  0.50423878  1
  O2-  O223  1  0.83230324  0.58293565  0.74905951  1
  O2-  O224  1  0.84724147  0.92370736  0.00118078  1
  O2-  O225  1  0.83375349  0.92068855  0.25268724  1
  O2-  O226  1  0.83450273  0.92981920  0.50250419  1
  O2-  O227  1  0.83571499  0.92260341  0.74888532  1
  O2-  O228  1  0.16771381  0.25459585  0.00652938  1
  O2-  O229  1  0.17000367  0.25187179  0.23925556  1
  O2-  O230  1  0.16591521  0.25169983  0.49570320  1
  O2-  O231  1  0.16461435  0.25044465  0.75270243  1
  O2-  O232  1  0.16426792  0.58335769  -0.00318410  1
  O2-  O233  1  0.16453173  0.58172488  0.24792341  1
  O2-  O234  1  0.17203739  0.57744988  0.50759780  1
  O2-  O235  1  0.16388792  0.58735689  0.75184287  1
  O2-  O236  1  0.16644229  0.91775045  -0.00109304  1
  O2-  O237  1  0.16290905  0.92046700  0.25426840  1
  O2-  O238  1  0.16980877  0.92040257  0.50111707  1
  O2-  O239  1  0.16897531  0.91954570  0.74251133  1
  O2-  O240  1  0.66794034  0.25192425  0.00247527  1
  O2-  O241  1  0.66467362  0.25151544  0.24308160  1
  O2-  O242  1  0.66937059  0.25528585  0.50246254  1
  O2-  O243  1  0.65961628  0.25601276  0.74253649  1
  O2-  O244  1  0.66297400  0.58223361  -0.00466112  1
  O2-  O245  1  0.66813604  0.58214465  0.25263005  1
  O2-  O246  1  0.66438797  0.58340428  0.50249017  1
  O2-  O247  1  0.66142460  0.58685461  0.75159425  1
  O2-  O248  1  0.65905784  0.92025021  0.00242951  1
  O2-  O249  1  0.67295758  0.91887445  0.25607097  1
  O2-  O250  1  0.64931734  0.92682619  0.50088284  1
  O2-  O251  1  0.66486406  0.92241977  0.74777389  1
  O2-  O252  1  0.33763415  0.08215399  0.00078692  1
  O2-  O253  1  0.33021765  0.08213760  0.25064935  1
  O2-  O254  1  0.33063964  0.08670036  0.48992735  1
  O2-  O255  1  0.32870846  0.08310105  0.75940351  1
  O2-  O256  1  0.33046559  0.41653908  0.00315139  1
  O2-  O257  1  0.33156110  0.41536797  0.25538596  1
  O2-  O258  1  0.34508487  0.40715017  0.49964418  1
  O2-  O259  1  0.34051388  0.41485735  0.75293450  1
  O2-  O260  1  0.33504264  0.74430621  0.00226188  1
  O2-  O261  1  0.34081449  0.74882189  0.24881202  1
  O2-  O262  1  0.33130681  0.74699099  0.49659650  1
  O2-  O263  1  0.33374800  0.75092402  0.75223994  1
  O2-  O264  1  0.83836187  0.07965625  0.00183446  1
  O2-  O265  1  0.83082809  0.07757904  0.24965335  1
  O2-  O266  1  0.83810561  0.08966947  0.49635978  1
  O2-  O267  1  0.83512534  0.08737933  0.75409499  1
  O2-  O268  1  0.82863642  0.41764452  0.01103382  1
  O2-  O269  1  0.83748421  0.41286388  0.24181530  1
  O2-  O270  1  0.82972708  0.41335730  0.49330057  1
  O2-  O271  1  0.83112849  0.41644026  0.75051593  1
  O2-  O272  1  0.83038263  0.74500778  -0.00005532  1
  O2-  O273  1  0.83035073  0.74819167  0.23828085  1
  O2-  O274  1  0.83410257  0.74796050  0.50715985  1
  O2-  O275  1  0.84040886  0.74990350  0.75192228  1
  O2-  O276  1  0.05355572  0.09384106  0.77021009  1
  O2-  O277  1  0.53176063  0.22017844  0.20321352  1
  O2-  O278  1  0.94218801  0.75771532  0.51598639  1
  O2-  O279  1  0.43747971  0.58586063  0.98987296  1
  O2-  O280  1  0.55377734  0.57684017  0.97111496  1
  O2-  O281  1  0.46643508  0.13225549  0.48704345  1
  O2-  O282  1  0.44908555  0.09777065  0.24870033  1
  O2-  O283  1  0.55264061  0.08422790  0.28186319  1
  O2-  O284  1  0.44150878  0.24150522  0.95058868  1
  O2-  O285  1  0.96661878  0.89929470  0.49927943  1
  O2-  O286  1  0.54529013  0.57460497  0.50694016  1
  O2-  O287  1  0.44936008  0.75960263  0.22893798  1
  O2-  O288  1  0.05162357  0.09132969  0.23964253  1
  O2-  O289  1  0.52132316  0.87064286  0.26346208  1
  O2-  O290  1  0.45457666  0.76350617  0.72868786  1
  O2-  O291  1  0.96999657  0.22447931  0.75408597  1
  O2-  O292  1  0.44964879  0.41568567  0.26860842  1
  O2-  O293  1  0.94444020  0.08149166  0.51997245  1
  O2-  O294  1  0.45598797  0.44207179  0.24374695  1
  O2-  O295  1  0.04686095  0.57349219  0.26161609  1
  O2-  O296  1  0.54205510  0.44328752  0.74432133  1
  O2-  O297  1  0.96146581  0.76276593  0.49203393  1
  O2-  O298  1  0.44263004  0.91711511  0.80038110  1
  O2-  O299  1  0.04521388  0.90095006  0.99918326  1
  O2-  O300  1  0.54398604  0.43827504  0.95891189  1
  O2-  O301  1  0.04713423  0.24043169  0.02610802  1
  O2-  O302  1  0.04705829  0.42288405  0.25863490  1
  O2-  O303  1  0.46520779  0.10535603  0.46081736  1
  O2-  O304  1  0.97323800  0.77560795  0.22386653  1
  O2-  O305  1  0.98700518  0.21434009  0.51424115  1
  O2-  O306  1  0.04517330  0.88636211  0.71277189  1
  O2-  O307  1  0.04518256  0.09330855  0.95662092  1
  O2-  O308  1  0.95027059  0.42448819  0.50032333  1
  O2-  O309  1  0.96546329  0.44521043  0.04659810  1
  O2-  O310  1  0.94925154  0.42534310  0.49143099  1
  O2-  O311  1  0.04315920  0.55319659  0.54040824  1
  O2-  O312  1  0.95110504  0.56587668  0.50044087  1
  O2-  O313  1  0.45631391  0.10262268  0.80226644  1
  O2-  O314  1  0.44876110  0.23717820  0.74501270  1
  O2-  O315  1  0.54564863  0.42752158  0.48199599  1
  O2-  O316  1  0.03724569  0.55154206  0.53071227  1
  O2-  O317  1  0.44527107  0.41996481  0.98362606  1
  O2-  O318  1  0.94819300  0.08203780  0.74076897  1
  O2-  O319  1  0.04945830  0.57049671  0.76695030  1
  O2-  O320  1  0.96726790  0.88511361  0.47469291  1
  O2-  O321  1  0.56354943  0.74646845  0.93921066  1
  O2-  O322  1  0.54707370  0.89915498  0.73904261  1
  O2-  O323  1  0.94708019  0.09923809  0.25912383  1
  O2-  O324  1  0.55812779  0.91422810  0.97002579  1
  O2-  O325  1  0.56085041  0.08146567  0.01764413  1
  O2-  O326  1  0.91783974  0.40514710  0.93879094  1
  O2-  O327  1  0.94073103  0.42457280  0.72132281  1
  O2-  O328  1  0.56056698  0.25110524  0.51715236  1
  O2-  O329  1  0.44236086  0.26165191  0.71783894  1
  O2-  O330  1  0.06087155  0.25955660  0.28421947  1
  O2-  O331  1  0.06407097  0.92720279  0.46794333  1
  O2-  O332  1  0.43527957  0.93714578  0.28331083  1
  O2-  O333  1  0.44622436  0.24780507  0.95168805  1
  O2-  O334  1  0.91181427  0.26406311  0.67682237  1
  O2-  O335  1  0.42478475  0.91253893  0.65630106  1
  O2-  O336  1  0.92161327  0.28343962  0.44689544  1
  O2-  O337  1  0.07233977  0.05505949  0.08177376  1
  O2-  O338  1  0.06620635  0.73750463  0.57958420  1
  O2-  O339  1  0.41565795  0.23467293  0.10805323  1
  O2-  O340  1  0.55678902  0.74808789  0.95393299  1
  O2-  O341  1  0.06018520  0.94522999  0.85549661  1
  O2-  O342  1  0.42276813  0.01160533  0.53955997  1
  O2-  O343  1  0.06307754  0.73903658  0.78322557  1
  O2-  O344  1  0.91517979  0.73552594  0.31101419  1
  O2-  O345  1  0.93002299  0.91269694  0.44498985  1
  O2-  O346  1  0.58275409  0.76399251  0.10470531  1
  O2-  O347  1  0.93726361  0.75824336  0.06667369  1
  O2-  O348  1  0.94248710  0.25232484  0.98115270  1
  O2-  O349  1  0.92374372  0.93129534  0.62363409  1
  O2-  O350  1  0.91485207  0.62323021  0.52517769  1
  O2-  O351  1  0.42358556  0.08168728  0.67277237  1
  O2-  O352  1  0.44046612  0.58772793  0.98715103  1
  O2-  O353  1  0.93540234  0.59012276  0.77734663  1
  O2-  O354  1  0.58593498  0.95658273  0.23072270  1
  O2-  O355  1  0.07043989  0.77105112  0.42440438  1
  O2-  O356  1  0.06463295  0.39225933  0.46547363  1
  O2-  O357  1  0.92434612  0.75590160  0.91492101  1
  O2-  O358  1  0.56918565  0.39905621  0.07181070  1
  O2-  O359  1  0.05796486  0.41180262  0.77473117  1
  O2-  O360  1  0.92978649  0.91086813  0.17152153  1
  O2-  O361  1  0.93807638  0.91480711  0.31309890  1
  O2-  O362  1  0.43887407  0.73999759  0.53175138  1
  O2-  O363  1  0.44078001  0.59196152  0.71054209  1
  O2-  O364  1  0.55847433  0.25204070  0.03069381  1
  O2-  O365  1  0.56819737  0.28040059  0.32008484  1
  O2-  O366  1  0.56623678  0.74118576  0.28839496  1
  O2-  O367  1  0.43949055  0.92626166  0.96264564  1
  O2-  O368  1  0.05288578  0.89413763  0.70188633  1
  O2-  O369  1  0.06548673  0.08173756  0.51284384  1
  O2-  O370  1  0.56068601  0.59111149  0.28800997  1
  O2-  O371  1  0.09277085  0.60666215  0.43263528  1
  O2-  O372  1  0.25265598  -0.00068259  0.86110745  1
  O2-  O373  1  0.25010439  0.33852938  0.35600342  1
  O2-  O374  1  0.24981729  0.00315482  0.35382240  1
  O2-  O375  1  0.74864870  0.66573059  0.62610537  1
  O2-  O376  1  0.74828889  0.65646376  0.43573929  1
  O2-  O377  1  0.74922762  0.65980843  0.08960083  1
  O2-  O378  1  0.25100314  -0.00136130  0.09646001  1
  O2-  O379  1  0.25047619  0.33708835  0.57190363  1
  O2-  O380  1  0.75089983  0.66690967  0.30960645  1
  O2-  O381  1  0.25045230  0.65645550  0.07043520  1
  O2-  O382  1  0.25030376  0.68442860  0.21061185  1
  O2-  O383  1  0.24964704  0.64080756  0.87691729  1
  O2-  O384  1  0.25100382  0.67717295  0.61196659  1
  O2-  O385  1  0.24896911  0.34936542  0.88436396  1
  O2-  O386  1  0.74957269  0.33367602  0.36897162  1
  O2-  O387  1  0.75074203  0.00411168  0.12415028  1
  O2-  O388  1  0.25112903  0.32917332  0.66313719  1
  O2-  O389  1  0.24629430  -0.00675912  0.59787466  1
  O2-  O390  1  0.75026244  0.32539026  0.92093373  1
  O2-  O391  1  0.74977151  0.00973338  0.82572633  1
  O2-  O392  1  0.75128057  0.00307764  0.91836800  1
  O2-  O393  1  0.74885156  0.66774937  0.87548366  1
  O2-  O394  1  0.74920327  0.00174457  0.37722039  1
  O2-  O395  1  0.74692592  0.32666323  0.82753765  1
  O2-  O396  1  0.25226288  0.50387403  0.59904697  1
  O2-  O397  1  0.74967137  0.80674766  0.11677522  1
  O2-  O398  1  0.74963677  0.50194465  0.06467720  1
  O2-  O399  1  0.75019224  0.81998639  0.81644425  1
  O2-  O400  1  0.73682945  0.15924863  0.58897103  1
  O2-  O401  1  0.75537111  0.15019022  0.88457487  1
  O2-  O402  1  0.25060023  0.50658407  0.68393831  1
  O2-  O403  1  0.74986871  0.15727527  0.35559574  1
  O2-  O404  1  0.74828880  0.48961197  0.67518925  1
  O2-  O405  1  0.75000326  0.49207680  0.15114662  1
  O2-  O406  1  0.25001767  0.82173917  0.88830645  1
  O2-  O407  1  0.24909815  0.14992424  0.88142172  1
  O2-  O408  1  0.75176085  0.82428204  0.59668167  1
  O2-  O409  1  0.74849268  0.48734291  0.58742648  1
  O2-  O410  1  0.74976377  0.81703040  0.90490997  1
  O2-  O411  1  0.24939589  0.82809946  0.31852400  1
  O2-  O412  1  0.74892020  0.82381261  0.68621501  1
  O2-  O413  1  0.24965794  0.50739124  0.33584839  1
  O2-  O414  1  0.74825054  0.18153073  0.12035956  1
  O2-  O415  1  0.75006231  0.80090497  0.40239849  1
  O2-  O416  1  0.24989057  0.16582769  0.59625537  1
  O2-  O417  1  0.24916201  0.83459109  0.40765240  1
  O2-  O418  1  0.76441214  0.15748353  0.65862250  1
  O2-  O419  1  0.24967625  0.49466920  0.15275028  1
  O2-  O420  1  0.02189913  0.67860275  0.35115617  1
  O2-  O421  1  0.52990714  0.00922240  0.62137789  1
  O2-  O422  1  0.52447847  0.33767835  0.62805976  1
  O2-  O423  1  0.04651138  0.67942488  0.12123022  1
  O2-  O424  1  0.51524278  0.64936024  0.12623000  1
  O2-  O425  1  0.98300889  0.33849590  0.61679618  1
  O2-  O426  1  0.99168429  0.02765610  0.37565158  1
  O2-  O427  1  0.52528075  0.01292566  0.87065795  1
  O2-  O428  1  0.02370784  0.00797276  0.61696696  1
  O2-  O429  1  0.04089265  0.32973422  0.62950117  1
  O2-  O430  1  0.95971463  0.33720320  0.84715845  1
  O2-  O431  1  0.45212447  0.36138969  0.83210456  1
  O2-  O432  1  0.48114591  0.34798290  0.12878558  1
  O2-  O433  1  0.97895084  0.67965714  0.63528238  1
  O2-  O434  1  0.47109088  0.68033761  0.86941336  1
  O2-  O435  1  0.97468337  0.01692169  0.11956658  1
  O2-  O436  1  0.53588586  -0.00697236  0.12137584  1
  O2-  O437  1  0.54578205  0.31441131  0.87578712  1
  O2-  O438  1  0.99427246  0.65597887  0.89101589  1
  O2-  O439  1  0.04926588  0.31046193  0.89593948  1
  O2-  O440  1  0.47270856  0.32279228  0.38420098  1
  O2-  O441  1  0.44751815  -0.00520294  0.10588802  1
  O2-  O442  1  0.97671097  0.64439671  0.39375053  1
  O2-  O443  1  0.95555540  0.62861151  0.13221283  1
