# generated using pymatgen
data_La7(Ru4O11)2
_symmetry_space_group_name_H-M   'P 1'
_cell_length_a   23.99569222
_cell_length_b   16.83561186
_cell_length_c   15.43293199
_cell_angle_alpha   89.99539493
_cell_angle_beta   89.99865839
_cell_angle_gamma   90.00109373
_symmetry_Int_Tables_number   1
_chemical_formula_structural   La7(Ru4O11)2
_chemical_formula_sum   'La84 Ru96 O264'
_cell_volume   6234.62918800
_cell_formula_units_Z   12
loop_
 _symmetry_equiv_pos_site_id
 _symmetry_equiv_pos_as_xyz
  1  'x, y, z'
loop_
 _atom_type_symbol
 _atom_type_oxidation_number
  La3+  3.0
  Ru4+  4.0
  O2-  -2.0
loop_
 _atom_site_type_symbol
 _atom_site_label
 _atom_site_symmetry_multiplicity
 _atom_site_fract_x
 _atom_site_fract_y
 _atom_site_fract_z
 _atom_site_occupancy
  La3+  La0  1  0.14362266  -0.00124896  0.12735531  1
  La3+  La1  1  0.14338425  0.00766198  0.37546173  1
  La3+  La2  1  0.13674417  -0.00214195  0.62451692  1
  La3+  La3  1  0.13580711  -0.00896226  0.87870832  1
  La3+  La4  1  0.14358234  0.33571164  0.12692450  1
  La3+  La5  1  0.14155706  0.33421179  0.37064505  1
  La3+  La6  1  0.13237413  0.33628659  0.61884248  1
  La3+  La7  1  0.13913247  0.33131070  0.87374249  1
  La3+  La8  1  0.13574274  0.66965277  0.12290733  1
  La3+  La9  1  0.14148588  0.66351307  0.37554994  1
  La3+  La10  1  0.14332290  0.66451532  0.62328789  1
  La3+  La11  1  0.14615494  0.66548952  0.87296447  1
  La3+  La12  1  0.63973064  0.00102832  0.12609128  1
  La3+  La13  1  0.64428050  -0.00342972  0.36562592  1
  La3+  La14  1  0.64597972  -0.00940920  0.63131093  1
  La3+  La15  1  0.65188611  0.00552108  0.87243449  1
  La3+  La16  1  0.64540130  0.33569627  0.12232974  1
  La3+  La17  1  0.63070535  0.33030351  0.37960365  1
  La3+  La18  1  0.65220084  0.34363272  0.63092237  1
  La3+  La19  1  0.64983108  0.33608912  0.87797751  1
  La3+  La20  1  0.63795855  0.66160624  0.13164607  1
  La3+  La21  1  0.64213513  0.66657893  0.37386108  1
  La3+  La22  1  0.63527343  0.67104455  0.62551957  1
  La3+  La23  1  0.64337849  0.66331995  0.86947920  1
  La3+  La24  1  0.35401380  0.00278604  0.12541659  1
  La3+  La25  1  0.36159635  -0.00028159  0.37314434  1
  La3+  La26  1  0.37247308  0.00288089  0.62687528  1
  La3+  La27  1  0.35940952  -0.00223777  0.87421495  1
  La3+  La28  1  0.35507690  0.32975710  0.12612403  1
  La3+  La29  1  0.36329931  0.32707985  0.37376398  1
  La3+  La30  1  0.36248626  0.33913999  0.62368724  1
  La3+  La31  1  0.36163575  0.34479194  0.87245753  1
  La3+  La32  1  0.36210801  0.66742445  0.12236056  1
  La3+  La33  1  0.35942204  0.66188427  0.37643580  1
  La3+  La34  1  0.35182563  0.66565195  0.62434882  1
  La3+  La35  1  0.34738249  0.67265828  0.87590743  1
  La3+  La36  1  0.86146277  -0.00541809  0.12419311  1
  La3+  La37  1  0.84963759  -0.00529591  0.36670425  1
  La3+  La38  1  0.85292226  -0.00773000  0.63208364  1
  La3+  La39  1  0.85131467  0.00369877  0.87228571  1
  La3+  La40  1  0.85719060  0.33587835  0.12580349  1
  La3+  La41  1  0.87431063  0.32534050  0.37597215  1
  La3+  La42  1  0.86041766  0.33629817  0.62391627  1
  La3+  La43  1  0.85131547  0.33693348  0.87493910  1
  La3+  La44  1  0.85114707  0.66186647  0.12314142  1
  La3+  La45  1  0.86087364  0.67293662  0.37788201  1
  La3+  La46  1  0.86143287  0.66746995  0.62673151  1
  La3+  La47  1  0.86719594  0.66235777  0.87035953  1
  La3+  La48  1  -0.01341229  0.83867607  0.61870825  1
  La3+  La49  1  -0.00123283  0.16747952  0.86197126  1
  La3+  La50  1  0.50310879  0.49737213  0.11337795  1
  La3+  La51  1  -0.00720947  0.16554571  0.63513039  1
  La3+  La52  1  0.49661182  0.85245251  0.14302535  1
  La3+  La53  1  0.49174734  0.85225477  0.12837507  1
  La3+  La54  1  -0.00160542  0.16706514  0.14506711  1
  La3+  La55  1  0.00989865  0.84867248  0.37411773  1
  La3+  La56  1  0.49350939  0.16400845  0.61731252  1
  La3+  La57  1  0.50177409  0.50609190  0.37056303  1
  La3+  La58  1  -0.00648113  0.81816067  0.10417132  1
  La3+  La59  1  0.49576015  0.49959310  0.13284056  1
  La3+  La60  1  0.00076999  0.49666125  0.38166323  1
  La3+  La61  1  0.48995393  0.16957237  0.36813275  1
  La3+  La62  1  0.00050120  0.51321313  0.14160127  1
  La3+  La63  1  0.50282336  0.83304004  0.38408436  1
  La3+  La64  1  -0.00175708  0.15743591  0.88144708  1
  La3+  La65  1  0.00739639  0.83965834  0.39390949  1
  La3+  La66  1  0.00602978  0.16162179  0.12707649  1
  La3+  La67  1  0.50939566  0.17003784  0.14560477  1
  La3+  La68  1  0.50541176  0.83028043  0.86354448  1
  La3+  La69  1  0.00307177  0.50364081  0.62779801  1
  La3+  La70  1  0.50947048  0.16921529  0.12884338  1
  La3+  La71  1  0.50291846  0.16486345  0.63482340  1
  La3+  La72  1  0.24976284  0.86620819  0.26887581  1
  La3+  La73  1  0.24954716  0.82657808  0.04481875  1
  La3+  La74  1  0.24927238  0.56270451  0.02052000  1
  La3+  La75  1  0.74802731  0.87549535  -0.00438997  1
  La3+  La76  1  0.25217045  0.88311032  0.74762141  1
  La3+  La77  1  0.24968580  0.21459944  0.51054730  1
  La3+  La78  1  0.24981976  0.16135222  0.19902629  1
  La3+  La79  1  0.75136939  0.16530569  0.20279528  1
  La3+  La80  1  0.24922181  0.16276307  0.76217898  1
  La3+  La81  1  0.75288587  0.19121211  0.55611975  1
  La3+  La82  1  0.75010128  0.17418738  0.02181364  1
  La3+  La83  1  0.75032997  0.49239943  0.23238011  1
  Ru4+  Ru84  1  0.00121767  -0.01670539  -0.01612380  1
  Ru4+  Ru85  1  0.00445753  0.00017698  0.25993564  1
  Ru4+  Ru86  1  -0.01280053  0.01187545  0.51107332  1
  Ru4+  Ru87  1  0.00032301  -0.00842647  0.75196098  1
  Ru4+  Ru88  1  0.00865903  0.34253650  -0.01373858  1
  Ru4+  Ru89  1  -0.00193058  0.33117552  0.25867032  1
  Ru4+  Ru90  1  0.00363225  0.33619766  0.49633403  1
  Ru4+  Ru91  1  -0.00921293  0.35277245  0.75121629  1
  Ru4+  Ru92  1  0.00362764  0.66243077  -0.00424432  1
  Ru4+  Ru93  1  -0.00321762  0.67119497  0.24614090  1
  Ru4+  Ru94  1  -0.00407528  0.66329208  0.49575558  1
  Ru4+  Ru95  1  0.00301616  0.67011426  0.76643795  1
  Ru4+  Ru96  1  0.49528117  0.00707225  0.00882390  1
  Ru4+  Ru97  1  0.49982395  -0.00265860  0.25276046  1
  Ru4+  Ru98  1  0.50537434  -0.00229489  0.50170904  1
  Ru4+  Ru99  1  0.50262982  -0.00875777  0.73786754  1
  Ru4+  Ru100  1  0.48935656  0.33723413  -0.01574002  1
  Ru4+  Ru101  1  0.50224222  0.33095757  0.24755842  1
  Ru4+  Ru102  1  0.50913180  0.32990095  0.49446014  1
  Ru4+  Ru103  1  0.50182694  0.34419046  0.75524796  1
  Ru4+  Ru104  1  0.50404118  0.67275204  -0.00343611  1
  Ru4+  Ru105  1  0.49327412  0.67071350  0.25267504  1
  Ru4+  Ru106  1  0.50481539  0.68613286  0.50718003  1
  Ru4+  Ru107  1  0.48461610  0.63660982  0.74090872  1
  Ru4+  Ru108  1  0.11432819  0.16030951  0.00268991  1
  Ru4+  Ru109  1  0.11164921  0.16800021  0.25577201  1
  Ru4+  Ru110  1  0.10909628  0.17169224  0.48724041  1
  Ru4+  Ru111  1  0.11131328  0.17206675  0.74902270  1
  Ru4+  Ru112  1  0.10290716  0.49420313  -0.00340058  1
  Ru4+  Ru113  1  0.11193759  0.50044971  0.25266788  1
  Ru4+  Ru114  1  0.11339152  0.50370912  0.49991921  1
  Ru4+  Ru115  1  0.11196995  0.50907289  0.75270825  1
  Ru4+  Ru116  1  0.10747192  0.84054130  -0.00217091  1
  Ru4+  Ru117  1  0.10987723  0.83724084  0.24920214  1
  Ru4+  Ru118  1  0.11771352  0.83308194  0.50465896  1
  Ru4+  Ru119  1  0.10255383  0.82851607  0.75394253  1
  Ru4+  Ru120  1  0.61092196  0.16722958  -0.00055585  1
  Ru4+  Ru121  1  0.61302675  0.17282195  0.25177148  1
  Ru4+  Ru122  1  0.60839773  0.15659018  0.49623591  1
  Ru4+  Ru123  1  0.61197816  0.16551859  0.75680053  1
  Ru4+  Ru124  1  0.61394055  0.49651363  -0.00548555  1
  Ru4+  Ru125  1  0.61462054  0.49239250  0.25510454  1
  Ru4+  Ru126  1  0.60989491  0.50328793  0.49756543  1
  Ru4+  Ru127  1  0.60701523  0.49982907  0.75201911  1
  Ru4+  Ru128  1  0.60681160  0.82870191  -0.00733618  1
  Ru4+  Ru129  1  0.61352350  0.83263617  0.24833965  1
  Ru4+  Ru130  1  0.60707027  0.82336238  0.49953017  1
  Ru4+  Ru131  1  0.61404685  0.83662195  0.74867354  1
  Ru4+  Ru132  1  0.39299288  0.16941228  -0.00515988  1
  Ru4+  Ru133  1  0.38404562  0.16728176  0.25128442  1
  Ru4+  Ru134  1  0.38084039  0.16343659  0.49837848  1
  Ru4+  Ru135  1  0.38414791  0.17195130  0.75374954  1
  Ru4+  Ru136  1  0.39712262  0.49704231  -0.01038593  1
  Ru4+  Ru137  1  0.38737196  0.49863594  0.25661474  1
  Ru4+  Ru138  1  0.38755772  0.50162340  0.49676678  1
  Ru4+  Ru139  1  0.39758301  0.51132150  0.75077542  1
  Ru4+  Ru140  1  0.39410025  0.83468348  0.00097067  1
  Ru4+  Ru141  1  0.38666629  0.83708275  0.25289017  1
  Ru4+  Ru142  1  0.38723650  0.83707935  0.50082895  1
  Ru4+  Ru143  1  0.39432657  0.83128451  0.75022594  1
  Ru4+  Ru144  1  0.88657785  0.16312493  -0.00106984  1
  Ru4+  Ru145  1  0.88976526  0.15697314  0.25128520  1
  Ru4+  Ru146  1  0.88831095  0.15372840  0.49199725  1
  Ru4+  Ru147  1  0.88160147  0.16447297  0.74886286  1
  Ru4+  Ru148  1  0.88929059  0.50089885  -0.00107580  1
  Ru4+  Ru149  1  0.88880114  0.49674148  0.24692954  1
  Ru4+  Ru150  1  0.88908748  0.50906416  0.49564065  1
  Ru4+  Ru151  1  0.89286954  0.49227038  0.75468131  1
  Ru4+  Ru152  1  0.89088404  0.83504845  0.00078359  1
  Ru4+  Ru153  1  0.88687381  0.82455454  0.24096992  1
  Ru4+  Ru154  1  0.88618695  0.82815029  0.50269341  1
  Ru4+  Ru155  1  0.88611945  0.83106136  0.74958721  1
  Ru4+  Ru156  1  0.74951009  0.56020038  -0.01369491  1
  Ru4+  Ru157  1  0.24983662  0.41173149  -0.00786357  1
  Ru4+  Ru158  1  0.25131458  0.43233295  0.74055409  1
  Ru4+  Ru159  1  0.75037041  0.73022843  -0.03034205  1
  Ru4+  Ru160  1  0.75024325  0.57164132  0.76025361  1
  Ru4+  Ru161  1  0.25035835  0.72158147  0.73915227  1
  Ru4+  Ru162  1  0.74938230  0.24710440  0.75376007  1
  Ru4+  Ru163  1  0.24847272  0.05661527  0.50149925  1
  Ru4+  Ru164  1  0.75070106  0.34495083  0.27347310  1
  Ru4+  Ru165  1  0.25058893  0.30233147  0.78843061  1
  Ru4+  Ru166  1  0.24938302  0.56831169  0.25017022  1
  Ru4+  Ru167  1  0.75075164  0.42987301  0.47941595  1
  Ru4+  Ru168  1  0.75049909  0.28830195  0.43620713  1
  Ru4+  Ru169  1  0.74859762  0.90247822  0.50820621  1
  Ru4+  Ru170  1  0.74824257  0.05508748  0.49289693  1
  Ru4+  Ru171  1  0.24878368  0.02420875  0.74395009  1
  Ru4+  Ru172  1  0.25044899  0.43310483  0.48305238  1
  Ru4+  Ru173  1  0.24921771  0.23080210  0.00052606  1
  Ru4+  Ru174  1  0.25082736  0.42243773  0.26277238  1
  Ru4+  Ru175  1  0.25035913  0.08697742  0.01140607  1
  Ru4+  Ru176  1  0.25026260  0.71213977  0.25024661  1
  Ru4+  Ru177  1  0.25066250  0.74933950  0.49044536  1
  Ru4+  Ru178  1  0.75045051  0.63809626  0.28418429  1
  Ru4+  Ru179  1  0.74840780  0.58526038  0.49013812  1
  O2-  O180  1  0.16910030  0.07918864  0.00113153  1
  O2-  O181  1  0.16740492  0.08312947  0.24934562  1
  O2-  O182  1  0.16552850  0.08261959  0.50566131  1
  O2-  O183  1  0.16544013  0.07527824  0.75302917  1
  O2-  O184  1  0.16790522  0.41712331  0.00528099  1
  O2-  O185  1  0.16754854  0.41847986  0.24669631  1
  O2-  O186  1  0.16679914  0.41658711  0.49663854  1
  O2-  O187  1  0.16439836  0.41625825  0.74848968  1
  O2-  O188  1  0.16596651  0.75189272  0.00469799  1
  O2-  O189  1  0.16910143  0.74878345  0.24730941  1
  O2-  O190  1  0.16928297  0.74695565  0.49560954  1
  O2-  O191  1  0.16948719  0.74718252  0.74260914  1
  O2-  O192  1  0.67203403  0.08165505  0.00644151  1
  O2-  O193  1  0.66650518  0.08319868  0.24253885  1
  O2-  O194  1  0.66717774  0.07679280  0.49656941  1
  O2-  O195  1  0.65986341  0.08115265  0.74791110  1
  O2-  O196  1  0.66402487  0.41446254  0.00051673  1
  O2-  O197  1  0.66970303  0.40731878  0.25805334  1
  O2-  O198  1  0.66568555  0.41756893  0.49146054  1
  O2-  O199  1  0.66221587  0.41933756  0.75766049  1
  O2-  O200  1  0.66888829  0.74749963  0.00132936  1
  O2-  O201  1  0.66052206  0.74637061  0.24914320  1
  O2-  O202  1  0.66617105  0.74891583  0.50797192  1
  O2-  O203  1  0.66308354  0.74565991  0.74768651  1
  O2-  O204  1  0.32972060  0.24426935  0.00200703  1
  O2-  O205  1  0.33040853  0.24875484  0.24938323  1
  O2-  O206  1  0.33659209  0.26001729  0.49832184  1
  O2-  O207  1  0.33233666  0.25817856  0.75074653  1
  O2-  O208  1  0.34273318  0.58670211  0.00142434  1
  O2-  O209  1  0.32931872  0.58568127  0.24846916  1
  O2-  O210  1  0.33873294  0.58491873  0.49696286  1
  O2-  O211  1  0.33565901  0.58074277  0.75112667  1
  O2-  O212  1  0.33353967  0.91873175  0.00402456  1
  O2-  O213  1  0.33359334  0.92356971  0.25327998  1
  O2-  O214  1  0.33941390  0.92163343  0.49938353  1
  O2-  O215  1  0.34655861  0.92234974  0.74603631  1
  O2-  O216  1  0.83359185  0.25357167  0.00698465  1
  O2-  O217  1  0.83072035  0.24992447  0.24870640  1
  O2-  O218  1  0.83916091  0.25184560  0.49558115  1
  O2-  O219  1  0.83313396  0.25496924  0.74731683  1
  O2-  O220  1  0.83063195  0.58144030  -0.00763528  1
  O2-  O221  1  0.83260969  0.58641813  0.25603842  1
  O2-  O222  1  0.83082112  0.58908471  0.49581105  1
  O2-  O223  1  0.83430948  0.58325761  0.75157428  1
  O2-  O224  1  0.83327274  0.92130487  0.00124842  1
  O2-  O225  1  0.83855056  0.91308327  0.24217898  1
  O2-  O226  1  0.83012572  0.91438436  0.50117381  1
  O2-  O227  1  0.83615059  0.91359269  0.75582480  1
  O2-  O228  1  0.16660179  0.25119246  0.00029179  1
  O2-  O229  1  0.16457010  0.25009115  0.24369145  1
  O2-  O230  1  0.16129875  0.25801550  0.50208781  1
  O2-  O231  1  0.16636782  0.25537790  0.74550205  1
  O2-  O232  1  0.15631547  0.58711718  0.00279877  1
  O2-  O233  1  0.16764107  0.58519811  0.24576738  1
  O2-  O234  1  0.16434940  0.58533542  0.49788426  1
  O2-  O235  1  0.16810151  0.58124896  0.75114687  1
  O2-  O236  1  0.17184858  0.91642253  0.00164342  1
  O2-  O237  1  0.16776476  0.92070509  0.24569727  1
  O2-  O238  1  0.16393240  0.92229688  0.49801047  1
  O2-  O239  1  0.16009548  0.91945850  0.75017558  1
  O2-  O240  1  0.66460799  0.25117292  0.00412917  1
  O2-  O241  1  0.66847106  0.25513767  0.25254331  1
  O2-  O242  1  0.66477742  0.25064305  0.49222592  1
  O2-  O243  1  0.66431350  0.25244518  0.75261669  1
  O2-  O244  1  0.66728222  0.58465078  -0.00119882  1
  O2-  O245  1  0.66873021  0.58645064  0.24966868  1
  O2-  O246  1  0.66459399  0.58692475  0.50236522  1
  O2-  O247  1  0.66647916  0.58473302  0.74497667  1
  O2-  O248  1  0.65803032  0.91819563  0.00279591  1
  O2-  O249  1  0.66867872  0.91626630  0.24418864  1
  O2-  O250  1  0.66292801  0.91162166  0.49792501  1
  O2-  O251  1  0.66934574  0.91308852  0.75610450  1
  O2-  O252  1  0.33329840  0.08482197  0.00235019  1
  O2-  O253  1  0.32978378  0.08033951  0.25258345  1
  O2-  O254  1  0.32888868  0.07408644  0.50253132  1
  O2-  O255  1  0.33175513  0.07586979  0.74929735  1
  O2-  O256  1  0.33192095  0.41658655  -0.00244274  1
  O2-  O257  1  0.33516119  0.41464972  0.25152305  1
  O2-  O258  1  0.33719768  0.41581948  0.49664521  1
  O2-  O259  1  0.33717214  0.42160007  0.74490169  1
  O2-  O260  1  0.33374073  0.75082374  0.00868153  1
  O2-  O261  1  0.33247115  0.74514244  0.24725142  1
  O2-  O262  1  0.33378207  0.74686834  0.49434009  1
  O2-  O263  1  0.33411958  0.74971940  0.74615098  1
  O2-  O264  1  0.83146723  0.08100165  0.00807573  1
  O2-  O265  1  0.83007657  0.08296890  0.23786301  1
  O2-  O266  1  0.82799863  0.07956604  0.49667380  1
  O2-  O267  1  0.83276528  0.08085881  0.74724878  1
  O2-  O268  1  0.84017536  0.41644640  0.00344422  1
  O2-  O269  1  0.83099954  0.41060728  0.25693354  1
  O2-  O270  1  0.83556120  0.41958267  0.49435962  1
  O2-  O271  1  0.83638930  0.41736304  0.74848802  1
  O2-  O272  1  0.83446413  0.74831355  -0.00648686  1
  O2-  O273  1  0.83188436  0.75137470  0.25577756  1
  O2-  O274  1  0.83489594  0.74635750  0.50485942  1
  O2-  O275  1  0.83500198  0.74545949  0.75154194  1
  O2-  O276  1  0.02779069  0.43101091  0.05049784  1
  O2-  O277  1  1.00335060  0.11397826  0.50598183  1
  O2-  O278  1  0.45079407  0.58489264  0.99161842  1
  O2-  O279  1  0.04897815  0.56856727  0.98998727  1
  O2-  O280  1  0.53678081  0.77795661  0.03610631  1
  O2-  O281  1  0.54409695  0.43935437  0.48220520  1
  O2-  O282  1  0.95024943  0.24581158  0.99264654  1
  O2-  O283  1  0.03812040  0.88144313  0.94626714  1
  O2-  O284  1  0.45498990  0.09054134  0.74237790  1
  O2-  O285  1  0.44743412  0.77105979  0.50428604  1
  O2-  O286  1  0.04736125  0.10094673  0.75399587  1
  O2-  O287  1  0.05101415  0.23606387  0.99573517  1
  O2-  O288  1  0.93886225  0.92409433  0.03249623  1
  O2-  O289  1  0.55260966  0.09148879  0.24741295  1
  O2-  O290  1  0.54609793  0.22922621  0.46913644  1
  O2-  O291  1  0.05351238  0.75237888  0.01126514  1
  O2-  O292  1  0.54716627  0.90611912  0.50684277  1
  O2-  O293  1  0.03255955  0.87928941  0.21039966  1
  O2-  O294  1  0.04745034  0.57545949  0.50210389  1
  O2-  O295  1  0.05135777  0.42700719  0.50758270  1
  O2-  O296  1  0.94657550  0.25355487  0.51985403  1
  O2-  O297  1  0.04730866  0.24259923  0.26066819  1
  O2-  O298  1  0.94759764  0.57374603  0.24469653  1
  O2-  O299  1  0.05213541  0.42561945  0.48866243  1
  O2-  O300  1  0.54819291  0.77297610  0.56141477  1
  O2-  O301  1  0.55554789  0.57581775  0.01204206  1
  O2-  O302  1  0.54568129  0.23956610  0.76435989  1
  O2-  O303  1  0.94335640  0.23875200  0.48386256  1
  O2-  O304  1  0.45913569  0.76563686  0.76148009  1
  O2-  O305  1  0.55930710  0.59262928  0.72627331  1
  O2-  O306  1  0.55456522  0.42222843  0.76410802  1
  O2-  O307  1  0.04646122  0.10090700  0.26119293  1
  O2-  O308  1  0.54198918  0.22650413  0.48540266  1
  O2-  O309  1  0.44242348  0.40847348  0.71585037  1
  O2-  O310  1  0.95542607  0.77496782  0.28888244  1
  O2-  O311  1  0.45360779  0.10406215  0.04559386  1
  O2-  O312  1  0.47169242  0.23748991  0.03313304  1
  O2-  O313  1  0.47635879  0.44993878  0.95526033  1
  O2-  O314  1  0.03392504  0.78550701  0.71238950  1
  O2-  O315  1  0.43965223  0.25297523  0.48381283  1
  O2-  O316  1  0.54171221  0.09249962  0.45486352  1
  O2-  O317  1  0.54733163  0.56820356  0.24010252  1
  O2-  O318  1  0.03758311  0.53775235  0.78992699  1
  O2-  O319  1  0.45347247  0.77042023  0.24514216  1
  O2-  O320  1  0.94416201  0.42710844  0.51442375  1
  O2-  O321  1  0.04726669  0.90198995  0.51433707  1
  O2-  O322  1  0.47473556  0.53046137  0.77874755  1
  O2-  O323  1  0.05747605  0.21339285  0.55508877  1
  O2-  O324  1  0.55961795  0.91544219  0.27415334  1
  O2-  O325  1  0.43946748  0.92261330  0.29017722  1
  O2-  O326  1  0.44213846  0.08438598  0.22456250  1
  O2-  O327  1  0.07706952  0.93370027  0.05558185  1
  O2-  O328  1  0.07819834  0.39735477  0.94273682  1
  O2-  O329  1  0.06299248  0.74205831  0.51326638  1
  O2-  O330  1  0.06580667  0.28033737  0.43266904  1
  O2-  O331  1  0.06331432  0.74169341  0.28825148  1
  O2-  O332  1  0.43597986  0.08381988  0.71770071  1
  O2-  O333  1  0.55942099  0.58527123  0.21095073  1
  O2-  O334  1  0.43770658  0.25364290  0.48195094  1
  O2-  O335  1  0.93948885  0.07683390  0.30579987  1
  O2-  O336  1  0.92923887  0.71738214  0.17005870  1
  O2-  O337  1  0.94023403  0.40726185  0.21158198  1
  O2-  O338  1  0.91720054  0.07798257  0.57641270  1
  O2-  O339  1  0.93631361  0.25268581  0.26505283  1
  O2-  O340  1  0.57192442  0.06180560  0.58445681  1
  O2-  O341  1  0.93669233  0.25453810  0.78204753  1
  O2-  O342  1  0.93723022  0.91871596  0.46595951  1
  O2-  O343  1  0.07919411  0.94036914  0.30550467  1
  O2-  O344  1  0.93909169  0.08098781  0.76748966  1
  O2-  O345  1  0.94273541  0.91697198  0.03142204  1
  O2-  O346  1  0.08184299  0.72996250  0.80762696  1
  O2-  O347  1  0.06233702  0.92510142  0.77230882  1
  O2-  O348  1  0.93546549  0.40761360  0.67600648  1
  O2-  O349  1  0.56755543  0.32272190  0.58296727  1
  O2-  O350  1  0.93011201  0.58098340  0.57181107  1
  O2-  O351  1  0.56696462  0.72496441  0.42491404  1
  O2-  O352  1  0.41505859  0.26394042  0.93654818  1
  O2-  O353  1  0.06099353  0.40872505  0.27902987  1
  O2-  O354  1  0.43804538  0.03310048  0.92557143  1
  O2-  O355  1  0.56145725  0.92303790  0.72733536  1
  O2-  O356  1  0.56367064  0.71541584  0.91555410  1
  O2-  O357  1  0.93689970  0.59965020  0.77729216  1
  O2-  O358  1  0.93089738  0.07760936  0.16278280  1
  O2-  O359  1  0.43489318  0.25535679  0.28076598  1
  O2-  O360  1  0.42002788  0.40993958  0.06177890  1
  O2-  O361  1  0.56205028  0.07930365  0.02004328  1
  O2-  O362  1  0.06009251  0.58867569  0.28764215  1
  O2-  O363  1  0.93912389  0.60086036  0.42013565  1
  O2-  O364  1  0.42402631  0.58736648  0.67026772  1
  O2-  O365  1  0.92513502  0.06788927  0.43412468  1
  O2-  O366  1  0.43514439  0.07145743  0.51518876  1
  O2-  O367  1  0.93838502  0.41480479  0.82701352  1
  O2-  O368  1  0.93485467  0.59785038  0.97884394  1
  O2-  O369  1  0.43083553  0.63880478  0.82920365  1
  O2-  O370  1  0.07611515  0.59799912  0.69281887  1
  O2-  O371  1  0.43306453  0.59043332  0.27275334  1
  O2-  O372  1  0.74740445  -0.03306407  0.41137029  1
  O2-  O373  1  0.74869455  -0.01429832  0.60864910  1
  O2-  O374  1  0.24837193  0.66069299  0.84646280  1
  O2-  O375  1  0.75126768  0.32047851  0.14249550  1
  O2-  O376  1  0.24927089  0.33084126  0.19918015  1
  O2-  O377  1  0.24945173  0.00530641  0.13375247  1
  O2-  O378  1  0.74950226  0.32425259  0.92552652  1
  O2-  O379  1  0.74966291  0.69182785  0.18537987  1
  O2-  O380  1  0.25075417  0.34280471  0.54264197  1
  O2-  O381  1  0.24931234  0.67151658  0.60484992  1
  O2-  O382  1  0.74882664  -0.00273797  0.92655989  1
  O2-  O383  1  0.74994571  0.00799239  0.30249467  1
  O2-  O384  1  0.25017292  0.31984218  0.91073378  1
  O2-  O385  1  0.75062793  0.33646622  0.69004623  1
  O2-  O386  1  0.25060782  0.67220709  0.38798702  1
  O2-  O387  1  0.25100524  0.34882344  0.36235565  1
  O2-  O388  1  0.25029053  0.68290944  0.11104908  1
  O2-  O389  1  0.74990648  0.34045944  0.83537342  1
  O2-  O390  1  0.74868279  -0.00804150  0.83413195  1
  O2-  O391  1  0.75066362  0.33866346  0.55573008  1
  O2-  O392  1  0.24874872  0.32317295  0.06959962  1
  O2-  O393  1  0.74919098  0.65259082  0.05709783  1
  O2-  O394  1  0.74964590  0.66870415  0.40392420  1
  O2-  O395  1  0.25002054  0.33196553  0.67259088  1
  O2-  O396  1  0.24966805  0.15512843  0.90659748  1
  O2-  O397  1  0.74923267  0.16254819  0.41689100  1
  O2-  O398  1  0.25077108  0.84654715  0.55729469  1
  O2-  O399  1  0.24882890  0.48781252  0.89944232  1
  O2-  O400  1  0.24989222  0.80640144  0.63518042  1
  O2-  O401  1  0.74795882  0.15699057  0.68134331  1
  O2-  O402  1  0.24931857  0.12094268  0.40247568  1
  O2-  O403  1  0.24965423  0.51379869  0.66333107  1
  O2-  O404  1  0.74950444  0.14432980  0.81222671  1
  O2-  O405  1  0.74918133  0.16861402  0.32968656  1
  O2-  O406  1  0.25075320  0.78791025  0.84921175  1
  O2-  O407  1  0.25045468  0.48826249  0.14570342  1
  O2-  O408  1  0.74974377  0.50618863  0.56931936  1
  O2-  O409  1  0.74961190  0.51656152  0.86380370  1
  O2-  O410  1  0.24951651  0.13223704  0.62395610  1
  O2-  O411  1  0.25049538  0.49817750  0.38739788  1
  O2-  O412  1  0.25027957  0.82900400  0.40160423  1
  O2-  O413  1  0.24864900  0.17961825  0.33521101  1
  O2-  O414  1  0.75029268  0.49281071  0.69432324  1
  O2-  O415  1  0.25118491  0.85627453  0.90751474  1
  O2-  O416  1  0.24938420  0.51818448  0.81662321  1
  O2-  O417  1  0.25027038  0.50259001  0.57342785  1
  O2-  O418  1  0.75013919  0.50339381  0.09178603  1
  O2-  O419  1  0.75054938  0.17211828  0.89357648  1
  O2-  O420  1  0.48210736  0.33410960  0.86638953  1
  O2-  O421  1  0.51603883  -0.00367266  0.37275688  1
  O2-  O422  1  0.47186176  0.66526953  0.12418516  1
  O2-  O423  1  0.47663231  0.66791658  0.38255633  1
  O2-  O424  1  0.02349976  0.31325993  0.85868384  1
  O2-  O425  1  0.54408191  -0.02201242  0.12598778  1
  O2-  O426  1  0.44834545  -0.02906820  0.11373601  1
  O2-  O427  1  0.04695566  0.01284002  0.62589317  1
  O2-  O428  1  0.95579388  -0.02964751  0.64672266  1
  O2-  O429  1  0.02998157  0.65617950  0.12680993  1
  O2-  O430  1  0.97192666  0.35237456  0.37965863  1
  O2-  O431  1  0.01826696  0.66837644  0.61546947  1
  O2-  O432  1  0.02933439  0.33004868  0.63835343  1
  O2-  O433  1  0.01471672  0.66468444  0.88168136  1
  O2-  O434  1  0.47580001  -0.01848479  0.62161170  1
  O2-  O435  1  0.04770042  0.03063767  0.88990619  1
  O2-  O436  1  0.02073779  0.00137563  0.39584293  1
  O2-  O437  1  0.45401023  0.32527482  0.15588533  1
  O2-  O438  1  0.95687545  -0.01313735  0.87732899  1
  O2-  O439  1  0.02419460  0.02247569  0.12728713  1
  O2-  O440  1  0.48617373  0.67287736  0.62054881  1
  O2-  O441  1  0.48141079  0.36214847  0.37071505  1
  O2-  O442  1  0.96619412  0.69006577  0.65200276  1
  O2-  O443  1  0.54769249  0.33556562  0.12094777  1
