# generated using pymatgen
data_La7(Ru4O11)2
_symmetry_space_group_name_H-M   'P 1'
_cell_length_a   23.99175340
_cell_length_b   16.83247691
_cell_length_c   15.42853898
_cell_angle_alpha   89.99846213
_cell_angle_beta   89.99964184
_cell_angle_gamma   90.00000213
_symmetry_Int_Tables_number   1
_chemical_formula_structural   La7(Ru4O11)2
_chemical_formula_sum   'La84 Ru96 O264'
_cell_volume   6230.67097506
_cell_formula_units_Z   12
loop_
 _symmetry_equiv_pos_site_id
 _symmetry_equiv_pos_as_xyz
  1  'x, y, z'
loop_
 _atom_type_symbol
 _atom_type_oxidation_number
  La3+  3.0
  Ru4+  4.0
  O2-  -2.0
loop_
 _atom_site_type_symbol
 _atom_site_label
 _atom_site_symmetry_multiplicity
 _atom_site_fract_x
 _atom_site_fract_y
 _atom_site_fract_z
 _atom_site_occupancy
  La3+  La0  1  0.14166737  -0.00009094  0.12598233  1
  La3+  La1  1  0.14013678  0.00114140  0.37052437  1
  La3+  La2  1  0.13854468  -0.00290069  0.62376883  1
  La3+  La3  1  0.13822739  -0.00173877  0.87354637  1
  La3+  La4  1  0.14284563  0.33110046  0.12537203  1
  La3+  La5  1  0.14305859  0.33357811  0.37655675  1
  La3+  La6  1  0.14151630  0.33139726  0.62058989  1
  La3+  La7  1  0.13632721  0.33655979  0.88044199  1
  La3+  La8  1  0.14492732  0.66588988  0.11972219  1
  La3+  La9  1  0.14168426  0.65873706  0.36855510  1
  La3+  La10  1  0.13852105  0.67209581  0.62396645  1
  La3+  La11  1  0.14156316  0.66800004  0.87727082  1
  La3+  La12  1  0.63974613  0.00223181  0.13395482  1
  La3+  La13  1  0.64307419  0.00106976  0.37132455  1
  La3+  La14  1  0.63641435  0.00201136  0.62032580  1
  La3+  La15  1  0.63275897  -0.00078311  0.88066888  1
  La3+  La16  1  0.64210154  0.33450290  0.12793172  1
  La3+  La17  1  0.64563979  0.33403107  0.37270490  1
  La3+  La18  1  0.63633512  0.33669066  0.62269977  1
  La3+  La19  1  0.63747478  0.33558781  0.87588493  1
  La3+  La20  1  0.64168813  0.66420496  0.12698934  1
  La3+  La21  1  0.64190145  0.66520180  0.37561770  1
  La3+  La22  1  0.64146014  0.66297558  0.62632714  1
  La3+  La23  1  0.63838178  0.66262997  0.87771592  1
  La3+  La24  1  0.36232105  0.00226330  0.12688377  1
  La3+  La25  1  0.35841304  0.00204130  0.37231357  1
  La3+  La26  1  0.36019398  0.00095863  0.62472517  1
  La3+  La27  1  0.36030482  0.00274116  0.87268279  1
  La3+  La28  1  0.36087038  0.33466886  0.12506693  1
  La3+  La29  1  0.35606610  0.33317164  0.37558988  1
  La3+  La30  1  0.36137677  0.33156644  0.62174749  1
  La3+  La31  1  0.36090020  0.33349887  0.87799543  1
  La3+  La32  1  0.35988795  0.66379326  0.12246303  1
  La3+  La33  1  0.36171945  0.66608404  0.37719549  1
  La3+  La34  1  0.35990336  0.66866278  0.62506785  1
  La3+  La35  1  0.35829512  0.66688990  0.87804187  1
  La3+  La36  1  0.85999991  0.00070998  0.12955509  1
  La3+  La37  1  0.85462864  -0.00004351  0.37249864  1
  La3+  La38  1  0.86065130  0.00432824  0.62554366  1
  La3+  La39  1  0.86474075  -0.00001187  0.87547335  1
  La3+  La40  1  0.85945340  0.33178835  0.13139171  1
  La3+  La41  1  0.85430231  0.33430353  0.37123180  1
  La3+  La42  1  0.85933186  0.33710925  0.62298034  1
  La3+  La43  1  0.85949118  0.33485555  0.87655622  1
  La3+  La44  1  0.85746132  0.66403613  0.12826919  1
  La3+  La45  1  0.85853938  0.66589930  0.37497290  1
  La3+  La46  1  0.86264524  0.66314406  0.62315765  1
  La3+  La47  1  0.86258095  0.66539146  0.87671166  1
  La3+  La48  1  0.49840416  0.83136628  0.61435866  1
  La3+  La49  1  0.49968286  0.16655025  0.62991091  1
  La3+  La50  1  -0.00112363  0.83427157  0.13487492  1
  La3+  La51  1  -0.00076883  0.83134528  0.86404155  1
  La3+  La52  1  0.00306970  0.50665345  0.63392355  1
  La3+  La53  1  0.50139628  0.83845116  0.37771436  1
  La3+  La54  1  0.49850358  0.16786552  0.37966410  1
  La3+  La55  1  0.00373935  0.83999960  0.11495658  1
  La3+  La56  1  0.00315021  0.16164425  0.89237817  1
  La3+  La57  1  -0.00255237  0.16324786  0.62848417  1
  La3+  La58  1  -0.00027053  0.16667646  0.38018230  1
  La3+  La59  1  -0.00766409  0.17219857  0.36196809  1
  La3+  La60  1  0.49689865  0.83147233  0.86498241  1
  La3+  La61  1  0.49559231  0.82973347  0.88114403  1
  La3+  La62  1  0.49996537  0.16884864  0.87215743  1
  La3+  La63  1  0.49972289  0.49872502  0.37226626  1
  La3+  La64  1  0.00352542  0.17254229  0.61951331  1
  La3+  La65  1  -0.00541181  0.50856446  0.88201424  1
  La3+  La66  1  0.49986997  0.49876399  0.37210823  1
  La3+  La67  1  0.00355730  0.50264710  0.13193353  1
  La3+  La68  1  -0.00603951  0.49498545  0.37298391  1
  La3+  La69  1  0.00191015  0.82975671  0.37271889  1
  La3+  La70  1  -0.00151517  0.50131890  0.61331915  1
  La3+  La71  1  -0.00126330  0.16928526  0.87274305  1
  La3+  La72  1  0.74994540  0.23697712  0.73469753  1
  La3+  La73  1  0.75071345  0.86364269  0.00046930  1
  La3+  La74  1  0.24924602  0.51151834  0.75837222  1
  La3+  La75  1  0.25016775  0.45682828  0.20205125  1
  La3+  La76  1  0.74951828  0.15923412  0.06367947  1
  La3+  La77  1  0.74945141  0.49644259  0.77765197  1
  La3+  La78  1  0.25041994  0.18310765  0.01137501  1
  La3+  La79  1  0.24992927  0.50142668  0.54361944  1
  La3+  La80  1  0.74946177  0.50125892  -0.02714741  1
  La3+  La81  1  0.74952586  0.83687790  0.51909194  1
  La3+  La82  1  0.24993505  0.77990697  0.03331347  1
  La3+  La83  1  0.75004309  0.83655182  0.71347683  1
  Ru4+  Ru84  1  -0.00032114  -0.00254023  0.00651083  1
  Ru4+  Ru85  1  -0.00380043  -0.01042020  0.24115288  1
  Ru4+  Ru86  1  -0.00328557  -0.00917105  0.50543384  1
  Ru4+  Ru87  1  0.00159768  -0.01281974  0.74869257  1
  Ru4+  Ru88  1  0.00789238  0.34164134  -0.00288258  1
  Ru4+  Ru89  1  0.00031556  0.33440902  0.24872340  1
  Ru4+  Ru90  1  -0.00180546  0.33934805  0.49951026  1
  Ru4+  Ru91  1  0.00513134  0.33548039  0.74822965  1
  Ru4+  Ru92  1  0.00419496  0.66576889  -0.00075479  1
  Ru4+  Ru93  1  0.00510245  0.66081815  0.25282894  1
  Ru4+  Ru94  1  0.00043088  0.67332706  0.49799878  1
  Ru4+  Ru95  1  0.00073342  0.66881868  0.74914362  1
  Ru4+  Ru96  1  0.50046884  -0.00151378  0.01054513  1
  Ru4+  Ru97  1  0.50453949  -0.00015956  0.24709127  1
  Ru4+  Ru98  1  0.49808541  0.00244368  0.49692213  1
  Ru4+  Ru99  1  0.49978559  0.00141882  0.75298037  1
  Ru4+  Ru100  1  0.50440417  0.33787983  0.00188209  1
  Ru4+  Ru101  1  0.49699834  0.33187614  0.24392846  1
  Ru4+  Ru102  1  0.50254926  0.32625240  0.50499821  1
  Ru4+  Ru103  1  0.49762561  0.34207995  0.74771827  1
  Ru4+  Ru104  1  0.50269807  0.66007813  0.00677143  1
  Ru4+  Ru105  1  0.49722993  0.66548093  0.25010760  1
  Ru4+  Ru106  1  0.49563907  0.66907559  0.49589775  1
  Ru4+  Ru107  1  0.50174531  0.66179288  0.75156343  1
  Ru4+  Ru108  1  0.11041307  0.16528653  0.00280250  1
  Ru4+  Ru109  1  0.11740810  0.16818664  0.24676804  1
  Ru4+  Ru110  1  0.11520326  0.16592148  0.49961584  1
  Ru4+  Ru111  1  0.11485374  0.16926385  0.74970123  1
  Ru4+  Ru112  1  0.11504386  0.49852774  0.00449845  1
  Ru4+  Ru113  1  0.10967822  0.50259647  0.24806322  1
  Ru4+  Ru114  1  0.11254333  0.49844465  0.49771091  1
  Ru4+  Ru115  1  0.11051091  0.49711025  0.75030912  1
  Ru4+  Ru116  1  0.10982292  0.83111747  0.00085137  1
  Ru4+  Ru117  1  0.11127480  0.83347103  0.25160596  1
  Ru4+  Ru118  1  0.10857357  0.83277592  0.50132119  1
  Ru4+  Ru119  1  0.11083049  0.83449850  0.74794589  1
  Ru4+  Ru120  1  0.60903886  0.16938688  0.00213941  1
  Ru4+  Ru121  1  0.61513321  0.16481311  0.24947364  1
  Ru4+  Ru122  1  0.61232301  0.17081056  0.49903554  1
  Ru4+  Ru123  1  0.61044654  0.16715776  0.74973537  1
  Ru4+  Ru124  1  0.60579837  0.50012822  -0.00143397  1
  Ru4+  Ru125  1  0.61410274  0.50061914  0.24964168  1
  Ru4+  Ru126  1  0.61777420  0.49808616  0.50257065  1
  Ru4+  Ru127  1  0.60878564  0.50171679  0.75017469  1
  Ru4+  Ru128  1  0.61192459  0.83028309  0.00661713  1
  Ru4+  Ru129  1  0.61314089  0.83676273  0.24894984  1
  Ru4+  Ru130  1  0.61100386  0.83202449  0.50135008  1
  Ru4+  Ru131  1  0.60989725  0.83320766  0.74925122  1
  Ru4+  Ru132  1  0.39192743  0.16394124  0.00107027  1
  Ru4+  Ru133  1  0.38637675  0.16228693  0.24739863  1
  Ru4+  Ru134  1  0.38734866  0.16954066  0.50041998  1
  Ru4+  Ru135  1  0.38894641  0.16615740  0.74745361  1
  Ru4+  Ru136  1  0.38798093  0.50477552  -0.00137644  1
  Ru4+  Ru137  1  0.38897886  0.50281306  0.24738023  1
  Ru4+  Ru138  1  0.38722596  0.49663831  0.50110200  1
  Ru4+  Ru139  1  0.39375615  0.49293254  0.75198039  1
  Ru4+  Ru140  1  0.39336776  0.83812907  0.00278790  1
  Ru4+  Ru141  1  0.38795479  0.83378827  0.25154458  1
  Ru4+  Ru142  1  0.38638802  0.83455912  0.49790617  1
  Ru4+  Ru143  1  0.38516255  0.83075327  0.74860902  1
  Ru4+  Ru144  1  0.88824693  0.16491118  0.00163549  1
  Ru4+  Ru145  1  0.88317342  0.16761864  0.24627395  1
  Ru4+  Ru146  1  0.88437082  0.16802324  0.50143544  1
  Ru4+  Ru147  1  0.88725722  0.16442974  0.74856662  1
  Ru4+  Ru148  1  0.88823180  0.50232062  0.00219760  1
  Ru4+  Ru149  1  0.88593090  0.50018002  0.25009579  1
  Ru4+  Ru150  1  0.88513722  0.50096909  0.49854518  1
  Ru4+  Ru151  1  0.88581124  0.50083894  0.75034825  1
  Ru4+  Ru152  1  0.88890544  0.83952152  0.00080236  1
  Ru4+  Ru153  1  0.88649167  0.83318121  0.24982359  1
  Ru4+  Ru154  1  0.89128467  0.83879358  0.50157366  1
  Ru4+  Ru155  1  0.89106142  0.83254227  0.74931650  1
  Ru4+  Ru156  1  0.74989164  0.30015231  0.02265149  1
  Ru4+  Ru157  1  0.25008016  0.91691219  -0.01018210  1
  Ru4+  Ru158  1  0.25088910  0.23742239  0.74858879  1
  Ru4+  Ru159  1  0.24981393  0.91935787  0.74532610  1
  Ru4+  Ru160  1  0.25023981  0.32493108  0.00525154  1
  Ru4+  Ru161  1  0.24966069  0.64846581  0.77800107  1
  Ru4+  Ru162  1  0.25003215  0.92009318  0.49159607  1
  Ru4+  Ru163  1  0.25024611  0.60913081  0.24626761  1
  Ru4+  Ru164  1  0.74926319  0.08308473  0.74226673  1
  Ru4+  Ru165  1  0.75038606  0.72022190  0.03063875  1
  Ru4+  Ru166  1  0.25082131  0.23988902  0.25555093  1
  Ru4+  Ru167  1  0.25038828  0.75220097  0.25284799  1
  Ru4+  Ru168  1  0.25036276  0.08220098  0.74659661  1
  Ru4+  Ru169  1  0.74995927  0.24311338  0.48174506  1
  Ru4+  Ru170  1  0.74972360  0.95609965  0.77257935  1
  Ru4+  Ru171  1  0.74993884  0.70714401  0.74569489  1
  Ru4+  Ru172  1  0.74938877  0.03455702  -0.01044471  1
  Ru4+  Ru173  1  0.75006811  0.69348687  0.50472451  1
  Ru4+  Ru174  1  0.25013076  0.37229289  0.74874715  1
  Ru4+  Ru175  1  0.25048042  0.08385911  0.49901671  1
  Ru4+  Ru176  1  0.25024497  0.91332478  0.25846974  1
  Ru4+  Ru177  1  0.24995261  0.05010700  -0.02686273  1
  Ru4+  Ru178  1  0.75030847  0.97405489  0.47657761  1
  Ru4+  Ru179  1  0.24940814  0.75059833  0.49171762  1
  O2-  O180  1  0.16508651  0.07864743  -0.00015584  1
  O2-  O181  1  0.16746668  0.08329339  0.25235302  1
  O2-  O182  1  0.16872650  0.08092100  0.49905363  1
  O2-  O183  1  0.16579614  0.08008421  0.74922563  1
  O2-  O184  1  0.16931564  0.41354720  -0.00169188  1
  O2-  O185  1  0.16171536  0.41348724  0.25150818  1
  O2-  O186  1  0.17156567  0.41412668  0.50129093  1
  O2-  O187  1  0.16554416  0.41184555  0.74971430  1
  O2-  O188  1  0.16118788  0.74573474  -0.00453582  1
  O2-  O189  1  0.16662541  0.74898617  0.25020256  1
  O2-  O190  1  0.17027221  0.75048809  0.50013948  1
  O2-  O191  1  0.16529187  0.75084988  0.75214060  1
  O2-  O192  1  0.66620289  0.07859076  -0.00095866  1
  O2-  O193  1  0.66428641  0.08251695  0.25060406  1
  O2-  O194  1  0.66317977  0.08142931  0.50232373  1
  O2-  O195  1  0.66458331  0.07995332  0.75015299  1
  O2-  O196  1  0.66580332  0.41545420  -0.00064135  1
  O2-  O197  1  0.66333121  0.41571698  0.24981553  1
  O2-  O198  1  0.66561479  0.41372741  0.50058226  1
  O2-  O199  1  0.66544206  0.41532724  0.75034616  1
  O2-  O200  1  0.66969525  0.74721299  0.00117089  1
  O2-  O201  1  0.66232238  0.75040449  0.25053953  1
  O2-  O202  1  0.66852150  0.74409625  0.50032211  1
  O2-  O203  1  0.66895111  0.74429966  0.75068493  1
  O2-  O204  1  0.33474571  0.25425379  0.00050263  1
  O2-  O205  1  0.33366991  0.25163733  0.25000400  1
  O2-  O206  1  0.33500222  0.25220603  0.50178559  1
  O2-  O207  1  0.33537372  0.25214580  0.75002071  1
  O2-  O208  1  0.33635362  0.58314252  -0.00034681  1
  O2-  O209  1  0.33175590  0.58823463  0.25011529  1
  O2-  O210  1  0.33176719  0.58802310  0.49994964  1
  O2-  O211  1  0.33275838  0.58482853  0.74820404  1
  O2-  O212  1  0.33297801  0.91795128  0.00092861  1
  O2-  O213  1  0.33433798  0.91853527  0.25135776  1
  O2-  O214  1  0.33256990  0.92041622  0.49806522  1
  O2-  O215  1  0.33434255  0.92094074  0.74915232  1
  O2-  O216  1  0.83286375  0.25672000  0.00085867  1
  O2-  O217  1  0.83397492  0.25184260  0.25063085  1
  O2-  O218  1  0.83382876  0.25362843  0.49942771  1
  O2-  O219  1  0.84123422  0.25786385  0.75028510  1
  O2-  O220  1  0.83197182  0.58339890  -0.00003096  1
  O2-  O221  1  0.83637308  0.58607385  0.25185390  1
  O2-  O222  1  0.83241849  0.58484199  0.50020392  1
  O2-  O223  1  0.83248157  0.58498524  0.75137616  1
  O2-  O224  1  0.83595092  0.92280702  0.00031476  1
  O2-  O225  1  0.83571569  0.91938090  0.24715012  1
  O2-  O226  1  0.82839511  0.92039274  0.49964809  1
  O2-  O227  1  0.83614624  0.92128361  0.75097458  1
  O2-  O228  1  0.16968071  0.25608781  -0.00043894  1
  O2-  O229  1  0.16704030  0.25162529  0.25086378  1
  O2-  O230  1  0.16660633  0.25132285  0.49992903  1
  O2-  O231  1  0.16940996  0.25229481  0.75158563  1
  O2-  O232  1  0.16457196  0.58249088  -0.00452058  1
  O2-  O233  1  0.16937739  0.58523124  0.24626338  1
  O2-  O234  1  0.16625971  0.58433707  0.50125471  1
  O2-  O235  1  0.16677372  0.58923823  0.74989467  1
  O2-  O236  1  0.16766621  0.92018310  -0.00117806  1
  O2-  O237  1  0.16820053  0.91879279  0.25128133  1
  O2-  O238  1  0.16780182  0.92002068  0.49760719  1
  O2-  O239  1  0.16691096  0.92048775  0.75009432  1
  O2-  O240  1  0.66815084  0.25408957  0.00074956  1
  O2-  O241  1  0.66110518  0.25095473  0.24913032  1
  O2-  O242  1  0.66805667  0.25285369  0.50060659  1
  O2-  O243  1  0.65899728  0.25684018  0.75043244  1
  O2-  O244  1  0.66804367  0.58198250  0.00221816  1
  O2-  O245  1  0.66501419  0.58567111  0.25136432  1
  O2-  O246  1  0.67076032  0.58310978  0.49704530  1
  O2-  O247  1  0.66745542  0.58343266  0.75200317  1
  O2-  O248  1  0.66860720  0.91998716  -0.00491914  1
  O2-  O249  1  0.66858472  0.91668631  0.24647342  1
  O2-  O250  1  0.66767020  0.92221280  0.50154726  1
  O2-  O251  1  0.66371740  0.92262043  0.75003339  1
  O2-  O252  1  0.33214240  0.07845981  -0.00085533  1
  O2-  O253  1  0.33500649  0.08302205  0.25086771  1
  O2-  O254  1  0.33237924  0.07992498  0.49972091  1
  O2-  O255  1  0.33192408  0.08041421  0.74789639  1
  O2-  O256  1  0.33534666  0.41340969  -0.00149768  1
  O2-  O257  1  0.33867030  0.41319858  0.25162722  1
  O2-  O258  1  0.33158658  0.41279289  0.50383684  1
  O2-  O259  1  0.33346764  0.41297770  0.74761976  1
  O2-  O260  1  0.33890735  0.74612496  -0.00010253  1
  O2-  O261  1  0.33322053  0.74656873  0.25171757  1
  O2-  O262  1  0.33259879  0.74779507  0.49767183  1
  O2-  O263  1  0.33446772  0.74768107  0.75074364  1
  O2-  O264  1  0.83312359  0.07780358  -0.00001721  1
  O2-  O265  1  0.83742224  0.07955016  0.24929241  1
  O2-  O266  1  0.83427655  0.07980666  0.49971811  1
  O2-  O267  1  0.83213566  0.08096941  0.75166080  1
  O2-  O268  1  0.83315080  0.41418624  -0.00119805  1
  O2-  O269  1  0.83715237  0.41495227  0.25019499  1
  O2-  O270  1  0.83597291  0.41386392  0.50047727  1
  O2-  O271  1  0.83254787  0.41379426  0.74991032  1
  O2-  O272  1  0.83256220  0.74569957  0.00151564  1
  O2-  O273  1  0.83665835  0.74739458  0.25064711  1
  O2-  O274  1  0.83355668  0.74547691  0.50211107  1
  O2-  O275  1  0.83179027  0.74330481  0.74993503  1
  O2-  O276  1  0.54677999  0.43120051  0.99032663  1
  O2-  O277  1  0.54595540  0.10422111  0.26500421  1
  O2-  O278  1  0.54802141  0.42007536  0.48184559  1
  O2-  O279  1  0.95279565  0.23355421  0.00517904  1
  O2-  O280  1  0.05607110  0.91799609  0.50025985  1
  O2-  O281  1  0.44365637  0.57189279  0.48231977  1
  O2-  O282  1  0.04496747  0.42850682  0.25687167  1
  O2-  O283  1  0.45585448  0.76316916  0.73690113  1
  O2-  O284  1  0.95461925  0.23452931  0.73751144  1
  O2-  O285  1  0.95597432  0.76799097  1.00929987  1
  O2-  O286  1  0.45145799  0.56832138  0.98822546  1
  O2-  O287  1  0.04619428  0.09775601  0.73686379  1
  O2-  O288  1  0.54218668  0.56243229  0.49727293  1
  O2-  O289  1  0.03759140  0.10198111  0.24900964  1
  O2-  O290  1  0.05451568  0.43088365  0.95058936  1
  O2-  O291  1  0.54084887  0.88660052  -0.01657481  1
  O2-  O292  1  0.53471493  0.87784863  0.21638853  1
  O2-  O293  1  0.54109650  0.87808419  0.99152579  1
  O2-  O294  1  0.95393007  0.42802602  0.74051745  1
  O2-  O295  1  0.45683426  0.56618900  0.72144036  1
  O2-  O296  1  0.54521302  0.56570143  0.23369436  1
  O2-  O297  1  0.45540084  0.90568449  0.73491793  1
  O2-  O298  1  0.05636528  0.91638602  0.49109688  1
  O2-  O299  1  0.45286611  0.43239621  0.25873145  1
  O2-  O300  1  0.54576784  0.09658147  0.75982777  1
  O2-  O301  1  0.94938035  0.42767597  0.99284374  1
  O2-  O302  1  0.04719484  0.23541034  0.49221883  1
  O2-  O303  1  0.03867653  0.77964114  0.52109096  1
  O2-  O304  1  0.46519561  0.43755607  0.70517817  1
  O2-  O305  1  0.05293101  0.24233412  0.26254239  1
  O2-  O306  1  0.95234432  0.23875324  0.99708277  1
  O2-  O307  1  0.95026429  0.57216350  0.75846644  1
  O2-  O308  1  0.95431452  0.09832539  0.50853457  1
  O2-  O309  1  0.54296832  0.23780758  0.74025096  1
  O2-  O310  1  0.93896372  0.75190425  0.47560039  1
  O2-  O311  1  0.94503549  0.25093152  0.22534047  1
  O2-  O312  1  0.04999836  0.57115289  0.76554749  1
  O2-  O313  1  0.45049659  0.89391051  0.05329457  1
  O2-  O314  1  0.54530795  0.10028788  0.49521699  1
  O2-  O315  1  0.05552479  0.57713924  0.29622121  1
  O2-  O316  1  0.96457183  0.87458949  0.49949239  1
  O2-  O317  1  0.03933841  0.09958498  0.25615400  1
  O2-  O318  1  0.55022311  0.56450779  0.76500733  1
  O2-  O319  1  0.45406236  0.75525781  0.01453112  1
  O2-  O320  1  0.54599964  0.10131546  0.98422361  1
  O2-  O321  1  0.03505842  0.77034641  0.51636068  1
  O2-  O322  1  0.95403582  0.76615122  -0.00999764  1
  O2-  O323  1  0.54219832  0.56207786  0.49632721  1
  O2-  O324  1  0.43817307  0.06764707  0.22326146  1
  O2-  O325  1  0.43455010  0.74476959  0.52201586  1
  O2-  O326  1  0.56819388  0.25029370  0.56632976  1
  O2-  O327  1  0.43290666  0.25568480  0.20076118  1
  O2-  O328  1  0.43234430  0.25530524  0.30148182  1
  O2-  O329  1  0.42857295  0.38476987  0.81090654  1
  O2-  O330  1  0.06566006  0.92241755  0.01919902  1
  O2-  O331  1  0.56626864  0.59120380  0.97716601  1
  O2-  O332  1  0.07173215  0.24338484  0.68044049  1
  O2-  O333  1  0.06503214  0.39222548  0.09582797  1
  O2-  O334  1  0.06624525  0.61273175  0.16535565  1
  O2-  O335  1  0.58600279  0.96855269  0.04246558  1
  O2-  O336  1  0.56439342  0.26318203  0.03165467  1
  O2-  O337  1  0.93677242  0.59292985  0.46409117  1
  O2-  O338  1  0.43761259  0.92696903  0.46873392  1
  O2-  O339  1  0.06338139  0.74467989  0.73098461  1
  O2-  O340  1  0.06519211  0.25725139  0.97559974  1
  O2-  O341  1  0.56751883  0.75218760  0.43103816  1
  O2-  O342  1  0.06042611  0.59255288  0.02226274  1
  O2-  O343  1  0.06906649  0.24988981  0.81761584  1
  O2-  O344  1  0.94273246  0.24922371  0.22664233  1
  O2-  O345  1  0.58372191  0.60998223  0.53638990  1
  O2-  O346  1  0.08868909  0.70736579  0.45320374  1
  O2-  O347  1  0.93454189  0.74812084  0.69010773  1
  O2-  O348  1  0.57124672  0.75167730  0.81916654  1
  O2-  O349  1  0.56854466  0.75015833  0.68945408  1
  O2-  O350  1  0.05931809  0.42665802  0.95689108  1
  O2-  O351  1  0.93681193  0.59567106  0.03645399  1
  O2-  O352  1  0.56586396  0.73516904  0.03436175  1
  O2-  O353  1  0.43619629  0.07001514  0.71512954  1
  O2-  O354  1  0.06238327  0.92758205  0.28708287  1
  O2-  O355  1  0.93499562  0.07158286  0.77705515  1
  O2-  O356  1  0.08175582  0.05951811  0.21625003  1
  O2-  O357  1  0.56303847  0.92864903  0.53432792  1
  O2-  O358  1  0.43685601  0.07252869  0.02993313  1
  O2-  O359  1  0.56808614  0.75225765  0.56281078  1
  O2-  O360  1  0.06768997  0.41512446  0.43121840  1
  O2-  O361  1  0.06404777  0.92811101  0.68247983  1
  O2-  O362  1  0.42673935  0.59937198  0.78819188  1
  O2-  O363  1  0.91574544  0.95926099  0.53245346  1
  O2-  O364  1  0.05149517  0.57149749  0.29865439  1
  O2-  O365  1  0.07318291  0.42399836  0.56818710  1
  O2-  O366  1  0.06310378  0.92792096  0.82296905  1
  O2-  O367  1  0.42877470  0.94243484  0.93231820  1
  O2-  O368  1  0.57474383  0.93917340  0.29722294  1
  O2-  O369  1  0.93211819  0.74768729  0.81374445  1
  O2-  O370  1  0.56440393  0.26086624  0.42381358  1
  O2-  O371  1  0.43559509  0.59972770  0.21750662  1
  O2-  O372  1  0.75037853  0.66146849  0.39205890  1
  O2-  O373  1  0.75033774  0.34056535  0.82162317  1
  O2-  O374  1  0.24988057  0.00186715  0.84496857  1
  O2-  O375  1  0.75035230  0.33312320  0.32956136  1
  O2-  O376  1  0.25009384  -0.00668815  0.35089398  1
  O2-  O377  1  0.25003287  0.00263928  0.18495762  1
  O2-  O378  1  0.25019649  0.32459252  0.86814506  1
  O2-  O379  1  0.75000828  0.67353987  0.14039223  1
  O2-  O380  1  0.25038075  0.65920383  0.57066480  1
  O2-  O381  1  0.75047747  0.65880773  0.63213572  1
  O2-  O382  1  0.25033134  0.00224233  0.59554796  1
  O2-  O383  1  0.25029631  0.33011398  0.33967062  1
  O2-  O384  1  0.25100793  0.32751446  0.63405797  1
  O2-  O385  1  0.75020332  -0.00207892  0.36132470  1
  O2-  O386  1  0.75025570  0.34162749  0.42026949  1
  O2-  O387  1  0.75006746  0.65736211  0.94015365  1
  O2-  O388  1  0.24997681  0.66392102  0.89825126  1
  O2-  O389  1  0.75028498  0.35243090  0.91362306  1
  O2-  O390  1  0.25144422  0.66650961  0.11434673  1
  O2-  O391  1  0.25085680  0.32697043  0.14634403  1
  O2-  O392  1  0.75022491  0.63245996  0.82973542  1
  O2-  O393  1  0.25049639  0.67714162  0.65988274  1
  O2-  O394  1  0.75045291  0.32917395  0.13990364  1
  O2-  O395  1  0.24966929  -0.00588699  0.08854264  1
  O2-  O396  1  0.25001694  0.17241879  0.15996069  1
  O2-  O397  1  0.25032433  0.83928518  0.90240627  1
  O2-  O398  1  0.74999498  0.49970938  0.18734115  1
  O2-  O399  1  0.74996014  0.16501129  0.18483335  1
  O2-  O400  1  0.25002778  0.16380484  0.65369936  1
  O2-  O401  1  0.25048695  0.83497289  0.56711393  1
  O2-  O402  1  0.75001867  0.14660802  0.84157706  1
  O2-  O403  1  0.24982679  0.51432656  0.32925128  1
  O2-  O404  1  0.25026160  0.83179636  0.68365812  1
  O2-  O405  1  0.75034867  0.49937601  0.10454113  1
  O2-  O406  1  0.75007524  0.83460639  0.39020485  1
  O2-  O407  1  0.75001021  0.17510619  0.35898946  1
  O2-  O408  1  0.75013925  0.14548613  0.63530992  1
  O2-  O409  1  0.75016162  0.16996532  0.92684376  1
  O2-  O410  1  0.75011891  0.15407815  0.54400889  1
  O2-  O411  1  0.25004110  0.83738627  0.16425180  1
  O2-  O412  1  0.75000680  0.49946533  0.56319896  1
  O2-  O413  1  0.25027164  0.82646771  0.81593996  1
  O2-  O414  1  0.25005645  0.16469980  0.84576235  1
  O2-  O415  1  0.25017713  0.50179366  0.41332772  1
  O2-  O416  1  0.25019314  0.17057965  0.34001495  1
  O2-  O417  1  0.75024508  0.83258756  0.86071015  1
  O2-  O418  1  0.75042898  0.49825760  0.64596191  1
  O2-  O419  1  0.25019503  0.50401755  0.08664173  1
  O2-  O420  1  0.97892677  0.65687417  0.87981893  1
  O2-  O421  1  0.97681775  0.01062997  0.63479472  1
  O2-  O422  1  0.03180621  0.33502853  0.62534192  1
  O2-  O423  1  0.52004182  0.00215433  0.37928807  1
  O2-  O424  1  0.94896093  0.33228095  0.61338390  1
  O2-  O425  1  0.46653034  0.66302043  0.62142819  1
  O2-  O426  1  0.52658190  -0.00331393  0.87140032  1
  O2-  O427  1  0.52138005  0.00951483  0.13315198  1
  O2-  O428  1  0.01051126  0.33715073  0.86780711  1
  O2-  O429  1  0.46693258  0.67860185  0.87881906  1
  O2-  O430  1  0.04275604  0.64974414  0.62680057  1
  O2-  O431  1  0.97499468  -0.00581485  0.88387681  1
  O2-  O432  1  0.95054895  -0.00070893  0.12635473  1
  O2-  O433  1  0.52292190  0.65309025  0.63267983  1
  O2-  O434  1  0.47584651  0.34198520  0.38484039  1
  O2-  O435  1  0.47776951  0.34112203  0.11491008  1
  O2-  O436  1  0.52230713  0.34275441  0.63242916  1
  O2-  O437  1  0.01672260  0.32262156  0.37273474  1
  O2-  O438  1  0.01321511  0.67711298  0.37335070  1
  O2-  O439  1  0.52503895  0.66156721  0.87814294  1
  O2-  O440  1  0.95820196  0.65136013  0.60644863  1
  O2-  O441  1  0.52228155  0.66019916  0.36461174  1
  O2-  O442  1  0.03723113  -0.00356793  0.12260467  1
  O2-  O443  1  0.52713291  0.32815640  0.87268437  1
