# generated using pymatgen
data_La7(Ru4O11)2
_symmetry_space_group_name_H-M   'P 1'
_cell_length_a   23.99050112
_cell_length_b   16.82961532
_cell_length_c   15.42702516
_cell_angle_alpha   89.99966003
_cell_angle_beta   90.00099711
_cell_angle_gamma   89.99992898
_symmetry_Int_Tables_number   1
_chemical_formula_structural   La7(Ru4O11)2
_chemical_formula_sum   'La84 Ru96 O264'
_cell_volume   6228.67536973
_cell_formula_units_Z   12
loop_
 _symmetry_equiv_pos_site_id
 _symmetry_equiv_pos_as_xyz
  1  'x, y, z'
loop_
 _atom_type_symbol
 _atom_type_oxidation_number
  La3+  3.0
  Ru4+  4.0
  O2-  -2.0
loop_
 _atom_site_type_symbol
 _atom_site_label
 _atom_site_symmetry_multiplicity
 _atom_site_fract_x
 _atom_site_fract_y
 _atom_site_fract_z
 _atom_site_occupancy
  La3+  La0  1  0.13831066  0.00031492  0.12726941  1
  La3+  La1  1  0.13934579  0.00165220  0.37134343  1
  La3+  La2  1  0.13667782  -0.00027765  0.62663058  1
  La3+  La3  1  0.13910314  0.00163586  0.87430670  1
  La3+  La4  1  0.14542950  0.33272494  0.12332571  1
  La3+  La5  1  0.14123412  0.33376957  0.37195750  1
  La3+  La6  1  0.13822447  0.33246822  0.62692902  1
  La3+  La7  1  0.13801122  0.33040578  0.87549182  1
  La3+  La8  1  0.14184416  0.66741661  0.12095640  1
  La3+  La9  1  0.14078419  0.66653172  0.37601934  1
  La3+  La10  1  0.13803202  0.66972806  0.62818822  1
  La3+  La11  1  0.13729719  0.66947113  0.87210176  1
  La3+  La12  1  0.63551995  -0.00805875  0.12891139  1
  La3+  La13  1  0.63385242  -0.00725579  0.36773070  1
  La3+  La14  1  0.64185806  0.00043572  0.62710785  1
  La3+  La15  1  0.63902541  0.00022412  0.87505384  1
  La3+  La16  1  0.63947917  0.33426990  0.12332847  1
  La3+  La17  1  0.63424937  0.33361560  0.37446818  1
  La3+  La18  1  0.63819805  0.33223408  0.62788928  1
  La3+  La19  1  0.64009077  0.33064469  0.87609886  1
  La3+  La20  1  0.63879776  0.66674955  0.12216405  1
  La3+  La21  1  0.63715299  0.66898850  0.37664721  1
  La3+  La22  1  0.63923950  0.66631114  0.62528289  1
  La3+  La23  1  0.64126256  0.66786393  0.87489341  1
  La3+  La24  1  0.35925117  0.00038924  0.12687342  1
  La3+  La25  1  0.35970553  0.00117645  0.37324606  1
  La3+  La26  1  0.36193292  -0.00120171  0.62641220  1
  La3+  La27  1  0.36070972  0.00054749  0.87379609  1
  La3+  La28  1  0.35337065  0.33194294  0.12562975  1
  La3+  La29  1  0.35527200  0.33188431  0.37433210  1
  La3+  La30  1  0.36154189  0.33555742  0.62495406  1
  La3+  La31  1  0.36009922  0.32959406  0.87639146  1
  La3+  La32  1  0.35863774  0.66608940  0.12374699  1
  La3+  La33  1  0.36163232  0.66618719  0.37516493  1
  La3+  La34  1  0.35753438  0.66697585  0.62406098  1
  La3+  La35  1  0.35862707  0.66735821  0.87586027  1
  La3+  La36  1  0.86238995  -0.00100898  0.12262066  1
  La3+  La37  1  0.86249361  -0.00118935  0.37546386  1
  La3+  La38  1  0.85868166  -0.00095581  0.62551719  1
  La3+  La39  1  0.85877161  -0.00105865  0.87638674  1
  La3+  La40  1  0.86159849  0.33217178  0.12180948  1
  La3+  La41  1  0.86387745  0.33091889  0.37375168  1
  La3+  La42  1  0.85944635  0.33412319  0.62722998  1
  La3+  La43  1  0.85646274  0.33517239  0.87826243  1
  La3+  La44  1  0.86142863  0.66813816  0.12278143  1
  La3+  La45  1  0.86370082  0.66914695  0.37682721  1
  La3+  La46  1  0.85662868  0.66522494  0.62631983  1
  La3+  La47  1  0.85672301  0.66605745  0.87399443  1
  La3+  La48  1  0.49965199  0.83445889  0.88358664  1
  La3+  La49  1  0.49884883  0.17412956  0.38584000  1
  La3+  La50  1  0.50200783  0.83569441  0.14301039  1
  La3+  La51  1  0.49481490  0.17460305  0.62551634  1
  La3+  La52  1  0.50256292  0.83514338  0.37711631  1
  La3+  La53  1  0.50392495  0.49767445  0.88576145  1
  La3+  La54  1  0.00001454  0.83137318  0.87595762  1
  La3+  La55  1  0.49915148  0.83527748  0.61316705  1
  La3+  La56  1  0.00366891  0.83120954  0.85948776  1
  La3+  La57  1  0.50120098  0.83895086  0.12617063  1
  La3+  La58  1  -0.00008127  0.49547854  0.61738098  1
  La3+  La59  1  0.49616061  0.49697650  0.86755530  1
  La3+  La60  1  0.49840529  0.16302176  0.13769310  1
  La3+  La61  1  0.49941125  0.83479240  0.63408619  1
  La3+  La62  1  -0.00181612  0.48596245  0.39140196  1
  La3+  La63  1  0.49436317  0.16268290  0.11575916  1
  La3+  La64  1  0.50134970  0.49236531  0.61271999  1
  La3+  La65  1  -0.00111341  0.50067108  0.11305649  1
  La3+  La66  1  0.49941096  0.16663672  0.64467239  1
  La3+  La67  1  0.49983715  0.49850324  0.12334432  1
  La3+  La68  1  -0.00379257  0.49717344  0.37305407  1
  La3+  La69  1  0.49374291  0.50156909  0.62776538  1
  La3+  La70  1  0.00432778  0.17566908  0.63291628  1
  La3+  La71  1  0.00056613  0.83677643  0.36649770  1
  La3+  La72  1  0.75068270  0.16774233  0.00914121  1
  La3+  La73  1  0.25004190  0.79829280  0.48035269  1
  La3+  La74  1  0.75008740  0.83310520  0.76168721  1
  La3+  La75  1  0.24968220  0.12629215  0.52751797  1
  La3+  La76  1  0.75055133  0.87885997  0.27442431  1
  La3+  La77  1  0.24966045  0.49788164  0.01009834  1
  La3+  La78  1  0.74972673  0.16724470  0.74649985  1
  La3+  La79  1  0.75042509  0.83433473  0.52744946  1
  La3+  La80  1  0.75007365  0.49512728  0.54237757  1
  La3+  La81  1  0.75042761  0.44540295  0.22259537  1
  La3+  La82  1  0.24981300  0.53064517  0.77126965  1
  La3+  La83  1  0.25051926  0.16797328  0.24704101  1
  Ru4+  Ru84  1  -0.00203055  -0.00151279  0.00850955  1
  Ru4+  Ru85  1  -0.00570364  -0.00831366  0.24571981  1
  Ru4+  Ru86  1  0.00022320  -0.00644961  0.50169722  1
  Ru4+  Ru87  1  0.00392091  0.00125665  0.75036786  1
  Ru4+  Ru88  1  -0.00134442  0.32907311  0.00072717  1
  Ru4+  Ru89  1  -0.00118907  0.33291550  0.24872393  1
  Ru4+  Ru90  1  -0.00016572  0.33135689  0.50076020  1
  Ru4+  Ru91  1  -0.00154811  0.33423763  0.75437411  1
  Ru4+  Ru92  1  0.00175421  0.66364217  0.00339558  1
  Ru4+  Ru93  1  -0.00077963  0.66741525  0.24810245  1
  Ru4+  Ru94  1  -0.00177657  0.67293233  0.49863100  1
  Ru4+  Ru95  1  -0.00155526  0.66660524  0.75511590  1
  Ru4+  Ru96  1  0.50088753  -0.00310453  -0.00419642  1
  Ru4+  Ru97  1  0.49873104  -0.00707391  0.25343002  1
  Ru4+  Ru98  1  0.50011170  -0.00567868  0.49631550  1
  Ru4+  Ru99  1  0.50167500  0.00250542  0.75305678  1
  Ru4+  Ru100  1  0.49554917  0.33937568  -0.00551597  1
  Ru4+  Ru101  1  0.49848338  0.34111356  0.24767884  1
  Ru4+  Ru102  1  0.50544974  0.32770415  0.49954947  1
  Ru4+  Ru103  1  0.50228265  0.32890636  0.75338294  1
  Ru4+  Ru104  1  0.50031691  0.66838447  0.00101900  1
  Ru4+  Ru105  1  0.49818304  0.66622183  0.25209118  1
  Ru4+  Ru106  1  0.49890595  0.67158967  0.49896841  1
  Ru4+  Ru107  1  0.49762559  0.67028088  0.75110896  1
  Ru4+  Ru108  1  0.11091387  0.17124667  0.00088671  1
  Ru4+  Ru109  1  0.11839365  0.17017499  0.25242335  1
  Ru4+  Ru110  1  0.11095426  0.16577928  0.50043828  1
  Ru4+  Ru111  1  0.10970474  0.16800922  0.75185270  1
  Ru4+  Ru112  1  0.11075120  0.50144072  -0.00181809  1
  Ru4+  Ru113  1  0.11486402  0.49871761  0.24748042  1
  Ru4+  Ru114  1  0.11427789  0.49826773  0.50140943  1
  Ru4+  Ru115  1  0.10946367  0.49919257  0.75184899  1
  Ru4+  Ru116  1  0.11268366  0.83342162  -0.00055239  1
  Ru4+  Ru117  1  0.11228055  0.83360120  0.25081701  1
  Ru4+  Ru118  1  0.10812425  0.83290969  0.50232704  1
  Ru4+  Ru119  1  0.11441459  0.83576571  0.74510404  1
  Ru4+  Ru120  1  0.61491116  0.16263217  0.00039645  1
  Ru4+  Ru121  1  0.61371333  0.16383724  0.25073259  1
  Ru4+  Ru122  1  0.61421517  0.16579399  0.49741166  1
  Ru4+  Ru123  1  0.61146182  0.16658731  0.75120600  1
  Ru4+  Ru124  1  0.61272078  0.49797284  0.00102328  1
  Ru4+  Ru125  1  0.61073803  0.50179550  0.25046645  1
  Ru4+  Ru126  1  0.61360216  0.49518892  0.49504172  1
  Ru4+  Ru127  1  0.61673966  0.49926177  0.75102541  1
  Ru4+  Ru128  1  0.61546492  0.83696884  0.00084041  1
  Ru4+  Ru129  1  0.61008001  0.83325507  0.25311714  1
  Ru4+  Ru130  1  0.61054218  0.83493382  0.49769119  1
  Ru4+  Ru131  1  0.61153278  0.83589264  0.75010956  1
  Ru4+  Ru132  1  0.38607339  0.16903399  -0.00102618  1
  Ru4+  Ru133  1  0.38660820  0.16621978  0.25251031  1
  Ru4+  Ru134  1  0.38970617  0.16886286  0.49975995  1
  Ru4+  Ru135  1  0.38787433  0.16710969  0.75160146  1
  Ru4+  Ru136  1  0.38881340  0.49636238  -0.00060860  1
  Ru4+  Ru137  1  0.38894623  0.49392046  0.25036517  1
  Ru4+  Ru138  1  0.38396330  0.50410018  0.49886474  1
  Ru4+  Ru139  1  0.38826800  0.50118398  0.75099833  1
  Ru4+  Ru140  1  0.38992072  0.83327700  0.00017243  1
  Ru4+  Ru141  1  0.39074439  0.83376892  0.24923688  1
  Ru4+  Ru142  1  0.39137217  0.83309754  0.49996043  1
  Ru4+  Ru143  1  0.38836511  0.83226346  0.74901461  1
  Ru4+  Ru144  1  0.88879394  0.17027109  -0.00101003  1
  Ru4+  Ru145  1  0.88877132  0.16406382  0.25140100  1
  Ru4+  Ru146  1  0.88706345  0.16865685  0.49892383  1
  Ru4+  Ru147  1  0.89017958  0.17234304  0.75134429  1
  Ru4+  Ru148  1  0.88755399  0.49659214  -0.00089913  1
  Ru4+  Ru149  1  0.88768058  0.50137111  0.24900213  1
  Ru4+  Ru150  1  0.88783791  0.49647275  0.50197218  1
  Ru4+  Ru151  1  0.88721296  0.49922858  0.75246277  1
  Ru4+  Ru152  1  0.88479416  0.83711792  0.00125029  1
  Ru4+  Ru153  1  0.88980222  0.83436156  0.25075913  1
  Ru4+  Ru154  1  0.89043893  0.83298448  0.50151952  1
  Ru4+  Ru155  1  0.89020670  0.82700324  0.74896306  1
  Ru4+  Ru156  1  0.25018713  0.42890101  0.50583366  1
  Ru4+  Ru157  1  0.24960145  0.39152638  0.74772394  1
  Ru4+  Ru158  1  0.25039413  0.90932957  0.74551834  1
  Ru4+  Ru159  1  0.24993831  0.09398384  -0.00097676  1
  Ru4+  Ru160  1  0.74990611  0.25181800  0.24763982  1
  Ru4+  Ru161  1  0.25048649  0.91993435  -0.00026797  1
  Ru4+  Ru162  1  0.25010767  0.93559937  0.51550970  1
  Ru4+  Ru163  1  0.74996105  0.73575895  0.25410443  1
  Ru4+  Ru164  1  0.24960824  0.57697428  0.50765701  1
  Ru4+  Ru165  1  0.75023202  0.61985220  0.48829141  1
  Ru4+  Ru166  1  0.75028925  0.37574965  0.46504045  1
  Ru4+  Ru167  1  0.75036060  0.41806549  0.75526677  1
  Ru4+  Ru168  1  0.25034730  0.74988345  -0.00007699  1
  Ru4+  Ru169  1  0.75014499  0.23734782  0.50500033  1
  Ru4+  Ru170  1  0.24973553  0.26191001  0.49831371  1
  Ru4+  Ru171  1  0.25037455  0.91798000  0.24764333  1
  Ru4+  Ru172  1  0.75002751  0.08157950  0.24826203  1
  Ru4+  Ru173  1  0.74985819  0.08775641  0.50554434  1
  Ru4+  Ru174  1  0.24987722  0.57397241  0.24460989  1
  Ru4+  Ru175  1  0.75004536  0.57676328  0.00621094  1
  Ru4+  Ru176  1  0.24998008  0.08432867  0.75384746  1
  Ru4+  Ru177  1  0.25036540  0.74940001  0.24427319  1
  Ru4+  Ru178  1  0.25049661  0.76054803  0.74925794  1
  Ru4+  Ru179  1  0.74979893  0.59869521  0.24763540  1
  O2-  O180  1  0.16807315  0.08036465  -0.00019201  1
  O2-  O181  1  0.16842716  0.08285574  0.24876500  1
  O2-  O182  1  0.16351925  0.07902664  0.50008378  1
  O2-  O183  1  0.16856803  0.08139861  0.74870738  1
  O2-  O184  1  0.16664831  0.41496333  -0.00252755  1
  O2-  O185  1  0.16432961  0.41594049  0.24920931  1
  O2-  O186  1  0.16700870  0.41407726  0.50116644  1
  O2-  O187  1  0.16734813  0.41372099  0.75142771  1
  O2-  O188  1  0.16590064  0.74925161  -0.00041973  1
  O2-  O189  1  0.16558089  0.74715533  0.24999331  1
  O2-  O190  1  0.16281961  0.74577358  0.49908561  1
  O2-  O191  1  0.16943795  0.75001136  0.74939095  1
  O2-  O192  1  0.66925446  0.08091475  -0.00072162  1
  O2-  O193  1  0.66843839  0.08029958  0.25196074  1
  O2-  O194  1  0.66747690  0.08083261  0.50128854  1
  O2-  O195  1  0.66710793  0.08031776  0.74983376  1
  O2-  O196  1  0.66537495  0.41440699  -0.00070444  1
  O2-  O197  1  0.66410736  0.40999568  0.25371437  1
  O2-  O198  1  0.66817140  0.40941002  0.49943806  1
  O2-  O199  1  0.66833850  0.41490997  0.75106838  1
  O2-  O200  1  0.66419850  0.74636888  -0.00034350  1
  O2-  O201  1  0.66574713  0.74739265  0.25053666  1
  O2-  O202  1  0.66788885  0.74696373  0.49992345  1
  O2-  O203  1  0.66691779  0.74677148  0.75185753  1
  O2-  O204  1  0.33596421  0.25171287  -0.00433258  1
  O2-  O205  1  0.33185153  0.25018568  0.24925520  1
  O2-  O206  1  0.33394130  0.25295071  0.50277589  1
  O2-  O207  1  0.33471966  0.25205297  0.75054014  1
  O2-  O208  1  0.33264638  0.58680157  -0.00100506  1
  O2-  O209  1  0.33454819  0.58507165  0.24959798  1
  O2-  O210  1  0.33335021  0.58622026  0.49972445  1
  O2-  O211  1  0.33587024  0.58888668  0.75058479  1
  O2-  O212  1  0.33272827  0.92147390  -0.00004830  1
  O2-  O213  1  0.33396828  0.91973933  0.24985364  1
  O2-  O214  1  0.33335566  0.92114738  0.50144663  1
  O2-  O215  1  0.33047673  0.91996929  0.74956189  1
  O2-  O216  1  0.83081351  0.25255923  0.00239068  1
  O2-  O217  1  0.83414951  0.25223913  0.25015891  1
  O2-  O218  1  0.83480731  0.25054860  0.49951532  1
  O2-  O219  1  0.83223703  0.25040735  0.75027968  1
  O2-  O220  1  0.83140471  0.58488009  0.00165747  1
  O2-  O221  1  0.83244658  0.58672180  0.24931864  1
  O2-  O222  1  0.83396373  0.58885340  0.49756782  1
  O2-  O223  1  0.83292428  0.58255461  0.75163773  1
  O2-  O224  1  0.83282102  0.91906784  0.00118946  1
  O2-  O225  1  0.83463886  0.92412773  0.24736996  1
  O2-  O226  1  0.83198432  0.91919021  0.49870554  1
  O2-  O227  1  0.83405983  0.91735099  0.75039298  1
  O2-  O228  1  0.16351486  0.25088611  -0.00269766  1
  O2-  O229  1  0.16887080  0.25230497  0.24707994  1
  O2-  O230  1  0.16549349  0.25435512  0.50073127  1
  O2-  O231  1  0.16656282  0.25198327  0.75068953  1
  O2-  O232  1  0.16844932  0.58399675  -0.00110493  1
  O2-  O233  1  0.16873174  0.58547319  0.25156159  1
  O2-  O234  1  0.16691310  0.58586107  0.49995154  1
  O2-  O235  1  0.16629102  0.58786290  0.74828683  1
  O2-  O236  1  0.16699144  0.92026554  0.00063341  1
  O2-  O237  1  0.16739678  0.91910360  0.24946102  1
  O2-  O238  1  0.16620833  0.91917441  0.50088531  1
  O2-  O239  1  0.16803389  0.91852576  0.74983515  1
  O2-  O240  1  0.66979896  0.25274476  -0.00210817  1
  O2-  O241  1  0.66634031  0.25137025  0.25081983  1
  O2-  O242  1  0.66680867  0.25116251  0.50053369  1
  O2-  O243  1  0.66600439  0.25281990  0.74864171  1
  O2-  O244  1  0.67079370  0.58703417  -0.00139047  1
  O2-  O245  1  0.66583571  0.58725238  0.25046499  1
  O2-  O246  1  0.66657439  0.58938774  0.49994559  1
  O2-  O247  1  0.66607265  0.58641431  0.75353560  1
  O2-  O248  1  0.66752998  0.91830295  -0.00001988  1
  O2-  O249  1  0.66496438  0.92108636  0.24768478  1
  O2-  O250  1  0.66618748  0.91988852  0.49918042  1
  O2-  O251  1  0.66692093  0.91876161  0.75079143  1
  O2-  O252  1  0.33331296  0.07876215  -0.00050813  1
  O2-  O253  1  0.33252159  0.08114164  0.24991367  1
  O2-  O254  1  0.33546953  0.07702123  0.50040033  1
  O2-  O255  1  0.33042654  0.08039456  0.74888304  1
  O2-  O256  1  0.33250250  0.41499389  -0.00414469  1
  O2-  O257  1  0.33140578  0.41887483  0.24950943  1
  O2-  O258  1  0.33248962  0.41477094  0.50162059  1
  O2-  O259  1  0.33070722  0.41163697  0.75174031  1
  O2-  O260  1  0.33390608  0.74660623  -0.00004376  1
  O2-  O261  1  0.33391638  0.74591457  0.24952660  1
  O2-  O262  1  0.33735916  0.74439964  0.49986086  1
  O2-  O263  1  0.33296301  0.74815099  0.75000848  1
  O2-  O264  1  0.83338465  0.08027223  0.00116049  1
  O2-  O265  1  0.83227506  0.08001306  0.25004668  1
  O2-  O266  1  0.83181047  0.08050727  0.50091518  1
  O2-  O267  1  0.83410986  0.08257788  0.74984666  1
  O2-  O268  1  0.83323688  0.41587648  0.00262975  1
  O2-  O269  1  0.83882348  0.41041988  0.25199404  1
  O2-  O270  1  0.83414671  0.41128792  0.49751187  1
  O2-  O271  1  0.83373519  0.41756103  0.74992308  1
  O2-  O272  1  0.83661995  0.74794425  0.00189834  1
  O2-  O273  1  0.83484741  0.74624041  0.25014122  1
  O2-  O274  1  0.83217881  0.74925279  0.49891486  1
  O2-  O275  1  0.82948055  0.75026940  0.75206190  1
  O2-  O276  1  0.54465581  0.56640138  0.74524133  1
  O2-  O277  1  0.45372769  0.57847768  0.25764996  1
  O2-  O278  1  0.04820149  0.10145685  0.23081967  1
  O2-  O279  1  0.95200099  0.43346431  0.98574062  1
  O2-  O280  1  0.54541613  0.76750253  0.74218816  1
  O2-  O281  1  0.95421485  0.42889159  0.25717003  1
  O2-  O282  1  0.03974422  0.10230643  0.97030443  1
  O2-  O283  1  0.04446543  0.55800802  0.71501218  1
  O2-  O284  1  0.54162656  0.23024276  0.98475903  1
  O2-  O285  1  0.45108395  0.09528184  0.48537263  1
  O2-  O286  1  0.54544130  0.56901570  0.75611249  1
  O2-  O287  1  0.45408399  0.56996812  0.98763633  1
  O2-  O288  1  0.54290746  0.11384019  0.53508697  1
  O2-  O289  1  0.54199567  0.89482712  0.25342923  1
  O2-  O290  1  0.94983380  0.09180869  0.71518335  1
  O2-  O291  1  0.95087622  0.42858352  0.76386407  1
  O2-  O292  1  0.46692692  0.45867493  0.27627495  1
  O2-  O293  1  0.04525366  0.90615282  0.51364583  1
  O2-  O294  1  0.54867286  0.24054837  0.23934816  1
  O2-  O295  1  0.04139459  0.55759924  0.27812641  1
  O2-  O296  1  0.04605671  0.77450876  0.75124834  1
  O2-  O297  1  0.05326611  0.24575975  0.76466430  1
  O2-  O298  1  0.04566940  0.90272268  0.98319795  1
  O2-  O299  1  0.04926805  0.42408728  0.76545333  1
  O2-  O300  1  0.95092265  0.56977292  0.49082589  1
  O2-  O301  1  0.95427398  0.56441928  0.72141167  1
  O2-  O302  1  0.04935793  0.57263720  0.48741208  1
  O2-  O303  1  0.94705122  0.09958515  0.26136063  1
  O2-  O304  1  0.04944834  0.42952639  0.01696677  1
  O2-  O305  1  0.96750695  0.80876081  0.72345490  1
  O2-  O306  1  0.54455127  0.76817377  0.01264321  1
  O2-  O307  1  0.96100084  0.10614598  0.52740533  1
  O2-  O308  1  0.04634732  0.76424067  0.50974511  1
  O2-  O309  1  0.55138624  0.90809585  0.23414806  1
  O2-  O310  1  0.04448012  0.76189453  0.98569658  1
  O2-  O311  1  0.04584090  0.76049907  0.77563535  1
  O2-  O312  1  0.53771984  0.10866283  0.28991044  1
  O2-  O313  1  0.04695485  0.24199232  0.01590595  1
  O2-  O314  1  0.97076719  0.20704155  0.77695864  1
  O2-  O315  1  0.04081108  0.23489843  0.21825481  1
  O2-  O316  1  0.55244189  0.43333611  0.23895872  1
  O2-  O317  1  0.44873705  0.43050161  0.51215575  1
  O2-  O318  1  0.55538354  0.58474549  0.52274442  1
  O2-  O319  1  0.03657760  0.10599275  0.26346327  1
  O2-  O320  1  0.05103860  0.09450717  0.74208397  1
  O2-  O321  1  0.04924250  0.09551337  0.75832761  1
  O2-  O322  1  0.55198604  0.43260517  0.25889440  1
  O2-  O323  1  0.54183669  0.22958052  -0.01436153  1
  O2-  O324  1  0.92400899  0.26078428  0.67977718  1
  O2-  O325  1  0.56203225  0.92554151  0.07059822  1
  O2-  O326  1  0.07030165  0.73458518  0.71983513  1
  O2-  O327  1  0.93388175  0.60133179  0.79622806  1
  O2-  O328  1  0.57915640  0.26997974  0.04132140  1
  O2-  O329  1  0.56316078  0.73581678  0.28460203  1
  O2-  O330  1  0.93485424  0.92337430  0.27499770  1
  O2-  O331  1  0.56347526  0.07158849  0.03262627  1
  O2-  O332  1  0.56727085  0.92011771  0.93821770  1
  O2-  O333  1  0.56521395  0.93051095  0.28766127  1
  O2-  O334  1  0.56500299  0.07474361  0.77503539  1
  O2-  O335  1  0.92137608  0.72456985  0.69128776  1
  O2-  O336  1  0.06252220  0.93100152  0.68407664  1
  O2-  O337  1  0.43647684  0.06746721  0.28298179  1
  O2-  O338  1  0.56527725  0.25688777  0.47196435  1
  O2-  O339  1  0.93354521  0.05932460  0.79790286  1
  O2-  O340  1  0.93272121  0.59553840  0.27593696  1
  O2-  O341  1  0.43672723  0.92896427  0.71654529  1
  O2-  O342  1  0.41962999  0.39359404  0.31441636  1
  O2-  O343  1  0.43680347  0.25633174  0.22381235  1
  O2-  O344  1  0.06287664  0.92118023  0.27873797  1
  O2-  O345  1  0.92749857  0.06842972  0.45974002  1
  O2-  O346  1  0.06268184  0.93199476  0.81790399  1
  O2-  O347  1  0.93949655  0.92855466  0.92970598  1
  O2-  O348  1  0.07007103  0.06625081  0.03623573  1
  O2-  O349  1  0.56417011  0.25746870  0.77722227  1
  O2-  O350  1  0.93578611  0.93003320  0.06551576  1
  O2-  O351  1  0.43600622  0.40100238  0.71937551  1
  O2-  O352  1  0.56579718  0.40843413  0.72067107  1
  O2-  O353  1  0.55434075  0.58280214  0.52230271  1
  O2-  O354  1  0.42359501  0.40905200  0.17379179  1
  O2-  O355  1  0.57152369  0.05055320  0.43945884  1
  O2-  O356  1  0.56411434  0.74244274  0.52539342  1
  O2-  O357  1  0.56618345  0.40890160  0.47300096  1
  O2-  O358  1  0.06233054  0.59839221  0.96857683  1
  O2-  O359  1  0.07030072  0.60506274  0.80605291  1
  O2-  O360  1  0.92974772  0.73367532  0.83441132  1
  O2-  O361  1  0.43563393  0.07229375  0.78199058  1
  O2-  O362  1  0.93365347  0.74115774  0.52429586  1
  O2-  O363  1  0.06969680  0.26811287  0.28668194  1
  O2-  O364  1  0.07506627  0.06175080  0.28577837  1
  O2-  O365  1  0.93667661  0.26415303  0.97193128  1
  O2-  O366  1  0.44106083  0.40742953  0.54014974  1
  O2-  O367  1  0.07318341  0.61847531  0.18620384  1
  O2-  O368  1  0.56606343  0.59204024  0.02547151  1
  O2-  O369  1  0.92806969  0.28547770  0.81899596  1
  O2-  O370  1  0.57297210  0.05976398  0.18982999  1
  O2-  O371  1  0.93469366  0.92983481  0.53482786  1
  O2-  O372  1  0.25051826  0.66887640  0.09750216  1
  O2-  O373  1  0.75017284  0.32826076  0.57548010  1
  O2-  O374  1  0.25031644  0.66452467  0.59448734  1
  O2-  O375  1  0.74997399  0.66794746  0.14383764  1
  O2-  O376  1  0.75005376  0.33151032  0.69077509  1
  O2-  O377  1  0.24993479  -0.00174346  0.15119326  1
  O2-  O378  1  0.24984982  0.00476598  0.32450778  1
  O2-  O379  1  0.24944642  0.34432896  0.41578739  1
  O2-  O380  1  0.74989543  0.68563251  0.58751794  1
  O2-  O381  1  0.74965435  0.67662004  0.38566498  1
  O2-  O382  1  0.75026206  -0.00191832  0.67037280  1
  O2-  O383  1  0.24996303  0.66771729  0.82628366  1
  O2-  O384  1  0.24978530  0.66310550  0.31673936  1
  O2-  O385  1  0.25004293  -0.00193977  0.84274731  1
  O2-  O386  1  0.24997264  0.66167888  0.91938899  1
  O2-  O387  1  0.24974309  0.00707310  0.42385741  1
  O2-  O388  1  0.24859958  0.33723348  0.09576220  1
  O2-  O389  1  0.75004466  0.32946819  0.15283944  1
  O2-  O390  1  0.75023751  -0.00469477  0.57869463  1
  O2-  O391  1  0.24984913  0.66569245  0.43773168  1
  O2-  O392  1  0.25005978  0.33756197  0.60032088  1
  O2-  O393  1  0.74961826  0.33926542  0.84378982  1
  O2-  O394  1  0.24978865  0.33145921  0.32503575  1
  O2-  O395  1  0.74987041  0.66791787  0.67638145  1
  O2-  O396  1  0.74987171  0.52256512  0.33185216  1
  O2-  O397  1  0.25035244  0.16073475  0.08852828  1
  O2-  O398  1  0.25024184  0.84414588  0.62049896  1
  O2-  O399  1  0.25006281  0.83630535  0.07726263  1
  O2-  O400  1  0.74991822  0.82577299  0.14824560  1
  O2-  O401  1  0.75010889  0.16507700  0.15804557  1
  O2-  O402  1  0.24989914  0.50370168  0.15887276  1
  O2-  O403  1  0.74991370  0.49789068  0.66671821  1
  O2-  O404  1  0.25005567  0.49592345  0.62983977  1
  O2-  O405  1  0.75000045  0.16654173  0.60920924  1
  O2-  O406  1  0.25009672  0.83471290  0.90827711  1
  O2-  O407  1  0.25036157  0.15929427  0.90840055  1
  O2-  O408  1  0.74993296  0.48970867  0.41063785  1
  O2-  O409  1  0.25005098  0.17326178  0.39358661  1
  O2-  O410  1  0.74991421  0.51644934  0.10759068  1
  O2-  O411  1  0.75008362  0.83347689  0.06528319  1
  O2-  O412  1  0.74996135  0.16721119  0.32419497  1
  O2-  O413  1  0.24995466  0.83448474  0.33924788  1
  O2-  O414  1  0.25002043  0.83327458  0.16796501  1
  O2-  O415  1  0.75007674  0.16378686  0.87739987  1
  O2-  O416  1  0.24990491  0.50142030  0.40862400  1
  O2-  O417  1  0.74980338  0.82809213  0.39654814  1
  O2-  O418  1  0.75000598  0.83349364  0.89622183  1
  O2-  O419  1  0.75002644  0.16363018  0.41879015  1
  O2-  O420  1  0.04139951  0.34238905  0.38584268  1
  O2-  O421  1  0.97136480  0.33546037  0.12830738  1
  O2-  O422  1  0.02459338  -0.00625883  0.13229869  1
  O2-  O423  1  0.51854612  0.00076288  0.87306715  1
  O2-  O424  1  0.46926283  -0.00004396  0.12225626  1
  O2-  O425  1  0.03314023  0.00362259  0.39068354  1
  O2-  O426  1  0.95516119  0.33051438  0.37685620  1
  O2-  O427  1  0.52168754  0.66701841  0.62701583  1
  O2-  O428  1  0.52940066  0.32960492  0.36504526  1
  O2-  O429  1  0.97378676  0.65441471  0.61757443  1
  O2-  O430  1  0.03254299  0.65979664  0.61750176  1
  O2-  O431  1  0.53688038  0.34112612  0.13365727  1
  O2-  O432  1  0.46428696  0.32419284  0.10242503  1
  O2-  O433  1  0.97321978  -0.00604741  0.37150950  1
  O2-  O434  1  0.52497634  0.32489256  0.62156496  1
  O2-  O435  1  0.52776354  -0.00351850  0.62747475  1
  O2-  O436  1  0.96275720  0.34592978  0.60753225  1
  O2-  O437  1  0.52457196  0.34317689  0.87747528  1
  O2-  O438  1  0.47027195  0.32098717  0.38716877  1
  O2-  O439  1  0.47248081  0.67099044  0.38014190  1
  O2-  O440  1  0.52432742  0.67125994  0.13307517  1
  O2-  O441  1  0.97577802  0.67560246  0.37638982  1
  O2-  O442  1  0.97206851  0.66603547  0.12193530  1
  O2-  O443  1  0.04417912  0.33270133  0.62260070  1
