# generated using pymatgen
data_La7(Ru4O11)2
_symmetry_space_group_name_H-M   'P 1'
_cell_length_a   23.99003956
_cell_length_b   16.83054928
_cell_length_c   15.42692896
_cell_angle_alpha   90.00114294
_cell_angle_beta   89.99938645
_cell_angle_gamma   89.99954292
_symmetry_Int_Tables_number   1
_chemical_formula_structural   La7(Ru4O11)2
_chemical_formula_sum   'La84 Ru96 O264'
_cell_volume   6228.86234679
_cell_formula_units_Z   12
loop_
 _symmetry_equiv_pos_site_id
 _symmetry_equiv_pos_as_xyz
  1  'x, y, z'
loop_
 _atom_type_symbol
 _atom_type_oxidation_number
  La3+  3.0
  Ru4+  4.0
  O2-  -2.0
loop_
 _atom_site_type_symbol
 _atom_site_label
 _atom_site_symmetry_multiplicity
 _atom_site_fract_x
 _atom_site_fract_y
 _atom_site_fract_z
 _atom_site_occupancy
  La3+  La0  1  0.14076995  0.00203400  0.12246730  1
  La3+  La1  1  0.13715336  -0.00026222  0.37755890  1
  La3+  La2  1  0.13562008  -0.00170305  0.62475631  1
  La3+  La3  1  0.13662212  -0.00142109  0.87386977  1
  La3+  La4  1  0.13816074  0.33187462  0.12547888  1
  La3+  La5  1  0.13951889  0.33420162  0.37704152  1
  La3+  La6  1  0.13740389  0.33677318  0.62288303  1
  La3+  La7  1  0.14144898  0.33212668  0.87528213  1
  La3+  La8  1  0.13780038  0.66610794  0.12364170  1
  La3+  La9  1  0.13741104  0.66393670  0.37794970  1
  La3+  La10  1  0.14035341  0.66432693  0.62341107  1
  La3+  La11  1  0.13912974  0.66716627  0.87393243  1
  La3+  La12  1  0.63967823  0.00110326  0.12572486  1
  La3+  La13  1  0.64002772  -0.00112177  0.37348882  1
  La3+  La14  1  0.63464432  -0.00107158  0.62444271  1
  La3+  La15  1  0.63543652  -0.00042761  0.87629754  1
  La3+  La16  1  0.63856591  0.33290171  0.12626063  1
  La3+  La17  1  0.64301825  0.33330327  0.37564733  1
  La3+  La18  1  0.63801197  0.33594669  0.62358955  1
  La3+  La19  1  0.63509565  0.33705373  0.87439312  1
  La3+  La20  1  0.63834364  0.66663919  0.12471649  1
  La3+  La21  1  0.63803778  0.66716771  0.37590737  1
  La3+  La22  1  0.63930431  0.66639290  0.62282477  1
  La3+  La23  1  0.63620591  0.66467959  0.87471961  1
  La3+  La24  1  0.36120163  0.00057685  0.11880098  1
  La3+  La25  1  0.36199234  0.00069286  0.37438781  1
  La3+  La26  1  0.36151693  0.00177890  0.62627309  1
  La3+  La27  1  0.36036884  0.00080635  0.87672211  1
  La3+  La28  1  0.36275127  0.33093389  0.12390927  1
  La3+  La29  1  0.35799988  0.33508803  0.37728950  1
  La3+  La30  1  0.36426116  0.33598154  0.62563552  1
  La3+  La31  1  0.35961352  0.33134649  0.87398755  1
  La3+  La32  1  0.36467475  0.66998115  0.12039201  1
  La3+  La33  1  0.36349933  0.66372668  0.37827080  1
  La3+  La34  1  0.35922035  0.66460422  0.62275213  1
  La3+  La35  1  0.36448546  0.67070024  0.87935560  1
  La3+  La36  1  0.85891200  0.00058485  0.12758408  1
  La3+  La37  1  0.85984557  -0.00297638  0.37477958  1
  La3+  La38  1  0.86370601  -0.00040133  0.62014155  1
  La3+  La39  1  0.86320579  0.00099264  0.87899352  1
  La3+  La40  1  0.86186551  0.33237629  0.12869389  1
  La3+  La41  1  0.85998749  0.33317124  0.37491413  1
  La3+  La42  1  0.86109023  0.33545853  0.62218741  1
  La3+  La43  1  0.86118059  0.33446567  0.87442628  1
  La3+  La44  1  0.86106585  0.66660126  0.12538484  1
  La3+  La45  1  0.86436157  0.66759945  0.37595344  1
  La3+  La46  1  0.86119572  0.66624267  0.62060581  1
  La3+  La47  1  0.86248859  0.66642546  0.87615844  1
  La3+  La48  1  -0.00213687  0.16411276  0.60873160  1
  La3+  La49  1  0.49894147  0.16425906  0.86104547  1
  La3+  La50  1  0.50069557  0.50024387  0.87931124  1
  La3+  La51  1  0.49784564  0.16246193  0.87877052  1
  La3+  La52  1  0.49945357  0.83527084  0.38175330  1
  La3+  La53  1  0.00400393  0.16886496  0.88396757  1
  La3+  La54  1  0.50200459  0.16923612  0.36421805  1
  La3+  La55  1  0.49980750  0.49753561  0.11702266  1
  La3+  La56  1  0.00048622  0.49936652  0.86590102  1
  La3+  La57  1  0.00079287  0.50084142  0.88737592  1
  La3+  La58  1  0.49548635  0.83119346  0.89264895  1
  La3+  La59  1  -0.00207264  0.83595318  0.13511751  1
  La3+  La60  1  0.49768775  0.83569737  0.61893882  1
  La3+  La61  1  0.00352701  0.49640698  0.37997074  1
  La3+  La62  1  -0.00402256  0.16801011  0.86509189  1
  La3+  La63  1  0.00109277  0.83263564  0.86961601  1
  La3+  La64  1  0.00166820  0.83219411  0.61576663  1
  La3+  La65  1  0.00080409  0.49952899  0.63394201  1
  La3+  La66  1  0.50190644  0.82949104  0.11916779  1
  La3+  La67  1  0.00047878  0.83547855  0.38354545  1
  La3+  La68  1  0.50055452  0.49787823  0.61377428  1
  La3+  La69  1  -0.00165199  0.83480890  0.63209433  1
  La3+  La70  1  0.50094202  0.16527452  0.38634713  1
  La3+  La71  1  -0.00074986  0.16623050  0.11644047  1
  La3+  La72  1  0.74975366  0.46332285  0.25639363  1
  La3+  La73  1  0.24999956  0.21016856  0.53174834  1
  La3+  La74  1  0.75046571  0.83681367  0.26678011  1
  La3+  La75  1  0.25015443  0.80213677  0.75247410  1
  La3+  La76  1  0.24995417  0.53551124  0.04037365  1
  La3+  La77  1  0.75003868  0.53074211  -0.02741566  1
  La3+  La78  1  0.25026258  0.16690073  0.73771228  1
  La3+  La79  1  0.25004691  0.79503860  0.51175274  1
  La3+  La80  1  0.25079288  0.83317373  0.25850277  1
  La3+  La81  1  0.74983094  0.88746548  -0.02036233  1
  La3+  La82  1  0.75087803  0.18709631  0.77052588  1
  La3+  La83  1  0.75075375  0.81584025  0.72962572  1
  Ru4+  Ru84  1  0.00063816  -0.00254157  0.00067655  1
  Ru4+  Ru85  1  0.00341559  0.00159734  0.25387354  1
  Ru4+  Ru86  1  -0.00396903  0.00882061  0.49643385  1
  Ru4+  Ru87  1  -0.00180433  -0.00249115  0.74806003  1
  Ru4+  Ru88  1  0.00070973  0.33383858  0.00281861  1
  Ru4+  Ru89  1  -0.00422485  0.33832693  0.25021017  1
  Ru4+  Ru90  1  -0.00057204  0.32255508  0.50175916  1
  Ru4+  Ru91  1  -0.00117761  0.33559851  0.74588176  1
  Ru4+  Ru92  1  0.00100600  0.66669225  -0.00133898  1
  Ru4+  Ru93  1  -0.00072056  0.66490987  0.25260051  1
  Ru4+  Ru94  1  0.00406069  0.67101247  0.49814456  1
  Ru4+  Ru95  1  0.00075884  0.66361580  0.75055939  1
  Ru4+  Ru96  1  0.50240939  0.00681869  0.00416870  1
  Ru4+  Ru97  1  0.50332773  -0.00142990  0.24873575  1
  Ru4+  Ru98  1  0.50029719  -0.00152787  0.50432461  1
  Ru4+  Ru99  1  0.49436892  0.00313495  0.74506806  1
  Ru4+  Ru100  1  0.49529654  0.32906181  0.00365473  1
  Ru4+  Ru101  1  0.49900801  0.33183148  0.24883966  1
  Ru4+  Ru102  1  0.49904260  0.33407499  0.50066469  1
  Ru4+  Ru103  1  0.49981537  0.32438119  0.74594831  1
  Ru4+  Ru104  1  0.50062828  0.66945748  -0.00430705  1
  Ru4+  Ru105  1  0.49978144  0.66685858  0.25434412  1
  Ru4+  Ru106  1  0.49905272  0.66298921  0.49603265  1
  Ru4+  Ru107  1  0.49789046  0.67309733  0.75272767  1
  Ru4+  Ru108  1  0.11434908  0.16663305  -0.00035104  1
  Ru4+  Ru109  1  0.11603422  0.16550781  0.25169562  1
  Ru4+  Ru110  1  0.11002517  0.16735586  0.49998455  1
  Ru4+  Ru111  1  0.11346016  0.16776785  0.75018562  1
  Ru4+  Ru112  1  0.11042031  0.50023030  -0.00163313  1
  Ru4+  Ru113  1  0.11070199  0.50156071  0.24927305  1
  Ru4+  Ru114  1  0.11663495  0.50331729  0.50137113  1
  Ru4+  Ru115  1  0.11083629  0.49994853  0.75135702  1
  Ru4+  Ru116  1  0.11258221  0.83460225  -0.00139857  1
  Ru4+  Ru117  1  0.11052448  0.83514064  0.24967771  1
  Ru4+  Ru118  1  0.11365412  0.82818314  0.50016220  1
  Ru4+  Ru119  1  0.11137306  0.83078820  0.75152955  1
  Ru4+  Ru120  1  0.61329471  0.16533164  0.00237601  1
  Ru4+  Ru121  1  0.61388795  0.16849973  0.25012353  1
  Ru4+  Ru122  1  0.61335674  0.16867097  0.49848638  1
  Ru4+  Ru123  1  0.61219405  0.17196020  0.74845519  1
  Ru4+  Ru124  1  0.61475073  0.50342902  0.00164074  1
  Ru4+  Ru125  1  0.61134872  0.49908303  0.24949074  1
  Ru4+  Ru126  1  0.61315381  0.49743629  0.49953723  1
  Ru4+  Ru127  1  0.61729503  0.49898148  0.74989571  1
  Ru4+  Ru128  1  0.61071066  0.83405424  -0.00069745  1
  Ru4+  Ru129  1  0.61098563  0.83485506  0.25071138  1
  Ru4+  Ru130  1  0.61443236  0.83376167  0.50101367  1
  Ru4+  Ru131  1  0.61601251  0.82858556  0.75119600  1
  Ru4+  Ru132  1  0.38612941  0.16686901  0.00074503  1
  Ru4+  Ru133  1  0.38658326  0.16754380  0.24939046  1
  Ru4+  Ru134  1  0.38865238  0.16812792  0.50057334  1
  Ru4+  Ru135  1  0.38712750  0.16635772  0.75063575  1
  Ru4+  Ru136  1  0.38777408  0.49965093  0.00042308  1
  Ru4+  Ru137  1  0.38769287  0.49986469  0.24963704  1
  Ru4+  Ru138  1  0.38698453  0.50098272  0.49824734  1
  Ru4+  Ru139  1  0.38413685  0.50436938  0.74993831  1
  Ru4+  Ru140  1  0.38402532  0.83195486  -0.00087605  1
  Ru4+  Ru141  1  0.39026066  0.83157203  0.24894446  1
  Ru4+  Ru142  1  0.38893085  0.83497633  0.49944006  1
  Ru4+  Ru143  1  0.38766302  0.83206667  0.75023142  1
  Ru4+  Ru144  1  0.88522371  0.16616026  0.00040464  1
  Ru4+  Ru145  1  0.88609768  0.17112691  0.25097855  1
  Ru4+  Ru146  1  0.88686376  0.16872472  0.49917841  1
  Ru4+  Ru147  1  0.88984911  0.16660197  0.74929251  1
  Ru4+  Ru148  1  0.89046147  0.50162208  -0.00003229  1
  Ru4+  Ru149  1  0.89008110  0.49789097  0.24954320  1
  Ru4+  Ru150  1  0.88092899  0.49809619  0.50077855  1
  Ru4+  Ru151  1  0.88870268  0.49780144  0.75042370  1
  Ru4+  Ru152  1  0.88946768  0.83253815  -0.00142449  1
  Ru4+  Ru153  1  0.88533328  0.82863936  0.24984092  1
  Ru4+  Ru154  1  0.88386871  0.83357780  0.50032485  1
  Ru4+  Ru155  1  0.88999597  0.83540842  0.75090820  1
  Ru4+  Ru156  1  0.75056403  0.93587437  0.75131719  1
  Ru4+  Ru157  1  0.24999375  0.96460612  0.26555943  1
  Ru4+  Ru158  1  0.75008908  0.08527458  0.25522997  1
  Ru4+  Ru159  1  0.74976842  0.08539130  0.48623103  1
  Ru4+  Ru160  1  0.75026736  0.38990089  0.00493859  1
  Ru4+  Ru161  1  0.25011888  0.94337243  0.74951037  1
  Ru4+  Ru162  1  0.24979156  0.58481385  0.74706793  1
  Ru4+  Ru163  1  0.25035996  0.06955942  0.50195951  1
  Ru4+  Ru164  1  0.74984825  0.06540373  0.74650864  1
  Ru4+  Ru165  1  0.24965239  0.70331670  0.26157676  1
  Ru4+  Ru166  1  0.74994239  0.73115180  -0.01473053  1
  Ru4+  Ru167  1  0.75045530  0.56793656  0.75293710  1
  Ru4+  Ru168  1  0.24966949  0.93322814  0.50799363  1
  Ru4+  Ru169  1  0.25025069  0.42132008  0.25534020  1
  Ru4+  Ru170  1  0.24933974  0.74790733  -0.00643866  1
  Ru4+  Ru171  1  0.24978383  0.41186519  0.74624154  1
  Ru4+  Ru172  1  0.24994011  0.39632982  -0.01532419  1
  Ru4+  Ru173  1  0.74978848  0.24128594  0.00248760  1
  Ru4+  Ru174  1  0.25030319  0.24961344  0.25432782  1
  Ru4+  Ru175  1  0.74992735  0.60584103  0.26264168  1
  Ru4+  Ru176  1  0.75013449  0.69022824  0.72874479  1
  Ru4+  Ru177  1  0.74968777  0.57832203  0.49919707  1
  Ru4+  Ru178  1  0.25042065  0.57178034  0.25132608  1
  Ru4+  Ru179  1  0.74981224  0.31127817  0.74625497  1
  O2-  O180  1  0.16527887  0.08057672  -0.00067283  1
  O2-  O181  1  0.16754643  0.08266787  0.24892173  1
  O2-  O182  1  0.16650472  0.07960682  0.50120461  1
  O2-  O183  1  0.16665927  0.07971700  0.74914149  1
  O2-  O184  1  0.16811136  0.41290991  0.00124544  1
  O2-  O185  1  0.16764027  0.41490858  0.24984479  1
  O2-  O186  1  0.16584780  0.41519629  0.50066942  1
  O2-  O187  1  0.16732562  0.41320158  0.74860145  1
  O2-  O188  1  0.16881168  0.74590716  0.00054429  1
  O2-  O189  1  0.16512092  0.74377449  0.25061265  1
  O2-  O190  1  0.16532939  0.74448427  0.49731458  1
  O2-  O191  1  0.16634308  0.74792260  0.74920259  1
  O2-  O192  1  0.66472546  0.08274564  0.00016905  1
  O2-  O193  1  0.66803171  0.08119920  0.24881456  1
  O2-  O194  1  0.66688373  0.08010339  0.50020006  1
  O2-  O195  1  0.66466991  0.07836099  0.74999449  1
  O2-  O196  1  0.66772125  0.41343536  -0.00077664  1
  O2-  O197  1  0.66376322  0.41300646  0.24868883  1
  O2-  O198  1  0.66661969  0.41536363  0.49979131  1
  O2-  O199  1  0.66634569  0.41520159  0.75057001  1
  O2-  O200  1  0.66813832  0.74564983  -0.00153101  1
  O2-  O201  1  0.66643236  0.74651430  0.25086743  1
  O2-  O202  1  0.66442076  0.74696499  0.49862763  1
  O2-  O203  1  0.66419636  0.74432408  0.74974464  1
  O2-  O204  1  0.33325519  0.25134377  -0.00131425  1
  O2-  O205  1  0.33257480  0.25236413  0.25014741  1
  O2-  O206  1  0.33527179  0.25369654  0.50107606  1
  O2-  O207  1  0.33443916  0.25343174  0.74747449  1
  O2-  O208  1  0.33196954  0.58863126  -0.00037305  1
  O2-  O209  1  0.33224694  0.58566196  0.25059827  1
  O2-  O210  1  0.33248623  0.58440804  0.49931682  1
  O2-  O211  1  0.33370771  0.58582736  0.75051599  1
  O2-  O212  1  0.33308386  0.91678983  -0.00056327  1
  O2-  O213  1  0.33437209  0.92136221  0.25031757  1
  O2-  O214  1  0.33219894  0.91915332  0.50059825  1
  O2-  O215  1  0.33101755  0.91838776  0.75028476  1
  O2-  O216  1  0.83157434  0.25315433  0.00002775  1
  O2-  O217  1  0.83284282  0.25075309  0.24660460  1
  O2-  O218  1  0.83445068  0.25124019  0.50057191  1
  O2-  O219  1  0.83613864  0.25448455  0.75084943  1
  O2-  O220  1  0.83452876  0.58713657  -0.00069337  1
  O2-  O221  1  0.83234851  0.58673936  0.25083432  1
  O2-  O222  1  0.83337838  0.58676303  0.49914808  1
  O2-  O223  1  0.83332973  0.58697149  0.75058866  1
  O2-  O224  1  0.83791284  0.92115094  0.00242205  1
  O2-  O225  1  0.83407541  0.91806330  0.24885765  1
  O2-  O226  1  0.83357785  0.91795305  0.49842110  1
  O2-  O227  1  0.83484077  0.92155593  0.75037024  1
  O2-  O228  1  0.16544405  0.25240909  0.00083504  1
  O2-  O229  1  0.16644266  0.25208919  0.24893269  1
  O2-  O230  1  0.16492856  0.25328942  0.50155213  1
  O2-  O231  1  0.16835289  0.25225406  0.74555016  1
  O2-  O232  1  0.16590833  0.58801844  0.00127395  1
  O2-  O233  1  0.16716868  0.58476649  0.25024249  1
  O2-  O234  1  0.16745887  0.58498580  0.49709137  1
  O2-  O235  1  0.16658026  0.58647331  0.74978861  1
  O2-  O236  1  0.16499094  0.91820408  -0.00110966  1
  O2-  O237  1  0.16566897  0.92124491  0.25034278  1
  O2-  O238  1  0.16704926  0.92044718  0.50116254  1
  O2-  O239  1  0.16801328  0.92006027  0.74987678  1
  O2-  O240  1  0.66855079  0.25262949  -0.00200022  1
  O2-  O241  1  0.66446084  0.25148986  0.24786709  1
  O2-  O242  1  0.66550495  0.25179684  0.50005324  1
  O2-  O243  1  0.66549248  0.25383098  0.75133654  1
  O2-  O244  1  0.66551415  0.58768195  -0.00013418  1
  O2-  O245  1  0.66691386  0.58752305  0.25123617  1
  O2-  O246  1  0.66593359  0.58651047  0.49898909  1
  O2-  O247  1  0.66626676  0.58541450  0.75061711  1
  O2-  O248  1  0.66201849  0.92118180  0.00138563  1
  O2-  O249  1  0.66723894  0.91784353  0.24926392  1
  O2-  O250  1  0.66435988  0.91914506  0.50025336  1
  O2-  O251  1  0.66690999  0.92240705  0.74886292  1
  O2-  O252  1  0.33303176  0.08299810  -0.00059933  1
  O2-  O253  1  0.33383993  0.08125641  0.25016637  1
  O2-  O254  1  0.33214438  0.07955271  0.50030161  1
  O2-  O255  1  0.33121279  0.08046009  0.74804437  1
  O2-  O256  1  0.33413080  0.41352035  -0.00081782  1
  O2-  O257  1  0.33244733  0.41464746  0.25075130  1
  O2-  O258  1  0.33498063  0.41524273  0.50138838  1
  O2-  O259  1  0.33286256  0.41328822  0.74958318  1
  O2-  O260  1  0.33084081  0.74672132  -0.00116324  1
  O2-  O261  1  0.33504095  0.74535398  0.25115863  1
  O2-  O262  1  0.33567431  0.74566160  0.49907013  1
  O2-  O263  1  0.33493153  0.74670438  0.74863928  1
  O2-  O264  1  0.83512919  0.08130031  0.00056825  1
  O2-  O265  1  0.83253170  0.08205991  0.24814532  1
  O2-  O266  1  0.83219186  0.08176797  0.49902641  1
  O2-  O267  1  0.83373509  0.07809256  0.75074675  1
  O2-  O268  1  0.83243761  0.41164442  0.00001829  1
  O2-  O269  1  0.83463082  0.41394754  0.24702409  1
  O2-  O270  1  0.83143269  0.41511263  0.50021017  1
  O2-  O271  1  0.83413010  0.41451794  0.75084585  1
  O2-  O272  1  0.83236311  0.74687221  -0.00064564  1
  O2-  O273  1  0.83170537  0.74757209  0.24981923  1
  O2-  O274  1  0.83371029  0.74766404  0.49799422  1
  O2-  O275  1  0.83530676  0.74428619  0.75003239  1
  O2-  O276  1  0.54601802  0.56885096  0.48642298  1
  O2-  O277  1  0.04802676  0.90380519  0.51329073  1
  O2-  O278  1  0.54687031  0.42858688  0.98616288  1
  O2-  O279  1  0.96115558  0.43942722  0.49294103  1
  O2-  O280  1  0.05047132  0.57732034  0.26560109  1
  O2-  O281  1  0.95318616  0.76380406  0.76514942  1
  O2-  O282  1  0.95485343  0.23369698  0.48693474  1
  O2-  O283  1  0.54703248  0.43235970  0.76900388  1
  O2-  O284  1  0.45841547  0.77226966  0.00695108  1
  O2-  O285  1  0.45413229  0.43256130  0.48530788  1
  O2-  O286  1  0.95555071  0.90494198  0.26520468  1
  O2-  O287  1  0.45415579  0.90079937  0.23524111  1
  O2-  O288  1  0.05250458  0.43325239  0.51619787  1
  O2-  O289  1  0.54604069  0.09805777  0.01304422  1
  O2-  O290  1  0.45548058  0.90077857  0.03556209  1
  O2-  O291  1  0.04445549  0.24413594  0.22963480  1
  O2-  O292  1  0.04631742  0.09628135  0.76258672  1
  O2-  O293  1  0.54783582  0.09776337  0.73364131  1
  O2-  O294  1  0.45548927  0.76421895  0.51406969  1
  O2-  O295  1  0.95532078  0.89922901  0.98837520  1
  O2-  O296  1  0.95378022  0.57239321  0.52205675  1
  O2-  O297  1  0.96029968  0.43874004  0.48719354  1
  O2-  O298  1  0.04697785  0.42738618  0.25832635  1
  O2-  O299  1  0.54182601  0.89359884  0.74194890  1
  O2-  O300  1  0.95157660  0.57213861  0.48298913  1
  O2-  O301  1  0.04135562  0.89348948  0.77076141  1
  O2-  O302  1  0.54802855  0.57100853  0.76597915  1
  O2-  O303  1  0.95429293  0.43313858  0.01459086  1
  O2-  O304  1  0.95810151  0.55679940  0.28224862  1
  O2-  O305  1  0.54188748  0.89364334  0.74187615  1
  O2-  O306  1  0.45211728  0.76584154  0.98083997  1
  O2-  O307  1  0.53913474  0.22523627  0.96883035  1
  O2-  O308  1  0.05010456  0.23555727  0.26647444  1
  O2-  O309  1  0.04086070  0.10837140  0.25381642  1
  O2-  O310  1  0.95440545  0.09844637  0.98981575  1
  O2-  O311  1  0.45343245  0.09798006  0.26138336  1
  O2-  O312  1  0.54628140  0.43223678  0.72992952  1
  O2-  O313  1  0.03630333  0.88694028  0.75488610  1
  O2-  O314  1  0.45658737  0.89742904  0.79299343  1
  O2-  O315  1  0.54506553  0.56848183  0.01128421  1
  O2-  O316  1  0.04638932  0.10015876  0.48764374  1
  O2-  O317  1  0.44918902  0.43457657  0.73495880  1
  O2-  O318  1  0.45490896  0.76347794  0.75937849  1
  O2-  O319  1  0.03561679  0.22395876  0.71031492  1
  O2-  O320  1  0.04490157  0.42852948  0.23824340  1
  O2-  O321  1  0.04490851  0.76327861  0.23684753  1
  O2-  O322  1  0.54477263  0.76680552  0.23760433  1
  O2-  O323  1  0.95772365  0.11847463  0.25404528  1
  O2-  O324  1  0.92481556  0.05541159  0.29133015  1
  O2-  O325  1  0.06225972  0.92662173  0.53411033  1
  O2-  O326  1  0.06623274  0.73882079  0.77794961  1
  O2-  O327  1  0.56416315  0.40269787  0.53398235  1
  O2-  O328  1  0.56353195  0.26361691  0.71871871  1
  O2-  O329  1  0.43515465  0.26121302  0.02543391  1
  O2-  O330  1  0.43817663  0.40339849  0.72569295  1
  O2-  O331  1  0.43486601  0.92472295  0.47173533  1
  O2-  O332  1  0.43700023  0.91781495  0.80105777  1
  O2-  O333  1  0.43121415  0.73744173  0.02973344  1
  O2-  O334  1  0.43501988  0.07590392  0.77822589  1
  O2-  O335  1  0.57842645  0.93889830  0.79373837  1
  O2-  O336  1  0.06570997  0.40802705  0.97451501  1
  O2-  O337  1  0.56474183  0.92463346  0.27846750  1
  O2-  O338  1  0.92858149  0.60706548  0.19832537  1
  O2-  O339  1  0.57329308  0.27730696  0.05616811  1
  O2-  O340  1  0.93337198  0.26014396  0.27687492  1
  O2-  O341  1  0.43469692  0.26102719  0.22516519  1
  O2-  O342  1  0.07714521  0.05259490  0.28398423  1
  O2-  O343  1  0.93674399  0.06884221  0.71742799  1
  O2-  O344  1  0.43375947  0.59547616  0.47436393  1
  O2-  O345  1  0.93524996  0.74052325  0.27783067  1
  O2-  O346  1  0.93735464  0.92782477  0.53308934  1
  O2-  O347  1  0.06540592  0.74041423  0.97379193  1
  O2-  O348  1  0.56597870  0.73949144  0.02754725  1
  O2-  O349  1  0.93400589  0.40654544  0.27802957  1
  O2-  O350  1  0.43324080  0.07707588  0.55602446  1
  O2-  O351  1  0.56463172  0.40674036  0.97129590  1
  O2-  O352  1  0.44269618  0.92154647  0.06009499  1
  O2-  O353  1  0.06327094  0.59830625  0.53288829  1
  O2-  O354  1  0.93665421  0.73642767  0.53304072  1
  O2-  O355  1  0.42405200  0.93326619  0.67340036  1
  O2-  O356  1  0.06047805  0.40206656  0.53082536  1
  O2-  O357  1  0.43392056  0.59072000  0.94202161  1
  O2-  O358  1  0.93573092  0.07135778  0.53296842  1
  O2-  O359  1  0.91824783  0.38194498  0.55106422  1
  O2-  O360  1  0.93453820  0.26105147  0.97416477  1
  O2-  O361  1  0.07794215  0.27056879  0.79846166  1
  O2-  O362  1  0.93579621  0.73565279  0.96690621  1
  O2-  O363  1  0.43272162  0.58666407  0.05944802  1
  O2-  O364  1  0.43566465  0.07194208  0.03345309  1
  O2-  O365  1  0.42321780  0.93122180  0.92804384  1
  O2-  O366  1  0.56262131  0.59708879  0.78111213  1
  O2-  O367  1  0.43222411  0.07812951  0.44194068  1
  O2-  O368  1  0.93556895  0.92245137  0.27958772  1
  O2-  O369  1  0.56470562  0.07629924  0.27926300  1
  O2-  O370  1  0.08119097  0.95830798  0.69235753  1
  O2-  O371  1  0.56148119  0.06995107  0.72032679  1
  O2-  O372  1  0.24989903  0.33651114  0.18458477  1
  O2-  O373  1  0.25006570  0.66796009  0.84550526  1
  O2-  O374  1  0.74951733  -0.00413961  0.55678899  1
  O2-  O375  1  0.24994636  0.66775490  0.57828210  1
  O2-  O376  1  0.74998564  0.65583231  0.07970033  1
  O2-  O377  1  0.25001074  0.65992548  0.14370677  1
  O2-  O378  1  0.24994816  0.33138402  0.39848323  1
  O2-  O379  1  0.24972305  0.32551844  0.06844399  1
  O2-  O380  1  0.75032603  0.00232744  0.15797631  1
  O2-  O381  1  0.74958741  0.00261718  0.64622433  1
  O2-  O382  1  0.74971500  0.66564239  0.59522184  1
  O2-  O383  1  0.24991450  0.01436084  0.16093530  1
  O2-  O384  1  0.25010529  0.67261182  0.66968538  1
  O2-  O385  1  0.74985428  0.66079489  0.85844445  1
  O2-  O386  1  0.74983731  0.00436151  0.85099513  1
  O2-  O387  1  0.74993874  0.33944198  0.63765457  1
  O2-  O388  1  0.74982834  0.67726771  0.17020650  1
  O2-  O389  1  0.74992514  0.00382251  0.94094938  1
  O2-  O390  1  0.75001531  0.33881146  0.86099430  1
  O2-  O391  1  0.25035631  0.33681027  0.84383445  1
  O2-  O392  1  0.24955216  -0.00180515  0.07473555  1
  O2-  O393  1  0.75001924  0.33678505  0.34315910  1
  O2-  O394  1  0.24999646  -0.00126038  0.39448256  1
  O2-  O395  1  0.75006494  0.00185231  0.34496463  1
  O2-  O396  1  0.24991172  0.16015603  0.31648989  1
  O2-  O397  1  0.25004383  0.49878509  0.82035168  1
  O2-  O398  1  0.75009036  0.49823697  0.57946041  1
  O2-  O399  1  0.75029047  0.83239935  0.38009513  1
  O2-  O400  1  0.74940956  0.83895121  0.14982382  1
  O2-  O401  1  0.24997031  0.83502843  0.38670533  1
  O2-  O402  1  0.24999778  0.84026255  0.05260502  1
  O2-  O403  1  0.75002573  0.17263757  0.55523902  1
  O2-  O404  1  0.74993977  0.83369093  0.59875954  1
  O2-  O405  1  0.74996779  0.16297717  0.64104228  1
  O2-  O406  1  0.74984527  0.50640528  0.40959276  1
  O2-  O407  1  0.75009490  0.81216797  0.07520554  1
  O2-  O408  1  0.24996279  0.16025980  0.40499487  1
  O2-  O409  1  0.24988359  0.49358800  0.90863307  1
  O2-  O410  1  0.74999151  0.49511648  0.11015495  1
  O2-  O411  1  0.74991400  0.17265811  0.08700359  1
  O2-  O412  1  0.74997542  0.16517478  0.89541038  1
  O2-  O413  1  0.74980772  0.83328616  0.45892123  1
  O2-  O414  1  0.24988621  0.83292591  0.13515025  1
  O2-  O415  1  0.25005940  0.49918709  0.65924666  1
  O2-  O416  1  0.74996285  0.16049322  0.33748267  1
  O2-  O417  1  0.24985381  0.16488953  0.85959296  1
  O2-  O418  1  0.75010431  0.82059886  0.87053089  1
  O2-  O419  1  0.74994515  0.49773221  0.66864038  1
  O2-  O420  1  0.03308920  0.33340448  0.38340411  1
  O2-  O421  1  0.53152311  0.66254727  0.12910480  1
  O2-  O422  1  0.52722168  0.33158498  0.37297079  1
  O2-  O423  1  0.02305786  0.65627632  0.87534616  1
  O2-  O424  1  0.53439504  0.00016293  0.38770088  1
  O2-  O425  1  0.47575377  0.66930697  0.87013016  1
  O2-  O426  1  0.48127865  -0.00089042  0.62114799  1
  O2-  O427  1  0.95768995  0.00050443  0.87088555  1
  O2-  O428  1  0.97512382  0.66755415  0.38044786  1
  O2-  O429  1  0.47670011  0.34475864  0.12513817  1
  O2-  O430  1  0.53598868  0.00412656  0.88221664  1
  O2-  O431  1  0.52420148  0.32794580  0.86942601  1
  O2-  O432  1  0.47298108  0.01395179  0.88282301  1
  O2-  O433  1  0.02563043  -0.00760300  0.38114771  1
  O2-  O434  1  0.97194845  0.33337832  0.37899289  1
  O2-  O435  1  0.47349623  0.32798460  0.62029680  1
  O2-  O436  1  0.04295124  0.00053398  0.88182528  1
  O2-  O437  1  0.96205030  0.33906852  0.86737628  1
  O2-  O438  1  0.03176897  0.33651764  0.87687603  1
  O2-  O439  1  0.97478770  0.32948429  0.62999096  1
  O2-  O440  1  0.46822719  -0.00375155  0.36234107  1
  O2-  O441  1  0.47077577  0.66856606  0.13980074  1
  O2-  O442  1  0.52828572  -0.00302368  0.12561669  1
  O2-  O443  1  0.47489142  0.67216940  0.36789831  1
