# generated using pymatgen
data_La7(Ru4O11)2
_symmetry_space_group_name_H-M   'P 1'
_cell_length_a   23.98846573
_cell_length_b   16.82792405
_cell_length_c   15.42474077
_cell_angle_alpha   90.00015194
_cell_angle_beta   90.00025782
_cell_angle_gamma   90.00007145
_symmetry_Int_Tables_number   1
_chemical_formula_structural   La7(Ru4O11)2
_chemical_formula_sum   'La84 Ru96 O264'
_cell_volume   6226.59888109
_cell_formula_units_Z   12
loop_
 _symmetry_equiv_pos_site_id
 _symmetry_equiv_pos_as_xyz
  1  'x, y, z'
loop_
 _atom_type_symbol
 _atom_type_oxidation_number
  La3+  3.0
  Ru4+  4.0
  O2-  -2.0
loop_
 _atom_site_type_symbol
 _atom_site_label
 _atom_site_symmetry_multiplicity
 _atom_site_fract_x
 _atom_site_fract_y
 _atom_site_fract_z
 _atom_site_occupancy
  La3+  La0  1  0.13905847  -0.00033156  0.12420384  1
  La3+  La1  1  0.13841894  -0.00006330  0.37432914  1
  La3+  La2  1  0.13833907  0.00034097  0.62509848  1
  La3+  La3  1  0.13874992  -0.00003935  0.87641109  1
  La3+  La4  1  0.13842078  0.33254650  0.12418968  1
  La3+  La5  1  0.13853221  0.33298840  0.37570933  1
  La3+  La6  1  0.13921839  0.33320842  0.62520085  1
  La3+  La7  1  0.13828647  0.33267701  0.87479342  1
  La3+  La8  1  0.13833479  0.66735575  0.12561141  1
  La3+  La9  1  0.13824708  0.66683847  0.37445153  1
  La3+  La10  1  0.13817175  0.66621701  0.62487282  1
  La3+  La11  1  0.13819189  0.66656494  0.87484591  1
  La3+  La12  1  0.63825241  0.00060932  0.12503328  1
  La3+  La13  1  0.63809352  0.00047396  0.37532834  1
  La3+  La14  1  0.63846552  0.00022013  0.62463436  1
  La3+  La15  1  0.63829416  0.00052308  0.87499166  1
  La3+  La16  1  0.63792103  0.33341280  0.12441074  1
  La3+  La17  1  0.63799619  0.33295225  0.37544015  1
  La3+  La18  1  0.63830624  0.33256363  0.62474906  1
  La3+  La19  1  0.63809925  0.33305163  0.87549791  1
  La3+  La20  1  0.63798006  0.66650394  0.12608653  1
  La3+  La21  1  0.63759595  0.66685437  0.37413679  1
  La3+  La22  1  0.63828625  0.66704795  0.62540330  1
  La3+  La23  1  0.63851016  0.66650208  0.87418556  1
  La3+  La24  1  0.36107798  -0.00007522  0.12470860  1
  La3+  La25  1  0.36153873  -0.00001894  0.37429902  1
  La3+  La26  1  0.36165027  0.00059156  0.62506106  1
  La3+  La27  1  0.36111741  0.00045883  0.87562660  1
  La3+  La28  1  0.36237672  0.33281849  0.12487167  1
  La3+  La29  1  0.36183413  0.33316552  0.37521256  1
  La3+  La30  1  0.36084768  0.33316813  0.62501971  1
  La3+  La31  1  0.36156175  0.33286500  0.87471937  1
  La3+  La32  1  0.36152866  0.66700923  0.12593537  1
  La3+  La33  1  0.36178212  0.66646897  0.37447914  1
  La3+  La34  1  0.36195531  0.66628184  0.62497155  1
  La3+  La35  1  0.36166212  0.66669092  0.87474367  1
  La3+  La36  1  0.86192884  0.00063957  0.12472983  1
  La3+  La37  1  0.86191226  0.00031230  0.37569376  1
  La3+  La38  1  0.86170507  0.00005291  0.62428454  1
  La3+  La39  1  0.86178875  0.00063638  0.87526342  1
  La3+  La40  1  0.86163461  0.33344811  0.12389878  1
  La3+  La41  1  0.86155179  0.33293684  0.37593361  1
  La3+  La42  1  0.86175514  0.33252811  0.62526334  1
  La3+  La43  1  0.86180999  0.33272908  0.87490745  1
  La3+  La44  1  0.86170956  0.66650045  0.12530687  1
  La3+  La45  1  0.86187691  0.66700722  0.37472438  1
  La3+  La46  1  0.86215378  0.66698039  0.62568146  1
  La3+  La47  1  0.86203614  0.66640435  0.87417027  1
  La3+  La48  1  -0.00027685  0.16705013  0.63570238  1
  La3+  La49  1  0.50031123  0.16690318  0.61498047  1
  La3+  La50  1  0.50050847  0.83417076  0.63513235  1
  La3+  La51  1  0.50029374  0.49866878  0.13450257  1
  La3+  La52  1  0.00013882  0.16688655  0.11387082  1
  La3+  La53  1  0.00000340  0.50016964  0.38527898  1
  La3+  La54  1  0.50061207  0.49853182  0.36631510  1
  La3+  La55  1  -0.00035187  0.16748206  0.88390177  1
  La3+  La56  1  0.49992188  0.83279024  0.61446783  1
  La3+  La57  1  0.00005341  0.83308365  0.38578366  1
  La3+  La58  1  -0.00049666  0.16685206  0.38505476  1
  La3+  La59  1  0.50016003  0.16696700  0.11478475  1
  La3+  La60  1  0.49980442  0.83346252  0.88459899  1
  La3+  La61  1  0.00003610  0.16693435  0.86658291  1
  La3+  La62  1  0.49997927  0.50033116  0.63553542  1
  La3+  La63  1  -0.00003626  0.49986280  0.86470222  1
  La3+  La64  1  -0.00006334  0.83373188  0.11635527  1
  La3+  La65  1  0.50022327  0.83311373  0.13627326  1
  La3+  La66  1  0.49999226  0.50037187  0.38377067  1
  La3+  La67  1  -0.00012293  0.83397297  0.13434833  1
  La3+  La68  1  0.00013594  0.83358229  0.86401035  1
  La3+  La69  1  0.50020303  0.83296197  0.38502074  1
  La3+  La70  1  -0.00010112  0.50036098  0.88554645  1
  La3+  La71  1  -0.00065014  0.50073954  0.61589878  1
  La3+  La72  1  0.74999820  0.52250418  0.23537578  1
  La3+  La73  1  0.24983818  0.49934989  -0.01109462  1
  La3+  La74  1  0.75002150  0.83348164  0.49556429  1
  La3+  La75  1  0.74996696  0.81152824  0.24938940  1
  La3+  La76  1  0.75003696  0.52200750  0.77171413  1
  La3+  La77  1  0.24998574  0.49966252  0.50102400  1
  La3+  La78  1  0.25000716  0.83383295  0.49913457  1
  La3+  La79  1  0.24991530  0.52382937  0.25011772  1
  La3+  La80  1  0.25008211  0.83486779  0.75033435  1
  La3+  La81  1  0.75006277  0.49937642  0.47984725  1
  La3+  La82  1  0.75007079  0.83471047  0.01711703  1
  La3+  La83  1  0.75011604  0.14409238  0.26858313  1
  Ru4+  Ru84  1  0.00004963  -0.00027554  0.00017448  1
  Ru4+  Ru85  1  -0.00006642  0.00015129  0.24921294  1
  Ru4+  Ru86  1  0.00036148  -0.00025165  0.50170192  1
  Ru4+  Ru87  1  -0.00059469  -0.00106497  0.74933300  1
  Ru4+  Ru88  1  -0.00057994  0.33447332  0.00017808  1
  Ru4+  Ru89  1  0.00116900  0.33261442  0.25013720  1
  Ru4+  Ru90  1  -0.00032228  0.33252095  0.49961549  1
  Ru4+  Ru91  1  0.00083177  0.33454470  0.75055506  1
  Ru4+  Ru92  1  -0.00054136  0.66519020  0.00066570  1
  Ru4+  Ru93  1  -0.00064236  0.66588003  0.24894804  1
  Ru4+  Ru94  1  -0.00010220  0.66644370  0.50096134  1
  Ru4+  Ru95  1  0.00069378  0.66829642  0.74894464  1
  Ru4+  Ru96  1  0.49968158  0.00034708  0.00092906  1
  Ru4+  Ru97  1  0.49964044  0.00008938  0.24917792  1
  Ru4+  Ru98  1  0.50063762  -0.00057759  0.49968871  1
  Ru4+  Ru99  1  0.49997006  0.00003480  0.75041989  1
  Ru4+  Ru100  1  0.50086057  0.33379080  -0.00093573  1
  Ru4+  Ru101  1  0.50012500  0.33305104  0.24955736  1
  Ru4+  Ru102  1  0.50007167  0.33319360  0.50036565  1
  Ru4+  Ru103  1  0.50002244  0.33178592  0.75011486  1
  Ru4+  Ru104  1  0.49956901  0.66705275  0.00010693  1
  Ru4+  Ru105  1  0.50111931  0.66902285  0.25011611  1
  Ru4+  Ru106  1  0.50006728  0.66658827  0.49973723  1
  Ru4+  Ru107  1  0.50120877  0.66460395  0.75049478  1
  Ru4+  Ru108  1  0.11410077  0.16555229  0.00013682  1
  Ru4+  Ru109  1  0.11315439  0.16570670  0.25015339  1
  Ru4+  Ru110  1  0.11342178  0.16781205  0.50004801  1
  Ru4+  Ru111  1  0.11362131  0.16747685  0.74980663  1
  Ru4+  Ru112  1  0.11232068  0.50012752  0.00007327  1
  Ru4+  Ru113  1  0.11299962  0.50028792  0.24993623  1
  Ru4+  Ru114  1  0.11297839  0.50059479  0.49996515  1
  Ru4+  Ru115  1  0.11299542  0.49936901  0.74970597  1
  Ru4+  Ru116  1  0.11431630  0.83384611  -0.00016681  1
  Ru4+  Ru117  1  0.11361196  0.83378932  0.25008374  1
  Ru4+  Ru118  1  0.11244324  0.83331457  0.49988559  1
  Ru4+  Ru119  1  0.11186323  0.83348803  0.74980505  1
  Ru4+  Ru120  1  0.61270162  0.16675547  -0.00015871  1
  Ru4+  Ru121  1  0.61221959  0.16696302  0.24991423  1
  Ru4+  Ru122  1  0.61316587  0.16669049  0.50002438  1
  Ru4+  Ru123  1  0.61277900  0.16732831  0.74993015  1
  Ru4+  Ru124  1  0.61309411  0.49861597  -0.00029540  1
  Ru4+  Ru125  1  0.61274737  0.49999062  0.24997638  1
  Ru4+  Ru126  1  0.61242989  0.49980628  0.50002078  1
  Ru4+  Ru127  1  0.61257723  0.50088054  0.75012107  1
  Ru4+  Ru128  1  0.61278633  0.83359747  0.00000788  1
  Ru4+  Ru129  1  0.61233432  0.83347031  0.25013853  1
  Ru4+  Ru130  1  0.61240958  0.83338627  0.49998039  1
  Ru4+  Ru131  1  0.61278543  0.83300776  0.75000332  1
  Ru4+  Ru132  1  0.38682691  0.16640901  -0.00007759  1
  Ru4+  Ru133  1  0.38719442  0.16632611  0.25000858  1
  Ru4+  Ru134  1  0.38654108  0.16776750  0.49997166  1
  Ru4+  Ru135  1  0.38691786  0.16694447  0.74994162  1
  Ru4+  Ru136  1  0.38757940  0.49924558  -0.00005137  1
  Ru4+  Ru137  1  0.38673534  0.49900823  0.24969492  1
  Ru4+  Ru138  1  0.38740681  0.49985549  0.49988199  1
  Ru4+  Ru139  1  0.38722796  0.49965019  0.74992645  1
  Ru4+  Ru140  1  0.38690544  0.83420338  0.00006944  1
  Ru4+  Ru141  1  0.38684202  0.83343299  0.24999423  1
  Ru4+  Ru142  1  0.38747383  0.83345164  0.50015495  1
  Ru4+  Ru143  1  0.38672822  0.83486139  0.75030725  1
  Ru4+  Ru144  1  0.88644163  0.16716549  0.00026211  1
  Ru4+  Ru145  1  0.88721257  0.16534614  0.25021092  1
  Ru4+  Ru146  1  0.88679426  0.16629931  0.49990538  1
  Ru4+  Ru147  1  0.88637349  0.16622035  0.74985758  1
  Ru4+  Ru148  1  0.88724975  0.49983938  0.00015285  1
  Ru4+  Ru149  1  0.88649092  0.50201036  0.25038449  1
  Ru4+  Ru150  1  0.88773814  0.49999623  0.49998338  1
  Ru4+  Ru151  1  0.88688542  0.49931104  0.74957084  1
  Ru4+  Ru152  1  0.88761703  0.83332657  -0.00014607  1
  Ru4+  Ru153  1  0.88775822  0.83303953  0.25017561  1
  Ru4+  Ru154  1  0.88712176  0.83281442  0.49997805  1
  Ru4+  Ru155  1  0.88706201  0.83296816  0.75004352  1
  Ru4+  Ru156  1  0.75005377  0.93451243  0.25155463  1
  Ru4+  Ru157  1  0.74996832  0.91543300  0.75009836  1
  Ru4+  Ru158  1  0.75001844  0.39917953  0.49976038  1
  Ru4+  Ru159  1  0.25001390  0.75333923  0.00122997  1
  Ru4+  Ru160  1  0.74997054  0.58050099  0.00038126  1
  Ru4+  Ru161  1  0.24998784  0.24684923  0.24955438  1
  Ru4+  Ru162  1  0.75000733  0.40021616  0.74762067  1
  Ru4+  Ru163  1  0.25001585  0.92888756  0.49857015  1
  Ru4+  Ru164  1  0.25000811  0.08526101  0.24927916  1
  Ru4+  Ru165  1  0.25001084  0.08698239  0.50152626  1
  Ru4+  Ru166  1  0.24995649  0.93870610  0.75124443  1
  Ru4+  Ru167  1  0.74999951  0.93433549  -0.00030208  1
  Ru4+  Ru168  1  0.25002511  0.73855814  0.50110948  1
  Ru4+  Ru169  1  0.25004924  0.72875259  0.75193004  1
  Ru4+  Ru170  1  0.75002081  0.26618178  0.25185493  1
  Ru4+  Ru171  1  0.75000727  0.08680484  0.75148919  1
  Ru4+  Ru172  1  0.24999308  0.60034381  0.00012135  1
  Ru4+  Ru173  1  0.75000384  0.59969753  0.49794651  1
  Ru4+  Ru174  1  0.75002706  0.73382065  0.00315235  1
  Ru4+  Ru175  1  0.75009917  0.40038984  0.25141624  1
  Ru4+  Ru176  1  0.25002149  0.58057807  0.74942907  1
  Ru4+  Ru177  1  0.74999871  0.24777278  -0.00069575  1
  Ru4+  Ru178  1  0.25002054  0.39928645  0.00150133  1
  Ru4+  Ru179  1  0.25003211  0.39877430  0.25065789  1
  O2-  O180  1  0.16783853  0.08140418  0.00012796  1
  O2-  O181  1  0.16834053  0.08097600  0.25003120  1
  O2-  O182  1  0.16816202  0.08052972  0.49988911  1
  O2-  O183  1  0.16825501  0.08073834  0.74980301  1
  O2-  O184  1  0.16743296  0.41386284  0.00003252  1
  O2-  O185  1  0.16741622  0.41376615  0.25010521  1
  O2-  O186  1  0.16808997  0.41395629  0.49980613  1
  O2-  O187  1  0.16813341  0.41450809  0.75011108  1
  O2-  O188  1  0.16810733  0.74766878  -0.00001585  1
  O2-  O189  1  0.16799369  0.74749968  0.25005130  1
  O2-  O190  1  0.16747904  0.74676102  0.50018827  1
  O2-  O191  1  0.16702923  0.74698385  0.75007825  1
  O2-  O192  1  0.66792806  0.08073942  0.00010608  1
  O2-  O193  1  0.66788756  0.08042205  0.25008622  1
  O2-  O194  1  0.66791211  0.08079849  0.49970091  1
  O2-  O195  1  0.66795056  0.08061205  0.75007705  1
  O2-  O196  1  0.66817876  0.41454609  0.00019345  1
  O2-  O197  1  0.66714972  0.41359272  0.25007580  1
  O2-  O198  1  0.66769248  0.41377869  0.49978629  1
  O2-  O199  1  0.66757034  0.41366790  0.74988126  1
  O2-  O200  1  0.66759915  0.74705874  0.00008289  1
  O2-  O201  1  0.66844090  0.74717999  0.24990343  1
  O2-  O202  1  0.66810501  0.74695497  0.50007930  1
  O2-  O203  1  0.66794571  0.74757074  0.74989229  1
  O2-  O204  1  0.33180274  0.25244116  -0.00013933  1
  O2-  O205  1  0.33205297  0.25249223  0.25005071  1
  O2-  O206  1  0.33235489  0.25220210  0.49987321  1
  O2-  O207  1  0.33217887  0.25236946  0.75010141  1
  O2-  O208  1  0.33265495  0.58631823  -0.00000654  1
  O2-  O209  1  0.33163901  0.58597691  0.24990770  1
  O2-  O210  1  0.33201279  0.58638363  0.50004589  1
  O2-  O211  1  0.33159464  0.58585267  0.75022547  1
  O2-  O212  1  0.33232973  0.91852743  -0.00014913  1
  O2-  O213  1  0.33213977  0.91902198  0.25021706  1
  O2-  O214  1  0.33233580  0.91974972  0.49978938  1
  O2-  O215  1  0.33286417  0.91952513  0.74994804  1
  O2-  O216  1  0.83171886  0.25243627  0.00014186  1
  O2-  O217  1  0.83253023  0.25307837  0.25003258  1
  O2-  O218  1  0.83218133  0.25244725  0.49960326  1
  O2-  O219  1  0.83190681  0.25250225  0.74979245  1
  O2-  O220  1  0.83172771  0.58594911  0.00012373  1
  O2-  O221  1  0.83213798  0.58646152  0.24993103  1
  O2-  O222  1  0.83243619  0.58634273  0.50001762  1
  O2-  O223  1  0.83210484  0.58585153  0.74985300  1
  O2-  O224  1  0.83258365  0.91972134  0.00002832  1
  O2-  O225  1  0.83270357  0.91986901  0.24990245  1
  O2-  O226  1  0.83183973  0.91935110  0.49999763  1
  O2-  O227  1  0.83186684  0.91933264  0.75010486  1
  O2-  O228  1  0.16805710  0.25241144  0.00025159  1
  O2-  O229  1  0.16810898  0.25257874  0.24990992  1
  O2-  O230  1  0.16769602  0.25217942  0.49971012  1
  O2-  O231  1  0.16780067  0.25235769  0.75004289  1
  O2-  O232  1  0.16734081  0.58625554  -0.00005106  1
  O2-  O233  1  0.16816843  0.58583285  0.25007809  1
  O2-  O234  1  0.16794217  0.58627035  0.50016636  1
  O2-  O235  1  0.16833029  0.58598261  0.75000933  1
  O2-  O236  1  0.16779776  0.91843563  0.00011282  1
  O2-  O237  1  0.16782525  0.91918415  0.25024127  1
  O2-  O238  1  0.16746437  0.91976532  0.49996679  1
  O2-  O239  1  0.16730298  0.91941173  0.74986632  1
  O2-  O240  1  0.66823055  0.25250283  0.00015372  1
  O2-  O241  1  0.66740631  0.25281852  0.25026559  1
  O2-  O242  1  0.66782689  0.25245976  0.49954614  1
  O2-  O243  1  0.66786391  0.25239632  0.74983589  1
  O2-  O244  1  0.66839248  0.58596070  0.00019328  1
  O2-  O245  1  0.66812669  0.58613225  0.24997238  1
  O2-  O246  1  0.66765569  0.58630142  0.50002648  1
  O2-  O247  1  0.66768773  0.58588725  0.74985504  1
  O2-  O248  1  0.66736117  0.91968915  0.00001347  1
  O2-  O249  1  0.66715443  0.91969781  0.24999724  1
  O2-  O250  1  0.66808939  0.91960312  0.49984272  1
  O2-  O251  1  0.66822872  0.91942037  0.75009669  1
  O2-  O252  1  0.33248354  0.08140708  -0.00011098  1
  O2-  O253  1  0.33150525  0.08084010  0.25014682  1
  O2-  O254  1  0.33192238  0.08076946  0.49995070  1
  O2-  O255  1  0.33209941  0.08077004  0.74986862  1
  O2-  O256  1  0.33262219  0.41391685  -0.00006451  1
  O2-  O257  1  0.33247430  0.41353613  0.25006976  1
  O2-  O258  1  0.33216044  0.41398474  0.49982162  1
  O2-  O259  1  0.33213829  0.41440122  0.75012517  1
  O2-  O260  1  0.33182162  0.74724131  -0.00001338  1
  O2-  O261  1  0.33212525  0.74741614  0.24991961  1
  O2-  O262  1  0.33234953  0.74687469  0.49988254  1
  O2-  O263  1  0.33263205  0.74685634  0.75013346  1
  O2-  O264  1  0.83197646  0.08070543  -0.00005540  1
  O2-  O265  1  0.83200828  0.08068241  0.24988144  1
  O2-  O266  1  0.83188565  0.08102631  0.49988648  1
  O2-  O267  1  0.83208798  0.08058629  0.74996947  1
  O2-  O268  1  0.83193440  0.41423972  0.00007924  1
  O2-  O269  1  0.83253341  0.41343771  0.25006074  1
  O2-  O270  1  0.83242111  0.41376466  0.49984420  1
  O2-  O271  1  0.83241016  0.41380468  0.74989482  1
  O2-  O272  1  0.83235319  0.74687719  0.00013455  1
  O2-  O273  1  0.83148291  0.74701145  0.24986787  1
  O2-  O274  1  0.83207133  0.74729702  0.49996987  1
  O2-  O275  1  0.83213044  0.74771804  0.74995033  1
  O2-  O276  1  0.04560511  0.56778599  0.01475107  1
  O2-  O277  1  0.04465842  0.76618026  0.26982326  1
  O2-  O278  1  0.54485513  0.90113680  0.98535471  1
  O2-  O279  1  0.44650304  0.75218512  0.71988476  1
  O2-  O280  1  0.45512170  0.23547479  0.51522597  1
  O2-  O281  1  0.95533277  0.09863236  0.01943840  1
  O2-  O282  1  0.03501308  0.55424039  0.24315861  1
  O2-  O283  1  0.95544178  0.23436899  0.51505472  1
  O2-  O284  1  0.54483485  0.56854146  0.76505841  1
  O2-  O285  1  0.04652229  0.23737383  0.98372912  1
  O2-  O286  1  0.45513964  0.09844507  0.01468964  1
  O2-  O287  1  0.95496762  0.90133337  0.48013943  1
  O2-  O288  1  0.54501452  0.09868921  0.24371317  1
  O2-  O289  1  0.45460940  0.23479348  0.73474017  1
  O2-  O290  1  0.94663773  0.41907741  0.21838422  1
  O2-  O291  1  0.45468170  0.76602228  0.26481277  1
  O2-  O292  1  0.95340407  0.23680874  0.76635475  1
  O2-  O293  1  0.46476287  0.11317224  0.49254564  1
  O2-  O294  1  0.45523895  0.76519418  0.98520689  1
  O2-  O295  1  0.54711840  0.76323273  0.26663088  1
  O2-  O296  1  0.95522250  0.09836884  0.98018652  1
  O2-  O297  1  0.45501645  0.43170412  0.98505156  1
  O2-  O298  1  0.45799304  0.56345244  0.97676698  1
  O2-  O299  1  0.04164983  0.43720885  0.52270415  1
  O2-  O300  1  0.95459265  0.56867275  0.01498750  1
  O2-  O301  1  0.45579322  0.56702906  0.23649870  1
  O2-  O302  1  0.44586695  0.24854243  0.02368238  1
  O2-  O303  1  0.04158348  0.10352230  0.47751790  1
  O2-  O304  1  0.54533247  0.23398831  0.98519947  1
  O2-  O305  1  0.54221776  0.43676643  0.77276154  1
  O2-  O306  1  0.04482758  0.90151696  0.73539183  1
  O2-  O307  1  0.54200323  0.56276960  0.02280465  1
  O2-  O308  1  0.54560068  0.23408892  0.73508798  1
  O2-  O309  1  0.45794268  0.56315418  0.26365704  1
  O2-  O310  1  0.04163109  0.77017311  0.02235367  1
  O2-  O311  1  0.03595567  0.44487443  0.24289115  1
  O2-  O312  1  0.44944500  0.42400963  0.23073593  1
  O2-  O313  1  0.95544008  0.90094561  0.51951260  1
  O2-  O314  1  0.04171659  0.22974247  0.27248568  1
  O2-  O315  1  0.04495325  0.76573547  0.23055205  1
  O2-  O316  1  0.04604409  0.90404252  0.98334003  1
  O2-  O317  1  0.45461183  0.43192886  0.73476128  1
  O2-  O318  1  0.54539582  0.43196440  0.23556025  1
  O2-  O319  1  0.95526178  0.43133479  0.01507458  1
  O2-  O320  1  0.04472460  0.76466291  0.73502873  1
  O2-  O321  1  0.54718104  0.57015341  0.26645891  1
  O2-  O322  1  0.95322874  0.57049631  0.76617110  1
  O2-  O323  1  0.54490911  0.09877368  0.25585554  1
  O2-  O324  1  0.93773428  0.59523764  0.78164079  1
  O2-  O325  1  0.42574107  0.05473589  0.46058378  1
  O2-  O326  1  0.93540474  0.06943206  0.28138813  1
  O2-  O327  1  0.56425314  0.73530428  0.95593696  1
  O2-  O328  1  0.43351567  0.73156395  0.79557824  1
  O2-  O329  1  0.56186041  0.73689894  0.28060329  1
  O2-  O330  1  0.56447329  0.73596740  0.04292304  1
  O2-  O331  1  0.93588916  0.26469728  0.29339583  1
  O2-  O332  1  0.43258010  0.60341794  0.03989253  1
  O2-  O333  1  0.06431223  0.06817129  0.79391799  1
  O2-  O334  1  0.56447084  0.40263601  0.53109055  1
  O2-  O335  1  0.93791836  0.26158726  0.78177554  1
  O2-  O336  1  0.06466259  0.06914651  0.70706746  1
  O2-  O337  1  0.43562425  0.59803181  0.71727890  1
  O2-  O338  1  0.43585450  0.73505819  0.53252258  1
  O2-  O339  1  0.56416075  0.59823198  0.46785418  1
  O2-  O340  1  0.07390866  0.61232596  0.21078972  1
  O2-  O341  1  0.43379930  0.60154462  0.20202519  1
  O2-  O342  1  0.56465446  0.40238197  0.96861793  1
  O2-  O343  1  0.43532627  0.06915547  0.21862917  1
  O2-  O344  1  0.44126017  0.41061531  0.22269937  1
  O2-  O345  1  0.56749524  0.60258801  0.95989934  1
  O2-  O346  1  0.44440706  0.25126867  0.02448635  1
  O2-  O347  1  0.06747655  0.72987725  0.95941031  1
  O2-  O348  1  0.06772424  0.06421293  0.53934045  1
  O2-  O349  1  0.93547443  0.40276875  0.71829960  1
  O2-  O350  1  0.56764497  0.39773819  0.71132656  1
  O2-  O351  1  0.06701085  0.26877657  0.21017417  1
  O2-  O352  1  0.06419861  0.06893213  0.96727378  1
  O2-  O353  1  0.56461473  0.26436481  0.21891810  1
  O2-  O354  1  0.94659047  0.41900989  0.21850618  1
  O2-  O355  1  0.93345351  0.39828941  0.29712489  1
  O2-  O356  1  0.93579723  0.26458384  0.20667845  1
  O2-  O357  1  0.06427429  0.40254633  0.71847225  1
  O2-  O358  1  0.06218770  0.92867491  0.96926860  1
  O2-  O359  1  0.56197618  0.59578496  0.28136745  1
  O2-  O360  1  0.44651683  0.75187388  0.71966470  1
  O2-  O361  1  0.93553394  0.73561034  0.28146363  1
  O2-  O362  1  0.93530840  0.06937013  0.46837395  1
  O2-  O363  1  0.93571048  0.26485947  0.03257779  1
  O2-  O364  1  0.43529149  0.93033686  0.53169966  1
  O2-  O365  1  0.43284995  0.60207363  0.29689500  1
  O2-  O366  1  0.06788275  0.39721447  0.46052783  1
  O2-  O367  1  0.07285067  0.38809271  0.21002386  1
  O2-  O368  1  0.06463965  0.06918429  0.28149771  1
  O2-  O369  1  0.06208050  0.26203169  0.96842213  1
  O2-  O370  1  0.06441331  0.59827606  0.78258778  1
  O2-  O371  1  0.93592477  0.73519770  0.96750790  1
  O2-  O372  1  0.24997984  0.33248213  0.34380058  1
  O2-  O373  1  0.25000108  -0.00030177  0.90702804  1
  O2-  O374  1  0.24996633  0.33230963  0.15614178  1
  O2-  O375  1  0.25004210  0.66761211  0.90658575  1
  O2-  O376  1  0.24993493  0.00045353  0.09321588  1
  O2-  O377  1  0.74996505  0.66651065  0.83138436  1
  O2-  O378  1  0.75001775  0.33332508  0.59290378  1
  O2-  O379  1  0.75000764  0.66863639  0.58439150  1
  O2-  O380  1  0.74999527  -0.00025284  0.58238234  1
  O2-  O381  1  0.74998723  0.66469084  0.91572776  1
  O2-  O382  1  0.24999150  0.66528168  0.65645468  1
  O2-  O383  1  0.74998685  0.66643351  0.66762296  1
  O2-  O384  1  0.25002014  0.33141958  0.91528182  1
  O2-  O385  1  0.74999525  -0.00006177  0.66713188  1
  O2-  O386  1  0.75004376  0.33343483  0.15499809  1
  O2-  O387  1  0.24999285  0.00029960  0.59264477  1
  O2-  O388  1  0.25002948  0.33353893  0.59214524  1
  O2-  O389  1  0.24998160  0.66499349  0.41628708  1
  O2-  O390  1  0.25008064  0.66752591  0.09353302  1
  O2-  O391  1  0.24998664  0.66662771  0.33235929  1
  O2-  O392  1  0.74995604  0.00068075  0.15663551  1
  O2-  O393  1  0.74999875  0.33378568  0.91787754  1
  O2-  O394  1  0.25002098  0.33349322  0.83297808  1
  O2-  O395  1  0.75000667  0.33160007  0.83397447  1
  O2-  O396  1  0.74999358  0.16730337  0.15431211  1
  O2-  O397  1  0.25001032  0.83292352  0.60149904  1
  O2-  O398  1  0.74997664  0.50010515  0.58860129  1
  O2-  O399  1  0.24998407  0.49986758  0.39195796  1
  O2-  O400  1  0.74999178  0.49874551  0.66070189  1
  O2-  O401  1  0.74999263  0.16565113  0.83929974  1
  O2-  O402  1  0.24997464  0.16644010  0.33323874  1
  O2-  O403  1  0.74999893  0.83279664  0.82783299  1
  O2-  O404  1  0.25002413  0.83367175  0.39872052  1
  O2-  O405  1  0.25001420  0.50010642  0.10006542  1
  O2-  O406  1  0.74996583  0.83324965  0.90551848  1
  O2-  O407  1  0.74998942  0.16725788  0.66508349  1
  O2-  O408  1  0.24998474  0.16562558  0.58872369  1
  O2-  O409  1  0.74999853  0.16623623  0.58496769  1
  O2-  O410  1  0.74999871  0.83365355  0.60078457  1
  O2-  O411  1  0.74998772  0.83242524  0.67406608  1
  O2-  O412  1  0.75001831  0.83332114  0.39009889  1
  O2-  O413  1  0.24998727  0.16686798  0.41678819  1
  O2-  O414  1  0.75002152  0.16618443  0.07758422  1
  O2-  O415  1  0.25000678  0.83293192  0.15921545  1
  O2-  O416  1  0.24997620  0.16663709  0.91427737  1
  O2-  O417  1  0.24998588  0.16663665  0.83573635  1
  O2-  O418  1  0.75000024  0.49951805  0.35338612  1
  O2-  O419  1  0.24999617  0.50019038  0.60805788  1
  O2-  O420  1  0.02714197  0.66777641  0.12414341  1
  O2-  O421  1  0.47280656  -0.00139590  0.12432919  1
  O2-  O422  1  0.02983634  0.66640791  0.37557551  1
  O2-  O423  1  0.52951912  -0.00018318  0.37530980  1
  O2-  O424  1  0.97195828  -0.00018559  0.12543555  1
  O2-  O425  1  0.52714766  0.33288234  0.87399480  1
  O2-  O426  1  0.02749008  0.33272418  0.37462063  1
  O2-  O427  1  0.47220032  0.33360716  0.37499515  1
  O2-  O428  1  0.47221488  0.66722526  0.37645374  1
  O2-  O429  1  0.97161594  -0.00119697  0.37493090  1
  O2-  O430  1  0.02888735  -0.00084320  0.37558053  1
  O2-  O431  1  0.02684900  -0.00105946  0.62448340  1
  O2-  O432  1  0.97061428  0.66592790  0.37577260  1
  O2-  O433  1  0.47127810  -0.00118441  0.37367927  1
  O2-  O434  1  0.47023424  0.00065898  0.62603059  1
  O2-  O435  1  0.97083834  0.33277529  0.62391648  1
  O2-  O436  1  0.53033464  0.00005685  0.62512770  1
  O2-  O437  1  0.52742262  0.33396243  0.12384094  1
  O2-  O438  1  0.52684385  0.33220571  0.62473193  1
  O2-  O439  1  0.47060551  -0.00023763  0.87463376  1
  O2-  O440  1  0.52768449  0.66616202  0.12636694  1
  O2-  O441  1  0.97212063  0.66652723  0.62458201  1
  O2-  O442  1  0.52946040  0.00018393  0.87456098  1
  O2-  O443  1  0.02916918  0.33254796  0.62379219  1
