# generated using pymatgen
data_La7(Ru4O11)2
_symmetry_space_group_name_H-M   'P 1'
_cell_length_a   23.99000309
_cell_length_b   16.83013413
_cell_length_c   15.42683560
_cell_angle_alpha   90.00012471
_cell_angle_beta   90.00072892
_cell_angle_gamma   90.00003156
_symmetry_Int_Tables_number   1
_chemical_formula_structural   La7(Ru4O11)2
_chemical_formula_sum   'La84 Ru96 O264'
_cell_volume   6228.66154188
_cell_formula_units_Z   12
loop_
 _symmetry_equiv_pos_site_id
 _symmetry_equiv_pos_as_xyz
  1  'x, y, z'
loop_
 _atom_type_symbol
 _atom_type_oxidation_number
  La3+  3.0
  Ru4+  4.0
  O2-  -2.0
loop_
 _atom_site_type_symbol
 _atom_site_label
 _atom_site_symmetry_multiplicity
 _atom_site_fract_x
 _atom_site_fract_y
 _atom_site_fract_z
 _atom_site_occupancy
  La3+  La0  1  0.14093691  -0.00067159  0.12790214  1
  La3+  La1  1  0.13782400  -0.00068090  0.37411449  1
  La3+  La2  1  0.13687257  0.00015481  0.62288677  1
  La3+  La3  1  0.13842656  -0.00041811  0.87526636  1
  La3+  La4  1  0.13873586  0.33517342  0.12440192  1
  La3+  La5  1  0.13938516  0.33384214  0.37388081  1
  La3+  La6  1  0.13663116  0.33435514  0.62342997  1
  La3+  La7  1  0.13740071  0.33364894  0.87733956  1
  La3+  La8  1  0.14135122  0.66659809  0.12761401  1
  La3+  La9  1  0.14026208  0.66778734  0.37249564  1
  La3+  La10  1  0.13667632  0.66616006  0.62325433  1
  La3+  La11  1  0.13794621  0.66534535  0.87644316  1
  La3+  La12  1  0.63672179  0.00082950  0.12620451  1
  La3+  La13  1  0.63816326  -0.00013306  0.37619336  1
  La3+  La14  1  0.63794868  -0.00178155  0.62460735  1
  La3+  La15  1  0.63815886  -0.00096573  0.87260177  1
  La3+  La16  1  0.63746031  0.33180282  0.12685626  1
  La3+  La17  1  0.63862096  0.33286735  0.37574294  1
  La3+  La18  1  0.63950131  0.33317861  0.62223911  1
  La3+  La19  1  0.63740340  0.33291767  0.87494296  1
  La3+  La20  1  0.63848509  0.66700468  0.12348270  1
  La3+  La21  1  0.63824780  0.66496564  0.37898573  1
  La3+  La22  1  0.63628688  0.66593963  0.62266324  1
  La3+  La23  1  0.63623610  0.66661075  0.87391149  1
  La3+  La24  1  0.35982812  -0.00031025  0.12888078  1
  La3+  La25  1  0.36268431  0.00059493  0.37243464  1
  La3+  La26  1  0.36175418  -0.00233480  0.62260352  1
  La3+  La27  1  0.36213190  -0.00126003  0.87576677  1
  La3+  La28  1  0.35997714  0.33245329  0.12609369  1
  La3+  La29  1  0.35967021  0.33344572  0.37398597  1
  La3+  La30  1  0.36234398  0.33254945  0.62474351  1
  La3+  La31  1  0.36212467  0.33323223  0.87712001  1
  La3+  La32  1  0.35833957  0.66648349  0.12783557  1
  La3+  La33  1  0.35985136  0.66743921  0.37384530  1
  La3+  La34  1  0.36350499  0.66685963  0.62374241  1
  La3+  La35  1  0.36139164  0.66637834  0.87653635  1
  La3+  La36  1  0.86247212  0.00061596  0.12590457  1
  La3+  La37  1  0.86149192  0.00089700  0.37584394  1
  La3+  La38  1  0.86123109  -0.00122784  0.62498196  1
  La3+  La39  1  0.86196790  -0.00102183  0.87321436  1
  La3+  La40  1  0.86233470  0.33349500  0.12571776  1
  La3+  La41  1  0.86142756  0.33228436  0.37735801  1
  La3+  La42  1  0.86031566  0.33287637  0.62159440  1
  La3+  La43  1  0.86375892  0.33244076  0.87586514  1
  La3+  La44  1  0.86070467  0.66658309  0.12401753  1
  La3+  La45  1  0.86178314  0.66508764  0.37712959  1
  La3+  La46  1  0.86252534  0.66601585  0.62234552  1
  La3+  La47  1  0.86204968  0.66757886  0.87619808  1
  La3+  La48  1  -0.00057427  0.16698673  0.88410191  1
  La3+  La49  1  0.50048829  0.50019835  0.11612291  1
  La3+  La50  1  0.49881907  0.83085186  0.61856379  1
  La3+  La51  1  -0.00148377  0.16772714  0.61242159  1
  La3+  La52  1  0.50484975  0.50485742  0.87690981  1
  La3+  La53  1  0.49724446  0.83557222  0.86635771  1
  La3+  La54  1  0.49938251  0.16682951  0.11768979  1
  La3+  La55  1  0.00341783  0.16245061  0.63283031  1
  La3+  La56  1  0.49884911  0.49933989  0.61657542  1
  La3+  La57  1  0.00035662  0.83556582  0.88796492  1
  La3+  La58  1  0.50288349  0.17240205  0.86812019  1
  La3+  La59  1  0.49929406  0.16494225  0.38307808  1
  La3+  La60  1  0.00252015  0.83476190  0.13134166  1
  La3+  La61  1  0.00004608  0.83336877  0.63224892  1
  La3+  La62  1  -0.00026565  0.82708760  0.86768252  1
  La3+  La63  1  0.00024226  0.16707892  0.11633343  1
  La3+  La64  1  0.49917598  0.16767880  0.63591134  1
  La3+  La65  1  0.00239087  0.49724840  0.38199389  1
  La3+  La66  1  0.50055238  0.50393450  0.36507118  1
  La3+  La67  1  0.00169156  0.49941868  0.36549249  1
  La3+  La68  1  0.50008587  0.83396905  0.36419323  1
  La3+  La69  1  0.49945167  0.16500296  0.88736528  1
  La3+  La70  1  0.50291028  0.50352052  0.63792787  1
  La3+  La71  1  0.49913109  0.16591545  0.13795708  1
  La3+  La72  1  0.74995228  0.55733208  0.72266766  1
  La3+  La73  1  0.25022768  0.19728221  0.49642696  1
  La3+  La74  1  0.75031577  0.55782768  0.01306228  1
  La3+  La75  1  0.24981094  0.50125125  0.22889956  1
  La3+  La76  1  0.24959995  0.15914623  0.68954056  1
  La3+  La77  1  0.25015916  0.50480737  0.74976001  1
  La3+  La78  1  0.25010073  0.83247765  0.47724548  1
  La3+  La79  1  0.25001717  0.19877401  0.04452908  1
  La3+  La80  1  0.25000313  0.86406378  0.03215711  1
  La3+  La81  1  0.25025151  0.87637633  0.78696641  1
  La3+  La82  1  0.74950926  0.82484458  0.26426305  1
  La3+  La83  1  0.75001213  0.20237345  -0.00004465  1
  Ru4+  Ru84  1  0.00030404  0.00011754  -0.00147958  1
  Ru4+  Ru85  1  0.00002865  0.00083291  0.25000538  1
  Ru4+  Ru86  1  -0.00304969  -0.00504090  0.49735304  1
  Ru4+  Ru87  1  -0.00030122  0.00296051  0.75298376  1
  Ru4+  Ru88  1  -0.00002647  0.33670919  0.00169623  1
  Ru4+  Ru89  1  -0.00053251  0.33518678  0.24510955  1
  Ru4+  Ru90  1  0.00010039  0.33318647  0.49699864  1
  Ru4+  Ru91  1  0.00316545  0.33330897  0.75504554  1
  Ru4+  Ru92  1  -0.00038618  0.66594788  0.00041218  1
  Ru4+  Ru93  1  0.00383950  0.66758933  0.25162369  1
  Ru4+  Ru94  1  0.00210096  0.67292093  0.50654656  1
  Ru4+  Ru95  1  0.00080547  0.66457215  0.74688536  1
  Ru4+  Ru96  1  0.50053351  -0.00136275  -0.00026666  1
  Ru4+  Ru97  1  0.50305883  -0.00594578  0.25025256  1
  Ru4+  Ru98  1  0.49644475  0.00395915  0.50186561  1
  Ru4+  Ru99  1  0.50004278  -0.00314924  0.74785747  1
  Ru4+  Ru100  1  0.50040782  0.33275112  -0.00086081  1
  Ru4+  Ru101  1  0.49690301  0.33775772  0.25053113  1
  Ru4+  Ru102  1  0.50097380  0.33078052  0.49980371  1
  Ru4+  Ru103  1  0.50059619  0.33185476  0.75096517  1
  Ru4+  Ru104  1  0.49912127  0.66280188  0.00093819  1
  Ru4+  Ru105  1  0.49859016  0.66932327  0.24777948  1
  Ru4+  Ru106  1  0.49649823  0.67221471  0.49724040  1
  Ru4+  Ru107  1  0.49479498  0.66827262  0.74754045  1
  Ru4+  Ru108  1  0.11045577  0.16691571  -0.00012112  1
  Ru4+  Ru109  1  0.11342785  0.16397930  0.24932019  1
  Ru4+  Ru110  1  0.11412505  0.17081846  0.49863838  1
  Ru4+  Ru111  1  0.11024335  0.16669847  0.75062424  1
  Ru4+  Ru112  1  0.11355135  0.49865749  0.00031453  1
  Ru4+  Ru113  1  0.11230338  0.49873530  0.24938465  1
  Ru4+  Ru114  1  0.11196912  0.49938955  0.50119294  1
  Ru4+  Ru115  1  0.10905077  0.50036239  0.75020278  1
  Ru4+  Ru116  1  0.11231392  0.83211105  0.00028121  1
  Ru4+  Ru117  1  0.11406786  0.83242687  0.25068966  1
  Ru4+  Ru118  1  0.11201065  0.83310605  0.50031813  1
  Ru4+  Ru119  1  0.11146381  0.83189720  0.74936088  1
  Ru4+  Ru120  1  0.61179030  0.16507035  -0.00028432  1
  Ru4+  Ru121  1  0.61619695  0.16269694  0.25091949  1
  Ru4+  Ru122  1  0.61422341  0.16847393  0.50020678  1
  Ru4+  Ru123  1  0.61228837  0.16650207  0.74999474  1
  Ru4+  Ru124  1  0.61095001  0.50086347  -0.00011874  1
  Ru4+  Ru125  1  0.61346703  0.50129522  0.24973453  1
  Ru4+  Ru126  1  0.61695512  0.49718271  0.49870294  1
  Ru4+  Ru127  1  0.61455458  0.49678731  0.75179534  1
  Ru4+  Ru128  1  0.61721048  0.83614204  -0.00099718  1
  Ru4+  Ru129  1  0.60990070  0.83261663  0.24992499  1
  Ru4+  Ru130  1  0.61820524  0.82947120  0.50058310  1
  Ru4+  Ru131  1  0.61572183  0.83752196  0.74995965  1
  Ru4+  Ru132  1  0.38905651  0.16698543  -0.00026417  1
  Ru4+  Ru133  1  0.38365951  0.16845523  0.24962712  1
  Ru4+  Ru134  1  0.38877538  0.16723301  0.49981506  1
  Ru4+  Ru135  1  0.38715213  0.16849619  0.74800116  1
  Ru4+  Ru136  1  0.38483951  0.50171243  0.00050467  1
  Ru4+  Ru137  1  0.38704940  0.50022216  0.25010863  1
  Ru4+  Ru138  1  0.38574900  0.50072180  0.49923631  1
  Ru4+  Ru139  1  0.38845852  0.49972722  0.74937337  1
  Ru4+  Ru140  1  0.38683533  0.83458269  0.00030080  1
  Ru4+  Ru141  1  0.38511123  0.83226648  0.24982328  1
  Ru4+  Ru142  1  0.38715242  0.83311155  0.50001847  1
  Ru4+  Ru143  1  0.38905039  0.83405603  0.75034356  1
  Ru4+  Ru144  1  0.88814375  0.16850113  -0.00038373  1
  Ru4+  Ru145  1  0.88766569  0.16491123  0.25059716  1
  Ru4+  Ru146  1  0.88647103  0.16881518  0.49929079  1
  Ru4+  Ru147  1  0.88650189  0.16469220  0.75088239  1
  Ru4+  Ru148  1  0.89076231  0.49883499  0.00083766  1
  Ru4+  Ru149  1  0.88552943  0.49997842  0.24882721  1
  Ru4+  Ru150  1  0.88202086  0.49762543  0.50134172  1
  Ru4+  Ru151  1  0.88812329  0.50225130  0.74952761  1
  Ru4+  Ru152  1  0.88588121  0.83283578  0.00039962  1
  Ru4+  Ru153  1  0.88868096  0.83467447  0.25070520  1
  Ru4+  Ru154  1  0.88644223  0.83342445  0.50026150  1
  Ru4+  Ru155  1  0.88605646  0.83303247  0.74942508  1
  Ru4+  Ru156  1  0.24978047  0.26430408  0.77554034  1
  Ru4+  Ru157  1  0.24979128  0.24909474  0.25194147  1
  Ru4+  Ru158  1  0.24999750  0.72455549  0.00429079  1
  Ru4+  Ru159  1  0.75000879  0.39767489  0.01224185  1
  Ru4+  Ru160  1  0.25003353  0.74510569  0.74633906  1
  Ru4+  Ru161  1  0.24979353  0.57937024  0.49494598  1
  Ru4+  Ru162  1  0.25022781  0.05973355  0.49612617  1
  Ru4+  Ru163  1  0.74984767  0.08503957  0.74931449  1
  Ru4+  Ru164  1  0.75013244  0.24825662  0.25057817  1
  Ru4+  Ru165  1  0.24987604  0.42310810  -0.00470320  1
  Ru4+  Ru166  1  0.24981974  0.62538889  0.73651027  1
  Ru4+  Ru167  1  0.74986549  0.24320279  0.75003090  1
  Ru4+  Ru168  1  0.24986199  0.38575109  0.77100895  1
  Ru4+  Ru169  1  0.75009554  0.94311534  0.25202316  1
  Ru4+  Ru170  1  0.24975652  0.42619532  0.49438703  1
  Ru4+  Ru171  1  0.74998661  0.07401973  -0.00129918  1
  Ru4+  Ru172  1  0.75022029  0.91228475  -0.00525668  1
  Ru4+  Ru173  1  0.75012973  0.40540724  0.74474468  1
  Ru4+  Ru174  1  0.75009580  0.08587113  0.50086263  1
  Ru4+  Ru175  1  0.25004456  0.05747819  0.00287338  1
  Ru4+  Ru176  1  0.75012770  0.75285616  0.75152677  1
  Ru4+  Ru177  1  0.75034995  0.41352713  0.25519102  1
  Ru4+  Ru178  1  0.75001996  0.70325685  0.25522002  1
  Ru4+  Ru179  1  0.24987604  0.03763158  0.74607953  1
  O2-  O180  1  0.16753088  0.07890938  -0.00041779  1
  O2-  O181  1  0.16613522  0.08275361  0.25164709  1
  O2-  O182  1  0.16712141  0.08023075  0.49922102  1
  O2-  O183  1  0.16647727  0.07827073  0.74980326  1
  O2-  O184  1  0.16719070  0.41522400  -0.00079986  1
  O2-  O185  1  0.16765058  0.41465960  0.24998420  1
  O2-  O186  1  0.16893575  0.41509708  0.49933132  1
  O2-  O187  1  0.16533018  0.41276838  0.75018871  1
  O2-  O188  1  0.16768669  0.74681100  -0.00031612  1
  O2-  O189  1  0.16656905  0.74972529  0.25073981  1
  O2-  O190  1  0.16645046  0.74669934  0.50213355  1
  O2-  O191  1  0.16646665  0.74675889  0.74854920  1
  O2-  O192  1  0.66672248  0.07911939  0.00039505  1
  O2-  O193  1  0.66661473  0.08156173  0.24929954  1
  O2-  O194  1  0.66750205  0.08048568  0.50070577  1
  O2-  O195  1  0.66761272  0.08034482  0.74968326  1
  O2-  O196  1  0.66678043  0.41273889  0.00093900  1
  O2-  O197  1  0.66727623  0.41388253  0.25070460  1
  O2-  O198  1  0.66625770  0.41472267  0.49869616  1
  O2-  O199  1  0.66694992  0.41294878  0.74972653  1
  O2-  O200  1  0.66814050  0.74809095  0.00138956  1
  O2-  O201  1  0.66562014  0.74492595  0.25034620  1
  O2-  O202  1  0.66818203  0.74693703  0.49932489  1
  O2-  O203  1  0.66794362  0.74738390  0.74896040  1
  O2-  O204  1  0.33322451  0.25385700  -0.00128563  1
  O2-  O205  1  0.33212290  0.25090453  0.25024951  1
  O2-  O206  1  0.33333446  0.25288123  0.49997471  1
  O2-  O207  1  0.33407481  0.25354211  0.75102594  1
  O2-  O208  1  0.33242420  0.58504735  -0.00073731  1
  O2-  O209  1  0.33388262  0.58526955  0.25106370  1
  O2-  O210  1  0.33235607  0.58507314  0.50088444  1
  O2-  O211  1  0.33462099  0.58765829  0.75040278  1
  O2-  O212  1  0.33431643  0.92062838  -0.00145411  1
  O2-  O213  1  0.33480362  0.91801281  0.25115328  1
  O2-  O214  1  0.33156944  0.91988697  0.49901366  1
  O2-  O215  1  0.33426254  0.92128728  0.74900418  1
  O2-  O216  1  0.83310469  0.25350157  0.00052466  1
  O2-  O217  1  0.83287859  0.25243811  0.24953145  1
  O2-  O218  1  0.83219986  0.25144952  0.49971706  1
  O2-  O219  1  0.83342066  0.25329166  0.75011956  1
  O2-  O220  1  0.83536404  0.58764192  -0.00121474  1
  O2-  O221  1  0.83170834  0.58503855  0.25165281  1
  O2-  O222  1  0.83133550  0.58494847  0.49969696  1
  O2-  O223  1  0.83602429  0.58762842  0.75137326  1
  O2-  O224  1  0.83270628  0.91940944  0.00062537  1
  O2-  O225  1  0.83465814  0.92101235  0.25028414  1
  O2-  O226  1  0.83367944  0.91848576  0.50030036  1
  O2-  O227  1  0.83271645  0.91927258  0.74871249  1
  O2-  O228  1  0.16655416  0.25360018  -0.00142421  1
  O2-  O229  1  0.16820401  0.25090670  0.25070281  1
  O2-  O230  1  0.16694495  0.25281648  0.49915594  1
  O2-  O231  1  0.16570908  0.25458691  0.75065303  1
  O2-  O232  1  0.16755989  0.58500409  -0.00017609  1
  O2-  O233  1  0.16760101  0.58503621  0.25012552  1
  O2-  O234  1  0.16788805  0.58531556  0.50143005  1
  O2-  O235  1  0.16532960  0.58709924  0.74917318  1
  O2-  O236  1  0.16608115  0.92160441  -0.00125551  1
  O2-  O237  1  0.16524160  0.91837198  0.25170823  1
  O2-  O238  1  0.16657460  0.92046271  0.49943606  1
  O2-  O239  1  0.16602009  0.92172786  0.74905495  1
  O2-  O240  1  0.66669367  0.25505964  0.00060684  1
  O2-  O241  1  0.66741427  0.25269117  0.24985607  1
  O2-  O242  1  0.66602871  0.25142185  0.49921769  1
  O2-  O243  1  0.66640661  0.25332875  0.74995513  1
  O2-  O244  1  0.66572132  0.58840929  0.00008076  1
  O2-  O245  1  0.66649713  0.58552096  0.25063976  1
  O2-  O246  1  0.66768206  0.58556739  0.49925783  1
  O2-  O247  1  0.66484158  0.58767380  0.75014489  1
  O2-  O248  1  0.66652742  0.92019823  0.00070486  1
  O2-  O249  1  0.66552033  0.92086480  0.24962813  1
  O2-  O250  1  0.66836098  0.91752004  0.50033528  1
  O2-  O251  1  0.66653641  0.91825303  0.74911598  1
  O2-  O252  1  0.33225159  0.07887367  -0.00042358  1
  O2-  O253  1  0.33322008  0.08248264  0.25113388  1
  O2-  O254  1  0.33212667  0.07977430  0.49960189  1
  O2-  O255  1  0.33306817  0.07911919  0.75075382  1
  O2-  O256  1  0.33251995  0.41458113  -0.00078372  1
  O2-  O257  1  0.33229439  0.41414534  0.24983819  1
  O2-  O258  1  0.33150655  0.41493869  0.49932895  1
  O2-  O259  1  0.33480463  0.41218375  0.75082715  1
  O2-  O260  1  0.33145864  0.74667069  -0.00099803  1
  O2-  O261  1  0.33432759  0.74897308  0.25159111  1
  O2-  O262  1  0.33394136  0.74735470  0.50089014  1
  O2-  O263  1  0.33364614  0.74611767  0.74928791  1
  O2-  O264  1  0.83326660  0.07902638  0.00094548  1
  O2-  O265  1  0.83323606  0.08111330  0.24968815  1
  O2-  O266  1  0.83360539  0.08047975  0.50013864  1
  O2-  O267  1  0.83246206  0.08125125  0.74928796  1
  O2-  O268  1  0.83293346  0.41306887  0.00036302  1
  O2-  O269  1  0.83238336  0.41498813  0.25039705  1
  O2-  O270  1  0.83350698  0.41487777  0.49900999  1
  O2-  O271  1  0.83256691  0.41260675  0.75064604  1
  O2-  O272  1  0.83316132  0.74721366  -0.00046531  1
  O2-  O273  1  0.83315445  0.74544399  0.25047110  1
  O2-  O274  1  0.83291095  0.74748410  0.50011734  1
  O2-  O275  1  0.83205958  0.74692497  0.74960333  1
  O2-  O276  1  0.45260332  0.57057233  0.48578745  1
  O2-  O277  1  0.53974866  0.89165873  0.48602409  1
  O2-  O278  1  0.54534417  0.90625356  0.98243435  1
  O2-  O279  1  0.95870953  0.77057440  0.22543496  1
  O2-  O280  1  0.04717224  0.09484402  0.51492255  1
  O2-  O281  1  0.54817924  0.43015385  0.48378826  1
  O2-  O282  1  0.54703790  0.56812925  0.76773845  1
  O2-  O283  1  0.54335954  0.88951201  0.51078091  1
  O2-  O284  1  0.04806549  0.90377737  0.76289774  1
  O2-  O285  1  0.04893637  0.56854211  0.51381570  1
  O2-  O286  1  0.04571998  0.23412189  0.48580858  1
  O2-  O287  1  0.96699835  0.54817653  0.24446261  1
  O2-  O288  1  0.46180837  0.44144912  0.96956850  1
  O2-  O289  1  0.44722680  0.91048319  0.51955314  1
  O2-  O290  1  0.95547268  0.76679277  0.51357399  1
  O2-  O291  1  0.45233854  0.76656916  0.26484536  1
  O2-  O292  1  0.54818355  0.23844120  0.23507751  1
  O2-  O293  1  0.46031326  0.10869337  0.77781991  1
  O2-  O294  1  0.54592417  0.42877344  0.26378427  1
  O2-  O295  1  0.95779896  0.56165582  0.48373506  1
  O2-  O296  1  0.54622368  0.23788380  0.98685277  1
  O2-  O297  1  0.54464295  0.56991660  0.23483485  1
  O2-  O298  1  0.95405656  0.42997242  0.48474724  1
  O2-  O299  1  0.95436857  0.76555953  0.01386950  1
  O2-  O300  1  0.54432302  0.23779012  0.51473694  1
  O2-  O301  1  0.95443616  0.23516535  0.73781089  1
  O2-  O302  1  0.54378326  0.77009186  1.00981989  1
  O2-  O303  1  0.04752506  0.09292803  0.23286092  1
  O2-  O304  1  0.03409820  0.22223405  0.24591614  1
  O2-  O305  1  0.54552698  0.90407853  0.76414479  1
  O2-  O306  1  0.95283965  0.43304198  0.01470041  1
  O2-  O307  1  0.04852917  0.90407847  0.23628593  1
  O2-  O308  1  0.95266466  0.09812331  0.26470090  1
  O2-  O309  1  0.04562221  0.90316157  0.01505301  1
  O2-  O310  1  0.45649646  0.78434921  0.00627209  1
  O2-  O311  1  0.45883048  0.43955378  0.46582970  1
  O2-  O312  1  0.54676130  0.09985044  0.26482428  1
  O2-  O313  1  0.95861598  0.44224907  0.77537406  1
  O2-  O314  1  0.95181046  0.90061075  0.76136217  1
  O2-  O315  1  0.54640284  0.76127062  0.76935245  1
  O2-  O316  1  0.54383405  0.76991486  0.00951565  1
  O2-  O317  1  0.45052406  0.09964404  0.26695101  1
  O2-  O318  1  0.95177733  0.90607582  0.23587350  1
  O2-  O319  1  0.54981929  0.56953612  0.51527958  1
  O2-  O320  1  0.54768301  0.76563839  0.23547753  1
  O2-  O321  1  0.95744881  0.56006425  0.50294667  1
  O2-  O322  1  0.53850082  0.10788971  0.52936774  1
  O2-  O323  1  0.54553098  0.76425566  0.73009301  1
  O2-  O324  1  0.43583832  0.59768436  0.94064769  1
  O2-  O325  1  0.07601453  0.27388339  0.21534178  1
  O2-  O326  1  0.57119019  0.93969715  0.54953876  1
  O2-  O327  1  0.43524960  0.07175597  0.46661086  1
  O2-  O328  1  0.43456414  0.58999146  0.05384882  1
  O2-  O329  1  0.93475928  0.07230443  0.77875648  1
  O2-  O330  1  0.06485063  0.59266136  0.27950571  1
  O2-  O331  1  0.57349409  0.72249414  0.95150274  1
  O2-  O332  1  0.06521614  0.40857859  0.22215484  1
  O2-  O333  1  0.56376009  0.40214994  0.78286030  1
  O2-  O334  1  0.42868558  0.39035345  0.05104377  1
  O2-  O335  1  0.93600940  0.06904221  0.05931489  1
  O2-  O336  1  0.06643218  0.59246350  0.04517047  1
  O2-  O337  1  0.57166454  0.06599836  0.45470265  1
  O2-  O338  1  0.06615034  0.59235680  0.95463253  1
  O2-  O339  1  0.43583338  0.26223439  0.21725839  1
  O2-  O340  1  0.44148364  0.92128096  0.52801378  1
  O2-  O341  1  0.56290769  0.26203515  0.21638810  1
  O2-  O342  1  0.42434396  0.72427334  0.03608139  1
  O2-  O343  1  0.43584062  0.40515953  0.71759342  1
  O2-  O344  1  0.93406241  0.07552813  0.94552155  1
  O2-  O345  1  0.92234321  0.61043427  0.21283771  1
  O2-  O346  1  0.42790422  0.05573516  0.69654853  1
  O2-  O347  1  0.93420209  0.26138847  0.47149565  1
  O2-  O348  1  0.56290924  0.59492911  0.53428786  1
  O2-  O349  1  0.92913178  0.39994516  0.71104333  1
  O2-  O350  1  0.06599825  0.40524574  0.72337558  1
  O2-  O351  1  0.92704080  0.73245516  0.29229106  1
  O2-  O352  1  0.92324760  0.61334839  0.54599402  1
  O2-  O353  1  0.43610959  0.40211774  0.30778415  1
  O2-  O354  1  0.06532071  0.73968898  0.27844749  1
  O2-  O355  1  0.06585324  0.59452221  0.77720686  1
  O2-  O356  1  0.57118688  0.93497994  0.45134556  1
  O2-  O357  1  0.43806364  0.07094625  0.28080329  1
  O2-  O358  1  0.56130816  0.59478797  0.78220257  1
  O2-  O359  1  0.06636272  0.40478119  0.52781748  1
  O2-  O360  1  0.93604559  0.40120209  0.21864143  1
  O2-  O361  1  0.06600826  0.40471918  0.02628265  1
  O2-  O362  1  0.56530910  0.06934932  0.78350842  1
  O2-  O363  1  0.56323526  0.73798440  0.53266378  1
  O2-  O364  1  0.43513757  0.59518321  0.72235857  1
  O2-  O365  1  0.56276458  0.59356236  0.96820519  1
  O2-  O366  1  0.43662395  0.40544781  0.19296498  1
  O2-  O367  1  0.43647981  0.26225066  0.71712265  1
  O2-  O368  1  0.93545537  0.26091047  0.97220698  1
  O2-  O369  1  0.06496327  0.07375771  0.53024565  1
  O2-  O370  1  0.93382222  0.92698085  0.97191985  1
  O2-  O371  1  0.42855705  0.38947402  0.55042828  1
  O2-  O372  1  0.25007693  0.33274213  0.07689435  1
  O2-  O373  1  0.75011340  -0.00323621  0.42517696  1
  O2-  O374  1  0.74986383  -0.00864566  0.08254141  1
  O2-  O375  1  0.24990048  0.33072108  0.65659224  1
  O2-  O376  1  0.24995867  0.66658362  0.15030719  1
  O2-  O377  1  0.25015188  0.33468076  0.17395069  1
  O2-  O378  1  0.74991524  -0.00528660  0.91391288  1
  O2-  O379  1  0.25008150  0.33263838  0.90863011  1
  O2-  O380  1  0.74996544  0.33243862  0.15549813  1
  O2-  O381  1  0.24991583  -0.00213211  0.59816505  1
  O2-  O382  1  0.24990621  -0.00458534  0.85537000  1
  O2-  O383  1  0.74993269  0.01432631  0.33692361  1
  O2-  O384  1  0.25000280  0.33021684  0.56367170  1
  O2-  O385  1  0.75000009  -0.00287438  0.82149653  1
  O2-  O386  1  0.25013082  0.66939689  0.85638355  1
  O2-  O387  1  0.74979772  0.66395064  0.14995784  1
  O2-  O388  1  0.24983155  0.00247156  0.14809037  1
  O2-  O389  1  0.74998374  0.32425655  0.92528769  1
  O2-  O390  1  0.25004691  0.33054078  0.34346988  1
  O2-  O391  1  0.75007442  0.33313531  0.57501304  1
  O2-  O392  1  0.75006430  0.32739227  0.83036679  1
  O2-  O393  1  0.74996754  0.01598613  0.16792663  1
  O2-  O394  1  0.75008732  0.32543719  0.66378065  1
  O2-  O395  1  0.25008031  0.66427528  0.41002227  1
  O2-  O396  1  0.75000422  0.50673498  0.19818052  1
  O2-  O397  1  0.24998440  0.15962040  0.91935890  1
  O2-  O398  1  0.75004807  0.16510387  0.66770984  1
  O2-  O399  1  0.25006972  0.49760295  0.91149354  1
  O2-  O400  1  0.74992512  0.16500985  0.33010699  1
  O2-  O401  1  0.75003553  0.48942848  0.61636286  1
  O2-  O402  1  0.74998647  0.48803610  0.82829034  1
  O2-  O403  1  0.24993683  0.82823569  0.67273770  1
  O2-  O404  1  0.25016179  0.16633370  0.83274777  1
  O2-  O405  1  0.75010235  0.48443963  0.11499893  1
  O2-  O406  1  0.75019622  0.83346963  0.38329857  1
  O2-  O407  1  0.24993812  0.82494783  0.89941751  1
  O2-  O408  1  0.25006568  0.49968113  0.36657899  1
  O2-  O409  1  0.25022544  0.83449579  0.59624080  1
  O2-  O410  1  0.74994330  0.16868276  0.57788949  1
  O2-  O411  1  0.75000525  0.16706173  0.84402126  1
  O2-  O412  1  0.74996704  0.48508678  0.91284907  1
  O2-  O413  1  0.75025987  0.83551889  0.14064113  1
  O2-  O414  1  0.25005023  0.83182705  0.15684896  1
  O2-  O415  1  0.74994139  0.16994552  0.41865111  1
  O2-  O416  1  0.75005762  0.83545864  0.82880203  1
  O2-  O417  1  0.75005876  0.82832305  0.91782344  1
  O2-  O418  1  0.25003534  0.83386124  0.36180706  1
  O2-  O419  1  0.74998978  0.82599160  0.06110478  1
  O2-  O420  1  0.97472763  0.33417863  0.87165918  1
  O2-  O421  1  0.97495596  0.66987864  0.63107746  1
  O2-  O422  1  0.47350815  0.66705786  0.37450894  1
  O2-  O423  1  0.03149927  0.67598732  0.87337144  1
  O2-  O424  1  0.02932181  0.66659226  0.38238816  1
  O2-  O425  1  0.47667332  0.66575892  0.13553902  1
  O2-  O426  1  0.96284704  0.66636000  0.87469692  1
  O2-  O427  1  0.96992394  0.66346802  0.37784946  1
  O2-  O428  1  0.46254060  -0.00014169  0.12499741  1
  O2-  O429  1  0.96760733  0.33551431  0.36999229  1
  O2-  O430  1  0.52709705  0.00262367  0.63172003  1
  O2-  O431  1  0.03472819  0.33535718  0.37462911  1
  O2-  O432  1  0.96123104  -0.00054063  0.62355598  1
  O2-  O433  1  0.97026820  0.66941479  0.11971393  1
  O2-  O434  1  0.03713957  -0.00449700  0.63158400  1
  O2-  O435  1  0.47151651  -0.00125632  0.87640101  1
  O2-  O436  1  0.96947783  0.32975867  0.61888135  1
  O2-  O437  1  0.47269990  0.67119443  0.62134697  1
  O2-  O438  1  0.02970218  0.67136674  0.12960333  1
  O2-  O439  1  0.53773681  -0.00021771  0.12501645  1
  O2-  O440  1  0.97940855  -0.00334939  0.87138373  1
  O2-  O441  1  0.52416064  -0.00306872  0.36477770  1
  O2-  O442  1  0.02884860  0.32735240  0.62483095  1
  O2-  O443  1  0.02138644  0.32882308  0.12021024  1
