# generated using pymatgen
data_La7(Ru4O11)2
_symmetry_space_group_name_H-M   'P 1'
_cell_length_a   23.99147431
_cell_length_b   16.83254343
_cell_length_c   15.42846964
_cell_angle_alpha   90.00062091
_cell_angle_beta   89.99879783
_cell_angle_gamma   90.00117738
_symmetry_Int_Tables_number   1
_chemical_formula_structural   La7(Ru4O11)2
_chemical_formula_sum   'La84 Ru96 O264'
_cell_volume   6230.59511750
_cell_formula_units_Z   12
loop_
 _symmetry_equiv_pos_site_id
 _symmetry_equiv_pos_as_xyz
  1  'x, y, z'
loop_
 _atom_type_symbol
 _atom_type_oxidation_number
  La3+  3.0
  Ru4+  4.0
  O2-  -2.0
loop_
 _atom_site_type_symbol
 _atom_site_label
 _atom_site_symmetry_multiplicity
 _atom_site_fract_x
 _atom_site_fract_y
 _atom_site_fract_z
 _atom_site_occupancy
  La3+  La0  1  0.13703927  -0.00271518  0.12567082  1
  La3+  La1  1  0.13602168  -0.00582675  0.37656237  1
  La3+  La2  1  0.13397152  -0.00096506  0.62415217  1
  La3+  La3  1  0.13635990  0.00027885  0.87744358  1
  La3+  La4  1  0.13597281  0.33312495  0.12633461  1
  La3+  La5  1  0.13412318  0.33189539  0.37124396  1
  La3+  La6  1  0.13541532  0.33065783  0.63005348  1
  La3+  La7  1  0.13297013  0.33087973  0.87120665  1
  La3+  La8  1  0.13421646  0.66857679  0.12723814  1
  La3+  La9  1  0.14218329  0.66941248  0.37027188  1
  La3+  La10  1  0.13739805  0.66367677  0.62285042  1
  La3+  La11  1  0.13809767  0.66520278  0.87641397  1
  La3+  La12  1  0.63605785  -0.00420893  0.12777958  1
  La3+  La13  1  0.64669535  -0.00352186  0.37136517  1
  La3+  La14  1  0.63992913  -0.00097398  0.62064407  1
  La3+  La15  1  0.63754695  -0.00307948  0.87759499  1
  La3+  La16  1  0.63746731  0.33449388  0.12071830  1
  La3+  La17  1  0.63680854  0.33264476  0.37630874  1
  La3+  La18  1  0.63990200  0.33559236  0.62491782  1
  La3+  La19  1  0.64101223  0.33829201  0.87810174  1
  La3+  La20  1  0.64349243  0.66820268  0.13093800  1
  La3+  La21  1  0.63827885  0.66828492  0.37227312  1
  La3+  La22  1  0.64209825  0.66628801  0.62570804  1
  La3+  La23  1  0.64202150  0.66580309  0.87202030  1
  La3+  La24  1  0.36270594  -0.00072064  0.12438862  1
  La3+  La25  1  0.36515015  -0.00269181  0.37451337  1
  La3+  La26  1  0.36351297  0.00140944  0.62873822  1
  La3+  La27  1  0.36469456  -0.00077495  0.87416915  1
  La3+  La28  1  0.36242726  0.33463281  0.12282238  1
  La3+  La29  1  0.36413184  0.33451938  0.37492105  1
  La3+  La30  1  0.36375828  0.33241280  0.62657693  1
  La3+  La31  1  0.36398794  0.33210406  0.87466281  1
  La3+  La32  1  0.36319556  0.66901084  0.12792077  1
  La3+  La33  1  0.35812644  0.66990705  0.37107874  1
  La3+  La34  1  0.36155443  0.66737532  0.61982120  1
  La3+  La35  1  0.36493529  0.66858027  0.88032525  1
  La3+  La36  1  0.85320645  -0.00615598  0.12413952  1
  La3+  La37  1  0.85437704  -0.00432339  0.37286226  1
  La3+  La38  1  0.85841539  -0.00232217  0.62036825  1
  La3+  La39  1  0.85603048  -0.00722494  0.87481553  1
  La3+  La40  1  0.86358961  0.33245393  0.11932629  1
  La3+  La41  1  0.85921589  0.33398274  0.37738238  1
  La3+  La42  1  0.86091567  0.33534193  0.62609259  1
  La3+  La43  1  0.86215800  0.33574024  0.87984605  1
  La3+  La44  1  0.85597681  0.66823165  0.12739998  1
  La3+  La45  1  0.85790008  0.66878005  0.37595084  1
  La3+  La46  1  0.85901470  0.66517986  0.62155488  1
  La3+  La47  1  0.85580799  0.66556266  0.87441438  1
  La3+  La48  1  -0.00435497  0.83732073  0.12712499  1
  La3+  La49  1  -0.00056817  0.50094028  0.88469339  1
  La3+  La50  1  0.50141549  0.49762853  0.12296448  1
  La3+  La51  1  0.00263573  0.83116089  0.88581270  1
  La3+  La52  1  0.49964804  0.49764275  0.88268078  1
  La3+  La53  1  -0.00134385  0.83972457  0.38004587  1
  La3+  La54  1  0.49870873  0.83558996  0.63582014  1
  La3+  La55  1  0.49913191  0.16552399  0.88827511  1
  La3+  La56  1  0.00314221  0.17565956  0.38176738  1
  La3+  La57  1  0.00319928  0.16706616  0.87969246  1
  La3+  La58  1  0.50083608  0.83452191  0.12060104  1
  La3+  La59  1  0.00173607  0.16772521  0.36122355  1
  La3+  La60  1  -0.00368456  0.49788149  0.38564651  1
  La3+  La61  1  0.00075961  0.49712666  0.36405457  1
  La3+  La62  1  0.00415997  0.83038801  0.36919859  1
  La3+  La63  1  0.00026891  0.50093620  0.63401306  1
  La3+  La64  1  0.49787340  0.50098121  0.63045813  1
  La3+  La65  1  -0.00687673  0.16773180  0.86359400  1
  La3+  La66  1  0.50238889  0.16113885  0.86678481  1
  La3+  La67  1  0.50033047  0.83336915  0.13827849  1
  La3+  La68  1  -0.00272114  0.16736874  0.62889716  1
  La3+  La69  1  0.50067920  0.50148394  0.38611617  1
  La3+  La70  1  0.00452523  0.49135105  0.12682054  1
  La3+  La71  1  0.49970209  0.16474845  0.38016833  1
  La3+  La72  1  0.24970509  0.49974008  -0.01384337  1
  La3+  La73  1  0.24984354  0.82885486  0.51820470  1
  La3+  La74  1  0.75028717  0.15863112  0.70674979  1
  La3+  La75  1  0.25107017  0.15658700  -0.02219650  1
  La3+  La76  1  0.24858125  0.48064060  0.72107002  1
  La3+  La77  1  0.24955968  0.09442906  0.27709205  1
  La3+  La78  1  0.74956553  0.54770225  0.24796831  1
  La3+  La79  1  0.25004583  0.14520636  0.52040526  1
  La3+  La80  1  0.24879427  0.85971457  0.77603584  1
  La3+  La81  1  0.74928973  0.19641369  0.00098696  1
  La3+  La82  1  0.75014479  0.11731645  0.23156117  1
  La3+  La83  1  0.25006998  0.83171039  0.03077476  1
  Ru4+  Ru84  1  0.00108687  0.00101363  -0.00159572  1
  Ru4+  Ru85  1  -0.00375399  0.00458764  0.25090816  1
  Ru4+  Ru86  1  -0.00388280  0.00270412  0.50468497  1
  Ru4+  Ru87  1  -0.00178023  -0.00335953  0.74278605  1
  Ru4+  Ru88  1  0.00254437  0.34100947  0.00914220  1
  Ru4+  Ru89  1  -0.00650119  0.33400718  0.23609347  1
  Ru4+  Ru90  1  0.00032870  0.33504149  0.50536016  1
  Ru4+  Ru91  1  -0.00236810  0.34307315  0.74128040  1
  Ru4+  Ru92  1  -0.00312650  0.66284477  0.00235786  1
  Ru4+  Ru93  1  -0.01007870  0.66502951  0.24386720  1
  Ru4+  Ru94  1  -0.00771506  0.66914912  0.51248082  1
  Ru4+  Ru95  1  -0.00080743  0.66304365  0.74718444  1
  Ru4+  Ru96  1  0.49979975  -0.00046781  -0.00154147  1
  Ru4+  Ru97  1  0.49240686  0.00321635  0.25287680  1
  Ru4+  Ru98  1  0.50159079  0.00146583  0.50105136  1
  Ru4+  Ru99  1  0.49700101  0.00068276  0.74991922  1
  Ru4+  Ru100  1  0.50048535  0.33419519  0.00668680  1
  Ru4+  Ru101  1  0.50168778  0.32972688  0.24909375  1
  Ru4+  Ru102  1  0.50074405  0.33103951  0.50446030  1
  Ru4+  Ru103  1  0.49822859  0.33223835  0.74583895  1
  Ru4+  Ru104  1  0.50042946  0.66769545  0.00095357  1
  Ru4+  Ru105  1  0.49526460  0.66216376  0.25121448  1
  Ru4+  Ru106  1  0.49746168  0.66940836  0.49364300  1
  Ru4+  Ru107  1  0.49644558  0.66325731  0.75137685  1
  Ru4+  Ru108  1  0.11236656  0.16579525  0.00169014  1
  Ru4+  Ru109  1  0.11333621  0.16211178  0.24913177  1
  Ru4+  Ru110  1  0.11042604  0.17106706  0.50177254  1
  Ru4+  Ru111  1  0.11768524  0.16357571  0.74710876  1
  Ru4+  Ru112  1  0.11156492  0.49997877  0.00012981  1
  Ru4+  Ru113  1  0.11777810  0.49886896  0.25028800  1
  Ru4+  Ru114  1  0.11462907  0.49841544  0.49876484  1
  Ru4+  Ru115  1  0.10971031  0.49977810  0.74958624  1
  Ru4+  Ru116  1  0.11542317  0.83298369  -0.00678853  1
  Ru4+  Ru117  1  0.12181164  0.83008933  0.24732764  1
  Ru4+  Ru118  1  0.11599955  0.82828503  0.50699575  1
  Ru4+  Ru119  1  0.11262948  0.83908473  0.75040033  1
  Ru4+  Ru120  1  0.60780593  0.16685895  -0.00144292  1
  Ru4+  Ru121  1  0.60940586  0.16638783  0.24978927  1
  Ru4+  Ru122  1  0.61101907  0.16728083  0.50121356  1
  Ru4+  Ru123  1  0.60902406  0.16822319  0.75057833  1
  Ru4+  Ru124  1  0.61499934  0.49957784  0.00049514  1
  Ru4+  Ru125  1  0.61343361  0.49386600  0.24982197  1
  Ru4+  Ru126  1  0.61445078  0.50397985  0.49922686  1
  Ru4+  Ru127  1  0.61537939  0.49992650  0.75059948  1
  Ru4+  Ru128  1  0.61438502  0.83528028  -0.00095991  1
  Ru4+  Ru129  1  0.61877912  0.83301928  0.25137831  1
  Ru4+  Ru130  1  0.61474443  0.83651712  0.50091116  1
  Ru4+  Ru131  1  0.61355914  0.83679383  0.74886079  1
  Ru4+  Ru132  1  0.39216223  0.16649729  -0.00187491  1
  Ru4+  Ru133  1  0.39142129  0.16640918  0.25069602  1
  Ru4+  Ru134  1  0.39155690  0.16531079  0.49946826  1
  Ru4+  Ru135  1  0.38571453  0.16421281  0.74815655  1
  Ru4+  Ru136  1  0.38923425  0.49721951  0.00057052  1
  Ru4+  Ru137  1  0.38731892  0.50313270  0.25008860  1
  Ru4+  Ru138  1  0.38721770  0.50100122  0.50125681  1
  Ru4+  Ru139  1  0.39002319  0.49790869  0.75174464  1
  Ru4+  Ru140  1  0.38733616  0.83335775  0.00015870  1
  Ru4+  Ru141  1  0.38339396  0.83624895  0.25209882  1
  Ru4+  Ru142  1  0.38934032  0.83068524  0.49944252  1
  Ru4+  Ru143  1  0.39137174  0.83398232  0.75231281  1
  Ru4+  Ru144  1  0.88782703  0.16237723  0.00514378  1
  Ru4+  Ru145  1  0.89123377  0.16859497  0.24704541  1
  Ru4+  Ru146  1  0.88476994  0.16557423  0.50112105  1
  Ru4+  Ru147  1  0.88949862  0.16562237  0.74609235  1
  Ru4+  Ru148  1  0.88550124  0.50233933  -0.00190713  1
  Ru4+  Ru149  1  0.88988424  0.50235013  0.24787330  1
  Ru4+  Ru150  1  0.88542612  0.50234056  0.50121828  1
  Ru4+  Ru151  1  0.88414773  0.50057193  0.74977239  1
  Ru4+  Ru152  1  0.88459766  0.83746028  0.00057663  1
  Ru4+  Ru153  1  0.88107030  0.83314246  0.24660599  1
  Ru4+  Ru154  1  0.88602247  0.83529053  0.49982432  1
  Ru4+  Ru155  1  0.88722327  0.83554054  0.74776181  1
  Ru4+  Ru156  1  0.74919368  0.05449118  -0.00011099  1
  Ru4+  Ru157  1  0.75015807  0.40319885  0.24750839  1
  Ru4+  Ru158  1  0.25073563  0.02079152  0.00641284  1
  Ru4+  Ru159  1  0.74977021  0.25882061  0.25885145  1
  Ru4+  Ru160  1  0.25032226  0.72990477  0.76058486  1
  Ru4+  Ru161  1  0.25011802  0.44253833  0.49843616  1
  Ru4+  Ru162  1  0.74985442  0.75656817  0.49875648  1
  Ru4+  Ru163  1  0.74965739  0.04131690  0.78749635  1
  Ru4+  Ru164  1  0.75007256  0.74610137  0.74434417  1
  Ru4+  Ru165  1  0.24983810  0.99123684  0.75907744  1
  Ru4+  Ru166  1  0.25022576  0.29620182  -0.02730070  1
  Ru4+  Ru167  1  0.25029752  0.43211889  0.25526962  1
  Ru4+  Ru168  1  0.25055821  0.35767256  0.78808322  1
  Ru4+  Ru169  1  0.74979102  0.75006975  0.00300321  1
  Ru4+  Ru170  1  0.25017041  0.27350807  0.49906540  1
  Ru4+  Ru171  1  0.24988543  0.58194045  0.48426947  1
  Ru4+  Ru172  1  0.25036470  0.60144215  0.78511640  1
  Ru4+  Ru173  1  0.25009472  0.00747574  0.51317354  1
  Ru4+  Ru174  1  0.24977516  0.25598524  0.26152282  1
  Ru4+  Ru175  1  0.74984026  0.24158296  0.48804995  1
  Ru4+  Ru176  1  0.75000741  0.42580837  0.49694725  1
  Ru4+  Ru177  1  0.25044941  0.91542238  0.24582053  1
  Ru4+  Ru178  1  0.75051272  0.28706120  0.76877005  1
  Ru4+  Ru179  1  0.74981088  0.90629166  0.74152180  1
  O2-  O180  1  0.16795394  0.07676018  0.00150976  1
  O2-  O181  1  0.16045987  0.07456060  0.24793640  1
  O2-  O182  1  0.16548053  0.07637182  0.50035886  1
  O2-  O183  1  0.16675572  0.07810016  0.74949407  1
  O2-  O184  1  0.16460781  0.41337458  -0.00243727  1
  O2-  O185  1  0.16699619  0.41321112  0.25085268  1
  O2-  O186  1  0.16639054  0.41503189  0.50027984  1
  O2-  O187  1  0.16555817  0.41028983  0.75199603  1
  O2-  O188  1  0.16982384  0.74811127  0.00372525  1
  O2-  O189  1  0.16794876  0.74720175  0.24829332  1
  O2-  O190  1  0.16832741  0.74832222  0.49949606  1
  O2-  O191  1  0.16622602  0.74575404  0.75027138  1
  O2-  O192  1  0.66843069  0.07895225  0.00062385  1
  O2-  O193  1  0.66130329  0.07951285  0.24732227  1
  O2-  O194  1  0.66261491  0.08294774  0.49847389  1
  O2-  O195  1  0.66612513  0.07701745  0.75020038  1
  O2-  O196  1  0.66845377  0.41475925  -0.00063808  1
  O2-  O197  1  0.66619828  0.41351834  0.24816111  1
  O2-  O198  1  0.66653027  0.41353218  0.49952670  1
  O2-  O199  1  0.66384752  0.41466376  0.75078214  1
  O2-  O200  1  0.66740347  0.74546352  0.00120100  1
  O2-  O201  1  0.66584476  0.74899444  0.25103830  1
  O2-  O202  1  0.66435844  0.74715553  0.50008820  1
  O2-  O203  1  0.66691099  0.74859623  0.74921092  1
  O2-  O204  1  0.33395806  0.25623825  -0.00049794  1
  O2-  O205  1  0.33518144  0.25459298  0.25070377  1
  O2-  O206  1  0.33454851  0.25692298  0.49854125  1
  O2-  O207  1  0.33645268  0.25145103  0.75177082  1
  O2-  O208  1  0.33296158  0.58883679  -0.00164299  1
  O2-  O209  1  0.33608619  0.58439796  0.24755161  1
  O2-  O210  1  0.33281604  0.58479138  0.49831117  1
  O2-  O211  1  0.33648359  0.58808403  0.75201686  1
  O2-  O212  1  0.33041741  0.92085788  -0.00124743  1
  O2-  O213  1  0.33355108  0.92070906  0.25188681  1
  O2-  O214  1  0.33447751  0.92076205  0.50225586  1
  O2-  O215  1  0.33294412  0.92228757  0.74895450  1
  O2-  O216  1  0.83420806  0.25379137  -0.00005560  1
  O2-  O217  1  0.83276926  0.25172387  0.24804930  1
  O2-  O218  1  0.83314600  0.25283896  0.49890117  1
  O2-  O219  1  0.83389412  0.25619474  0.75040457  1
  O2-  O220  1  0.83197037  0.58302351  0.00197802  1
  O2-  O221  1  0.83453483  0.58771940  0.25220749  1
  O2-  O222  1  0.83286110  0.58263959  0.49829553  1
  O2-  O223  1  0.83611980  0.58501342  0.74881474  1
  O2-  O224  1  0.83069547  0.91657997  -0.00056066  1
  O2-  O225  1  0.82989209  0.91364239  0.25325755  1
  O2-  O226  1  0.83504907  0.91710648  0.49994360  1
  O2-  O227  1  0.83206557  0.91719851  0.74803409  1
  O2-  O228  1  0.16572665  0.25571685  -0.00030913  1
  O2-  O229  1  0.16583340  0.25441395  0.25099990  1
  O2-  O230  1  0.16550768  0.25686192  0.49897437  1
  O2-  O231  1  0.16499276  0.25115612  0.75141944  1
  O2-  O232  1  0.17039010  0.58708051  0.00010546  1
  O2-  O233  1  0.16595923  0.58386048  0.24861552  1
  O2-  O234  1  0.16960526  0.58372708  0.49915717  1
  O2-  O235  1  0.16589738  0.58526056  0.75083171  1
  O2-  O236  1  0.16936039  0.92043447  0.00079548  1
  O2-  O237  1  0.16671213  0.92115888  0.25193343  1
  O2-  O238  1  0.16702882  0.92083706  0.50267255  1
  O2-  O239  1  0.16417565  0.92222880  0.74942207  1
  O2-  O240  1  0.66468808  0.25675856  -0.00062211  1
  O2-  O241  1  0.66583548  0.25339406  0.24944287  1
  O2-  O242  1  0.66794809  0.25195120  0.49861782  1
  O2-  O243  1  0.66580649  0.25503557  0.75089092  1
  O2-  O244  1  0.66375696  0.58608950  -0.00084608  1
  O2-  O245  1  0.66326592  0.58784023  0.25124647  1
  O2-  O246  1  0.66614133  0.58279033  0.50024779  1
  O2-  O247  1  0.66358487  0.58598669  0.74980449  1
  O2-  O248  1  0.66521627  0.91898486  0.00149187  1
  O2-  O249  1  0.66666425  0.91632964  0.24754673  1
  O2-  O250  1  0.66304523  0.91864792  0.49923818  1
  O2-  O251  1  0.66563018  0.91785245  0.75061036  1
  O2-  O252  1  0.33403815  0.07612594  0.00060465  1
  O2-  O253  1  0.33811333  0.07857357  0.24788025  1
  O2-  O254  1  0.33537799  0.07859815  0.50083289  1
  O2-  O255  1  0.33178079  0.08071633  0.75054416  1
  O2-  O256  1  0.33459401  0.41384931  -0.00215110  1
  O2-  O257  1  0.33391438  0.41397459  0.25109324  1
  O2-  O258  1  0.33230018  0.41599299  0.49816919  1
  O2-  O259  1  0.33292322  0.41082162  0.75090595  1
  O2-  O260  1  0.33138000  0.74588484  -0.00143343  1
  O2-  O261  1  0.33515960  0.74888406  0.24807860  1
  O2-  O262  1  0.33256288  0.74735480  0.50130397  1
  O2-  O263  1  0.33566677  0.74481065  0.75124393  1
  O2-  O264  1  0.82780653  0.08156267  -0.00089713  1
  O2-  O265  1  0.83818040  0.08083780  0.24931282  1
  O2-  O266  1  0.83581277  0.08208271  0.49898524  1
  O2-  O267  1  0.83407331  0.07714970  0.74947226  1
  O2-  O268  1  0.83325157  0.41688038  0.00187739  1
  O2-  O269  1  0.83518457  0.41419665  0.24942600  1
  O2-  O270  1  0.83328727  0.41390411  0.49892410  1
  O2-  O271  1  0.83615031  0.41488857  0.74998239  1
  O2-  O272  1  0.83201432  0.74694503  0.00026021  1
  O2-  O273  1  0.83303761  0.74907624  0.25287905  1
  O2-  O274  1  0.83275746  0.74814459  0.50044947  1
  O2-  O275  1  0.83429981  0.74891206  0.74872664  1
  O2-  O276  1  0.04410434  0.76267703  0.45913725  1
  O2-  O277  1  0.94588225  0.24546978  0.98640772  1
  O2-  O278  1  0.54930059  0.23262563  0.26170749  1
  O2-  O279  1  0.54669826  0.90581831  0.23630656  1
  O2-  O280  1  0.97095383  0.11503400  0.00855074  1
  O2-  O281  1  0.95950153  0.88065336  0.26192390  1
  O2-  O282  1  0.97091929  0.11479770  1.00844419  1
  O2-  O283  1  0.45151366  0.76322483  0.23628803  1
  O2-  O284  1  0.54467116  0.43176519  0.74007519  1
  O2-  O285  1  0.05352752  0.90852055  0.27076156  1
  O2-  O286  1  0.45528409  0.56958425  0.76714891  1
  O2-  O287  1  0.04700599  0.09393917  0.74004571  1
  O2-  O288  1  0.04624042  0.23662550  0.73206290  1
  O2-  O289  1  0.95124052  0.09758999  0.48925662  1
  O2-  O290  1  0.45181144  0.89907446  0.26070427  1
  O2-  O291  1  0.05369228  0.23807548  0.26677420  1
  O2-  O292  1  0.04614756  0.77365764  0.03953546  1
  O2-  O293  1  0.95400341  0.09397414  0.24016750  1
  O2-  O294  1  0.04721210  0.57571795  0.27093384  1
  O2-  O295  1  0.54566037  0.10042501  0.73858012  1
  O2-  O296  1  0.45286497  0.76267498  0.76307742  1
  O2-  O297  1  0.45522274  0.56515825  0.00814217  1
  O2-  O298  1  0.45651326  0.43400450  0.26258564  1
  O2-  O299  1  0.04893822  0.90529858  0.48627867  1
  O2-  O300  1  0.05478631  0.90143530  0.23244541  1
  O2-  O301  1  0.44917412  0.23808007  0.26419583  1
  O2-  O302  1  0.04835095  0.09919860  0.51511785  1
  O2-  O303  1  0.54732308  0.90381312  0.73867384  1
  O2-  O304  1  0.55334769  0.75842667  0.73492629  1
  O2-  O305  1  0.54816945  0.56703133  0.26588143  1
  O2-  O306  1  0.96176054  0.55207419  0.03181787  1
  O2-  O307  1  0.03661676  0.56509919  0.51776928  1
  O2-  O308  1  0.05019738  0.77092818  0.76799959  1
  O2-  O309  1  0.55204012  0.76863665  0.26403585  1
  O2-  O310  1  0.04800619  0.24179433  0.77061870  1
  O2-  O311  1  0.95388049  0.89205105  0.27462499  1
  O2-  O312  1  0.54552551  0.43391973  0.51571488  1
  O2-  O313  1  0.45366814  0.23349597  0.76400535  1
  O2-  O314  1  0.96046782  0.22051495  0.20731030  1
  O2-  O315  1  0.05197142  0.24174849  0.99132152  1
  O2-  O316  1  0.95029473  0.76498523  0.98511034  1
  O2-  O317  1  0.04773537  0.56230570  0.23442901  1
  O2-  O318  1  0.45302650  0.23568077  0.48574132  1
  O2-  O319  1  0.04226291  0.76177288  0.73211675  1
  O2-  O320  1  0.95412533  0.43534989  0.76585190  1
  O2-  O321  1  0.04011849  0.54904240  0.52255937  1
  O2-  O322  1  0.04321246  0.75945970  0.23766999  1
  O2-  O323  1  0.54778743  0.09640662  0.48777927  1
  O2-  O324  1  0.56209769  0.59464299  0.27889864  1
  O2-  O325  1  0.06176429  0.26324446  0.29195942  1
  O2-  O326  1  0.43353619  0.41248193  0.81593135  1
  O2-  O327  1  0.92628207  0.04658973  0.91116942  1
  O2-  O328  1  0.43487954  0.07390247  0.27882735  1
  O2-  O329  1  0.07659649  0.74445686  0.91633187  1
  O2-  O330  1  0.56012263  0.73647207  0.27571271  1
  O2-  O331  1  0.43483889  0.40606854  0.52338478  1
  O2-  O332  1  0.56680470  0.25783871  0.44150252  1
  O2-  O333  1  0.56575881  0.92472915  0.22107374  1
  O2-  O334  1  0.56435243  0.73040352  0.71688913  1
  O2-  O335  1  0.06962041  0.72956033  0.58425987  1
  O2-  O336  1  0.93678888  0.93061605  0.72097775  1
  O2-  O337  1  0.91616315  0.95181019  0.19915936  1
  O2-  O338  1  0.06670988  0.58471713  0.94039975  1
  O2-  O339  1  0.91331452  0.06535973  0.07020559  1
  O2-  O340  1  0.93791418  0.92941879  0.46540200  1
  O2-  O341  1  0.43636214  0.74346313  0.47709686  1
  O2-  O342  1  0.93294917  0.58839952  0.31296123  1
  O2-  O343  1  0.93793593  0.92151384  0.02601452  1
  O2-  O344  1  0.06372508  0.40496057  0.78665898  1
  O2-  O345  1  0.93605557  0.26424420  0.95652241  1
  O2-  O346  1  0.06123463  0.92215124  0.45725929  1
  O2-  O347  1  0.08124436  0.61389227  0.43569635  1
  O2-  O348  1  0.56539783  0.26206953  0.56514940  1
  O2-  O349  1  0.43718089  0.73757892  0.22006237  1
  O2-  O350  1  0.06202730  0.92296728  0.96412873  1
  O2-  O351  1  0.93402239  0.58926825  0.52821069  1
  O2-  O352  1  0.92968614  0.28326051  0.31142395  1
  O2-  O353  1  0.56157415  0.59849419  0.46939671  1
  O2-  O354  1  0.93960545  0.40779178  0.96464948  1
  O2-  O355  1  0.05997208  0.75275890  0.06246834  1
  O2-  O356  1  0.06593974  0.74813423  0.22651013  1
  O2-  O357  1  0.92767356  0.61321067  0.93603574  1
  O2-  O358  1  0.43568341  0.92198998  0.02645743  1
  O2-  O359  1  0.43141768  0.41369058  0.68685529  1
  O2-  O360  1  0.56334378  0.41066110  0.02198702  1
  O2-  O361  1  0.93472171  0.74516722  0.52547337  1
  O2-  O362  1  0.43526429  0.92378612  0.77210460  1
  O2-  O363  1  0.93520982  0.58908605  0.17927535  1
  O2-  O364  1  0.06021363  0.74915221  0.43359543  1
  O2-  O365  1  0.43568513  0.74236668  0.02608105  1
  O2-  O366  1  0.06645064  0.06952027  0.96405729  1
  O2-  O367  1  0.06366485  0.59185832  0.71620097  1
  O2-  O368  1  0.93590581  0.74143924  0.21492064  1
  O2-  O369  1  0.06849861  0.58703268  0.06072976  1
  O2-  O370  1  0.43665534  0.07128884  0.71576299  1
  O2-  O371  1  0.43748691  0.59289575  0.53537131  1
  O2-  O372  1  0.74946536  0.67381269  0.59858094  1
  O2-  O373  1  0.75003580  0.00281752  0.57303023  1
  O2-  O374  1  0.24956783  0.00141927  0.15208657  1
  O2-  O375  1  0.74981225  0.33701629  0.36229517  1
  O2-  O376  1  0.25015234  0.67271102  0.55997915  1
  O2-  O377  1  0.24992792  0.34935658  0.06905641  1
  O2-  O378  1  0.74925304  0.67202293  0.84275602  1
  O2-  O379  1  0.25012211  0.65696382  0.36324424  1
  O2-  O380  1  0.25008274  0.30676464  0.68581837  1
  O2-  O381  1  0.74969044  0.00437636  0.34215092  1
  O2-  O382  1  0.74987168  0.33003150  0.14291141  1
  O2-  O383  1  0.24963260  -0.00352435  0.38824041  1
  O2-  O384  1  0.75001706  -0.00739482  0.66366655  1
  O2-  O385  1  0.25049776  0.65968908  0.65918879  1
  O2-  O386  1  0.25049928  0.34401298  0.32617439  1
  O2-  O387  1  0.24975329  0.36246900  0.58188072  1
  O2-  O388  1  0.24975538  0.35939678  0.42205576  1
  O2-  O389  1  0.74982270  0.34474179  0.86865232  1
  O2-  O390  1  0.74940312  0.66951785  0.40621199  1
  O2-  O391  1  0.74884442  0.66363666  0.14595258  1
  O2-  O392  1  0.25017718  0.34144813  0.18233330  1
  O2-  O393  1  0.25008106  0.00980256  0.63823420  1
  O2-  O394  1  0.74946456  0.35055262  0.67653221  1
  O2-  O395  1  0.75026671  0.32981776  0.55826875  1
  O2-  O396  1  0.75000283  0.18033508  0.36417348  1
  O2-  O397  1  0.24997200  0.82476193  0.31056945  1
  O2-  O398  1  0.25062298  0.83005872  0.64587317  1
  O2-  O399  1  0.25012181  0.82653349  0.90055005  1
  O2-  O400  1  0.25003364  0.83532040  0.16644095  1
  O2-  O401  1  0.24986253  0.51860102  0.18897668  1
  O2-  O402  1  0.25015538  0.83543296  0.39449397  1
  O2-  O403  1  0.74988706  0.82917277  0.82107957  1
  O2-  O404  1  0.25016666  0.49849663  0.10788494  1
  O2-  O405  1  0.25016147  0.18890489  0.38037831  1
  O2-  O406  1  0.74980093  0.82591536  0.59379558  1
  O2-  O407  1  0.25013261  0.16585181  0.77870007  1
  O2-  O408  1  0.74977166  0.16608008  0.86143408  1
  O2-  O409  1  0.74973545  0.82684866  0.41592550  1
  O2-  O410  1  0.24922930  0.15200316  0.10203617  1
  O2-  O411  1  0.25037183  0.50178794  0.85745914  1
  O2-  O412  1  0.75012464  0.50001720  0.84139382  1
  O2-  O413  1  0.24955069  0.17285844  0.85847759  1
  O2-  O414  1  0.25084366  0.18529328  0.17613035  1
  O2-  O415  1  0.25060340  0.50891978  0.59270364  1
  O2-  O416  1  0.75002238  0.49645517  0.66454668  1
  O2-  O417  1  0.74996683  0.83423142  0.94094075  1
  O2-  O418  1  0.75014901  0.50248232  0.58021238  1
  O2-  O419  1  0.75002268  0.16954620  0.57259293  1
  O2-  O420  1  0.45946384  0.00589269  0.13386870  1
  O2-  O421  1  0.04076201  0.00186713  0.12147604  1
  O2-  O422  1  0.97482453  0.67664967  0.38181604  1
  O2-  O423  1  0.47238709  0.65752349  0.36910114  1
  O2-  O424  1  0.97999964  -0.00283211  0.12754522  1
  O2-  O425  1  0.52469338  -0.00417966  0.62155303  1
  O2-  O426  1  0.45447493  0.33496939  0.12135529  1
  O2-  O427  1  0.47669691  -0.00241648  0.38421532  1
  O2-  O428  1  0.48029596  0.32268489  0.62468128  1
  O2-  O429  1  0.54326415  0.00497248  0.10846314  1
  O2-  O430  1  0.54084395  0.32900543  0.13326765  1
  O2-  O431  1  0.97374422  0.66200879  0.63602570  1
  O2-  O432  1  0.47915816  0.32586085  0.88606362  1
  O2-  O433  1  0.45816145  0.01358947  0.88194575  1
  O2-  O434  1  0.95411874  0.33136726  0.62525401  1
  O2-  O435  1  0.04477108  0.33752815  0.61818992  1
  O2-  O436  1  0.01640484  0.66193261  0.13373791  1
  O2-  O437  1  0.02772887  -0.00219082  0.62489471  1
  O2-  O438  1  0.54691053  0.00165477  0.88171152  1
  O2-  O439  1  0.95518907  0.34261637  0.12482971  1
  O2-  O440  1  0.47975002  0.65472398  0.12800152  1
  O2-  O441  1  0.04504202  0.33889021  0.12539038  1
  O2-  O442  1  0.52288662  0.34523923  0.36814404  1
  O2-  O443  1  0.01543175  0.66076275  0.85993796  1
