# generated using pymatgen
data_La7(Ru4O11)2
_symmetry_space_group_name_H-M   'P 1'
_cell_length_a   23.99139217
_cell_length_b   16.83255760
_cell_length_c   15.42858977
_cell_angle_alpha   90.00107496
_cell_angle_beta   90.00072535
_cell_angle_gamma   90.00187993
_symmetry_Int_Tables_number   1
_chemical_formula_structural   La7(Ru4O11)2
_chemical_formula_sum   'La84 Ru96 O264'
_cell_volume   6230.62754247
_cell_formula_units_Z   12
loop_
 _symmetry_equiv_pos_site_id
 _symmetry_equiv_pos_as_xyz
  1  'x, y, z'
loop_
 _atom_type_symbol
 _atom_type_oxidation_number
  La3+  3.0
  Ru4+  4.0
  O2-  -2.0
loop_
 _atom_site_type_symbol
 _atom_site_label
 _atom_site_symmetry_multiplicity
 _atom_site_fract_x
 _atom_site_fract_y
 _atom_site_fract_z
 _atom_site_occupancy
  La3+  La0  1  0.13418941  -0.00099684  0.12416252  1
  La3+  La1  1  0.14071524  0.00118940  0.37452058  1
  La3+  La2  1  0.13250457  -0.00349249  0.62251793  1
  La3+  La3  1  0.13846410  -0.00090954  0.87714260  1
  La3+  La4  1  0.13687543  0.33382546  0.11704436  1
  La3+  La5  1  0.14426704  0.33345720  0.37332086  1
  La3+  La6  1  0.13937070  0.33819863  0.61930202  1
  La3+  La7  1  0.13553796  0.33388367  0.88114527  1
  La3+  La8  1  0.13679919  0.66444365  0.12355066  1
  La3+  La9  1  0.13693088  0.66569538  0.38281084  1
  La3+  La10  1  0.13466251  0.66719459  0.62157122  1
  La3+  La11  1  0.13846166  0.66503565  0.87026188  1
  La3+  La12  1  0.64130559  -0.00261557  0.12224041  1
  La3+  La13  1  0.64383052  -0.00605936  0.37540952  1
  La3+  La14  1  0.64285616  -0.00178688  0.62641849  1
  La3+  La15  1  0.63936490  -0.00301191  0.87756493  1
  La3+  La16  1  0.63885879  0.33587144  0.12392959  1
  La3+  La17  1  0.63766546  0.33760665  0.37820805  1
  La3+  La18  1  0.64301566  0.33338332  0.61719786  1
  La3+  La19  1  0.64333779  0.33366050  0.88237214  1
  La3+  La20  1  0.64002362  0.66799627  0.12121542  1
  La3+  La21  1  0.64207247  0.66581685  0.37325460  1
  La3+  La22  1  0.63090434  0.66800898  0.63085141  1
  La3+  La23  1  0.64136400  0.67356782  0.87393206  1
  La3+  La24  1  0.36952961  0.00432859  0.12813525  1
  La3+  La25  1  0.36145871  0.00485066  0.37162522  1
  La3+  La26  1  0.36307653  0.00090791  0.62518988  1
  La3+  La27  1  0.36243843  0.00093534  0.87355445  1
  La3+  La28  1  0.36235073  0.33304086  0.12456114  1
  La3+  La29  1  0.35150042  0.33671980  0.37378628  1
  La3+  La30  1  0.36188136  0.33504511  0.61860845  1
  La3+  La31  1  0.36133241  0.33738145  0.87693335  1
  La3+  La32  1  0.36457730  0.66962279  0.12297520  1
  La3+  La33  1  0.37228328  0.66909591  0.38445919  1
  La3+  La34  1  0.37160419  0.67190035  0.62636690  1
  La3+  La35  1  0.37765606  0.68008032  0.86052927  1
  La3+  La36  1  0.85994365  -0.00679092  0.12370423  1
  La3+  La37  1  0.86257100  -0.00490995  0.37062463  1
  La3+  La38  1  0.85381121  0.00173732  0.62767563  1
  La3+  La39  1  0.86106926  -0.00388307  0.87889607  1
  La3+  La40  1  0.86358765  0.33835405  0.11933370  1
  La3+  La41  1  0.86239373  0.33711240  0.37835127  1
  La3+  La42  1  0.85964395  0.33268655  0.62154492  1
  La3+  La43  1  0.86186983  0.33018373  0.87507868  1
  La3+  La44  1  0.85873579  0.66425034  0.12315712  1
  La3+  La45  1  0.85748653  0.66485585  0.37132991  1
  La3+  La46  1  0.86527031  0.66951933  0.62707655  1
  La3+  La47  1  0.85820767  0.66923650  0.87596544  1
  La3+  La48  1  -0.00444665  0.15957890  0.88023343  1
  La3+  La49  1  0.00298567  0.83895905  0.86776763  1
  La3+  La50  1  0.49801784  0.49876955  0.12945273  1
  La3+  La51  1  0.50151107  0.17317244  0.86579209  1
  La3+  La52  1  0.00074140  0.17416264  0.63543953  1
  La3+  La53  1  0.00381905  0.16966886  0.13319092  1
  La3+  La54  1  -0.00202732  0.16740069  0.11263870  1
  La3+  La55  1  0.49595394  0.16785498  0.38742759  1
  La3+  La56  1  0.50457929  0.49971184  0.86498658  1
  La3+  La57  1  0.49527371  0.82188447  0.63646180  1
  La3+  La58  1  0.50062261  0.17196537  0.36661556  1
  La3+  La59  1  0.49834161  0.82701227  0.86818005  1
  La3+  La60  1  -0.00037274  0.50003737  0.13860697  1
  La3+  La61  1  0.50270689  0.83100550  0.12578778  1
  La3+  La62  1  0.49476486  0.82017913  0.61943954  1
  La3+  La63  1  0.00525636  0.82058021  0.37066754  1
  La3+  La64  1  -0.00060100  0.83792036  0.11968234  1
  La3+  La65  1  0.50132404  0.16467593  0.88618461  1
  La3+  La66  1  0.50366828  0.16817408  0.13236525  1
  La3+  La67  1  0.00186624  0.83318811  0.61904915  1
  La3+  La68  1  -0.00630707  0.16283696  0.39614876  1
  La3+  La69  1  0.49967629  0.83206844  0.37377284  1
  La3+  La70  1  0.49808867  0.49476175  0.61427125  1
  La3+  La71  1  0.50053644  0.17050562  0.64169881  1
  La3+  La72  1  0.24921494  0.43072923  0.23997687  1
  La3+  La73  1  0.24905957  0.46854719  0.78304917  1
  La3+  La74  1  0.25034721  0.14978631  0.77458174  1
  La3+  La75  1  0.75048611  0.17419703  0.19787994  1
  La3+  La76  1  0.75056544  0.51801805  0.69721549  1
  La3+  La77  1  0.75006650  0.17163300  -0.01423122  1
  La3+  La78  1  0.24987948  0.83216362  0.52185575  1
  La3+  La79  1  0.24943071  0.21431429  0.50270922  1
  La3+  La80  1  0.74997739  0.50362788  0.26478975  1
  La3+  La81  1  0.25184802  0.87080716  0.28326055  1
  La3+  La82  1  0.25083469  0.12405249  0.03761214  1
  La3+  La83  1  0.75054746  0.17023685  0.47198066  1
  Ru4+  Ru84  1  0.00000009  -0.00152311  -0.00571220  1
  Ru4+  Ru85  1  0.00182129  0.00379292  0.24299283  1
  Ru4+  Ru86  1  -0.00376540  -0.00595344  0.50858655  1
  Ru4+  Ru87  1  0.00310278  0.00006257  0.75191555  1
  Ru4+  Ru88  1  -0.00411758  0.34785946  -0.00496691  1
  Ru4+  Ru89  1  0.00167640  0.33286268  0.25427827  1
  Ru4+  Ru90  1  0.00255284  0.34203134  0.50205672  1
  Ru4+  Ru91  1  0.00208971  0.34272383  0.75025285  1
  Ru4+  Ru92  1  0.00128349  0.65891788  -0.00004533  1
  Ru4+  Ru93  1  0.00476026  0.66596299  0.25046962  1
  Ru4+  Ru94  1  -0.00438892  0.66030550  0.49681794  1
  Ru4+  Ru95  1  -0.00496744  0.66683779  0.74309287  1
  Ru4+  Ru96  1  0.50040025  -0.00155451  0.00355295  1
  Ru4+  Ru97  1  0.50414406  -0.01064962  0.24380792  1
  Ru4+  Ru98  1  0.50623904  0.00049697  0.51159714  1
  Ru4+  Ru99  1  0.50444701  -0.00801233  0.73757168  1
  Ru4+  Ru100  1  0.49806142  0.33542790  0.00413409  1
  Ru4+  Ru101  1  0.50208888  0.33553662  0.24775929  1
  Ru4+  Ru102  1  0.50342854  0.33689174  0.49455330  1
  Ru4+  Ru103  1  0.49951643  0.33355727  0.76555567  1
  Ru4+  Ru104  1  0.49957443  0.65783616  0.00122192  1
  Ru4+  Ru105  1  0.50443972  0.66049941  0.25224719  1
  Ru4+  Ru106  1  0.50784788  0.66214292  0.48946445  1
  Ru4+  Ru107  1  0.50272938  0.66749247  0.75898539  1
  Ru4+  Ru108  1  0.11597517  0.16357525  -0.00132793  1
  Ru4+  Ru109  1  0.11329418  0.17160010  0.25106730  1
  Ru4+  Ru110  1  0.11016829  0.16850463  0.49952023  1
  Ru4+  Ru111  1  0.11039103  0.17090441  0.74851970  1
  Ru4+  Ru112  1  0.11046595  0.49909750  0.00057457  1
  Ru4+  Ru113  1  0.10887596  0.50168355  0.24932086  1
  Ru4+  Ru114  1  0.11155432  0.49526581  0.49607140  1
  Ru4+  Ru115  1  0.11008314  0.49079439  0.75001108  1
  Ru4+  Ru116  1  0.11161797  0.83204659  -0.00083508  1
  Ru4+  Ru117  1  0.11047252  0.83039568  0.24864119  1
  Ru4+  Ru118  1  0.11542325  0.83815006  0.50103693  1
  Ru4+  Ru119  1  0.11245667  0.83247687  0.75095856  1
  Ru4+  Ru120  1  0.60640598  0.16568922  -0.00027235  1
  Ru4+  Ru121  1  0.61304544  0.16487834  0.24435734  1
  Ru4+  Ru122  1  0.61204643  0.16123058  0.49956155  1
  Ru4+  Ru123  1  0.61184363  0.16593480  0.75153613  1
  Ru4+  Ru124  1  0.61296653  0.49902313  0.00098748  1
  Ru4+  Ru125  1  0.60988600  0.49983014  0.24939261  1
  Ru4+  Ru126  1  0.61342040  0.49731307  0.49669751  1
  Ru4+  Ru127  1  0.61180113  0.50040185  0.75246242  1
  Ru4+  Ru128  1  0.61295031  0.83015863  -0.00386093  1
  Ru4+  Ru129  1  0.61324698  0.83684922  0.25017710  1
  Ru4+  Ru130  1  0.61128412  0.83220665  0.49815623  1
  Ru4+  Ru131  1  0.62075677  0.83817258  0.74922551  1
  Ru4+  Ru132  1  0.39062879  0.16148859  0.00133964  1
  Ru4+  Ru133  1  0.38193943  0.17126713  0.24640810  1
  Ru4+  Ru134  1  0.38845990  0.16834664  0.50030069  1
  Ru4+  Ru135  1  0.38591909  0.17370108  0.75053351  1
  Ru4+  Ru136  1  0.38951685  0.50589245  -0.00047952  1
  Ru4+  Ru137  1  0.39045167  0.50199257  0.24800357  1
  Ru4+  Ru138  1  0.38083069  0.49896466  0.49782811  1
  Ru4+  Ru139  1  0.38473746  0.49482554  0.75014201  1
  Ru4+  Ru140  1  0.38535902  0.83968293  -0.00650197  1
  Ru4+  Ru141  1  0.38605793  0.84142991  0.24974683  1
  Ru4+  Ru142  1  0.38469098  0.83846198  0.50588120  1
  Ru4+  Ru143  1  0.39007475  0.83496697  0.74698499  1
  Ru4+  Ru144  1  0.89038969  0.16592374  0.00173426  1
  Ru4+  Ru145  1  0.89041173  0.16788678  0.25374809  1
  Ru4+  Ru146  1  0.88976749  0.16588234  0.49876438  1
  Ru4+  Ru147  1  0.88352848  0.16143773  0.75052440  1
  Ru4+  Ru148  1  0.88808816  0.49633619  -0.00092192  1
  Ru4+  Ru149  1  0.89037248  0.50142241  0.24903324  1
  Ru4+  Ru150  1  0.88650453  0.49499113  0.50237318  1
  Ru4+  Ru151  1  0.89286875  0.50341362  0.74956178  1
  Ru4+  Ru152  1  0.88447467  0.83440366  -0.00225673  1
  Ru4+  Ru153  1  0.88530467  0.83063549  0.25112178  1
  Ru4+  Ru154  1  0.88872732  0.83778821  0.50396356  1
  Ru4+  Ru155  1  0.88616236  0.83341806  0.74959591  1
  Ru4+  Ru156  1  0.25055359  0.58342980  0.26263214  1
  Ru4+  Ru157  1  0.74965367  0.24639348  0.75704224  1
  Ru4+  Ru158  1  0.74942637  0.06816458  0.75511698  1
  Ru4+  Ru159  1  0.74987760  0.75800161  0.25863557  1
  Ru4+  Ru160  1  0.75043286  0.03828097  0.25747884  1
  Ru4+  Ru161  1  0.74967170  0.76280129  0.50895209  1
  Ru4+  Ru162  1  0.25059671  0.73070539  0.25837155  1
  Ru4+  Ru163  1  0.74984671  0.39638787  0.76673101  1
  Ru4+  Ru164  1  0.75041247  0.65425783  0.74698153  1
  Ru4+  Ru165  1  0.25041983  0.56540472  0.00388213  1
  Ru4+  Ru166  1  0.24946385  0.28396335  0.73847713  1
  Ru4+  Ru167  1  0.24906219  0.03241582  0.69699802  1
  Ru4+  Ru168  1  0.24957574  0.99421384  0.22271127  1
  Ru4+  Ru169  1  0.25029500  0.26586002  0.00943921  1
  Ru4+  Ru170  1  0.24946909  0.06285562  0.49827905  1
  Ru4+  Ru171  1  0.25083464  0.75813119  -0.01722653  1
  Ru4+  Ru172  1  0.75086608  0.30373508  0.26085883  1
  Ru4+  Ru173  1  0.25036474  0.90012704  0.75418250  1
  Ru4+  Ru174  1  0.25056400  0.91531527  -0.00738074  1
  Ru4+  Ru175  1  0.25010370  0.76015458  0.74506696  1
  Ru4+  Ru176  1  0.25075592  0.59392495  0.72278686  1
  Ru4+  Ru177  1  0.75009040  0.89687382  0.51651756  1
  Ru4+  Ru178  1  0.74996803  0.57473247  0.01924987  1
  Ru4+  Ru179  1  0.75018467  0.58014867  0.49566200  1
  O2-  O180  1  0.16613167  0.07847513  -0.00033594  1
  O2-  O181  1  0.16296433  0.08110279  0.24826713  1
  O2-  O182  1  0.16711042  0.07913694  0.49871717  1
  O2-  O183  1  0.16382808  0.07748073  0.75011708  1
  O2-  O184  1  0.16643364  0.41899604  -0.00389289  1
  O2-  O185  1  0.15597259  0.41074669  0.24824631  1
  O2-  O186  1  0.16380741  0.41716006  0.49761782  1
  O2-  O187  1  0.16266166  0.41311408  0.75348877  1
  O2-  O188  1  0.16525750  0.74769337  -0.00300393  1
  O2-  O189  1  0.16748364  0.74391409  0.25177187  1
  O2-  O190  1  0.16569721  0.74713479  0.50112859  1
  O2-  O191  1  0.16710837  0.74912127  0.74831420  1
  O2-  O192  1  0.66967230  0.07908855  -0.00047784  1
  O2-  O193  1  0.66934516  0.07744378  0.24943595  1
  O2-  O194  1  0.66967816  0.08021968  0.50126164  1
  O2-  O195  1  0.66769059  0.07809332  0.75190429  1
  O2-  O196  1  0.66272501  0.41657267  0.00293851  1
  O2-  O197  1  0.66638766  0.41404488  0.25156738  1
  O2-  O198  1  0.66755410  0.41702949  0.50025643  1
  O2-  O199  1  0.66425363  0.41130437  0.74902080  1
  O2-  O200  1  0.66693160  0.74983908  0.00178144  1
  O2-  O201  1  0.66635861  0.74579551  0.24955879  1
  O2-  O202  1  0.66721534  0.74775695  0.50175203  1
  O2-  O203  1  0.66745591  0.74665732  0.74577621  1
  O2-  O204  1  0.33350282  0.25383288  0.00311399  1
  O2-  O205  1  0.33380748  0.25336523  0.24404550  1
  O2-  O206  1  0.33794594  0.25690275  0.50366778  1
  O2-  O207  1  0.33286827  0.25771236  0.74878939  1
  O2-  O208  1  0.33282423  0.58430284  0.00028087  1
  O2-  O209  1  0.33689314  0.58670733  0.25096643  1
  O2-  O210  1  0.33478004  0.58665511  0.50051690  1
  O2-  O211  1  0.33611555  0.58916080  0.74791403  1
  O2-  O212  1  0.33423553  0.92063516  0.00195610  1
  O2-  O213  1  0.33578038  0.92756045  0.24707055  1
  O2-  O214  1  0.33281578  0.92292917  0.49988347  1
  O2-  O215  1  0.33566090  0.91721082  0.75065335  1
  O2-  O216  1  0.83393000  0.25161376  0.00642035  1
  O2-  O217  1  0.83409246  0.25583938  0.24824942  1
  O2-  O218  1  0.83609223  0.25353505  0.49316261  1
  O2-  O219  1  0.83448125  0.25003915  0.74957968  1
  O2-  O220  1  0.83110201  0.58203939  -0.00160571  1
  O2-  O221  1  0.83278578  0.58446696  0.25221072  1
  O2-  O222  1  0.83462633  0.58698314  0.49988406  1
  O2-  O223  1  0.83136949  0.58767705  0.74770448  1
  O2-  O224  1  0.83086962  0.91807997  -0.00206500  1
  O2-  O225  1  0.83591676  0.91610055  0.25031287  1
  O2-  O226  1  0.82897235  0.91721387  0.49766659  1
  O2-  O227  1  0.83607659  0.91748396  0.75305408  1
  O2-  O228  1  0.16729149  0.25316875  -0.00113370  1
  O2-  O229  1  0.16644150  0.24875926  0.24874390  1
  O2-  O230  1  0.16162164  0.25624025  0.49656983  1
  O2-  O231  1  0.16932593  0.25608171  0.75423656  1
  O2-  O232  1  0.16693866  0.58166472  0.00011036  1
  O2-  O233  1  0.16406649  0.58579747  0.25078650  1
  O2-  O234  1  0.16085504  0.58553555  0.50229426  1
  O2-  O235  1  0.16590882  0.58486963  0.74899294  1
  O2-  O236  1  0.16851466  0.91937922  -0.00067302  1
  O2-  O237  1  0.16584467  0.92326800  0.24969769  1
  O2-  O238  1  0.16985963  0.92039564  0.49791394  1
  O2-  O239  1  0.16793978  0.91625530  0.75061163  1
  O2-  O240  1  0.66608259  0.25107644  0.00539192  1
  O2-  O241  1  0.66956989  0.25570921  0.25089972  1
  O2-  O242  1  0.66454152  0.24999072  0.49672067  1
  O2-  O243  1  0.66316135  0.25239298  0.74826301  1
  O2-  O244  1  0.66836342  0.58409404  0.00024352  1
  O2-  O245  1  0.66483092  0.58653617  0.25161175  1
  O2-  O246  1  0.66731093  0.58814987  0.50272599  1
  O2-  O247  1  0.66853541  0.58678866  0.74513594  1
  O2-  O248  1  0.66497021  0.91694428  0.00092485  1
  O2-  O249  1  0.66374913  0.91850159  0.24694143  1
  O2-  O250  1  0.67105639  0.91809121  0.50149513  1
  O2-  O251  1  0.66891590  0.92008218  0.75405250  1
  O2-  O252  1  0.33859089  0.07731541  0.00116231  1
  O2-  O253  1  0.33346581  0.07850812  0.24584567  1
  O2-  O254  1  0.33403258  0.08119187  0.49834391  1
  O2-  O255  1  0.33615244  0.07644567  0.75170793  1
  O2-  O256  1  0.33844899  0.41845277  0.00100985  1
  O2-  O257  1  0.34330888  0.41203099  0.24541041  1
  O2-  O258  1  0.33546325  0.41448266  0.50139445  1
  O2-  O259  1  0.33333458  0.41223777  0.74910668  1
  O2-  O260  1  0.33464214  0.74809358  -0.00361152  1
  O2-  O261  1  0.33522886  0.74439882  0.25328592  1
  O2-  O262  1  0.33335675  0.74535143  0.50235071  1
  O2-  O263  1  0.33199953  0.74909429  0.74623601  1
  O2-  O264  1  0.83033814  0.07939987  -0.00006640  1
  O2-  O265  1  0.83066764  0.07637431  0.24911872  1
  O2-  O266  1  0.83402211  0.07875843  0.49662204  1
  O2-  O267  1  0.83263894  0.07936559  0.75362594  1
  O2-  O268  1  0.83112524  0.42002568  0.00599412  1
  O2-  O269  1  0.83365531  0.41292043  0.25315854  1
  O2-  O270  1  0.83281422  0.41631907  0.49560718  1
  O2-  O271  1  0.83437604  0.41205544  0.74978149  1
  O2-  O272  1  0.83699847  0.74765983  -0.00013577  1
  O2-  O273  1  0.83381557  0.74719242  0.24861131  1
  O2-  O274  1  0.83353437  0.75015841  0.49881584  1
  O2-  O275  1  0.83420277  0.74542094  0.74850644  1
  O2-  O276  1  0.04460088  0.57688476  0.73425220  1
  O2-  O277  1  0.55299392  0.76913204  0.75894372  1
  O2-  O278  1  0.54544664  0.56254103  0.99609338  1
  O2-  O279  1  0.54750762  0.56341097  0.70920350  1
  O2-  O280  1  0.54939356  0.24027374  0.49039268  1
  O2-  O281  1  0.45844665  0.76494021  0.49270918  1
  O2-  O282  1  0.44999591  0.57835197  0.52250549  1
  O2-  O283  1  0.04672107  0.23599164  0.00716685  1
  O2-  O284  1  0.94866214  0.89980252  0.26989856  1
  O2-  O285  1  0.05087043  0.09693105  0.73803821  1
  O2-  O286  1  0.94657058  0.23402361  0.76040055  1
  O2-  O287  1  0.53455354  0.11168110  0.53570243  1
  O2-  O288  1  0.95394508  0.76000608  0.76599729  1
  O2-  O289  1  0.95865956  0.76362999  0.98561773  1
  O2-  O290  1  0.03431800  0.20869259  0.28494674  1
  O2-  O291  1  0.45250902  0.57922762  0.76364671  1
  O2-  O292  1  0.95529981  0.76349628  0.23529783  1
  O2-  O293  1  0.55121397  0.56988914  0.51174837  1
  O2-  O294  1  0.03992053  0.55043021  0.03237142  1
  O2-  O295  1  0.45177166  0.09823408  0.73655556  1
  O2-  O296  1  0.45042284  0.09475401  0.27399048  1
  O2-  O297  1  0.04322798  0.09844437  0.50811340  1
  O2-  O298  1  0.44410772  0.75327013  0.76364878  1
  O2-  O299  1  0.44920319  0.56013010  0.48867251  1
  O2-  O300  1  0.94858717  0.09167193  0.73681128  1
  O2-  O301  1  0.54796032  0.42496460  0.73285177  1
  O2-  O302  1  0.95707569  0.44075075  0.78253155  1
  O2-  O303  1  0.45119324  0.76843498  0.98511473  1
  O2-  O304  1  0.45262278  0.23565100  0.54004450  1
  O2-  O305  1  0.05200248  0.56968468  0.77063376  1
  O2-  O306  1  0.04882152  0.43733035  0.48685024  1
  O2-  O307  1  0.45264824  0.09858434  0.23511142  1
  O2-  O308  1  0.45412338  0.76713562  0.74570779  1
  O2-  O309  1  0.96188469  0.88713462  0.46437041  1
  O2-  O310  1  0.44745098  0.76143512  0.26634423  1
  O2-  O311  1  0.95487784  0.90300552  0.75544867  1
  O2-  O312  1  0.04078650  0.23161237  0.79795172  1
  O2-  O313  1  0.04919273  0.76535075  0.50984858  1
  O2-  O314  1  0.45251118  0.09124979  0.77507537  1
  O2-  O315  1  0.05196895  0.42416947  0.73980140  1
  O2-  O316  1  0.95353947  0.42615021  0.24705448  1
  O2-  O317  1  0.45714921  0.22905258  0.01385517  1
  O2-  O318  1  0.54565856  0.56624651  0.24666807  1
  O2-  O319  1  0.97184387  0.46103791  0.99627083  1
  O2-  O320  1  0.54982830  0.76429772  0.26523268  1
  O2-  O321  1  0.45038650  0.75656315  0.22752051  1
  O2-  O322  1  0.45720703  0.43728913  0.98968909  1
  O2-  O323  1  0.44892332  0.56908069  0.72633095  1
  O2-  O324  1  0.56641817  0.60338101  0.84448334  1
  O2-  O325  1  0.56379428  0.74063630  0.77627705  1
  O2-  O326  1  0.93826404  0.59791772  0.22154244  1
  O2-  O327  1  0.06447639  0.92131235  0.72439117  1
  O2-  O328  1  0.93215507  0.59956329  0.03307728  1
  O2-  O329  1  0.06991182  0.75298139  0.18021358  1
  O2-  O330  1  0.06394395  0.92164476  0.23036809  1
  O2-  O331  1  0.94040715  0.93198409  0.28232333  1
  O2-  O332  1  0.43986750  0.73912026  0.97012051  1
  O2-  O333  1  0.56311046  0.07078121  0.78857514  1
  O2-  O334  1  0.55528852  0.59579687  0.69805182  1
  O2-  O335  1  0.06290899  0.25845344  0.52198962  1
  O2-  O336  1  0.93755381  0.26677721  0.76813768  1
  O2-  O337  1  0.43684798  0.74835251  0.48390084  1
  O2-  O338  1  0.43546884  0.40797032  0.77083079  1
  O2-  O339  1  0.93538598  0.40100456  0.52579092  1
  O2-  O340  1  0.56410526  0.06992879  0.21488265  1
  O2-  O341  1  0.94093629  0.07651477  0.28792914  1
  O2-  O342  1  0.07056380  0.61823411  0.94153299  1
  O2-  O343  1  0.56014138  0.91789331  0.46519957  1
  O2-  O344  1  0.44009619  0.59560110  0.92373269  1
  O2-  O345  1  0.56032278  0.92716098  0.96361844  1
  O2-  O346  1  0.07921266  0.26881999  0.69278543  1
  O2-  O347  1  0.05906681  0.25479424  0.03443659  1
  O2-  O348  1  0.43409720  0.72975805  0.70830811  1
  O2-  O349  1  0.56546855  0.75347892  0.06320716  1
  O2-  O350  1  0.55878453  0.73965250  0.92700034  1
  O2-  O351  1  0.93694790  0.92041915  0.02255818  1
  O2-  O352  1  0.06342441  0.91841949  0.02556400  1
  O2-  O353  1  0.92667011  0.94930276  0.56561116  1
  O2-  O354  1  0.44453137  0.26233641  0.56323177  1
  O2-  O355  1  0.91680809  0.38001505  0.97094417  1
  O2-  O356  1  0.93135612  0.40010248  0.70223347  1
  O2-  O357  1  0.07012832  0.74471573  0.31615391  1
  O2-  O358  1  0.06108880  0.73914192  0.71668449  1
  O2-  O359  1  0.41929887  0.24530799  0.41023965  1
  O2-  O360  1  0.56269252  0.40898085  0.48213224  1
  O2-  O361  1  0.06834223  0.28694163  0.19113718  1
  O2-  O362  1  0.56293084  0.25208005  0.22341051  1
  O2-  O363  1  0.93219950  0.58932000  0.69311480  1
  O2-  O364  1  0.56981722  0.05988165  0.42555907  1
  O2-  O365  1  0.93388903  0.59830731  0.81710460  1
  O2-  O366  1  0.56067372  0.91179298  0.72712053  1
  O2-  O367  1  0.43868276  0.59416482  0.07219769  1
  O2-  O368  1  0.06150574  0.73947544  0.52978627  1
  O2-  O369  1  0.06507566  0.92561298  0.52399627  1
  O2-  O370  1  0.06245182  0.08056095  0.01954787  1
  O2-  O371  1  0.06534306  0.40302229  0.03690568  1
  O2-  O372  1  0.75041591  0.31655863  0.85299150  1
  O2-  O373  1  0.25122034  -0.00969199  0.82031698  1
  O2-  O374  1  0.24914115  0.65546324  0.93001885  1
  O2-  O375  1  0.75018730  0.66240309  0.09147851  1
  O2-  O376  1  0.25048319  0.36589868  0.65459773  1
  O2-  O377  1  0.24968939  0.35217766  0.93751792  1
  O2-  O378  1  0.25036653  0.65467597  0.17065271  1
  O2-  O379  1  0.25013817  0.33327302  0.57080351  1
  O2-  O380  1  0.75017931  0.32960439  0.94521561  1
  O2-  O381  1  0.74931365  0.32039481  0.66326382  1
  O2-  O382  1  0.24962514  0.66962696  0.05843523  1
  O2-  O383  1  0.24990796  0.66302178  0.36066057  1
  O2-  O384  1  0.24868481  0.33668609  0.34946284  1
  O2-  O385  1  0.74969110  0.66686455  0.34408554  1
  O2-  O386  1  0.75100893  -0.00605013  0.36890731  1
  O2-  O387  1  0.74981767  0.00412991  0.65617338  1
  O2-  O388  1  0.25044659  0.68083584  0.64154774  1
  O2-  O389  1  0.24912185  0.34732038  0.83743246  1
  O2-  O390  1  0.25018168  0.67224906  0.81284570  1
  O2-  O391  1  0.75056662  0.33619615  0.57082167  1
  O2-  O392  1  0.25015177  -0.00088523  0.35637089  1
  O2-  O393  1  0.25131700  0.01393747  0.94790802  1
  O2-  O394  1  0.75179396  0.67106279  0.86300006  1
  O2-  O395  1  0.74932821  0.00349815  0.14141777  1
  O2-  O396  1  0.74979036  0.50716905  0.11779530  1
  O2-  O397  1  0.75010168  0.16450700  0.33628975  1
  O2-  O398  1  0.24886523  0.81824555  0.15873533  1
  O2-  O399  1  0.74995981  0.16469944  0.60245638  1
  O2-  O400  1  0.25018373  0.83400719  0.07053968  1
  O2-  O401  1  0.25005559  0.83794571  0.65490848  1
  O2-  O402  1  0.25017075  0.51166650  0.35707981  1
  O2-  O403  1  0.75012054  0.83518129  0.90787666  1
  O2-  O404  1  0.74988522  0.83462823  0.16881162  1
  O2-  O405  1  0.25049105  0.14736949  0.38304905  1
  O2-  O406  1  0.75015398  0.50361809  0.41529176  1
  O2-  O407  1  0.24979147  0.14211427  0.62399626  1
  O2-  O408  1  0.24920978  0.81176214  0.39602953  1
  O2-  O409  1  0.74967267  0.49243903  0.84878940  1
  O2-  O410  1  0.25020363  0.49991080  0.44173959  1
  O2-  O411  1  0.24974610  0.16717950  0.30198491  1
  O2-  O412  1  0.74987423  0.82762681  0.34200943  1
  O2-  O413  1  0.24997406  0.51408708  0.11388551  1
  O2-  O414  1  0.75017145  0.83272842  0.62202077  1
  O2-  O415  1  0.74992146  0.82961322  0.08548881  1
  O2-  O416  1  0.75004627  0.15828640  0.68854582  1
  O2-  O417  1  0.25032068  0.17967862  0.90791976  1
  O2-  O418  1  0.74991809  0.15919144  0.84664783  1
  O2-  O419  1  0.24998599  0.51242401  0.64184451  1
  O2-  O420  1  0.54783895  0.33268828  0.88038931  1
  O2-  O421  1  0.52398845  0.66058563  0.13242662  1
  O2-  O422  1  0.47179199  -0.00336440  0.12169333  1
  O2-  O423  1  0.45563821  0.31270093  0.88058912  1
  O2-  O424  1  0.45294903  -0.00834799  0.61567884  1
  O2-  O425  1  0.45747784  0.35485812  0.34931862  1
  O2-  O426  1  0.96990088  0.32865601  0.12232360  1
  O2-  O427  1  0.52645882  0.69166726  0.60869626  1
  O2-  O428  1  0.98419977  0.32551070  0.87828067  1
  O2-  O429  1  0.01663621  0.34198150  0.61945069  1
  O2-  O430  1  0.47875209  0.66007126  0.37411522  1
  O2-  O431  1  0.95289741  0.01356389  0.13186477  1
  O2-  O432  1  0.97249343  0.67842832  0.61068309  1
  O2-  O433  1  0.45320371  0.33455393  0.13288588  1
  O2-  O434  1  0.54577244  0.00118866  0.62190322  1
  O2-  O435  1  0.54516244  0.34668577  0.11188690  1
  O2-  O436  1  0.01799325  0.65465835  0.38291641  1
  O2-  O437  1  0.02449224  0.33420196  0.37475894  1
  O2-  O438  1  0.03996586  0.01494570  0.13525233  1
  O2-  O439  1  0.04499690  -0.00159949  0.87658806  1
  O2-  O440  1  0.54640858  0.32305401  0.35889785  1
  O2-  O441  1  0.02143701  0.66324885  0.12053929  1
  O2-  O442  1  0.01930009  0.00822356  0.62938116  1
  O2-  O443  1  0.95369284  0.00625183  0.88207233  1
