# generated using pymatgen
data_La7(Ru4O11)2
_symmetry_space_group_name_H-M   'P 1'
_cell_length_a   23.99044149
_cell_length_b   16.83085839
_cell_length_c   15.42705234
_cell_angle_alpha   89.99974804
_cell_angle_beta   89.99950956
_cell_angle_gamma   90.00110348
_symmetry_Int_Tables_number   1
_chemical_formula_structural   La7(Ru4O11)2
_chemical_formula_sum   'La84 Ru96 O264'
_cell_volume   6229.13092571
_cell_formula_units_Z   12
loop_
 _symmetry_equiv_pos_site_id
 _symmetry_equiv_pos_as_xyz
  1  'x, y, z'
loop_
 _atom_type_symbol
 _atom_type_oxidation_number
  La3+  3.0
  Ru4+  4.0
  O2-  -2.0
loop_
 _atom_site_type_symbol
 _atom_site_label
 _atom_site_symmetry_multiplicity
 _atom_site_fract_x
 _atom_site_fract_y
 _atom_site_fract_z
 _atom_site_occupancy
  La3+  La0  1  0.13706823  0.00168969  0.12626142  1
  La3+  La1  1  0.13561834  0.00051477  0.37314252  1
  La3+  La2  1  0.13999210  0.00151356  0.62789772  1
  La3+  La3  1  0.13827048  0.00244831  0.87522134  1
  La3+  La4  1  0.14014055  0.33017849  0.12449136  1
  La3+  La5  1  0.13793209  0.32850866  0.37198010  1
  La3+  La6  1  0.14019838  0.33353506  0.62593245  1
  La3+  La7  1  0.14262847  0.33190115  0.87921821  1
  La3+  La8  1  0.12711294  0.65248329  0.11703202  1
  La3+  La9  1  0.13757661  0.66538513  0.37868909  1
  La3+  La10  1  0.14483776  0.66745562  0.62753899  1
  La3+  La11  1  0.13553305  0.65982635  0.88180014  1
  La3+  La12  1  0.64457150  0.00026147  0.12560852  1
  La3+  La13  1  0.64286148  0.00316385  0.36913523  1
  La3+  La14  1  0.63837959  -0.00005371  0.62954599  1
  La3+  La15  1  0.64347065  0.00099429  0.88029681  1
  La3+  La16  1  0.62936973  0.32287445  0.13972861  1
  La3+  La17  1  0.63690564  0.32771259  0.36540630  1
  La3+  La18  1  0.63440765  0.33519414  0.62227369  1
  La3+  La19  1  0.63901012  0.33325654  0.87589582  1
  La3+  La20  1  0.63762258  0.66590435  0.12995995  1
  La3+  La21  1  0.63724210  0.66478853  0.37124697  1
  La3+  La22  1  0.64060724  0.66360753  0.62707185  1
  La3+  La23  1  0.63656044  0.66402479  0.87305771  1
  La3+  La24  1  0.36252613  0.00154185  0.12161515  1
  La3+  La25  1  0.36472494  0.00006146  0.37423069  1
  La3+  La26  1  0.36281173  0.00209377  0.62978101  1
  La3+  La27  1  0.36078883  0.00278645  0.87459749  1
  La3+  La28  1  0.35606522  0.33295222  0.12419861  1
  La3+  La29  1  0.36042359  0.33289019  0.37325719  1
  La3+  La30  1  0.35925423  0.33436483  0.62784938  1
  La3+  La31  1  0.35852437  0.33561811  0.87660897  1
  La3+  La32  1  0.36267937  0.66467187  0.12262471  1
  La3+  La33  1  0.36402467  0.66531474  0.37727086  1
  La3+  La34  1  0.35839275  0.66790172  0.62736481  1
  La3+  La35  1  0.35927067  0.66642977  0.87295339  1
  La3+  La36  1  0.85636630  0.00309031  0.12323207  1
  La3+  La37  1  0.86074882  0.00272612  0.37127812  1
  La3+  La38  1  0.86272647  0.00241561  0.63002680  1
  La3+  La39  1  0.85323731  -0.00027497  0.87735408  1
  La3+  La40  1  0.86273508  0.33141237  0.13153031  1
  La3+  La41  1  0.85736814  0.33371886  0.37141663  1
  La3+  La42  1  0.86344814  0.33247259  0.62600485  1
  La3+  La43  1  0.85886221  0.33572662  0.87637652  1
  La3+  La44  1  0.86532639  0.66744993  0.12836298  1
  La3+  La45  1  0.86090666  0.66314099  0.37073847  1
  La3+  La46  1  0.86071058  0.66353231  0.62716493  1
  La3+  La47  1  0.85955951  0.66381838  0.87168613  1
  La3+  La48  1  0.00322716  0.83548179  0.12185820  1
  La3+  La49  1  -0.00208710  0.50100324  0.63075127  1
  La3+  La50  1  0.00292063  0.49890631  0.35989610  1
  La3+  La51  1  0.00431722  0.49955142  0.88799001  1
  La3+  La52  1  0.00085503  0.83389469  0.38536181  1
  La3+  La53  1  0.50129541  0.17068081  0.37215929  1
  La3+  La54  1  -0.00141350  0.83200584  0.86433934  1
  La3+  La55  1  -0.00507376  0.17036877  0.87787512  1
  La3+  La56  1  0.00217579  0.50273128  0.87144531  1
  La3+  La57  1  0.49856076  0.16690923  0.87990909  1
  La3+  La58  1  0.50548868  0.17111168  0.14083533  1
  La3+  La59  1  0.49938370  0.83824735  0.88339965  1
  La3+  La60  1  0.00212304  0.84036418  0.13745975  1
  La3+  La61  1  0.00027692  0.50693016  0.11829661  1
  La3+  La62  1  0.49884953  0.49751955  0.13603590  1
  La3+  La63  1  0.49980743  0.83392346  0.38619723  1
  La3+  La64  1  0.00061034  0.16384714  0.36543671  1
  La3+  La65  1  0.49974140  0.83224620  0.13475822  1
  La3+  La66  1  0.00641507  0.17448686  0.12236109  1
  La3+  La67  1  0.00092601  0.83532122  0.36862995  1
  La3+  La68  1  0.49754436  0.50275538  0.62598606  1
  La3+  La69  1  0.50035602  0.50401604  0.11493581  1
  La3+  La70  1  -0.00398036  0.17176913  0.86155825  1
  La3+  La71  1  0.49570874  0.82883955  0.63360047  1
  La3+  La72  1  0.25041299  0.17418729  0.01527991  1
  La3+  La73  1  0.25075625  0.79336460  0.50792137  1
  La3+  La74  1  0.75128901  0.83173216  0.46123067  1
  La3+  La75  1  0.25049388  0.86369287  -0.01069484  1
  La3+  La76  1  0.24995416  0.49291925  -0.02267831  1
  La3+  La77  1  0.74968307  0.50130961  -0.03382760  1
  La3+  La78  1  0.24962913  0.84048835  0.21066935  1
  La3+  La79  1  0.75023930  0.88115154  0.80987176  1
  La3+  La80  1  0.74950910  0.13386069  0.75701213  1
  La3+  La81  1  0.24996246  0.21945339  0.48716744  1
  La3+  La82  1  0.75031914  0.49813076  0.49868906  1
  La3+  La83  1  0.25089608  0.54495872  0.50159701  1
  Ru4+  Ru84  1  -0.00559353  0.00070971  0.00444606  1
  Ru4+  Ru85  1  -0.00047582  -0.00022398  0.24415765  1
  Ru4+  Ru86  1  -0.00265318  0.00314987  0.49720700  1
  Ru4+  Ru87  1  -0.00237947  -0.00060436  0.75030256  1
  Ru4+  Ru88  1  -0.00398792  0.33999640  0.00177749  1
  Ru4+  Ru89  1  -0.00178704  0.33589686  0.24854790  1
  Ru4+  Ru90  1  0.00135361  0.33267881  0.49966458  1
  Ru4+  Ru91  1  -0.00127470  0.32941514  0.74710535  1
  Ru4+  Ru92  1  -0.00062199  0.66951582  -0.00129403  1
  Ru4+  Ru93  1  0.00066775  0.67538021  0.25063230  1
  Ru4+  Ru94  1  0.00210804  0.66761597  0.50603787  1
  Ru4+  Ru95  1  -0.00104887  0.66758333  0.74850800  1
  Ru4+  Ru96  1  0.49964802  -0.00012408  0.00233240  1
  Ru4+  Ru97  1  0.50291130  0.00052884  0.25316600  1
  Ru4+  Ru98  1  0.50067810  -0.00009010  0.49960820  1
  Ru4+  Ru99  1  0.49712802  0.00142776  0.74081815  1
  Ru4+  Ru100  1  0.49915924  0.33146119  -0.00451032  1
  Ru4+  Ru101  1  0.49878905  0.32804200  0.25476417  1
  Ru4+  Ru102  1  0.49577733  0.33042089  0.50001770  1
  Ru4+  Ru103  1  0.49950053  0.33448889  0.74909716  1
  Ru4+  Ru104  1  0.49957061  0.66519810  -0.00017729  1
  Ru4+  Ru105  1  0.49443955  0.67081795  0.25278572  1
  Ru4+  Ru106  1  0.49918091  0.66261089  0.49889681  1
  Ru4+  Ru107  1  0.50016140  0.66481915  0.74712581  1
  Ru4+  Ru108  1  0.11657696  0.16140474  0.00065759  1
  Ru4+  Ru109  1  0.11802931  0.16493308  0.25101189  1
  Ru4+  Ru110  1  0.10959684  0.16946713  0.50274252  1
  Ru4+  Ru111  1  0.11503133  0.16404239  0.74726066  1
  Ru4+  Ru112  1  0.11000780  0.50030549  -0.00182211  1
  Ru4+  Ru113  1  0.11662888  0.49852758  0.25071279  1
  Ru4+  Ru114  1  0.10988237  0.50060730  0.50112052  1
  Ru4+  Ru115  1  0.11381059  0.49609317  0.75282506  1
  Ru4+  Ru116  1  0.10967720  0.82812775  0.00036687  1
  Ru4+  Ru117  1  0.10882168  0.83175087  0.25103017  1
  Ru4+  Ru118  1  0.11003137  0.83051220  0.50207667  1
  Ru4+  Ru119  1  0.11378776  0.83094772  0.75064317  1
  Ru4+  Ru120  1  0.61344236  0.16443495  0.00233582  1
  Ru4+  Ru121  1  0.61411458  0.16979586  0.24980245  1
  Ru4+  Ru122  1  0.61300196  0.16472377  0.49811196  1
  Ru4+  Ru123  1  0.60790206  0.16702755  0.74918358  1
  Ru4+  Ru124  1  0.61032554  0.49965900  0.00186673  1
  Ru4+  Ru125  1  0.61527747  0.49313590  0.25027430  1
  Ru4+  Ru126  1  0.61672889  0.50550462  0.49719446  1
  Ru4+  Ru127  1  0.61002030  0.50225349  0.75134864  1
  Ru4+  Ru128  1  0.61373070  0.83683373  -0.00031356  1
  Ru4+  Ru129  1  0.61498036  0.83644319  0.25080689  1
  Ru4+  Ru130  1  0.60999613  0.83558591  0.49733905  1
  Ru4+  Ru131  1  0.61013613  0.83473077  0.74929853  1
  Ru4+  Ru132  1  0.38937922  0.16225762  0.00110166  1
  Ru4+  Ru133  1  0.38756691  0.17403154  0.24978710  1
  Ru4+  Ru134  1  0.38965544  0.16976874  0.49925893  1
  Ru4+  Ru135  1  0.38632983  0.16172486  0.74932798  1
  Ru4+  Ru136  1  0.38955893  0.49864838  -0.00069265  1
  Ru4+  Ru137  1  0.38749163  0.49906937  0.24915175  1
  Ru4+  Ru138  1  0.39068703  0.49937046  0.50095244  1
  Ru4+  Ru139  1  0.38678172  0.49425675  0.75116762  1
  Ru4+  Ru140  1  0.39243004  0.83445079  0.00001188  1
  Ru4+  Ru141  1  0.39113264  0.83103688  0.24982756  1
  Ru4+  Ru142  1  0.38996217  0.83574880  0.49972034  1
  Ru4+  Ru143  1  0.38597506  0.83088348  0.75082181  1
  Ru4+  Ru144  1  0.88604171  0.16102510  0.00087346  1
  Ru4+  Ru145  1  0.88362093  0.16874595  0.25060909  1
  Ru4+  Ru146  1  0.88826089  0.16636296  0.49800976  1
  Ru4+  Ru147  1  0.89282880  0.16922169  0.74397545  1
  Ru4+  Ru148  1  0.88680015  0.49811595  -0.00056066  1
  Ru4+  Ru149  1  0.88556221  0.49419524  0.24859697  1
  Ru4+  Ru150  1  0.88828512  0.49946778  0.50138647  1
  Ru4+  Ru151  1  0.88910546  0.50275116  0.75018710  1
  Ru4+  Ru152  1  0.88648491  0.83552082  -0.00140339  1
  Ru4+  Ru153  1  0.88316106  0.83216874  0.24915274  1
  Ru4+  Ru154  1  0.88955977  0.83060770  0.49954745  1
  Ru4+  Ru155  1  0.88989760  0.83274723  0.75153723  1
  Ru4+  Ru156  1  0.74911089  0.70396924  0.49406473  1
  Ru4+  Ru157  1  0.24992114  0.40064536  0.50309617  1
  Ru4+  Ru158  1  0.74999369  0.10385160  0.48452785  1
  Ru4+  Ru159  1  0.74966007  0.56957644  0.25378871  1
  Ru4+  Ru160  1  0.75012470  0.76242746  -0.00257735  1
  Ru4+  Ru161  1  0.74948795  0.63104815  0.01636941  1
  Ru4+  Ru162  1  0.25030496  0.24390037  0.76431813  1
  Ru4+  Ru163  1  0.74985947  0.23100048  0.00961587  1
  Ru4+  Ru164  1  0.25024709  0.40792659  0.26533045  1
  Ru4+  Ru165  1  0.75029794  0.42577099  0.74059520  1
  Ru4+  Ru166  1  0.74957289  0.95774221  0.49922738  1
  Ru4+  Ru167  1  0.24981010  0.90987441  0.75398378  1
  Ru4+  Ru168  1  0.25001062  0.72123924  0.00442569  1
  Ru4+  Ru169  1  0.25035049  0.57982842  0.26678399  1
  Ru4+  Ru170  1  0.74910591  0.37447231  0.02642933  1
  Ru4+  Ru171  1  0.74985483  0.24312832  0.48552959  1
  Ru4+  Ru172  1  0.24935978  0.71489953  0.25768981  1
  Ru4+  Ru173  1  0.25093759  0.10129253  0.25552590  1
  Ru4+  Ru174  1  0.24991759  0.07376193  0.48618054  1
  Ru4+  Ru175  1  0.25049653  0.96890365  0.25846452  1
  Ru4+  Ru176  1  0.74972387  0.73242624  0.76036061  1
  Ru4+  Ru177  1  0.25015127  0.93110393  0.48186089  1
  Ru4+  Ru178  1  0.24988254  0.57293409  0.74883944  1
  Ru4+  Ru179  1  0.74963930  0.28120451  0.74661197  1
  O2-  O180  1  0.17164174  0.07939266  -0.00073850  1
  O2-  O181  1  0.16847308  0.08130785  0.25156380  1
  O2-  O182  1  0.16465263  0.08057253  0.49807449  1
  O2-  O183  1  0.16722966  0.08080107  0.75183975  1
  O2-  O184  1  0.16317722  0.41509029  0.00110157  1
  O2-  O185  1  0.16884290  0.41230293  0.25101205  1
  O2-  O186  1  0.16551348  0.41429647  0.49963891  1
  O2-  O187  1  0.16422318  0.41515029  0.74959575  1
  O2-  O188  1  0.16677833  0.74637258  0.00091550  1
  O2-  O189  1  0.16442068  0.74355349  0.24764114  1
  O2-  O190  1  0.16811535  0.74637895  0.49437339  1
  O2-  O191  1  0.16427909  0.74913946  0.75259293  1
  O2-  O192  1  0.66403628  0.08327738  0.00046723  1
  O2-  O193  1  0.66076294  0.08303927  0.24849335  1
  O2-  O194  1  0.66605300  0.08440066  0.50129094  1
  O2-  O195  1  0.66269626  0.08073219  0.75063299  1
  O2-  O196  1  0.66790262  0.40933844  0.00046839  1
  O2-  O197  1  0.66610355  0.41282852  0.24754838  1
  O2-  O198  1  0.66808968  0.41264672  0.50385631  1
  O2-  O199  1  0.66643657  0.41385981  0.74895728  1
  O2-  O200  1  0.66583607  0.74629357  -0.00029313  1
  O2-  O201  1  0.66375333  0.74603781  0.24908208  1
  O2-  O202  1  0.66542695  0.74556698  0.50094487  1
  O2-  O203  1  0.66509524  0.74552335  0.75309795  1
  O2-  O204  1  0.33632807  0.25049776  0.00033615  1
  O2-  O205  1  0.33191974  0.25150793  0.25170864  1
  O2-  O206  1  0.33905019  0.25460917  0.50254981  1
  O2-  O207  1  0.33484100  0.25267849  0.74962076  1
  O2-  O208  1  0.33551052  0.58709266  0.00150279  1
  O2-  O209  1  0.33530950  0.58601386  0.25130597  1
  O2-  O210  1  0.33930068  0.59057839  0.49767089  1
  O2-  O211  1  0.33137971  0.58493328  0.75205509  1
  O2-  O212  1  0.33355711  0.92260612  0.00097872  1
  O2-  O213  1  0.33361605  0.92239722  0.24953200  1
  O2-  O214  1  0.33430079  0.92010551  0.49810281  1
  O2-  O215  1  0.33230175  0.91786593  0.75145890  1
  O2-  O216  1  0.83362134  0.25186549  0.00262146  1
  O2-  O217  1  0.83331668  0.25247838  0.25077513  1
  O2-  O218  1  0.83366036  0.25182151  0.50194462  1
  O2-  O219  1  0.82987862  0.25376310  0.74726514  1
  O2-  O220  1  0.83381891  0.58903755  0.00193251  1
  O2-  O221  1  0.83138792  0.58468568  0.24952730  1
  O2-  O222  1  0.83627351  0.58689359  0.49928112  1
  O2-  O223  1  0.83643897  0.58448275  0.74924028  1
  O2-  O224  1  0.83561002  0.91571384  0.00027588  1
  O2-  O225  1  0.83519770  0.91927386  0.25130848  1
  O2-  O226  1  0.83501816  0.92427892  0.50075898  1
  O2-  O227  1  0.83665089  0.91810842  0.74766214  1
  O2-  O228  1  0.16609253  0.25050021  0.00198530  1
  O2-  O229  1  0.16664042  0.25098663  0.25103977  1
  O2-  O230  1  0.16124445  0.25514825  0.50065330  1
  O2-  O231  1  0.16609738  0.25289248  0.74955345  1
  O2-  O232  1  0.16856021  0.58755941  0.00150109  1
  O2-  O233  1  0.16702031  0.58632810  0.25058157  1
  O2-  O234  1  0.16535859  0.58737425  0.49444323  1
  O2-  O235  1  0.16824296  0.58570255  0.75309242  1
  O2-  O236  1  0.16652311  0.92182659  0.00034077  1
  O2-  O237  1  0.16846111  0.92270514  0.25038411  1
  O2-  O238  1  0.16563610  0.91940516  0.49735857  1
  O2-  O239  1  0.16584746  0.91907441  0.75130784  1
  O2-  O240  1  0.66653711  0.25294157  0.00179391  1
  O2-  O241  1  0.67023271  0.25155251  0.24763403  1
  O2-  O242  1  0.67033054  0.25212705  0.50305225  1
  O2-  O243  1  0.66777402  0.25467635  0.75069838  1
  O2-  O244  1  0.66479387  0.58918487  -0.00160178  1
  O2-  O245  1  0.66947117  0.58581464  0.24849931  1
  O2-  O246  1  0.66562260  0.58824041  0.49937087  1
  O2-  O247  1  0.66407952  0.58540800  0.75163579  1
  O2-  O248  1  0.66722631  0.91540467  0.00051663  1
  O2-  O249  1  0.66741745  0.91735253  0.25039240  1
  O2-  O250  1  0.66692028  0.92289463  0.50350378  1
  O2-  O251  1  0.66636865  0.91952129  0.75086048  1
  O2-  O252  1  0.33015114  0.07920060  0.00156360  1
  O2-  O253  1  0.33499660  0.08164044  0.25066478  1
  O2-  O254  1  0.33289553  0.08040602  0.49994922  1
  O2-  O255  1  0.33309765  0.08177565  0.75260562  1
  O2-  O256  1  0.33311398  0.41529894  0.00024949  1
  O2-  O257  1  0.33207344  0.41430608  0.25188582  1
  O2-  O258  1  0.33432904  0.41391936  0.50043848  1
  O2-  O259  1  0.33333237  0.41693650  0.74779015  1
  O2-  O260  1  0.33283216  0.74587197  0.00137024  1
  O2-  O261  1  0.33474475  0.74496009  0.24901626  1
  O2-  O262  1  0.33685524  0.74346290  0.49715431  1
  O2-  O263  1  0.33271083  0.74853013  0.75189858  1
  O2-  O264  1  0.83239001  0.08400989  0.00135675  1
  O2-  O265  1  0.83658038  0.08081344  0.25178058  1
  O2-  O266  1  0.83090307  0.08211367  0.50059489  1
  O2-  O267  1  0.83452786  0.08062268  0.75086466  1
  O2-  O268  1  0.83091108  0.41167826  0.00381383  1
  O2-  O269  1  0.83249889  0.41333426  0.24978179  1
  O2-  O270  1  0.83580162  0.41199651  0.50112332  1
  O2-  O271  1  0.83296805  0.41344231  0.74763018  1
  O2-  O272  1  0.83174651  0.74648857  0.00057513  1
  O2-  O273  1  0.83491545  0.74475645  0.24990431  1
  O2-  O274  1  0.83521833  0.74415993  0.49962667  1
  O2-  O275  1  0.83201730  0.74611353  0.75135799  1
  O2-  O276  1  0.95433487  0.89672409  0.26077717  1
  O2-  O277  1  0.95080373  0.09710027  0.04115547  1
  O2-  O278  1  0.94865294  0.42611843  0.26037735  1
  O2-  O279  1  0.55092559  0.57748091  0.76473401  1
  O2-  O280  1  0.05277811  0.57833956  0.01157938  1
  O2-  O281  1  0.04238543  0.10922104  0.96418787  1
  O2-  O282  1  0.45257950  0.23393950  0.01631113  1
  O2-  O283  1  0.95298772  0.57932148  0.26900676  1
  O2-  O284  1  0.95064237  0.24013440  0.01152789  1
  O2-  O285  1  0.54584238  0.09924058  0.98771016  1
  O2-  O286  1  0.54650868  0.23283959  0.74160388  1
  O2-  O287  1  0.02108149  0.55265121  0.49703347  1
  O2-  O288  1  0.94881448  0.57016854  0.98275467  1
  O2-  O289  1  0.55524686  0.41960294  0.53515636  1
  O2-  O290  1  0.54871423  0.42971446  0.73973999  1
  O2-  O291  1  0.05080844  0.91093951  0.48142055  1
  O2-  O292  1  0.54073503  0.21827768  0.52607042  1
  O2-  O293  1  0.54550924  0.22957179  0.25397861  1
  O2-  O294  1  0.04510700  0.24423788  0.98659420  1
  O2-  O295  1  0.45535623  0.55969889  0.78013447  1
  O2-  O296  1  0.54888393  0.57255197  0.22787942  1
  O2-  O297  1  0.04496205  0.89676247  0.00715211  1
  O2-  O298  1  0.94683464  0.25448865  0.69303500  1
  O2-  O299  1  0.54547675  0.56397009  0.26559352  1
  O2-  O300  1  0.54991568  0.24047791  0.98679484  1
  O2-  O301  1  0.45396551  0.09745033  0.25907969  1
  O2-  O302  1  0.05037338  0.23319444  0.76331152  1
  O2-  O303  1  0.45278542  0.56775116  0.50921178  1
  O2-  O304  1  0.94246559  0.76447288  0.03958617  1
  O2-  O305  1  0.04478013  0.56304807  0.99231288  1
  O2-  O306  1  0.02039544  0.78381028  0.50567009  1
  O2-  O307  1  0.05768391  0.58602057  0.22302156  1
  O2-  O308  1  0.54357364  0.76801947  0.26301811  1
  O2-  O309  1  0.94979278  0.42749729  0.23997076  1
  O2-  O310  1  0.45323676  0.76747945  0.50969842  1
  O2-  O311  1  0.55078275  0.23789309  0.22810772  1
  O2-  O312  1  0.05930592  0.08286706  0.22897053  1
  O2-  O313  1  0.95094760  0.89917463  0.48546789  1
  O2-  O314  1  0.04701479  0.42710450  0.49084295  1
  O2-  O315  1  0.04673832  0.44211446  0.21595166  1
  O2-  O316  1  0.94334345  0.08104951  0.73068167  1
  O2-  O317  1  0.04867472  0.23553727  0.26127318  1
  O2-  O318  1  0.94777033  0.57050976  0.23180649  1
  O2-  O319  1  0.04520144  0.56487647  0.74361873  1
  O2-  O320  1  0.54514034  0.76529316  0.98692454  1
  O2-  O321  1  0.46210288  0.11227826  0.52578403  1
  O2-  O322  1  0.45495073  0.89810055  0.25814551  1
  O2-  O323  1  0.53665512  0.88726345  0.53438326  1
  O2-  O324  1  0.08451921  0.72792833  0.53672629  1
  O2-  O325  1  0.06233425  0.26276614  0.53344779  1
  O2-  O326  1  0.93924159  0.73829490  0.77596653  1
  O2-  O327  1  0.42752732  0.59574946  0.70946219  1
  O2-  O328  1  0.07857252  0.06405723  0.05125488  1
  O2-  O329  1  0.06720568  0.07842123  0.69382992  1
  O2-  O330  1  0.07169035  0.39921628  0.29704076  1
  O2-  O331  1  0.94229718  0.08838901  0.04803415  1
  O2-  O332  1  0.43482571  0.25800451  0.17918883  1
  O2-  O333  1  0.91933052  0.25130269  0.82902330  1
  O2-  O334  1  0.57087281  0.26317122  0.46041591  1
  O2-  O335  1  0.43581941  0.07617379  0.72533058  1
  O2-  O336  1  0.93570073  0.71855550  0.91747872  1
  O2-  O337  1  0.05109033  0.09447346  0.23956388  1
  O2-  O338  1  0.08261422  0.60279284  0.54158333  1
  O2-  O339  1  0.93508256  0.41158931  0.98008991  1
  O2-  O340  1  0.55298407  0.42458943  0.53038814  1
  O2-  O341  1  0.43057444  0.06885977  0.46118385  1
  O2-  O342  1  0.43715540  0.74280699  0.72635364  1
  O2-  O343  1  0.56273081  0.93011110  0.71842032  1
  O2-  O344  1  0.43932919  0.40423721  0.21667800  1
  O2-  O345  1  0.06425951  0.25887205  0.27861512  1
  O2-  O346  1  0.93566335  0.07835320  0.47287603  1
  O2-  O347  1  0.06586388  0.60109739  0.95835968  1
  O2-  O348  1  0.43730695  0.26253637  0.46868273  1
  O2-  O349  1  0.57314429  0.40936598  0.44835373  1
  O2-  O350  1  0.95026180  0.75837774  0.04955742  1
  O2-  O351  1  0.95092149  0.24417039  0.69642458  1
  O2-  O352  1  0.06717259  0.25389750  0.97079169  1
  O2-  O353  1  0.57270319  0.94922769  0.44397559  1
  O2-  O354  1  0.94798692  0.08641608  0.73208422  1
  O2-  O355  1  0.56300694  0.73586679  0.46611106  1
  O2-  O356  1  0.43466580  0.40372713  0.77260435  1
  O2-  O357  1  0.56526111  0.92103848  0.19155017  1
  O2-  O358  1  0.56292931  0.92593828  0.97155990  1
  O2-  O359  1  0.43389650  0.92113270  0.72315054  1
  O2-  O360  1  0.06365617  0.92684345  0.28865463  1
  O2-  O361  1  0.43555230  0.26087657  0.31672335  1
  O2-  O362  1  0.56146458  0.40329942  0.03403568  1
  O2-  O363  1  0.43775001  0.07196042  0.07206299  1
  O2-  O364  1  0.93035109  0.05800957  0.91080386  1
  O2-  O365  1  0.05568678  0.58456344  0.22313847  1
  O2-  O366  1  0.93731931  0.26211836  0.21692322  1
  O2-  O367  1  0.06749058  0.07785326  0.80853021  1
  O2-  O368  1  0.43114156  0.07994905  0.93705411  1
  O2-  O369  1  0.43703976  0.40811866  0.97738567  1
  O2-  O370  1  0.56366907  0.92891576  0.31149518  1
  O2-  O371  1  0.57075187  0.26667054  0.27502551  1
  O2-  O372  1  0.75004402  0.64117497  0.59010466  1
  O2-  O373  1  0.74999434  -0.00056946  0.08197428  1
  O2-  O374  1  0.24966109  0.33473877  0.08089281  1
  O2-  O375  1  0.75021213  0.65765187  0.38433035  1
  O2-  O376  1  0.25019539  0.66776291  0.58040523  1
  O2-  O377  1  0.75048571  0.01014939  0.38893827  1
  O2-  O378  1  0.24972915  0.66781668  0.67304217  1
  O2-  O379  1  0.24987803  0.66561474  0.90017283  1
  O2-  O380  1  0.74982482  -0.00098751  0.68405983  1
  O2-  O381  1  0.24983298  0.33026257  0.17268925  1
  O2-  O382  1  0.74916135  -0.00443819  0.89131159  1
  O2-  O383  1  0.75014947  -0.00023764  0.16878640  1
  O2-  O384  1  0.24950952  -0.00025041  0.57594213  1
  O2-  O385  1  0.75069390  0.32977546  0.40935488  1
  O2-  O386  1  0.24965953  0.66027829  0.37001165  1
  O2-  O387  1  0.74935293  0.32957982  0.89794111  1
  O2-  O388  1  0.24987401  0.66207289  0.14195938  1
  O2-  O389  1  0.24979493  0.33242426  0.39540662  1
  O2-  O390  1  0.24969945  0.33782355  0.82846561  1
  O2-  O391  1  0.25012573  0.32828505  0.59963933  1
  O2-  O392  1  0.24966437  0.33407322  0.92031350  1
  O2-  O393  1  0.24982957  -0.00062361  0.69239405  1
  O2-  O394  1  0.74995151  0.02460563  0.59563106  1
  O2-  O395  1  0.74981185  0.65416279  0.68144561  1
  O2-  O396  1  0.74979859  0.83366310  0.34040725  1
  O2-  O397  1  0.74997345  0.50685817  0.35614948  1
  O2-  O398  1  0.74983983  0.50121519  0.11765870  1
  O2-  O399  1  0.74978344  0.82269295  0.68431178  1
  O2-  O400  1  0.25012694  0.14708649  0.36684440  1
  O2-  O401  1  0.25020320  0.49000651  0.36370139  1
  O2-  O402  1  0.25017166  0.83353845  0.36332662  1
  O2-  O403  1  0.24998736  0.17101992  0.87416607  1
  O2-  O404  1  0.75008424  0.82943935  0.16614207  1
  O2-  O405  1  0.74984523  0.17131368  0.90893152  1
  O2-  O406  1  0.75008341  0.48988916  0.64058695  1
  O2-  O407  1  0.75015729  0.17526014  0.14067448  1
  O2-  O408  1  0.25006689  0.15437587  0.60479970  1
  O2-  O409  1  0.74986458  0.49671539  0.82852042  1
  O2-  O410  1  0.75001054  0.16607524  0.36923186  1
  O2-  O411  1  0.24979360  0.83822099  0.84289455  1
  O2-  O412  1  0.24984559  0.49244635  0.63014977  1
  O2-  O413  1  0.25014148  0.16135341  0.16187970  1
  O2-  O414  1  0.24983973  0.50662774  0.84504340  1
  O2-  O415  1  0.74983773  0.83642700  0.59777851  1
  O2-  O416  1  0.25008390  0.49597449  0.19314464  1
  O2-  O417  1  0.75000851  0.83754399  0.08270231  1
  O2-  O418  1  0.25007924  0.49966774  0.10695827  1
  O2-  O419  1  0.24990819  0.15727109  0.69435870  1
  O2-  O420  1  0.47805936  -0.00358640  0.61893474  1
  O2-  O421  1  0.01866181  0.32660599  0.38324295  1
  O2-  O422  1  0.95421075  0.66406148  0.61885225  1
  O2-  O423  1  0.47818629  0.32092160  0.87238458  1
  O2-  O424  1  0.53042517  0.00496910  0.86407205  1
  O2-  O425  1  0.47551345  -0.00745876  0.37136414  1
  O2-  O426  1  0.51923714  0.32714058  0.62976753  1
  O2-  O427  1  0.47200995  -0.01155083  0.86662036  1
  O2-  O428  1  0.96942639  -0.00427052  0.62219982  1
  O2-  O429  1  0.51580210  0.34156685  0.37078966  1
  O2-  O430  1  0.02808776  -0.00926631  0.61443462  1
  O2-  O431  1  0.47234650  0.66857005  0.12597996  1
  O2-  O432  1  0.47208060  0.66976440  0.37388301  1
  O2-  O433  1  0.04591571  0.34772052  0.86286344  1
  O2-  O434  1  0.02302787  -0.01292777  0.87862614  1
  O2-  O435  1  0.52383880  0.00734831  0.11865537  1
  O2-  O436  1  0.03614895  0.66950229  0.64496554  1
  O2-  O437  1  0.96691806  0.34229329  0.88004705  1
  O2-  O438  1  0.02748877  0.33303210  0.11932506  1
  O2-  O439  1  0.97651213  0.00045431  0.37053788  1
  O2-  O440  1  0.03650916  -0.02224972  0.12814025  1
  O2-  O441  1  0.95547326  -0.01467498  0.13615947  1
  O2-  O442  1  0.97431699  0.66124818  0.13167986  1
  O2-  O443  1  0.48239821  0.66691709  0.61741953  1
