# generated using pymatgen
data_La7(Ru4O11)2
_symmetry_space_group_name_H-M   'P 1'
_cell_length_a   23.98974944
_cell_length_b   16.82988726
_cell_length_c   15.42609340
_cell_angle_alpha   90.00022979
_cell_angle_beta   89.99909049
_cell_angle_gamma   89.99998987
_symmetry_Int_Tables_number   1
_chemical_formula_structural   La7(Ru4O11)2
_chemical_formula_sum   'La84 Ru96 O264'
_cell_volume   6228.20466057
_cell_formula_units_Z   12
loop_
 _symmetry_equiv_pos_site_id
 _symmetry_equiv_pos_as_xyz
  1  'x, y, z'
loop_
 _atom_type_symbol
 _atom_type_oxidation_number
  La3+  3.0
  Ru4+  4.0
  O2-  -2.0
loop_
 _atom_site_type_symbol
 _atom_site_label
 _atom_site_symmetry_multiplicity
 _atom_site_fract_x
 _atom_site_fract_y
 _atom_site_fract_z
 _atom_site_occupancy
  La3+  La0  1  0.14074161  -0.00196481  0.12827709  1
  La3+  La1  1  0.13948569  -0.00062482  0.37420261  1
  La3+  La2  1  0.14126677  0.00080971  0.62262304  1
  La3+  La3  1  0.13944740  -0.00113316  0.87510549  1
  La3+  La4  1  0.13794828  0.33139857  0.12735631  1
  La3+  La5  1  0.13935991  0.33171560  0.37771616  1
  La3+  La6  1  0.14169366  0.33469953  0.62152067  1
  La3+  La7  1  0.13552248  0.33146643  0.87357404  1
  La3+  La8  1  0.13919993  0.66892080  0.12850496  1
  La3+  La9  1  0.13895769  0.66918362  0.37199580  1
  La3+  La10  1  0.13887386  0.66673685  0.62454791  1
  La3+  La11  1  0.13971302  0.66791786  0.87638224  1
  La3+  La12  1  0.63997571  0.00144776  0.12411764  1
  La3+  La13  1  0.63878220  0.00047499  0.37402202  1
  La3+  La14  1  0.63684177  0.00010483  0.62550760  1
  La3+  La15  1  0.63914279  0.00027829  0.87620080  1
  La3+  La16  1  0.63865885  0.33513496  0.12106618  1
  La3+  La17  1  0.63859641  0.33211766  0.37244201  1
  La3+  La18  1  0.63762362  0.33182692  0.62422722  1
  La3+  La19  1  0.63666177  0.33596753  0.88211369  1
  La3+  La20  1  0.63911016  0.66665004  0.12418419  1
  La3+  La21  1  0.63806556  0.66593952  0.37521540  1
  La3+  La22  1  0.63645849  0.66716378  0.62575875  1
  La3+  La23  1  0.63872387  0.66819928  0.87626655  1
  La3+  La24  1  0.36126029  -0.00168860  0.12758413  1
  La3+  La25  1  0.36023635  -0.00063645  0.37403753  1
  La3+  La26  1  0.36274700  0.00531942  0.62798271  1
  La3+  La27  1  0.36461583  0.00234357  0.87032246  1
  La3+  La28  1  0.36079194  0.33364141  0.12653579  1
  La3+  La29  1  0.35971027  0.33114313  0.37752079  1
  La3+  La30  1  0.35873442  0.33356101  0.62108883  1
  La3+  La31  1  0.36460406  0.33213921  0.87452453  1
  La3+  La32  1  0.35950017  0.66804836  0.12534568  1
  La3+  La33  1  0.36002355  0.66878723  0.37398561  1
  La3+  La34  1  0.36094441  0.66708201  0.62401301  1
  La3+  La35  1  0.36192160  0.66737431  0.87593539  1
  La3+  La36  1  0.86214310  -0.00030899  0.12502230  1
  La3+  La37  1  0.86303179  0.00056691  0.37189634  1
  La3+  La38  1  0.86322634  -0.00051823  0.62526008  1
  La3+  La39  1  0.86059880  0.00020694  0.87694130  1
  La3+  La40  1  0.85737519  0.33290969  0.12470588  1
  La3+  La41  1  0.86194070  0.33280738  0.37375988  1
  La3+  La42  1  0.86517143  0.33401098  0.62490244  1
  La3+  La43  1  0.86045301  0.33376471  0.87700787  1
  La3+  La44  1  0.86254297  0.66624678  0.12403363  1
  La3+  La45  1  0.86160485  0.66524408  0.37449090  1
  La3+  La46  1  0.86301367  0.66714591  0.62464923  1
  La3+  La47  1  0.86205562  0.66771041  0.87603808  1
  La3+  La48  1  0.50207624  0.49595056  0.61765554  1
  La3+  La49  1  0.49943854  0.49609876  0.37818468  1
  La3+  La50  1  0.50095322  0.49455925  0.63445846  1
  La3+  La51  1  0.50207289  0.83122681  0.13577217  1
  La3+  La52  1  0.00053140  0.83542074  0.36290704  1
  La3+  La53  1  0.50124802  0.83185440  0.11323931  1
  La3+  La54  1  0.50225602  0.16056181  0.87996116  1
  La3+  La55  1  -0.00436740  0.49917997  0.87753538  1
  La3+  La56  1  0.00047831  0.16798239  0.88542445  1
  La3+  La57  1  0.50006717  0.83336100  0.63514416  1
  La3+  La58  1  0.50297057  0.16121926  0.86319313  1
  La3+  La59  1  0.00004892  0.83431642  0.11658324  1
  La3+  La60  1  0.49785760  0.50195846  0.10996557  1
  La3+  La61  1  0.50134591  0.49862692  0.86907209  1
  La3+  La62  1  0.49775295  0.16503804  0.62196012  1
  La3+  La63  1  -0.00080982  0.49784789  0.36348245  1
  La3+  La64  1  0.50281928  0.16255888  0.36952028  1
  La3+  La65  1  0.50309187  0.49457267  0.12946117  1
  La3+  La66  1  0.00217275  0.50384280  0.38456046  1
  La3+  La67  1  -0.00026824  0.50072184  0.62291355  1
  La3+  La68  1  -0.00071776  0.16591927  0.13539812  1
  La3+  La69  1  0.00011447  0.16744403  0.62132985  1
  La3+  La70  1  0.50011597  0.83252865  0.36700486  1
  La3+  La71  1  0.00024056  0.83393240  0.86455970  1
  La3+  La72  1  0.75016316  0.49733944  0.24573574  1
  La3+  La73  1  0.74963081  0.20003217  0.72189310  1
  La3+  La74  1  0.74999297  0.83373658  0.75217903  1
  La3+  La75  1  0.75028497  0.83532291  0.49714039  1
  La3+  La76  1  0.25036827  0.55366894  -0.01133613  1
  La3+  La77  1  0.24991729  0.53936319  0.29577682  1
  La3+  La78  1  0.74985909  0.52965918  0.52396743  1
  La3+  La79  1  0.25008783  0.82967536  0.72384394  1
  La3+  La80  1  0.74964749  0.50009995  0.75542396  1
  La3+  La81  1  0.25018485  0.53669033  0.75922306  1
  La3+  La82  1  0.25007422  0.15815898  -0.01200031  1
  La3+  La83  1  0.74970440  0.86669078  0.24960941  1
  Ru4+  Ru84  1  -0.00093411  -0.00037391  0.00192590  1
  Ru4+  Ru85  1  -0.00019587  0.00649366  0.25132740  1
  Ru4+  Ru86  1  0.00106051  0.00004072  0.49895409  1
  Ru4+  Ru87  1  -0.00002779  -0.00025817  0.74862995  1
  Ru4+  Ru88  1  0.00040231  0.33441124  0.00288908  1
  Ru4+  Ru89  1  -0.00006755  0.33408399  0.25228190  1
  Ru4+  Ru90  1  0.00200787  0.32792398  0.49773286  1
  Ru4+  Ru91  1  0.00571679  0.32823815  0.74598086  1
  Ru4+  Ru92  1  0.00167326  0.66478628  -0.00352090  1
  Ru4+  Ru93  1  -0.00054263  0.66075427  0.25266439  1
  Ru4+  Ru94  1  0.00025429  0.66774396  0.50038144  1
  Ru4+  Ru95  1  -0.00019073  0.66818869  0.75041779  1
  Ru4+  Ru96  1  0.50341707  -0.00212668  -0.00026923  1
  Ru4+  Ru97  1  0.50065561  0.00471926  0.25060947  1
  Ru4+  Ru98  1  0.49872413  -0.00048740  0.50111333  1
  Ru4+  Ru99  1  0.50024967  0.00253559  0.74641101  1
  Ru4+  Ru100  1  0.50159238  0.33367054  -0.00529850  1
  Ru4+  Ru101  1  0.50126997  0.33409162  0.25530253  1
  Ru4+  Ru102  1  0.50117200  0.33231188  0.49796695  1
  Ru4+  Ru103  1  0.50166081  0.33420221  0.75108224  1
  Ru4+  Ru104  1  0.49832665  0.66817241  -0.00221477  1
  Ru4+  Ru105  1  0.49977706  0.67233380  0.25081917  1
  Ru4+  Ru106  1  0.50185704  0.66915764  0.49877157  1
  Ru4+  Ru107  1  0.49790040  0.67130903  0.75091807  1
  Ru4+  Ru108  1  0.11071497  0.16706495  -0.00027443  1
  Ru4+  Ru109  1  0.11467569  0.16631771  0.25021366  1
  Ru4+  Ru110  1  0.11455102  0.16505384  0.49991228  1
  Ru4+  Ru111  1  0.11383269  0.16627596  0.75059703  1
  Ru4+  Ru112  1  0.11367797  0.49976539  0.00184527  1
  Ru4+  Ru113  1  0.11061383  0.50201348  0.24845050  1
  Ru4+  Ru114  1  0.11411481  0.49839471  0.49989722  1
  Ru4+  Ru115  1  0.11292499  0.49989750  0.75068550  1
  Ru4+  Ru116  1  0.11364083  0.83509869  -0.00078457  1
  Ru4+  Ru117  1  0.11695818  0.83671986  0.25120572  1
  Ru4+  Ru118  1  0.11193400  0.83542952  0.50065699  1
  Ru4+  Ru119  1  0.11091029  0.83334676  0.75048320  1
  Ru4+  Ru120  1  0.61442203  0.16726763  0.00039780  1
  Ru4+  Ru121  1  0.61317603  0.17026052  0.24965684  1
  Ru4+  Ru122  1  0.61230877  0.16664300  0.49962002  1
  Ru4+  Ru123  1  0.61032053  0.16700703  0.74950919  1
  Ru4+  Ru124  1  0.61255852  0.49608467  -0.00176864  1
  Ru4+  Ru125  1  0.61376316  0.49917547  0.24973312  1
  Ru4+  Ru126  1  0.60972787  0.50040026  0.50007729  1
  Ru4+  Ru127  1  0.61346722  0.49422113  0.75222986  1
  Ru4+  Ru128  1  0.61261966  0.83272630  -0.00212864  1
  Ru4+  Ru129  1  0.61012200  0.83332335  0.25093456  1
  Ru4+  Ru130  1  0.60989276  0.83332577  0.49907402  1
  Ru4+  Ru131  1  0.61138661  0.83345057  0.74890346  1
  Ru4+  Ru132  1  0.38586514  0.16775729  0.00030795  1
  Ru4+  Ru133  1  0.38502029  0.16464351  0.24911941  1
  Ru4+  Ru134  1  0.38586810  0.16648870  0.50079261  1
  Ru4+  Ru135  1  0.38785620  0.16289108  0.75031630  1
  Ru4+  Ru136  1  0.38884930  0.50082613  -0.00074188  1
  Ru4+  Ru137  1  0.38706297  0.49836128  0.25048033  1
  Ru4+  Ru138  1  0.38520450  0.49844887  0.49903520  1
  Ru4+  Ru139  1  0.38824013  0.49829087  0.74972522  1
  Ru4+  Ru140  1  0.38588019  0.83491802  -0.00137073  1
  Ru4+  Ru141  1  0.38244173  0.83031785  0.25254935  1
  Ru4+  Ru142  1  0.38684226  0.83486824  0.50049370  1
  Ru4+  Ru143  1  0.38918923  0.83433102  0.74934983  1
  Ru4+  Ru144  1  0.88502130  0.16599716  -0.00039347  1
  Ru4+  Ru145  1  0.88627983  0.16719643  0.25123387  1
  Ru4+  Ru146  1  0.88869060  0.16757354  0.49952407  1
  Ru4+  Ru147  1  0.88713053  0.16461128  0.75046600  1
  Ru4+  Ru148  1  0.88715714  0.49736948  0.00015378  1
  Ru4+  Ru149  1  0.88772950  0.49945782  0.25033648  1
  Ru4+  Ru150  1  0.88601047  0.50436731  0.50069933  1
  Ru4+  Ru151  1  0.88347564  0.50491426  0.75206860  1
  Ru4+  Ru152  1  0.88493374  0.83743060  0.00030109  1
  Ru4+  Ru153  1  0.88493507  0.83020415  0.25079838  1
  Ru4+  Ru154  1  0.88917331  0.83328335  0.50004050  1
  Ru4+  Ru155  1  0.88823224  0.83434707  0.74987877  1
  Ru4+  Ru156  1  0.24995651  0.39617361  0.75893696  1
  Ru4+  Ru157  1  0.74986201  0.63072377  0.73985136  1
  Ru4+  Ru158  1  0.25024447  0.41144441  -0.01148803  1
  Ru4+  Ru159  1  0.74980059  0.70812924  0.52204650  1
  Ru4+  Ru160  1  0.74987586  0.39614005  0.49019649  1
  Ru4+  Ru161  1  0.75021234  0.57607342  -0.00060040  1
  Ru4+  Ru162  1  0.25004187  0.23940998  0.74758543  1
  Ru4+  Ru163  1  0.75012151  0.08704676  0.49919596  1
  Ru4+  Ru164  1  0.75001352  0.08729832  0.24771777  1
  Ru4+  Ru165  1  0.75011620  0.25073784  0.49792010  1
  Ru4+  Ru166  1  0.24954943  0.03598869  0.02716509  1
  Ru4+  Ru167  1  0.74990767  0.06286890  0.74329097  1
  Ru4+  Ru168  1  0.25025729  0.75696442  0.49757464  1
  Ru4+  Ru169  1  0.75010218  0.75479351  0.00065208  1
  Ru4+  Ru170  1  0.24956584  0.28322394  -0.02069642  1
  Ru4+  Ru171  1  0.74961956  0.73063984  0.23793199  1
  Ru4+  Ru172  1  0.74986983  0.91131184  0.00237775  1
  Ru4+  Ru173  1  0.25010426  0.40492487  0.25398247  1
  Ru4+  Ru174  1  0.75006326  0.96258220  0.50112101  1
  Ru4+  Ru175  1  0.74968453  0.36963904  0.74175911  1
  Ru4+  Ru176  1  0.24978281  0.75188875  0.00003061  1
  Ru4+  Ru177  1  0.24996078  0.57896017  0.50422878  1
  Ru4+  Ru178  1  0.25000289  0.95953342  0.73048852  1
  Ru4+  Ru179  1  0.24995803  0.70426097  0.75766411  1
  O2-  O180  1  0.16507853  0.07871496  0.00074340  1
  O2-  O181  1  0.16575327  0.08157884  0.25084474  1
  O2-  O182  1  0.16536341  0.08213433  0.49912684  1
  O2-  O183  1  0.16682224  0.08204612  0.74898832  1
  O2-  O184  1  0.16688111  0.41412940  -0.00098581  1
  O2-  O185  1  0.16604164  0.41304193  0.25025917  1
  O2-  O186  1  0.16754808  0.41650988  0.49939299  1
  O2-  O187  1  0.16670024  0.41385235  0.75094528  1
  O2-  O188  1  0.16718149  0.74773555  -0.00048981  1
  O2-  O189  1  0.16667587  0.74806746  0.25079457  1
  O2-  O190  1  0.16690055  0.74734756  0.49949263  1
  O2-  O191  1  0.16672120  0.74509452  0.74950038  1
  O2-  O192  1  0.66518651  0.08188548  -0.00066209  1
  O2-  O193  1  0.66692488  0.08079986  0.24978789  1
  O2-  O194  1  0.66733461  0.08073630  0.49970776  1
  O2-  O195  1  0.66687771  0.07903958  0.74931564  1
  O2-  O196  1  0.66805134  0.41518678  -0.00021251  1
  O2-  O197  1  0.66703106  0.41450965  0.25174903  1
  O2-  O198  1  0.66706511  0.41211126  0.49958380  1
  O2-  O199  1  0.66633959  0.41203155  0.75007405  1
  O2-  O200  1  0.66929114  0.74819285  0.00053449  1
  O2-  O201  1  0.66745594  0.74577334  0.24939861  1
  O2-  O202  1  0.66724701  0.74498249  0.50074706  1
  O2-  O203  1  0.66977891  0.74715431  0.74936340  1
  O2-  O204  1  0.33307632  0.25471778  -0.00066131  1
  O2-  O205  1  0.33285721  0.25186428  0.25087785  1
  O2-  O206  1  0.33316082  0.25090071  0.50015221  1
  O2-  O207  1  0.33234351  0.25234807  0.75125038  1
  O2-  O208  1  0.33726969  0.58758591  0.00040300  1
  O2-  O209  1  0.33183106  0.58741561  0.24994221  1
  O2-  O210  1  0.33115399  0.58528904  0.50041262  1
  O2-  O211  1  0.33500551  0.58925008  0.75013505  1
  O2-  O212  1  0.33359125  0.91844505  0.00028737  1
  O2-  O213  1  0.33240487  0.91909064  0.25145500  1
  O2-  O214  1  0.33538509  0.91794566  0.49872958  1
  O2-  O215  1  0.33357826  0.92123781  0.74880344  1
  O2-  O216  1  0.83387466  0.25214556  -0.00027231  1
  O2-  O217  1  0.83320698  0.25111795  0.25096445  1
  O2-  O218  1  0.83292813  0.25325740  0.50009325  1
  O2-  O219  1  0.83326523  0.25484915  0.74882003  1
  O2-  O220  1  0.83249347  0.58615254  -0.00013682  1
  O2-  O221  1  0.83129967  0.58639756  0.24897609  1
  O2-  O222  1  0.83375778  0.58770110  0.50023720  1
  O2-  O223  1  0.83275820  0.58804181  0.74877945  1
  O2-  O224  1  0.83200281  0.91768483  -0.00059569  1
  O2-  O225  1  0.83358145  0.91946090  0.24977356  1
  O2-  O226  1  0.83444339  0.92183461  0.50030117  1
  O2-  O227  1  0.83235306  0.91895003  0.74921839  1
  O2-  O228  1  0.16679346  0.25477222  0.00032502  1
  O2-  O229  1  0.16554697  0.25185124  0.24972769  1
  O2-  O230  1  0.16671617  0.25080073  0.49939792  1
  O2-  O231  1  0.16790300  0.25180176  0.75137912  1
  O2-  O232  1  0.16431230  0.58685602  -0.00059846  1
  O2-  O233  1  0.16826515  0.58704640  0.25070706  1
  O2-  O234  1  0.16728911  0.58603762  0.50013873  1
  O2-  O235  1  0.16618394  0.58850372  0.74913984  1
  O2-  O236  1  0.16576559  0.91831746  0.00051953  1
  O2-  O237  1  0.16674748  0.91818161  0.25040917  1
  O2-  O238  1  0.16507695  0.91758274  0.49886395  1
  O2-  O239  1  0.16639797  0.92122065  0.74933257  1
  O2-  O240  1  0.66628500  0.25270606  -0.00098896  1
  O2-  O241  1  0.66747015  0.25116931  0.25182396  1
  O2-  O242  1  0.66733503  0.25257947  0.49944219  1
  O2-  O243  1  0.66539266  0.25458774  0.74997344  1
  O2-  O244  1  0.66658413  0.58614323  0.00020430  1
  O2-  O245  1  0.66877262  0.58539796  0.24964631  1
  O2-  O246  1  0.66597747  0.58817405  0.50019701  1
  O2-  O247  1  0.66733465  0.58863767  0.74879585  1
  O2-  O248  1  0.66720581  0.91801999  0.00029148  1
  O2-  O249  1  0.66668058  0.92135973  0.24935232  1
  O2-  O250  1  0.66505828  0.92124233  0.50056988  1
  O2-  O251  1  0.66781038  0.91886684  0.74948995  1
  O2-  O252  1  0.33304064  0.07882389  0.00139964  1
  O2-  O253  1  0.33452153  0.08159096  0.25139938  1
  O2-  O254  1  0.33491765  0.08142962  0.49947855  1
  O2-  O255  1  0.33215437  0.08201364  0.74859614  1
  O2-  O256  1  0.33228927  0.41304894  -0.00089390  1
  O2-  O257  1  0.33379972  0.41397386  0.25057271  1
  O2-  O258  1  0.33408648  0.41686095  0.49922433  1
  O2-  O259  1  0.33306446  0.41316632  0.75127351  1
  O2-  O260  1  0.33280362  0.74772575  -0.00094555  1
  O2-  O261  1  0.33349889  0.74702217  0.24999513  1
  O2-  O262  1  0.33167631  0.74714284  0.49988945  1
  O2-  O263  1  0.33353639  0.74490433  0.74966111  1
  O2-  O264  1  0.83457926  0.08170203  -0.00091690  1
  O2-  O265  1  0.83237375  0.08160541  0.24924902  1
  O2-  O266  1  0.83321806  0.08097793  0.50011219  1
  O2-  O267  1  0.83366505  0.07979110  0.74949072  1
  O2-  O268  1  0.83384639  0.41538173  -0.00026987  1
  O2-  O269  1  0.83327195  0.41441585  0.25093280  1
  O2-  O270  1  0.83292358  0.41210530  0.50040731  1
  O2-  O271  1  0.83269035  0.41252586  0.74772305  1
  O2-  O272  1  0.83151126  0.74786771  -0.00029743  1
  O2-  O273  1  0.83262808  0.74684358  0.24982027  1
  O2-  O274  1  0.83396084  0.74519110  0.50060746  1
  O2-  O275  1  0.83017635  0.74693871  0.74932756  1
  O2-  O276  1  0.05083867  0.42815732  0.73461890  1
  O2-  O277  1  0.45244525  0.56866327  0.73644305  1
  O2-  O278  1  0.95071141  0.23403631  0.48589535  1
  O2-  O279  1  0.95510758  0.09802424  0.01347479  1
  O2-  O280  1  0.45596038  0.55672245  0.27825944  1
  O2-  O281  1  0.53976189  0.43805616  0.99248592  1
  O2-  O282  1  0.04811306  0.76781611  0.23401456  1
  O2-  O283  1  0.04426991  0.09456417  0.48620251  1
  O2-  O284  1  0.45143133  0.09368061  0.73680718  1
  O2-  O285  1  0.46176664  0.11083661  1.00237323  1
  O2-  O286  1  0.54537480  0.42727945  0.26469116  1
  O2-  O287  1  0.55404742  0.58237362  0.71623378  1
  O2-  O288  1  0.46110735  0.56276067  0.52945083  1
  O2-  O289  1  0.54380781  0.55833800  0.27922237  1
  O2-  O290  1  0.55047923  0.42710138  0.01236156  1
  O2-  O291  1  0.04557653  0.09705187  0.23723721  1
  O2-  O292  1  0.04442852  0.43004600  0.23381389  1
  O2-  O293  1  0.45068063  0.90246110  0.01252123  1
  O2-  O294  1  0.45883283  0.23112489  0.27620247  1
  O2-  O295  1  0.04526346  0.76398576  0.48272072  1
  O2-  O296  1  0.95773142  0.43936624  0.74370007  1
  O2-  O297  1  0.95319296  0.76536995  0.01794042  1
  O2-  O298  1  0.45438266  0.76449102  0.98582309  1
  O2-  O299  1  0.95214052  0.89952062  0.23407235  1
  O2-  O300  1  0.44390953  0.25265757  0.79910333  1
  O2-  O301  1  0.95779637  0.43944599  0.74380929  1
  O2-  O302  1  0.04247241  0.22923072  0.47454929  1
  O2-  O303  1  0.95455106  0.43431380  0.51912544  1
  O2-  O304  1  0.54560695  0.23301259  0.01347038  1
  O2-  O305  1  0.95225305  0.43130404  0.01630896  1
  O2-  O306  1  0.45837360  0.10610813  0.75920045  1
  O2-  O307  1  0.03831104  0.10607141  0.71818195  1
  O2-  O308  1  0.04335738  0.43612049  0.97528224  1
  O2-  O309  1  0.45542506  0.09722106  0.23713328  1
  O2-  O310  1  0.95501196  0.23789172  0.01472670  1
  O2-  O311  1  0.95754086  0.22508239  0.72527235  1
  O2-  O312  1  0.44487533  0.91616765  0.22894407  1
  O2-  O313  1  0.04450618  0.90352234  0.51431122  1
  O2-  O314  1  0.54543488  0.57047257  0.98374828  1
  O2-  O315  1  0.04007830  0.56594438  0.97437314  1
  O2-  O316  1  0.44733984  0.24796428  0.96129354  1
  O2-  O317  1  0.45430878  0.42915779  0.51033756  1
  O2-  O318  1  0.05678675  0.24733003  0.79614835  1
  O2-  O319  1  0.03950304  0.56091570  0.72213775  1
  O2-  O320  1  0.46182909  0.10423020  0.02005222  1
  O2-  O321  1  0.54727559  0.90023655  0.98558729  1
  O2-  O322  1  0.95544147  0.76401307  0.97895133  1
  O2-  O323  1  0.95347353  0.42991034  0.48018890  1
  O2-  O324  1  0.04940419  0.23715614  0.79023500  1
  O2-  O325  1  0.42768388  0.60449918  0.20375547  1
  O2-  O326  1  0.93438258  0.74063982  0.70119706  1
  O2-  O327  1  0.93656669  0.26466753  0.19469992  1
  O2-  O328  1  0.06831526  0.26950596  0.54307645  1
  O2-  O329  1  0.42552940  0.60314850  0.45388689  1
  O2-  O330  1  0.93638532  0.73750277  0.30567796  1
  O2-  O331  1  0.93747672  0.92722782  0.22334648  1
  O2-  O332  1  0.07213274  0.60173772  0.04013472  1
  O2-  O333  1  0.56602098  0.26037017  0.22331308  1
  O2-  O334  1  0.06418685  0.59462838  0.22343579  1
  O2-  O335  1  0.07022349  0.05585940  0.80388586  1
  O2-  O336  1  0.42393785  0.26597806  0.68039076  1
  O2-  O337  1  0.43053137  0.06814739  0.77914986  1
  O2-  O338  1  0.06984067  0.60896520  0.80179230  1
  O2-  O339  1  0.06484007  0.25962963  0.97174192  1
  O2-  O340  1  0.56294661  0.73849412  0.71647239  1
  O2-  O341  1  0.57053509  0.61019537  0.19754935  1
  O2-  O342  1  0.43685805  0.26381600  0.46586591  1
  O2-  O343  1  0.42904769  0.26803816  0.20935079  1
  O2-  O344  1  0.55360074  0.58308814  0.71583410  1
  O2-  O345  1  0.06898152  0.39548973  0.04792127  1
  O2-  O346  1  0.41948978  0.05422456  0.95434809  1
  O2-  O347  1  0.44651784  0.24834107  0.94857265  1
  O2-  O348  1  0.45240802  0.24279998  0.78947956  1
  O2-  O349  1  0.42664655  0.26627280  0.06486012  1
  O2-  O350  1  0.92834966  0.26534794  0.79337265  1
  O2-  O351  1  0.93346546  0.74150973  0.20061429  1
  O2-  O352  1  0.93421550  0.07241529  0.27696742  1
  O2-  O353  1  0.56445300  0.73990099  0.47331999  1
  O2-  O354  1  0.06350672  0.93157024  0.28255143  1
  O2-  O355  1  0.06977559  0.27437699  0.67721855  1
  O2-  O356  1  0.44597225  0.91446445  0.23024961  1
  O2-  O357  1  0.56686471  0.39986759  0.96618017  1
  O2-  O358  1  0.93642222  0.26376538  0.30403798  1
  O2-  O359  1  0.93446302  0.92787811  0.02710542  1
  O2-  O360  1  0.93483666  0.59480578  0.78459600  1
  O2-  O361  1  0.06236827  0.73989300  0.22322476  1
  O2-  O362  1  0.43642499  0.73794101  0.53479450  1
  O2-  O363  1  0.92174092  0.39205745  0.79418725  1
  O2-  O364  1  0.56836381  0.60123156  0.80551590  1
  O2-  O365  1  0.93709368  0.59574746  0.28304367  1
  O2-  O366  1  0.56463929  0.25951601  0.52680266  1
  O2-  O367  1  0.56410476  0.07042275  0.46703439  1
  O2-  O368  1  0.43650100  0.40411760  0.96634219  1
  O2-  O369  1  0.56529307  0.73498060  0.96748880  1
  O2-  O370  1  0.93655742  0.73905925  0.80559236  1
  O2-  O371  1  0.06431529  0.40629585  0.47130865  1
  O2-  O372  1  0.25002286  0.33270458  0.57561728  1
  O2-  O373  1  0.24997068  0.66732603  0.59293733  1
  O2-  O374  1  0.25014992  0.33514478  0.42177725  1
  O2-  O375  1  0.24986261  0.66758397  0.90432231  1
  O2-  O376  1  0.25001235  -0.01275808  0.91892413  1
  O2-  O377  1  0.24988220  0.32137962  0.17553417  1
  O2-  O378  1  0.24987771  0.66501133  0.40657236  1
  O2-  O379  1  0.74995261  -0.00333499  0.09428367  1
  O2-  O380  1  0.74999918  0.32928944  0.85134919  1
  O2-  O381  1  0.75002572  -0.00979962  0.83403218  1
  O2-  O382  1  0.75001479  0.67139249  0.85254844  1
  O2-  O383  1  0.74993867  0.65756972  0.32533597  1
  O2-  O384  1  0.74988693  0.00165863  0.92320287  1
  O2-  O385  1  0.75001097  0.33555089  0.15668368  1
  O2-  O386  1  0.25027368  0.01418891  0.83430163  1
  O2-  O387  1  0.25002296  0.32363303  0.33496391  1
  O2-  O388  1  0.24991528  0.66832559  0.09182382  1
  O2-  O389  1  0.25002325  0.32785021  0.66493501  1
  O2-  O390  1  0.25010600  0.33702096  0.08759353  1
  O2-  O391  1  0.75011754  0.33149353  0.59984301  1
  O2-  O392  1  0.74992628  -0.00005219  0.34240248  1
  O2-  O393  1  0.24993006  -0.00292447  0.60232105  1
  O2-  O394  1  0.24984851  0.00222212  0.14952771  1
  O2-  O395  1  0.74991744  0.65470326  0.41813348  1
  O2-  O396  1  0.75002333  0.49449757  0.39070288  1
  O2-  O397  1  0.74998750  0.16450206  0.09649603  1
  O2-  O398  1  0.24999235  0.83023196  0.58401785  1
  O2-  O399  1  0.24997529  0.16663807  0.18963860  1
  O2-  O400  1  0.25007347  0.49569613  0.17504627  1
  O2-  O401  1  0.75005939  0.50354311  0.90985910  1
  O2-  O402  1  0.25009538  0.16686246  0.41519470  1
  O2-  O403  1  0.25007698  0.16717356  0.11025408  1
  O2-  O404  1  0.25005396  0.16659336  0.33585674  1
  O2-  O405  1  0.25001886  0.83229265  0.16567586  1
  O2-  O406  1  0.74997799  0.16662940  0.93126501  1
  O2-  O407  1  0.24990834  0.83059537  0.86358881  1
  O2-  O408  1  0.24985051  0.48201047  0.88040610  1
  O2-  O409  1  0.74992111  0.16484944  0.58850406  1
  O2-  O410  1  0.25001278  0.17063477  0.66482096  1
  O2-  O411  1  0.75008916  0.50467400  0.08949379  1
  O2-  O412  1  0.24994673  0.83435303  0.08140364  1
  O2-  O413  1  0.74995806  0.16684031  0.41728240  1
  O2-  O414  1  0.24967158  0.48754824  0.09159345  1
  O2-  O415  1  0.75006117  0.16273264  0.84926962  1
  O2-  O416  1  0.75003534  0.16818387  0.32854109  1
  O2-  O417  1  0.24999518  0.49878393  0.63230719  1
  O2-  O418  1  0.25001873  0.83125969  0.34620630  1
  O2-  O419  1  0.24997283  0.17132740  0.86328917  1
  O2-  O420  1  0.97204411  0.00039157  0.62463826  1
  O2-  O421  1  0.47503165  0.67013315  0.12002196  1
  O2-  O422  1  0.46623654  0.34064286  0.61684420  1
  O2-  O423  1  0.46588270  0.00087659  0.12118551  1
  O2-  O424  1  0.96856651  0.65996033  0.61670737  1
  O2-  O425  1  0.53850205  0.00231562  0.87466635  1
  O2-  O426  1  0.97482682  -0.00412054  0.37998594  1
  O2-  O427  1  0.53206648  0.33498897  0.12487358  1
  O2-  O428  1  0.02658607  0.67192592  0.12320393  1
  O2-  O429  1  0.53756750  0.00057388  0.12488359  1
  O2-  O430  1  0.02895096  0.34170344  0.87498725  1
  O2-  O431  1  0.96936913  0.66083213  0.11941620  1
  O2-  O432  1  0.02671391  0.33268376  0.37086299  1
  O2-  O433  1  0.47194662  0.66471245  0.87342198  1
  O2-  O434  1  0.53502794  0.66415641  0.37101475  1
  O2-  O435  1  0.97180663  0.33242286  0.62275451  1
  O2-  O436  1  0.53761319  0.33779487  0.63255344  1
  O2-  O437  1  0.46769675  -0.01009510  0.87543073  1
  O2-  O438  1  0.03468162  0.66793621  0.62297354  1
  O2-  O439  1  0.47187147  0.34684256  0.12714603  1
  O2-  O440  1  0.46647420  0.67438595  0.36786234  1
  O2-  O441  1  0.97029427  0.33340544  0.88546341  1
  O2-  O442  1  0.52830242  -0.00074413  0.62726078  1
  O2-  O443  1  0.97757186  0.00595966  0.12695539  1
