# generated using pymatgen
data_La7(Ru4O11)2
_symmetry_space_group_name_H-M   'P 1'
_cell_length_a   23.99042687
_cell_length_b   16.83042558
_cell_length_c   15.42684680
_cell_angle_alpha   90.00103054
_cell_angle_beta   90.00282628
_cell_angle_gamma   89.99867767
_symmetry_Int_Tables_number   1
_chemical_formula_structural   La7(Ru4O11)2
_chemical_formula_sum   'La84 Ru96 O264'
_cell_volume   6228.88394702
_cell_formula_units_Z   12
loop_
 _symmetry_equiv_pos_site_id
 _symmetry_equiv_pos_as_xyz
  1  'x, y, z'
loop_
 _atom_type_symbol
 _atom_type_oxidation_number
  La3+  3.0
  Ru4+  4.0
  O2-  -2.0
loop_
 _atom_site_type_symbol
 _atom_site_label
 _atom_site_symmetry_multiplicity
 _atom_site_fract_x
 _atom_site_fract_y
 _atom_site_fract_z
 _atom_site_occupancy
  La3+  La0  1  0.13983868  -0.00208823  0.12292438  1
  La3+  La1  1  0.13845036  0.00160159  0.37172510  1
  La3+  La2  1  0.13731071  0.00250358  0.62363166  1
  La3+  La3  1  0.14219189  0.00046364  0.87756641  1
  La3+  La4  1  0.13843370  0.33101157  0.12848024  1
  La3+  La5  1  0.13747665  0.33340424  0.37480018  1
  La3+  La6  1  0.14178388  0.33223547  0.62408571  1
  La3+  La7  1  0.13966191  0.33232420  0.87370638  1
  La3+  La8  1  0.14006587  0.66820570  0.12621473  1
  La3+  La9  1  0.14091235  0.66769046  0.37328738  1
  La3+  La10  1  0.14184003  0.66471487  0.62697163  1
  La3+  La11  1  0.14139740  0.66643578  0.87253910  1
  La3+  La12  1  0.64013330  0.00056112  0.12541584  1
  La3+  La13  1  0.64035750  0.00055089  0.37181834  1
  La3+  La14  1  0.63828168  0.00283872  0.62546889  1
  La3+  La15  1  0.63796394  0.00396538  0.87561201  1
  La3+  La16  1  0.63880257  0.33042918  0.11650252  1
  La3+  La17  1  0.63729042  0.33405918  0.37535260  1
  La3+  La18  1  0.64087485  0.33244637  0.62817383  1
  La3+  La19  1  0.64250000  0.33000499  0.87599168  1
  La3+  La20  1  0.63710243  0.66615746  0.12367603  1
  La3+  La21  1  0.64263829  0.66411433  0.37493176  1
  La3+  La22  1  0.63589215  0.66504171  0.61949061  1
  La3+  La23  1  0.63740571  0.66350535  0.87645175  1
  La3+  La24  1  0.36037557  -0.00342492  0.12333187  1
  La3+  La25  1  0.36149222  -0.00323708  0.37263635  1
  La3+  La26  1  0.36119977  0.00169437  0.62679068  1
  La3+  La27  1  0.35921417  0.00106501  0.87705567  1
  La3+  La28  1  0.36124233  0.33345711  0.12470689  1
  La3+  La29  1  0.36029667  0.33298684  0.37859229  1
  La3+  La30  1  0.35839051  0.33185632  0.62431161  1
  La3+  La31  1  0.36089225  0.33258089  0.87352063  1
  La3+  La32  1  0.35896554  0.66742416  0.12832758  1
  La3+  La33  1  0.36085086  0.66863382  0.37337959  1
  La3+  La34  1  0.35691864  0.66564725  0.62725024  1
  La3+  La35  1  0.36006609  0.66603292  0.87483175  1
  La3+  La36  1  0.85841333  0.00208184  0.12395227  1
  La3+  La37  1  0.86157440  0.00041927  0.37275303  1
  La3+  La38  1  0.86259281  0.00320354  0.62582259  1
  La3+  La39  1  0.86398143  0.00438724  0.87702333  1
  La3+  La40  1  0.85906848  0.33079325  0.11994975  1
  La3+  La41  1  0.86247423  0.33173286  0.37679244  1
  La3+  La42  1  0.86031926  0.33061536  0.62799933  1
  La3+  La43  1  0.85694390  0.33140466  0.87603290  1
  La3+  La44  1  0.86014501  0.66551296  0.12529687  1
  La3+  La45  1  0.85911040  0.66531363  0.37764604  1
  La3+  La46  1  0.86229984  0.66451157  0.62140092  1
  La3+  La47  1  0.86285956  0.66508386  0.87538934  1
  La3+  La48  1  -0.00005154  0.83446686  0.13106437  1
  La3+  La49  1  0.50007352  0.16769324  0.38879242  1
  La3+  La50  1  -0.00087428  0.83531233  0.63814830  1
  La3+  La51  1  -0.00269936  0.49696253  0.63574793  1
  La3+  La52  1  0.50082335  0.16784097  0.88260820  1
  La3+  La53  1  0.50136818  0.49580440  0.37329292  1
  La3+  La54  1  0.00469857  0.16601107  0.38073514  1
  La3+  La55  1  0.50072100  0.17417961  0.13444160  1
  La3+  La56  1  0.00072989  0.50018738  0.86706092  1
  La3+  La57  1  -0.00614634  0.49017147  0.11910533  1
  La3+  La58  1  0.49329133  0.83195847  0.62797410  1
  La3+  La59  1  0.50434862  0.49400428  0.62970776  1
  La3+  La60  1  0.00477117  0.82460854  0.37436365  1
  La3+  La61  1  0.00559448  0.83858593  0.87791341  1
  La3+  La62  1  0.50133004  0.82999818  0.38470582  1
  La3+  La63  1  -0.00162126  0.49598448  0.13931646  1
  La3+  La64  1  0.49793210  0.83506082  0.87492181  1
  La3+  La65  1  0.00081470  0.16498974  0.13242464  1
  La3+  La66  1  0.00074491  0.16233736  0.62334129  1
  La3+  La67  1  -0.00119796  0.50050777  0.61974120  1
  La3+  La68  1  0.49648002  0.16719441  0.11448505  1
  La3+  La69  1  0.49856646  0.49681870  0.39019278  1
  La3+  La70  1  0.00196617  0.50258303  0.38411562  1
  La3+  La71  1  0.50013635  0.83523799  0.13539726  1
  La3+  La72  1  0.74983959  0.83838127  0.02200196  1
  La3+  La73  1  0.74995028  0.79448769  0.52916104  1
  La3+  La74  1  0.24971674  0.79906429  0.74770818  1
  La3+  La75  1  0.75028098  0.84557039  0.74871061  1
  La3+  La76  1  0.75003053  0.45286525  0.72473291  1
  La3+  La77  1  0.74968161  0.49438700  -0.00163035  1
  La3+  La78  1  0.75021579  0.10754880  0.22686588  1
  La3+  La79  1  0.74992833  0.53963454  0.21458152  1
  La3+  La80  1  0.25020401  0.12672423  -0.04568640  1
  La3+  La81  1  0.74963117  0.22943791  0.51344669  1
  La3+  La82  1  0.74923894  0.87578191  0.27250144  1
  La3+  La83  1  0.24954705  0.20827636  0.28986823  1
  Ru4+  Ru84  1  -0.00110432  0.00192096  -0.00147183  1
  Ru4+  Ru85  1  0.00193475  0.00188977  0.25076899  1
  Ru4+  Ru86  1  0.00215489  -0.00685404  0.49739234  1
  Ru4+  Ru87  1  -0.00254536  0.00215228  0.75151481  1
  Ru4+  Ru88  1  -0.00204590  0.33047781  -0.00431879  1
  Ru4+  Ru89  1  -0.00347799  0.33809774  0.25144294  1
  Ru4+  Ru90  1  0.00090760  0.33794381  0.49438111  1
  Ru4+  Ru91  1  0.00417776  0.33545468  0.75126360  1
  Ru4+  Ru92  1  0.00054659  0.66940104  -0.00072138  1
  Ru4+  Ru93  1  -0.00004491  0.66864554  0.25071447  1
  Ru4+  Ru94  1  -0.00193066  0.66700382  0.49841019  1
  Ru4+  Ru95  1  0.00175397  0.66579729  0.74932287  1
  Ru4+  Ru96  1  0.49838491  -0.00377710  0.00328899  1
  Ru4+  Ru97  1  0.50237927  0.00389816  0.24998792  1
  Ru4+  Ru98  1  0.50047915  0.00167713  0.50334499  1
  Ru4+  Ru99  1  0.49862570  0.00241629  0.74927378  1
  Ru4+  Ru100  1  0.49504272  0.34405029  -0.00092929  1
  Ru4+  Ru101  1  0.49976040  0.33537716  0.25220584  1
  Ru4+  Ru102  1  0.49941032  0.33149346  0.50369274  1
  Ru4+  Ru103  1  0.49967358  0.33412206  0.74851558  1
  Ru4+  Ru104  1  0.50166350  0.66208585  0.00008642  1
  Ru4+  Ru105  1  0.50519311  0.67785319  0.24499749  1
  Ru4+  Ru106  1  0.50001414  0.66608452  0.50067934  1
  Ru4+  Ru107  1  0.49593634  0.65915071  0.75029568  1
  Ru4+  Ru108  1  0.11149476  0.16554131  -0.00054745  1
  Ru4+  Ru109  1  0.11375673  0.16228991  0.25020281  1
  Ru4+  Ru110  1  0.11787916  0.16904338  0.49707981  1
  Ru4+  Ru111  1  0.11638837  0.16690710  0.75072220  1
  Ru4+  Ru112  1  0.11405087  0.49956150  -0.00348106  1
  Ru4+  Ru113  1  0.11311611  0.49824867  0.25027291  1
  Ru4+  Ru114  1  0.11455933  0.50119997  0.49794500  1
  Ru4+  Ru115  1  0.11319848  0.50208722  0.75049696  1
  Ru4+  Ru116  1  0.11375254  0.83686911  0.00063689  1
  Ru4+  Ru117  1  0.11398461  0.83324307  0.25024645  1
  Ru4+  Ru118  1  0.11512541  0.83238497  0.49838261  1
  Ru4+  Ru119  1  0.11046284  0.83291240  0.74956967  1
  Ru4+  Ru120  1  0.61860161  0.16540381  -0.00129917  1
  Ru4+  Ru121  1  0.61187388  0.16793839  0.25167099  1
  Ru4+  Ru122  1  0.61018022  0.16682612  0.49935560  1
  Ru4+  Ru123  1  0.61436128  0.16818093  0.75045889  1
  Ru4+  Ru124  1  0.60933925  0.50006152  -0.00263054  1
  Ru4+  Ru125  1  0.61220539  0.49900254  0.24883643  1
  Ru4+  Ru126  1  0.61327797  0.50163756  0.50046510  1
  Ru4+  Ru127  1  0.60944467  0.49947735  0.75067824  1
  Ru4+  Ru128  1  0.61083077  0.83438005  -0.00105527  1
  Ru4+  Ru129  1  0.61066275  0.83360238  0.24954338  1
  Ru4+  Ru130  1  0.61150954  0.83338512  0.49834006  1
  Ru4+  Ru131  1  0.61452210  0.84045621  0.74885316  1
  Ru4+  Ru132  1  0.38700772  0.16476721  -0.00169638  1
  Ru4+  Ru133  1  0.38780994  0.16828384  0.25228836  1
  Ru4+  Ru134  1  0.38846335  0.16824519  0.50122284  1
  Ru4+  Ru135  1  0.38432615  0.16392678  0.75031585  1
  Ru4+  Ru136  1  0.38644320  0.50036887  0.00032849  1
  Ru4+  Ru137  1  0.38063519  0.49417016  0.25028665  1
  Ru4+  Ru138  1  0.38680875  0.49832776  0.49878192  1
  Ru4+  Ru139  1  0.38434799  0.49963161  0.75087788  1
  Ru4+  Ru140  1  0.38588152  0.83691980  0.00034795  1
  Ru4+  Ru141  1  0.38359543  0.82886857  0.25116397  1
  Ru4+  Ru142  1  0.38870179  0.83314871  0.50017024  1
  Ru4+  Ru143  1  0.38892677  0.83117107  0.75032945  1
  Ru4+  Ru144  1  0.88730406  0.16631873  -0.00076877  1
  Ru4+  Ru145  1  0.88865801  0.16500801  0.24904108  1
  Ru4+  Ru146  1  0.88244846  0.16547139  0.50169130  1
  Ru4+  Ru147  1  0.88431073  0.16523217  0.75175323  1
  Ru4+  Ru148  1  0.88790583  0.49748371  -0.00109431  1
  Ru4+  Ru149  1  0.88884214  0.49771174  0.25110597  1
  Ru4+  Ru150  1  0.88530041  0.50040859  0.49938003  1
  Ru4+  Ru151  1  0.88786551  0.50145493  0.75165012  1
  Ru4+  Ru152  1  0.88957139  0.83215736  0.00061413  1
  Ru4+  Ru153  1  0.88912084  0.83534683  0.24856501  1
  Ru4+  Ru154  1  0.88933722  0.83085131  0.50026068  1
  Ru4+  Ru155  1  0.89048474  0.83323145  0.75091513  1
  Ru4+  Ru156  1  0.74982944  0.71463412  0.73370645  1
  Ru4+  Ru157  1  0.25020891  0.90840936  0.49686252  1
  Ru4+  Ru158  1  0.24961736  0.58273521  0.24733402  1
  Ru4+  Ru159  1  0.24988672  0.41607576  0.74555558  1
  Ru4+  Ru160  1  0.25028173  0.08980956  0.49848237  1
  Ru4+  Ru161  1  0.74933717  0.06841675  0.49604490  1
  Ru4+  Ru162  1  0.25036895  0.06367094  0.25385421  1
  Ru4+  Ru163  1  0.75000937  0.39949673  0.24462167  1
  Ru4+  Ru164  1  0.74999142  0.73138976  0.23826413  1
  Ru4+  Ru165  1  0.25019751  0.41839925  0.00194566  1
  Ru4+  Ru166  1  0.25000868  0.94418672  0.76798118  1
  Ru4+  Ru167  1  0.75008121  0.97147155  -0.00109593  1
  Ru4+  Ru168  1  0.75009231  0.26189595  0.23424563  1
  Ru4+  Ru169  1  0.74981146  0.41922090  0.50827780  1
  Ru4+  Ru170  1  0.74996942  0.97860436  0.75052412  1
  Ru4+  Ru171  1  0.75026224  0.93124804  0.48739064  1
  Ru4+  Ru172  1  0.24974670  0.27076134  0.00752935  1
  Ru4+  Ru173  1  0.74987106  0.70257448  -0.01657856  1
  Ru4+  Ru174  1  0.25045853  0.57965212  0.51046336  1
  Ru4+  Ru175  1  0.25040917  0.75004285  0.50361938  1
  Ru4+  Ru176  1  0.74975883  0.58600513  0.75323480  1
  Ru4+  Ru177  1  0.24960090  0.41907177  0.24842269  1
  Ru4+  Ru178  1  0.25004529  0.58242211  0.00196631  1
  Ru4+  Ru179  1  0.25005944  0.75566140  -0.00492173  1
  O2-  O180  1  0.16282630  0.08010047  0.00096116  1
  O2-  O181  1  0.16787018  0.08018820  0.25066484  1
  O2-  O182  1  0.16808496  0.08066729  0.50088703  1
  O2-  O183  1  0.16424626  0.08140524  0.74949516  1
  O2-  O184  1  0.16728764  0.41535777  0.00134170  1
  O2-  O185  1  0.16692787  0.41367055  0.25041506  1
  O2-  O186  1  0.16549936  0.41508959  0.49843946  1
  O2-  O187  1  0.16720536  0.41348935  0.75067442  1
  O2-  O188  1  0.16713177  0.74680802  0.00134630  1
  O2-  O189  1  0.16547489  0.74825737  0.24931711  1
  O2-  O190  1  0.16802774  0.74849870  0.50093232  1
  O2-  O191  1  0.16451649  0.74575425  0.75038394  1
  O2-  O192  1  0.66722129  0.07914505  -0.00129858  1
  O2-  O193  1  0.66097292  0.07912665  0.25109309  1
  O2-  O194  1  0.66570481  0.07936542  0.50061100  1
  O2-  O195  1  0.66567291  0.07916818  0.74901913  1
  O2-  O196  1  0.66760660  0.41709775  0.00174490  1
  O2-  O197  1  0.66680909  0.41350382  0.24853778  1
  O2-  O198  1  0.66782578  0.41233789  0.49931875  1
  O2-  O199  1  0.66194605  0.41314782  0.75041347  1
  O2-  O200  1  0.66813912  0.74471276  -0.00035721  1
  O2-  O201  1  0.66806922  0.74614058  0.24837778  1
  O2-  O202  1  0.66603229  0.74697762  0.50247709  1
  O2-  O203  1  0.66656421  0.74509896  0.74981660  1
  O2-  O204  1  0.33226025  0.25426623  0.00005236  1
  O2-  O205  1  0.33382350  0.25481525  0.25070391  1
  O2-  O206  1  0.33434370  0.25208624  0.49949514  1
  O2-  O207  1  0.33374335  0.25143764  0.75008530  1
  O2-  O208  1  0.33319485  0.58576220  0.00110542  1
  O2-  O209  1  0.33099148  0.58578461  0.25011533  1
  O2-  O210  1  0.33123564  0.58724568  0.49941935  1
  O2-  O211  1  0.33266748  0.58414227  0.74921277  1
  O2-  O212  1  0.33344964  0.91588819  0.00023251  1
  O2-  O213  1  0.33361197  0.91826957  0.25113088  1
  O2-  O214  1  0.33316335  0.91968723  0.49959205  1
  O2-  O215  1  0.33245908  0.92036312  0.74992504  1
  O2-  O216  1  0.83616911  0.25024772  0.00038332  1
  O2-  O217  1  0.83354510  0.25406902  0.24917749  1
  O2-  O218  1  0.83719458  0.25625723  0.49783208  1
  O2-  O219  1  0.83306614  0.24931187  0.74930933  1
  O2-  O220  1  0.83208569  0.58729696  -0.00085596  1
  O2-  O221  1  0.83422199  0.58819284  0.24993601  1
  O2-  O222  1  0.83374239  0.58412055  0.50062508  1
  O2-  O223  1  0.83309560  0.58671901  0.74988048  1
  O2-  O224  1  0.83367751  0.92079796  -0.00100866  1
  O2-  O225  1  0.83583658  0.92028940  0.25165698  1
  O2-  O226  1  0.83446898  0.92046349  0.50003985  1
  O2-  O227  1  0.83399650  0.92172581  0.74906952  1
  O2-  O228  1  0.16575216  0.25482771  0.00057651  1
  O2-  O229  1  0.16435104  0.25392035  0.24961623  1
  O2-  O230  1  0.16862269  0.25311476  0.50097218  1
  O2-  O231  1  0.16415887  0.25172431  0.75025735  1
  O2-  O232  1  0.16824983  0.58549368  0.00262583  1
  O2-  O233  1  0.16714152  0.58658594  0.24948279  1
  O2-  O234  1  0.16911622  0.58610099  0.49934658  1
  O2-  O235  1  0.16462417  0.58510369  0.75022837  1
  O2-  O236  1  0.16631192  0.91651881  -0.00022292  1
  O2-  O237  1  0.16578055  0.91864765  0.25025240  1
  O2-  O238  1  0.16861707  0.91738366  0.50088642  1
  O2-  O239  1  0.16718010  0.92080490  0.75103202  1
  O2-  O240  1  0.66620654  0.24987981  -0.00019857  1
  O2-  O241  1  0.66613089  0.25353508  0.24966151  1
  O2-  O242  1  0.66107541  0.25623303  0.49845387  1
  O2-  O243  1  0.66532722  0.24914290  0.74836677  1
  O2-  O244  1  0.66822095  0.58389043  0.00040978  1
  O2-  O245  1  0.66705493  0.58653623  0.24873641  1
  O2-  O246  1  0.66458548  0.58415344  0.50100878  1
  O2-  O247  1  0.66607030  0.58704393  0.74852873  1
  O2-  O248  1  0.66612258  0.92079808  -0.00051589  1
  O2-  O249  1  0.66151226  0.92092672  0.24865955  1
  O2-  O250  1  0.66753123  0.91986798  0.50091122  1
  O2-  O251  1  0.66649593  0.92304719  0.74900600  1
  O2-  O252  1  0.33469486  0.08051997  0.00195619  1
  O2-  O253  1  0.33434906  0.07971321  0.25171136  1
  O2-  O254  1  0.33408958  0.08098529  0.49992974  1
  O2-  O255  1  0.33351843  0.08294422  0.74816343  1
  O2-  O256  1  0.33315354  0.41516962  0.00049159  1
  O2-  O257  1  0.33227679  0.41210828  0.25131835  1
  O2-  O258  1  0.33479890  0.41474453  0.49915042  1
  O2-  O259  1  0.33367077  0.41597712  0.75009259  1
  O2-  O260  1  0.33321633  0.74694184  0.00114395  1
  O2-  O261  1  0.33218951  0.74914937  0.24966567  1
  O2-  O262  1  0.33217369  0.74666296  0.49968996  1
  O2-  O263  1  0.33546950  0.74622743  0.75073749  1
  O2-  O264  1  0.83161745  0.08139460  -0.00069444  1
  O2-  O265  1  0.83921481  0.07885308  0.25287121  1
  O2-  O266  1  0.83337930  0.07936211  0.49980274  1
  O2-  O267  1  0.83416390  0.07957998  0.74918524  1
  O2-  O268  1  0.83368300  0.41563562  0.00140357  1
  O2-  O269  1  0.83399892  0.41279978  0.24890952  1
  O2-  O270  1  0.83206392  0.41242716  0.49835022  1
  O2-  O271  1  0.83750076  0.41261589  0.75047275  1
  O2-  O272  1  0.83225360  0.74578068  -0.00157677  1
  O2-  O273  1  0.83456428  0.74752903  0.24950287  1
  O2-  O274  1  0.83380558  0.74582838  0.50157526  1
  O2-  O275  1  0.83515318  0.74609771  0.74970114  1
  O2-  O276  1  0.45149632  0.90280336  0.23316242  1
  O2-  O277  1  0.95481079  0.09111635  0.48138037  1
  O2-  O278  1  0.54965578  0.56540757  0.76636107  1
  O2-  O279  1  0.03725087  0.88798697  0.49871223  1
  O2-  O280  1  0.54791076  0.09578752  0.00669867  1
  O2-  O281  1  0.54576531  0.55395585  0.28439554  1
  O2-  O282  1  0.53570787  0.89507790  0.53470770  1
  O2-  O283  1  0.45632357  0.55736257  0.71865582  1
  O2-  O284  1  0.45330921  0.56556507  0.25374144  1
  O2-  O285  1  0.55302862  0.75553477  0.55061276  1
  O2-  O286  1  0.96057518  0.22782152  0.74663721  1
  O2-  O287  1  0.95473854  0.90253985  0.76019557  1
  O2-  O288  1  0.53813989  0.78231670  0.02904469  1
  O2-  O289  1  0.95355077  0.43363137  0.74069502  1
  O2-  O290  1  0.04948141  0.56960859  0.24085796  1
  O2-  O291  1  0.05322054  0.58903492  0.54993418  1
  O2-  O292  1  0.95477024  0.76261536  0.76483133  1
  O2-  O293  1  0.96121657  0.22718368  0.74670201  1
  O2-  O294  1  0.54540659  0.10007648  0.76314992  1
  O2-  O295  1  0.95202017  0.56696648  0.26357467  1
  O2-  O296  1  0.95895177  0.77116953  0.95975640  1
  O2-  O297  1  0.95362504  0.24091774  0.47938803  1
  O2-  O298  1  0.55311749  0.75419267  0.78555328  1
  O2-  O299  1  0.45587327  0.90265018  0.27190580  1
  O2-  O300  1  0.04588504  0.43100654  0.51183333  1
  O2-  O301  1  0.94849214  0.90274511  0.48468858  1
  O2-  O302  1  0.95218889  0.56891321  0.98108662  1
  O2-  O303  1  0.95518681  0.23258894  0.99025864  1
  O2-  O304  1  0.45584323  0.09444708  0.50954570  1
  O2-  O305  1  0.94722759  0.23464383  0.51658501  1
  O2-  O306  1  0.95326596  0.90417223  0.99197937  1
  O2-  O307  1  0.04903642  0.76646370  0.01621441  1
  O2-  O308  1  0.96209187  0.88797660  0.28199327  1
  O2-  O309  1  0.03900136  0.76905578  0.53608866  1
  O2-  O310  1  0.54626206  0.09578813  0.24416422  1
  O2-  O311  1  0.95309265  0.23303308  0.23898979  1
  O2-  O312  1  0.45449590  0.90026366  0.76105957  1
  O2-  O313  1  0.94885085  0.09649847  0.51901929  1
  O2-  O314  1  0.54890893  0.23616840  0.01303503  1
  O2-  O315  1  0.04589552  0.22782621  0.52864875  1
  O2-  O316  1  0.05593055  0.08375318  0.52460349  1
  O2-  O317  1  0.95378281  0.08943146  0.73358101  1
  O2-  O318  1  0.04231291  0.55556302  0.03365701  1
  O2-  O319  1  0.45757436  0.55639762  0.22905630  1
  O2-  O320  1  0.45487754  0.23710455  0.50974354  1
  O2-  O321  1  0.52934689  0.45283985  0.99840587  1
  O2-  O322  1  0.05243530  0.08907328  0.26764179  1
  O2-  O323  1  0.05301575  0.23632610  0.23628559  1
  O2-  O324  1  0.56271301  0.26511819  0.78305329  1
  O2-  O325  1  0.06312527  0.40263531  0.96803148  1
  O2-  O326  1  0.06153093  0.26554739  0.21697008  1
  O2-  O327  1  0.93604925  0.74066353  0.56681079  1
  O2-  O328  1  0.43890106  0.74203417  0.28428870  1
  O2-  O329  1  0.57032189  0.73674767  0.69960081  1
  O2-  O330  1  0.43653418  0.92189889  0.02674332  1
  O2-  O331  1  0.43400728  0.25757828  0.70489916  1
  O2-  O332  1  0.93713300  0.59335876  0.53399201  1
  O2-  O333  1  0.92806666  0.71917292  0.06115031  1
  O2-  O334  1  0.07220110  0.61542475  0.93780341  1
  O2-  O335  1  0.57086834  0.94828779  0.43965155  1
  O2-  O336  1  0.07971470  0.94470951  0.46649812  1
  O2-  O337  1  0.56328088  0.40362988  0.53262468  1
  O2-  O338  1  0.07162438  0.27171378  0.45514204  1
  O2-  O339  1  0.93636684  0.40529820  0.43255180  1
  O2-  O340  1  0.43548246  0.60311807  0.18648744  1
  O2-  O341  1  0.43220772  0.25795256  0.19061606  1
  O2-  O342  1  0.56441433  0.40621753  0.27684370  1
  O2-  O343  1  0.05683956  0.08284175  0.52258413  1
  O2-  O344  1  0.57402145  0.60564522  0.20216831  1
  O2-  O345  1  0.57005773  0.73069831  0.94844768  1
  O2-  O346  1  0.92071523  0.27723873  0.78963350  1
  O2-  O347  1  0.56180687  0.25909674  0.03560922  1
  O2-  O348  1  0.56419580  0.59351969  0.96810501  1
  O2-  O349  1  0.43498738  0.07646828  0.97092068  1
  O2-  O350  1  0.56467618  0.74352271  0.27828617  1
  O2-  O351  1  0.43410743  0.25748663  0.79666771  1
  O2-  O352  1  0.06473618  0.92791728  0.02521663  1
  O2-  O353  1  0.57604798  0.73588463  0.42563454  1
  O2-  O354  1  0.93437610  0.74250290  0.44162307  1
  O2-  O355  1  0.07022686  0.73241980  0.44746431  1
  O2-  O356  1  0.43100228  0.59797204  0.31726828  1
  O2-  O357  1  0.43429317  0.26142908  0.02642065  1
  O2-  O358  1  0.07102581  0.59948063  0.41357339  1
  O2-  O359  1  0.43374787  0.07524427  0.77790174  1
  O2-  O360  1  0.55286539  0.75516128  0.53805092  1
  O2-  O361  1  0.05728497  0.08542067  0.27255957  1
  O2-  O362  1  0.43737606  0.26348181  0.31866957  1
  O2-  O363  1  0.93172589  0.41274176  0.55937167  1
  O2-  O364  1  0.42634786  0.60467671  0.79435141  1
  O2-  O365  1  0.57644968  0.38287023  0.95610214  1
  O2-  O366  1  0.93479007  0.07188098  0.97608271  1
  O2-  O367  1  0.43714154  0.59573061  0.46964597  1
  O2-  O368  1  0.05425717  0.57296412  0.54781990  1
  O2-  O369  1  0.93604341  0.59692417  0.78411264  1
  O2-  O370  1  0.55425544  0.75269309  0.78647241  1
  O2-  O371  1  0.92763571  0.94703274  0.18987106  1
  O2-  O372  1  0.75022752  0.33222843  0.35581820  1
  O2-  O373  1  0.74985586  0.33666584  0.64415864  1
  O2-  O374  1  0.25007972  -0.01085810  0.16605040  1
  O2-  O375  1  0.75003897  0.66882917  0.42331151  1
  O2-  O376  1  0.75011990  0.66097466  0.10328189  1
  O2-  O377  1  0.24964436  -0.00163933  0.89642833  1
  O2-  O378  1  0.25013846  0.00314511  0.07793597  1
  O2-  O379  1  0.24978955  0.33416302  0.15607403  1
  O2-  O380  1  0.75030237  0.65860617  0.33132897  1
  O2-  O381  1  0.24966436  0.00677898  0.67634778  1
  O2-  O382  1  0.24995409  0.66411664  0.15402593  1
  O2-  O383  1  0.24980986  0.33846865  0.66038747  1
  O2-  O384  1  0.25038111  -0.00142901  0.40492245  1
  O2-  O385  1  0.75056069  0.00059934  0.35119966  1
  O2-  O386  1  0.25028553  -0.00095686  0.56630915  1
  O2-  O387  1  0.74971604  0.33933392  0.10757535  1
  O2-  O388  1  0.74997644  -0.00463651  0.14674826  1
  O2-  O389  1  0.24983620  0.33663554  0.90109006  1
  O2-  O390  1  0.24998571  0.67023503  0.64683450  1
  O2-  O391  1  0.75016910  0.66665356  0.85989605  1
  O2-  O392  1  0.25005875  0.66640598  0.90680228  1
  O2-  O393  1  0.74988465  0.33552426  0.91958702  1
  O2-  O394  1  0.74966555  0.33429321  0.83010222  1
  O2-  O395  1  0.75010278  -0.00230080  0.60415475  1
  O2-  O396  1  0.25002467  0.49977809  0.15628888  1
  O2-  O397  1  0.74994934  0.18396073  0.12190747  1
  O2-  O398  1  0.75005155  0.50385691  0.43339660  1
  O2-  O399  1  0.75004633  0.50039975  0.58600275  1
  O2-  O400  1  0.75024227  0.82066052  0.15157982  1
  O2-  O401  1  0.24996737  0.83382739  0.59326489  1
  O2-  O402  1  0.75011296  0.50552523  0.86293835  1
  O2-  O403  1  0.25030141  0.50004943  0.83114808  1
  O2-  O404  1  0.74971194  0.19414831  0.33141235  1
  O2-  O405  1  0.25016295  0.16452831  0.41802489  1
  O2-  O406  1  0.25015185  0.17798114  0.08087661  1
  O2-  O407  1  0.74971734  0.16792199  0.69737163  1
  O2-  O408  1  0.24990158  0.49982608  0.91957415  1
  O2-  O409  1  0.74983126  0.16595625  0.84184912  1
  O2-  O410  1  0.24995692  0.50488668  0.58557144  1
  O2-  O411  1  0.75008364  0.83599593  0.40115095  1
  O2-  O412  1  0.75003210  0.14876298  0.61529191  1
  O2-  O413  1  0.25015269  0.15539895  0.16758757  1
  O2-  O414  1  0.24997536  0.82855559  0.91144891  1
  O2-  O415  1  0.25002612  0.49981538  0.34153161  1
  O2-  O416  1  0.24968560  0.17058329  0.83842696  1
  O2-  O417  1  0.74997436  0.83170658  0.88492609  1
  O2-  O418  1  0.75001783  0.13921264  0.41022677  1
  O2-  O419  1  0.74996050  0.49310674  0.34561422  1
  O2-  O420  1  0.02642892  -0.00399958  0.62794423  1
  O2-  O421  1  0.47905841  0.34600370  0.12435672  1
  O2-  O422  1  0.45929728  0.00953595  0.12832971  1
  O2-  O423  1  0.97275531  0.33689755  0.12376734  1
  O2-  O424  1  0.46992998  -0.00768118  0.87756186  1
  O2-  O425  1  0.02062500  -0.00200165  0.37186409  1
  O2-  O426  1  0.04360970  0.33450612  0.63304751  1
  O2-  O427  1  0.97709490  -0.00312575  0.87169264  1
  O2-  O428  1  0.47559893  0.33823284  0.88046883  1
  O2-  O429  1  0.97506179  0.66234528  0.36638823  1
  O2-  O430  1  0.96363371  0.32815199  0.63219837  1
  O2-  O431  1  0.47634404  0.34384171  0.62231807  1
  O2-  O432  1  0.51953410  0.65507106  0.37460749  1
  O2-  O433  1  0.97651997  0.34271314  0.87991042  1
  O2-  O434  1  0.53718255  -0.00312899  0.87723221  1
  O2-  O435  1  0.02392278  0.00478287  0.12793880  1
  O2-  O436  1  0.52354212  0.67264224  0.11957487  1
  O2-  O437  1  0.47347832  0.67500314  0.88360557  1
  O2-  O438  1  0.52567849  0.32873944  0.38084783  1
  O2-  O439  1  0.47301528  -0.00172687  0.62868178  1
  O2-  O440  1  0.02718946  0.66787712  0.12910361  1
  O2-  O441  1  0.02518231  0.33962269  0.36581069  1
  O2-  O442  1  0.51947526  0.64909868  0.62435950  1
  O2-  O443  1  0.54400272  -0.00638385  0.12295901  1
