# generated using pymatgen
data_La7(Ru4O11)2
_symmetry_space_group_name_H-M   'P 1'
_cell_length_a   23.99212769
_cell_length_b   16.83113110
_cell_length_c   15.42874774
_cell_angle_alpha   90.00225356
_cell_angle_beta   90.00076645
_cell_angle_gamma   90.00351623
_symmetry_Int_Tables_number   1
_chemical_formula_structural   La7(Ru4O11)2
_chemical_formula_sum   'La84 Ru96 O264'
_cell_volume   6230.35429933
_cell_formula_units_Z   12
loop_
 _symmetry_equiv_pos_site_id
 _symmetry_equiv_pos_as_xyz
  1  'x, y, z'
loop_
 _atom_type_symbol
 _atom_type_oxidation_number
  La3+  3.0
  Ru4+  4.0
  O2-  -2.0
loop_
 _atom_site_type_symbol
 _atom_site_label
 _atom_site_symmetry_multiplicity
 _atom_site_fract_x
 _atom_site_fract_y
 _atom_site_fract_z
 _atom_site_occupancy
  La3+  La0  1  0.13819355  -0.00064461  0.12739303  1
  La3+  La1  1  0.13055568  0.00245878  0.36797985  1
  La3+  La2  1  0.14256046  -0.00302191  0.62571661  1
  La3+  La3  1  0.14297271  -0.00021910  0.87562648  1
  La3+  La4  1  0.14044690  0.33163710  0.11859637  1
  La3+  La5  1  0.13550314  0.33555212  0.37185607  1
  La3+  La6  1  0.13981989  0.33357095  0.62796207  1
  La3+  La7  1  0.13330986  0.33202359  0.87694210  1
  La3+  La8  1  0.14087497  0.66376633  0.12263296  1
  La3+  La9  1  0.14001067  0.66131434  0.37480252  1
  La3+  La10  1  0.13951600  0.66655502  0.62482904  1
  La3+  La11  1  0.13544465  0.66457901  0.87995125  1
  La3+  La12  1  0.63743504  -0.00169396  0.12380780  1
  La3+  La13  1  0.64152445  -0.00219001  0.37719506  1
  La3+  La14  1  0.64440173  -0.00283331  0.62179636  1
  La3+  La15  1  0.63628705  -0.00063583  0.87356016  1
  La3+  La16  1  0.63139963  0.33382771  0.13667499  1
  La3+  La17  1  0.63818711  0.33347996  0.36250395  1
  La3+  La18  1  0.63912058  0.33357113  0.62556351  1
  La3+  La19  1  0.63921397  0.33236163  0.87496451  1
  La3+  La20  1  0.63576560  0.66428412  0.13437336  1
  La3+  La21  1  0.63315877  0.65482206  0.36481023  1
  La3+  La22  1  0.64102798  0.66396289  0.61993566  1
  La3+  La23  1  0.63684827  0.67051895  0.87882209  1
  La3+  La24  1  0.36211363  0.00188179  0.12523130  1
  La3+  La25  1  0.36643685  0.00147111  0.37052825  1
  La3+  La26  1  0.35852267  -0.00269551  0.62803280  1
  La3+  La27  1  0.35731818  -0.00010530  0.87549410  1
  La3+  La28  1  0.35870875  0.33348349  0.12122106  1
  La3+  La29  1  0.36453737  0.33618015  0.37824820  1
  La3+  La30  1  0.35997499  0.33184843  0.62717467  1
  La3+  La31  1  0.36282553  0.33091489  0.87425655  1
  La3+  La32  1  0.35715137  0.66351246  0.12533709  1
  La3+  La33  1  0.36246698  0.66401718  0.37797411  1
  La3+  La34  1  0.35716426  0.66928492  0.62885281  1
  La3+  La35  1  0.36097267  0.66607008  0.87994630  1
  La3+  La36  1  0.86315910  -0.00147526  0.12378256  1
  La3+  La37  1  0.86010203  0.00296423  0.37952322  1
  La3+  La38  1  0.86378528  0.00123245  0.61862790  1
  La3+  La39  1  0.86034516  0.00083612  0.87239043  1
  La3+  La40  1  0.85376324  0.34053679  0.12355650  1
  La3+  La41  1  0.85864623  0.33231622  0.36718096  1
  La3+  La42  1  0.86094618  0.33466843  0.62482908  1
  La3+  La43  1  0.85883107  0.33819357  0.87570254  1
  La3+  La44  1  0.85535451  0.66440330  0.12975668  1
  La3+  La45  1  0.85285380  0.66623889  0.37333993  1
  La3+  La46  1  0.85474072  0.66282101  0.62192092  1
  La3+  La47  1  0.85830002  0.67120341  0.87614314  1
  La3+  La48  1  0.00047935  0.16826879  0.13540349  1
  La3+  La49  1  0.00763544  0.48653062  0.12684476  1
  La3+  La50  1  0.00839032  0.48810006  0.62898593  1
  La3+  La51  1  -0.00323425  0.83048772  0.63002220  1
  La3+  La52  1  0.00002563  0.50279449  0.88125266  1
  La3+  La53  1  0.00316700  0.15724402  0.61655704  1
  La3+  La54  1  0.00472490  0.84380760  0.37580566  1
  La3+  La55  1  0.50063681  0.82907002  0.86580815  1
  La3+  La56  1  0.50620440  0.51618998  0.36249431  1
  La3+  La57  1  0.49564573  0.17572387  0.88446007  1
  La3+  La58  1  0.49906713  0.50436762  0.13098650  1
  La3+  La59  1  0.49934167  0.16417781  0.36301655  1
  La3+  La60  1  0.49744530  0.50364235  0.88138445  1
  La3+  La61  1  0.00066137  0.83730774  0.35568918  1
  La3+  La62  1  -0.00124712  0.82149101  0.13401661  1
  La3+  La63  1  0.50123274  0.83660011  0.12244274  1
  La3+  La64  1  0.49945702  0.83018777  0.62597710  1
  La3+  La65  1  0.49844156  0.49673607  0.62342745  1
  La3+  La66  1  0.49914176  0.15939319  0.62686420  1
  La3+  La67  1  -0.00086424  0.17184602  0.88203327  1
  La3+  La68  1  0.00488772  0.84281971  0.86752337  1
  La3+  La69  1  0.50213873  0.17522739  0.38190221  1
  La3+  La70  1  0.00236723  0.15732994  0.59929327  1
  La3+  La71  1  0.50226331  0.16491012  0.13455242  1
  La3+  La72  1  0.74875060  0.45297925  0.00622997  1
  La3+  La73  1  0.75062721  0.12611600  0.50039602  1
  La3+  La74  1  0.25000630  0.83970411  0.79305784  1
  La3+  La75  1  0.75026143  0.55283405  0.75079822  1
  La3+  La76  1  0.24945130  0.17261356  0.54751661  1
  La3+  La77  1  0.24998202  0.46946144  0.75576364  1
  La3+  La78  1  0.75022236  0.82848010  -0.00257018  1
  La3+  La79  1  0.25027426  0.86831422  0.44564475  1
  La3+  La80  1  0.74962719  0.88420502  0.74333115  1
  La3+  La81  1  0.74917068  0.83868851  0.50398665  1
  La3+  La82  1  0.24979744  0.84035139  0.01287643  1
  La3+  La83  1  0.75108064  0.16293967  -0.02535692  1
  Ru4+  Ru84  1  -0.00484851  -0.00477813  -0.00840036  1
  Ru4+  Ru85  1  -0.00941989  0.00538770  0.24832421  1
  Ru4+  Ru86  1  0.00329044  -0.01027829  0.50848038  1
  Ru4+  Ru87  1  0.00033046  -0.00205059  0.75913416  1
  Ru4+  Ru88  1  -0.00036038  0.32982560  -0.00126310  1
  Ru4+  Ru89  1  -0.00231473  0.31752666  0.24477070  1
  Ru4+  Ru90  1  -0.00180802  0.32761957  0.51524153  1
  Ru4+  Ru91  1  -0.00338860  0.33123690  0.75050386  1
  Ru4+  Ru92  1  -0.00679381  0.67111843  -0.00887371  1
  Ru4+  Ru93  1  0.00902200  0.66590710  0.25293862  1
  Ru4+  Ru94  1  -0.00583380  0.65835986  0.49990489  1
  Ru4+  Ru95  1  0.00077483  0.66111035  0.74989069  1
  Ru4+  Ru96  1  0.50416494  0.00340778  0.00500726  1
  Ru4+  Ru97  1  0.49852415  -0.01307829  0.25810521  1
  Ru4+  Ru98  1  0.50106834  -0.00767109  0.48893299  1
  Ru4+  Ru99  1  0.50015331  0.00092836  0.74810120  1
  Ru4+  Ru100  1  0.49838359  0.33181226  0.00212122  1
  Ru4+  Ru101  1  0.49233402  0.33573878  0.24876656  1
  Ru4+  Ru102  1  0.49344805  0.34116384  0.50423135  1
  Ru4+  Ru103  1  0.49945346  0.33435165  0.75049044  1
  Ru4+  Ru104  1  0.49348931  0.66699433  -0.00389757  1
  Ru4+  Ru105  1  0.49852966  0.66602440  0.24730872  1
  Ru4+  Ru106  1  0.49492785  0.67560862  0.49940125  1
  Ru4+  Ru107  1  0.50494302  0.65757715  0.75742452  1
  Ru4+  Ru108  1  0.11444547  0.17059831  -0.00132143  1
  Ru4+  Ru109  1  0.11446256  0.17415103  0.25286500  1
  Ru4+  Ru110  1  0.11126362  0.16546216  0.49982905  1
  Ru4+  Ru111  1  0.11399214  0.17014920  0.75083511  1
  Ru4+  Ru112  1  0.11814614  0.50851091  -0.00130263  1
  Ru4+  Ru113  1  0.10924485  0.50301638  0.25261195  1
  Ru4+  Ru114  1  0.11451379  0.50043102  0.50151336  1
  Ru4+  Ru115  1  0.10782339  0.49996967  0.74740888  1
  Ru4+  Ru116  1  0.11179435  0.83503630  -0.00109710  1
  Ru4+  Ru117  1  0.11618061  0.82417702  0.24498398  1
  Ru4+  Ru118  1  0.10982162  0.83117769  0.50431493  1
  Ru4+  Ru119  1  0.10966549  0.83428054  0.75037254  1
  Ru4+  Ru120  1  0.60906055  0.15954403  -0.00203111  1
  Ru4+  Ru121  1  0.61975378  0.16489851  0.24860686  1
  Ru4+  Ru122  1  0.61330594  0.16748654  0.50419289  1
  Ru4+  Ru123  1  0.60964758  0.16479831  0.75037359  1
  Ru4+  Ru124  1  0.60950962  0.50325099  0.00313475  1
  Ru4+  Ru125  1  0.61825926  0.50507179  0.24675271  1
  Ru4+  Ru126  1  0.61844385  0.49680879  0.49898794  1
  Ru4+  Ru127  1  0.60744277  0.50459219  0.74735081  1
  Ru4+  Ru128  1  0.61647557  0.84043444  -0.00127130  1
  Ru4+  Ru129  1  0.61468408  0.82752773  0.25111642  1
  Ru4+  Ru130  1  0.61084425  0.83205053  0.50057327  1
  Ru4+  Ru131  1  0.61056459  0.82993549  0.74853445  1
  Ru4+  Ru132  1  0.38484355  0.16928387  -0.00180845  1
  Ru4+  Ru133  1  0.38044485  0.16981439  0.24584075  1
  Ru4+  Ru134  1  0.38501248  0.16878557  0.50278632  1
  Ru4+  Ru135  1  0.38601387  0.16784669  0.75052028  1
  Ru4+  Ru136  1  0.38684477  0.50046572  0.00096957  1
  Ru4+  Ru137  1  0.38560834  0.49685518  0.24890366  1
  Ru4+  Ru138  1  0.38245160  0.49738139  0.50415259  1
  Ru4+  Ru139  1  0.39359174  0.49962153  0.74977924  1
  Ru4+  Ru140  1  0.38722441  0.82999907  0.00362849  1
  Ru4+  Ru141  1  0.39147627  0.83843010  0.24863802  1
  Ru4+  Ru142  1  0.39171301  0.83473245  0.49984866  1
  Ru4+  Ru143  1  0.38841931  0.83064790  0.75029713  1
  Ru4+  Ru144  1  0.89061519  0.16373398  0.00009818  1
  Ru4+  Ru145  1  0.89183716  0.17791643  0.25174266  1
  Ru4+  Ru146  1  0.88621661  0.17741293  0.49553736  1
  Ru4+  Ru147  1  0.88861651  0.16981133  0.75538380  1
  Ru4+  Ru148  1  0.89218442  0.50623431  -0.00355922  1
  Ru4+  Ru149  1  0.88407498  0.50039049  0.24848730  1
  Ru4+  Ru150  1  0.88859142  0.51028011  0.49766725  1
  Ru4+  Ru151  1  0.89095676  0.50157864  0.75190687  1
  Ru4+  Ru152  1  0.89347548  0.83259639  0.00205036  1
  Ru4+  Ru153  1  0.88573186  0.83195250  0.24878206  1
  Ru4+  Ru154  1  0.88749039  0.82873971  0.50677244  1
  Ru4+  Ru155  1  0.88907410  0.83513030  0.75000126  1
  Ru4+  Ru156  1  0.74851906  0.28918324  0.04204044  1
  Ru4+  Ru157  1  0.74925587  0.59901794  -0.00492587  1
  Ru4+  Ru158  1  0.24981763  0.42175208  -0.00015907  1
  Ru4+  Ru159  1  0.24986440  0.07486153  0.23565140  1
  Ru4+  Ru160  1  0.75020463  0.09043332  0.74818650  1
  Ru4+  Ru161  1  0.25037474  0.72568577  0.50550517  1
  Ru4+  Ru162  1  0.25138155  0.75609380  0.25086921  1
  Ru4+  Ru163  1  0.24973301  0.25925157  0.24211255  1
  Ru4+  Ru164  1  0.25029618  0.30487956  0.48875230  1
  Ru4+  Ru165  1  0.74985148  0.73272952  0.75629254  1
  Ru4+  Ru166  1  0.74938721  0.40946261  0.73220194  1
  Ru4+  Ru167  1  0.75082624  0.08242129  0.25151985  1
  Ru4+  Ru168  1  0.24988208  0.61252809  0.75428410  1
  Ru4+  Ru169  1  0.75020595  0.91379117  0.22811283  1
  Ru4+  Ru170  1  0.25016649  0.04899582  0.46660549  1
  Ru4+  Ru171  1  0.24925955  0.08712647  0.75409688  1
  Ru4+  Ru172  1  0.25018534  0.57954842  0.25017978  1
  Ru4+  Ru173  1  0.24966581  0.08999833  0.00739782  1
  Ru4+  Ru174  1  0.75079121  0.42336003  0.50139314  1
  Ru4+  Ru175  1  0.24950753  0.41342123  0.24524056  1
  Ru4+  Ru176  1  0.24991714  0.91837824  0.25014956  1
  Ru4+  Ru177  1  0.75036760  0.01903405  -0.01013618  1
  Ru4+  Ru178  1  0.74950982  0.28719207  0.49027021  1
  Ru4+  Ru179  1  0.74981480  0.23256545  0.73937329  1
  O2-  O180  1  0.16404298  0.08006091  0.00133809  1
  O2-  O181  1  0.16655682  0.07948285  0.24795151  1
  O2-  O182  1  0.16793848  0.07828580  0.49622410  1
  O2-  O183  1  0.16344786  0.08024567  0.74944253  1
  O2-  O184  1  0.16667183  0.41472758  0.00084367  1
  O2-  O185  1  0.16636656  0.41430985  0.24998292  1
  O2-  O186  1  0.16556141  0.41436001  0.50117574  1
  O2-  O187  1  0.16547895  0.41039010  0.75056963  1
  O2-  O188  1  0.17034902  0.74710956  -0.00340175  1
  O2-  O189  1  0.17079620  0.74634456  0.24970379  1
  O2-  O190  1  0.17025782  0.74435633  0.50029837  1
  O2-  O191  1  0.16580412  0.74737251  0.75492209  1
  O2-  O192  1  0.66896014  0.07720641  -0.00272542  1
  O2-  O193  1  0.66745246  0.07790293  0.24877039  1
  O2-  O194  1  0.66357524  0.08081967  0.49902976  1
  O2-  O195  1  0.66964057  0.08349594  0.75313894  1
  O2-  O196  1  0.65634902  0.40832905  0.00304524  1
  O2-  O197  1  0.66291333  0.41332859  0.24870997  1
  O2-  O198  1  0.66888347  0.41411462  0.50110912  1
  O2-  O199  1  0.66368739  0.41379825  0.74945985  1
  O2-  O200  1  0.66488617  0.74856498  0.00151188  1
  O2-  O201  1  0.66521796  0.74883752  0.25314410  1
  O2-  O202  1  0.66306564  0.74603222  0.49815097  1
  O2-  O203  1  0.66608455  0.74680784  0.75095277  1
  O2-  O204  1  0.33556700  0.25368091  -0.00324308  1
  O2-  O205  1  0.33136981  0.25504775  0.25133065  1
  O2-  O206  1  0.32860496  0.25680355  0.49994423  1
  O2-  O207  1  0.33588738  0.25416133  0.75289436  1
  O2-  O208  1  0.33643299  0.58473340  -0.00061588  1
  O2-  O209  1  0.33381535  0.58546021  0.25377173  1
  O2-  O210  1  0.32990150  0.58077020  0.49748765  1
  O2-  O211  1  0.33238875  0.58627349  0.75222625  1
  O2-  O212  1  0.33193192  0.91724887  -0.00288095  1
  O2-  O213  1  0.33100858  0.91887490  0.25129428  1
  O2-  O214  1  0.33593908  0.91824136  0.49861237  1
  O2-  O215  1  0.33355667  0.91868627  0.75352984  1
  O2-  O216  1  0.83408354  0.25416925  0.00043568  1
  O2-  O217  1  0.83084307  0.24562733  0.25566061  1
  O2-  O218  1  0.82889505  0.25523908  0.49973791  1
  O2-  O219  1  0.83112220  0.24985047  0.74680088  1
  O2-  O220  1  0.83168349  0.58521948  0.00102024  1
  O2-  O221  1  0.83613629  0.58237882  0.25264345  1
  O2-  O222  1  0.83110749  0.58030128  0.50274892  1
  O2-  O223  1  0.83998702  0.58816545  0.75008006  1
  O2-  O224  1  0.83023860  0.91821764  0.00170497  1
  O2-  O225  1  0.83473061  0.92206937  0.24774557  1
  O2-  O226  1  0.83552014  0.91604820  0.49996364  1
  O2-  O227  1  0.83772579  0.92399373  0.75121571  1
  O2-  O228  1  0.16626109  0.25269269  -0.00368666  1
  O2-  O229  1  0.17007491  0.25196932  0.24829084  1
  O2-  O230  1  0.16668376  0.25604538  0.49828569  1
  O2-  O231  1  0.16753071  0.25409040  0.74943519  1
  O2-  O232  1  0.17024051  0.58623936  -0.00026904  1
  O2-  O233  1  0.16835778  0.58419439  0.24744699  1
  O2-  O234  1  0.16546914  0.58400808  0.50305982  1
  O2-  O235  1  0.16741144  0.58667691  0.75299828  1
  O2-  O236  1  0.16537470  0.91837951  0.00142062  1
  O2-  O237  1  0.16533801  0.91855332  0.25222137  1
  O2-  O238  1  0.16255372  0.91988229  0.49672389  1
  O2-  O239  1  0.16467571  0.91790519  0.75215668  1
  O2-  O240  1  0.66430912  0.25428067  0.00296236  1
  O2-  O241  1  0.66613382  0.25334669  0.24720387  1
  O2-  O242  1  0.66788294  0.25592848  0.50056122  1
  O2-  O243  1  0.66603719  0.24837112  0.74737718  1
  O2-  O244  1  0.66508940  0.58589932  0.00049782  1
  O2-  O245  1  0.67059750  0.58503360  0.25289477  1
  O2-  O246  1  0.66645733  0.58392843  0.49889289  1
  O2-  O247  1  0.66119552  0.59061171  0.75020771  1
  O2-  O248  1  0.66826015  0.92356123  -0.00315795  1
  O2-  O249  1  0.66430028  0.91910698  0.24883290  1
  O2-  O250  1  0.66181857  0.91786811  0.49863622  1
  O2-  O251  1  0.66000904  0.92454935  0.75218155  1
  O2-  O252  1  0.33468412  0.07999447  -0.00138410  1
  O2-  O253  1  0.33122004  0.08070013  0.24876464  1
  O2-  O254  1  0.33310242  0.07736481  0.50000550  1
  O2-  O255  1  0.33313175  0.08090430  0.75169296  1
  O2-  O256  1  0.33103538  0.41375883  -0.00156421  1
  O2-  O257  1  0.33143053  0.41231748  0.25074416  1
  O2-  O258  1  0.32860463  0.41490461  0.49676668  1
  O2-  O259  1  0.33434143  0.41026403  0.75061453  1
  O2-  O260  1  0.32500293  0.75082591  -0.00467325  1
  O2-  O261  1  0.33549996  0.74986973  0.25253656  1
  O2-  O262  1  0.33325098  0.74542888  0.49807200  1
  O2-  O263  1  0.33291410  0.74857634  0.75587318  1
  O2-  O264  1  0.83409027  0.07852205  -0.00023827  1
  O2-  O265  1  0.83450390  0.08267660  0.24939413  1
  O2-  O266  1  0.83766992  0.08308243  0.49992522  1
  O2-  O267  1  0.83485096  0.08497542  0.74868829  1
  O2-  O268  1  0.84257483  0.41647022  -0.00161608  1
  O2-  O269  1  0.83679224  0.41658732  0.25215606  1
  O2-  O270  1  0.83418990  0.41743737  0.49983553  1
  O2-  O271  1  0.83272679  0.41499388  0.74692780  1
  O2-  O272  1  0.83505898  0.75248907  -0.00156833  1
  O2-  O273  1  0.83763670  0.75023899  0.24944374  1
  O2-  O274  1  0.83129556  0.74853957  0.49845723  1
  O2-  O275  1  0.83360835  0.74769693  0.74977630  1
  O2-  O276  1  0.55231646  0.09009321  0.25460637  1
  O2-  O277  1  0.55208857  0.23773123  0.25960847  1
  O2-  O278  1  0.95525119  0.76494210  0.76031119  1
  O2-  O279  1  0.95045886  0.42210081  0.97832261  1
  O2-  O280  1  0.54919477  0.90282927  0.74142640  1
  O2-  O281  1  0.45290677  0.23207913  0.75842195  1
  O2-  O282  1  0.96086530  0.77580636  0.46949810  1
  O2-  O283  1  0.96588657  0.21265128  0.27661235  1
  O2-  O284  1  0.94949394  0.56856250  0.23325927  1
  O2-  O285  1  0.44736317  0.57081853  0.24266017  1
  O2-  O286  1  0.96302450  0.55179161  0.54013503  1
  O2-  O287  1  0.45176484  0.90092451  0.73981153  1
  O2-  O288  1  0.04641958  0.23359127  0.48514449  1
  O2-  O289  1  0.54630458  0.24380178  0.51816336  1
  O2-  O290  1  0.44787821  0.24021204  0.25239425  1
  O2-  O291  1  0.95406839  0.77097443  0.94652644  1
  O2-  O292  1  0.46199707  0.80428108  -0.01432658  1
  O2-  O293  1  0.45488157  0.76969438  0.49049118  1
  O2-  O294  1  0.46687739  0.43917995  0.45716207  1
  O2-  O295  1  0.04479342  0.08940833  0.26635230  1
  O2-  O296  1  0.54951443  0.09501589  0.49370059  1
  O2-  O297  1  0.05439711  0.91315022  0.26943702  1
  O2-  O298  1  0.45104494  0.23439251  0.01866855  1
  O2-  O299  1  0.96401958  0.56311504  0.04446666  1
  O2-  O300  1  0.05725394  0.09621367  0.23295992  1
  O2-  O301  1  0.44752140  0.09752586  0.23638904  1
  O2-  O302  1  0.55448010  0.57004188  0.27174272  1
  O2-  O303  1  0.04496020  0.90507144  0.23415165  1
  O2-  O304  1  0.55134731  0.75311527  0.02077166  1
  O2-  O305  1  0.45217985  0.76561674  0.23647048  1
  O2-  O306  1  0.55246506  0.42761804  0.22972670  1
  O2-  O307  1  0.95470006  0.23363764  0.00730491  1
  O2-  O308  1  0.96978889  0.21414048  0.26860124  1
  O2-  O309  1  0.54956932  0.42322322  0.26845826  1
  O2-  O310  1  0.54483866  0.43045754  0.98626853  1
  O2-  O311  1  0.55313295  0.57694504  0.47819143  1
  O2-  O312  1  0.55164085  0.57460491  0.51730179  1
  O2-  O313  1  0.55053530  0.23931279  0.01174453  1
  O2-  O314  1  0.05351546  0.43677968  0.99039960  1
  O2-  O315  1  0.96320956  0.21349320  0.72004689  1
  O2-  O316  1  0.53330652  0.11249710  0.78289017  1
  O2-  O317  1  0.55474037  0.77064604  0.98677513  1
  O2-  O318  1  0.45011143  0.10089368  0.49784848  1
  O2-  O319  1  0.94874591  0.09763732  0.50623045  1
  O2-  O320  1  0.54358875  0.56849148  0.24854015  1
  O2-  O321  1  0.05064231  0.76485605  0.99107140  1
  O2-  O322  1  0.96801207  0.89192502  0.03757212  1
  O2-  O323  1  0.45814054  0.55653310  0.49990705  1
  O2-  O324  1  0.93639898  0.92418853  0.72370719  1
  O2-  O325  1  0.91389428  0.29639709  0.20200154  1
  O2-  O326  1  0.06696096  0.75184158  0.57227463  1
  O2-  O327  1  0.06189728  0.26054270  0.03594790  1
  O2-  O328  1  0.92727774  0.26955855  0.82169245  1
  O2-  O329  1  0.07235130  0.75123681  0.43896567  1
  O2-  O330  1  0.91974499  0.93485002  0.94650339  1
  O2-  O331  1  0.06376071  0.40496572  0.98108962  1
  O2-  O332  1  0.56026104  0.06670634  0.92687135  1
  O2-  O333  1  0.06327313  0.25661195  0.77397192  1
  O2-  O334  1  0.92574799  0.61306384  0.43451705  1
  O2-  O335  1  0.43892286  0.93720713  0.02641100  1
  O2-  O336  1  0.43467009  0.07290701  0.72498172  1
  O2-  O337  1  0.94073907  0.60067390  0.22241411  1
  O2-  O338  1  0.93828989  0.92389853  0.52503608  1
  O2-  O339  1  0.06543938  0.58531088  0.17344032  1
  O2-  O340  1  0.56116055  0.59516097  0.67249761  1
  O2-  O341  1  0.06962473  0.58041465  0.31345863  1
  O2-  O342  1  0.43686815  0.40667709  0.03131806  1
  O2-  O343  1  0.56145674  0.26026925  0.28634644  1
  O2-  O344  1  0.58273357  0.06426123  0.69291424  1
  O2-  O345  1  0.92874823  0.60849452  0.93392815  1
  O2-  O346  1  0.43544540  0.07157737  0.21653096  1
  O2-  O347  1  0.56946601  0.60022842  0.21965871  1
  O2-  O348  1  0.92842982  0.72573974  0.57628455  1
  O2-  O349  1  0.56737092  0.08426681  0.06784645  1
  O2-  O350  1  0.43306464  0.91372772  0.31098656  1
  O2-  O351  1  0.43452692  0.92422447  0.17887363  1
  O2-  O352  1  0.41713544  0.70846650  0.03385098  1
  O2-  O353  1  0.93994338  0.41394788  0.78112497  1
  O2-  O354  1  0.06859633  0.26492665  0.28417241  1
  O2-  O355  1  0.93134156  0.06613121  0.28335721  1
  O2-  O356  1  0.05982195  0.40995061  0.27826169  1
  O2-  O357  1  0.06434899  0.73641494  0.17201335  1
  O2-  O358  1  0.43523768  0.40582067  0.21391388  1
  O2-  O359  1  0.06553988  0.06679578  0.53078689  1
  O2-  O360  1  0.06706168  0.74689582  0.30707920  1
  O2-  O361  1  0.93915130  0.59309285  0.77831010  1
  O2-  O362  1  0.93777433  0.07831516  0.53486969  1
  O2-  O363  1  0.56551975  0.57540695  0.81544955  1
  O2-  O364  1  0.42147389  0.40105450  0.55866200  1
  O2-  O365  1  0.93597464  0.26763640  0.46585333  1
  O2-  O366  1  0.56013365  0.74464177  0.21617860  1
  O2-  O367  1  0.93208687  0.72229563  0.07156174  1
  O2-  O368  1  0.42066265  0.61617428  0.53369087  1
  O2-  O369  1  0.56507885  0.26644919  0.78490278  1
  O2-  O370  1  0.06334814  0.59270114  0.97478243  1
  O2-  O371  1  0.43229986  0.25938838  0.47563024  1
  O2-  O372  1  0.75003767  0.00531354  0.67103665  1
  O2-  O373  1  0.75045896  -0.00783358  0.31912450  1
  O2-  O374  1  0.74954237  0.33884513  0.93320420  1
  O2-  O375  1  0.74912037  0.66491975  0.65388600  1
  O2-  O376  1  0.24979407  -0.00369668  0.68947455  1
  O2-  O377  1  0.74969856  0.66996195  0.89560470  1
  O2-  O378  1  0.25005155  0.66741415  0.64746698  1
  O2-  O379  1  0.74960920  0.33166165  0.36961035  1
  O2-  O380  1  0.74934685  0.32318198  0.80995311  1
  O2-  O381  1  0.24991250  -0.00449822  0.92415474  1
  O2-  O382  1  0.74998785  0.00203992  0.43589580  1
  O2-  O383  1  0.24888635  0.00143654  0.10025834  1
  O2-  O384  1  0.24977085  -0.00757766  0.83019235  1
  O2-  O385  1  0.25064227  0.66959352  0.34671140  1
  O2-  O386  1  0.25000053  -0.01095544  0.56605997  1
  O2-  O387  1  0.74936711  0.66790277  0.41975379  1
  O2-  O388  1  0.74953336  0.68115668  0.08283890  1
  O2-  O389  1  0.24989145  0.34131510  0.10164120  1
  O2-  O390  1  0.74987311  0.00135196  0.57732639  1
  O2-  O391  1  0.25032204  0.66789633  0.15689776  1
  O2-  O392  1  0.74912899  0.66324926  0.17056810  1
  O2-  O393  1  0.74874656  0.31614042  0.64589001  1
  O2-  O394  1  0.74867336  0.66709625  0.33306703  1
  O2-  O395  1  0.75026372  -0.00127743  0.11308326  1
  O2-  O396  1  0.24982515  0.16827167  0.92135098  1
  O2-  O397  1  0.25002623  0.49143400  0.90687114  1
  O2-  O398  1  0.74987062  0.16617001  0.83876658  1
  O2-  O399  1  0.24992528  0.83410838  0.66319593  1
  O2-  O400  1  0.25021299  0.17080701  0.68115941  1
  O2-  O401  1  0.74993098  0.50989130  0.88260460  1
  O2-  O402  1  0.75000395  0.81163975  0.63376385  1
  O2-  O403  1  0.24973276  0.83373526  0.15527038  1
  O2-  O404  1  0.25010608  0.16027635  0.09569586  1
  O2-  O405  1  0.25016619  0.15937290  0.40053406  1
  O2-  O406  1  0.74990859  0.84291323  0.13660222  1
  O2-  O407  1  0.25041972  0.49893884  0.15849497  1
  O2-  O408  1  0.75055132  0.49892872  0.19907013  1
  O2-  O409  1  0.24971073  0.49587266  0.33812834  1
  O2-  O410  1  0.24988392  0.17121352  0.83471430  1
  O2-  O411  1  0.75034335  0.83661091  0.37429541  1
  O2-  O412  1  0.25000389  0.16446203  0.31242611  1
  O2-  O413  1  0.74994292  0.82070877  0.28974952  1
  O2-  O414  1  0.74943810  0.17889759  0.20224749  1
  O2-  O415  1  0.75028349  0.52157756  0.11420914  1
  O2-  O416  1  0.74979366  0.47844835  0.62308911  1
  O2-  O417  1  0.74998536  0.81467222  0.85817043  1
  O2-  O418  1  0.74959362  0.17670221  0.11364375  1
  O2-  O419  1  0.25000092  0.82028429  0.57648350  1
  O2-  O420  1  0.46835341  -0.00567990  0.61191420  1
  O2-  O421  1  0.04827764  -0.00043165  0.87676126  1
  O2-  O422  1  0.47617576  0.33596274  0.37161836  1
  O2-  O423  1  0.04772601  0.33878026  0.62281743  1
  O2-  O424  1  0.98600609  0.00865934  0.63650604  1
  O2-  O425  1  0.48165082  0.32487240  0.63258681  1
  O2-  O426  1  0.02690418  0.67180719  0.86543116  1
  O2-  O427  1  0.97106078  0.00796140  0.12351498  1
  O2-  O428  1  0.02222514  0.33234818  0.87568402  1
  O2-  O429  1  0.45190909  0.66499782  0.86956005  1
  O2-  O430  1  0.95868732  0.02113651  0.86092421  1
  O2-  O431  1  0.02202065  0.65308254  0.63480556  1
  O2-  O432  1  0.45881058  0.01282902  0.38305161  1
  O2-  O433  1  0.47820341  0.67909571  0.63625749  1
  O2-  O434  1  0.98251531  0.34799519  0.12110086  1
  O2-  O435  1  0.52844105  -0.01261685  0.61042471  1
  O2-  O436  1  0.01168663  0.65735016  0.38465168  1
  O2-  O437  1  0.47191554  0.33916382  0.87483694  1
  O2-  O438  1  0.47404854  0.66280461  0.37379724  1
  O2-  O439  1  0.48159015  0.65589793  0.12396215  1
  O2-  O440  1  0.53993580  0.67648740  0.88623202  1
  O2-  O441  1  0.52573188  -0.01749872  0.13546593  1
  O2-  O442  1  0.95352072  0.34016061  0.62351610  1
  O2-  O443  1  0.54793548  -0.01018256  0.37755429  1
