# generated using pymatgen
data_La7(Ru4O11)2
_symmetry_space_group_name_H-M   'P 1'
_cell_length_a   23.99392305
_cell_length_b   16.83534938
_cell_length_c   15.43364507
_cell_angle_alpha   90.00021723
_cell_angle_beta   90.00116840
_cell_angle_gamma   90.00076488
_symmetry_Int_Tables_number   1
_chemical_formula_structural   La7(Ru4O11)2
_chemical_formula_sum   'La84 Ru96 O264'
_cell_volume   6234.36038927
_cell_formula_units_Z   12
loop_
 _symmetry_equiv_pos_site_id
 _symmetry_equiv_pos_as_xyz
  1  'x, y, z'
loop_
 _atom_type_symbol
 _atom_type_oxidation_number
  La3+  3.0
  Ru4+  4.0
  O2-  -2.0
loop_
 _atom_site_type_symbol
 _atom_site_label
 _atom_site_symmetry_multiplicity
 _atom_site_fract_x
 _atom_site_fract_y
 _atom_site_fract_z
 _atom_site_occupancy
  La3+  La0  1  0.14663762  0.00749041  0.12518390  1
  La3+  La1  1  0.14003247  0.00910305  0.37039547  1
  La3+  La2  1  0.14255541  0.00125650  0.62305072  1
  La3+  La3  1  0.13627778  0.00337885  0.87150155  1
  La3+  La4  1  0.14701616  0.32990087  0.12495064  1
  La3+  La5  1  0.13906059  0.32892651  0.36854808  1
  La3+  La6  1  0.14596436  0.33618514  0.62466214  1
  La3+  La7  1  0.14018602  0.33830526  0.86960958  1
  La3+  La8  1  0.13651869  0.66427064  0.12213970  1
  La3+  La9  1  0.14092291  0.66317680  0.37567230  1
  La3+  La10  1  0.13355127  0.66103888  0.62818386  1
  La3+  La11  1  0.13744798  0.66529056  0.86709015  1
  La3+  La12  1  0.63767081  -0.00029726  0.12107524  1
  La3+  La13  1  0.64231144  0.00102604  0.38032319  1
  La3+  La14  1  0.64884254  -0.00111219  0.62851852  1
  La3+  La15  1  0.64854580  0.00783627  0.87815280  1
  La3+  La16  1  0.63328795  0.32949504  0.12396715  1
  La3+  La17  1  0.64890116  0.32955069  0.37462754  1
  La3+  La18  1  0.64783187  0.33207213  0.62031255  1
  La3+  La19  1  0.65842634  0.32792812  0.87970038  1
  La3+  La20  1  0.64589630  0.66270864  0.11972685  1
  La3+  La21  1  0.64805654  0.66590704  0.38447973  1
  La3+  La22  1  0.63223321  0.67005662  0.62056509  1
  La3+  La23  1  0.63539923  0.65709929  0.87872349  1
  La3+  La24  1  0.36050233  0.00719876  0.13192231  1
  La3+  La25  1  0.36633736  0.00009312  0.37081435  1
  La3+  La26  1  0.36479856  -0.00491037  0.62346324  1
  La3+  La27  1  0.36850894  -0.00153716  0.87506972  1
  La3+  La28  1  0.36168143  0.32812092  0.12956109  1
  La3+  La29  1  0.36079665  0.33367213  0.37027753  1
  La3+  La30  1  0.35585583  0.34915594  0.62812848  1
  La3+  La31  1  0.36616083  0.33507550  0.87259727  1
  La3+  La32  1  0.36345253  0.65830989  0.12458419  1
  La3+  La33  1  0.35734981  0.66426443  0.37324051  1
  La3+  La34  1  0.36452549  0.65900081  0.62223637  1
  La3+  La35  1  0.36575350  0.65509731  0.87126997  1
  La3+  La36  1  0.85786605  0.00523990  0.11987206  1
  La3+  La37  1  0.86135843  0.00043391  0.37368341  1
  La3+  La38  1  0.86270893  -0.00334684  0.63103555  1
  La3+  La39  1  0.85811184  0.00391141  0.87324076  1
  La3+  La40  1  0.84166824  0.34050473  0.12498745  1
  La3+  La41  1  0.85286543  0.33548699  0.38261218  1
  La3+  La42  1  0.85703896  0.33259765  0.62145503  1
  La3+  La43  1  0.85300787  0.33317058  0.88281607  1
  La3+  La44  1  0.85261356  0.66310742  0.11654365  1
  La3+  La45  1  0.84584844  0.66243374  0.38029474  1
  La3+  La46  1  0.86231712  0.67090521  0.62446609  1
  La3+  La47  1  0.86407690  0.66450734  0.88021388  1
  La3+  La48  1  -0.00207514  0.84003583  0.40798922  1
  La3+  La49  1  0.00298275  0.83132242  0.10619147  1
  La3+  La50  1  0.49746492  0.51682054  0.10956276  1
  La3+  La51  1  0.00845298  0.15706131  0.86246243  1
  La3+  La52  1  0.49818519  0.82938607  0.61872982  1
  La3+  La53  1  -0.00322443  0.49769271  0.11613012  1
  La3+  La54  1  0.00547165  0.83245766  0.12851109  1
  La3+  La55  1  0.50147226  0.49954049  0.87170365  1
  La3+  La56  1  0.50064141  0.49593146  0.38536715  1
  La3+  La57  1  0.50350969  0.16347332  0.35414313  1
  La3+  La58  1  0.50330441  0.82871727  0.86411998  1
  La3+  La59  1  0.49865913  0.17460151  0.37127126  1
  La3+  La60  1  0.48980635  0.82347745  0.12488676  1
  La3+  La61  1  -0.00300020  0.51822900  0.89153497  1
  La3+  La62  1  -0.00599401  0.83849720  0.39240416  1
  La3+  La63  1  0.49828851  0.83672254  0.88331754  1
  La3+  La64  1  0.49431646  0.52568825  0.12304051  1
  La3+  La65  1  0.50009002  0.17171828  0.61725080  1
  La3+  La66  1  -0.00646458  0.52313005  0.87681343  1
  La3+  La67  1  0.00631931  0.49437935  0.39013951  1
  La3+  La68  1  0.49428779  0.16592168  0.63673847  1
  La3+  La69  1  -0.00372079  0.50155069  0.13237322  1
  La3+  La70  1  0.50612748  0.16254219  0.87937195  1
  La3+  La71  1  -0.00554431  0.17144545  0.62291251  1
  La3+  La72  1  0.75047727  0.44197944  0.75018995  1
  La3+  La73  1  0.24744502  0.83797847  -0.03932969  1
  La3+  La74  1  0.75128119  0.16994197  0.28888465  1
  La3+  La75  1  0.75153148  0.17604846  0.70701425  1
  La3+  La76  1  0.25148340  0.75851565  0.22684549  1
  La3+  La77  1  0.74988660  0.48770771  0.54404063  1
  La3+  La78  1  0.75051635  0.51174020  0.19379380  1
  La3+  La79  1  0.25135207  0.12929836  0.00629022  1
  La3+  La80  1  0.25121451  0.12351995  0.48199095  1
  La3+  La81  1  0.75065595  0.79564359  0.78549703  1
  La3+  La82  1  0.24844744  0.82710395  0.48631128  1
  La3+  La83  1  0.24737633  0.20988172  0.74565657  1
  Ru4+  Ru84  1  -0.00757398  -0.00379806  -0.00736392  1
  Ru4+  Ru85  1  0.00503968  0.00557498  0.25642468  1
  Ru4+  Ru86  1  0.00236326  -0.00037924  0.50262020  1
  Ru4+  Ru87  1  -0.00466508  -0.01882924  0.73499206  1
  Ru4+  Ru88  1  0.00708727  0.32285929  -0.01314876  1
  Ru4+  Ru89  1  0.00737967  0.31507937  0.26222393  1
  Ru4+  Ru90  1  -0.00042475  0.33608686  0.51880111  1
  Ru4+  Ru91  1  0.00493329  0.33827274  0.75433495  1
  Ru4+  Ru92  1  0.00813239  0.67960159  -0.00195763  1
  Ru4+  Ru93  1  -0.00503318  0.66214057  0.25071877  1
  Ru4+  Ru94  1  0.00072860  0.66400115  0.50889779  1
  Ru4+  Ru95  1  -0.00617498  0.68158325  0.73420971  1
  Ru4+  Ru96  1  0.49838332  0.00418050  0.00253556  1
  Ru4+  Ru97  1  0.50155782  -0.01785461  0.24294043  1
  Ru4+  Ru98  1  0.50473585  -0.01817678  0.50020077  1
  Ru4+  Ru99  1  0.49975008  0.00817114  0.75281864  1
  Ru4+  Ru100  1  0.50157523  0.32538426  0.00029016  1
  Ru4+  Ru101  1  0.49754860  0.33906254  0.25655952  1
  Ru4+  Ru102  1  0.50689940  0.35348442  0.50537315  1
  Ru4+  Ru103  1  0.49180665  0.33487547  0.75100731  1
  Ru4+  Ru104  1  0.49683450  0.67580651  0.00474354  1
  Ru4+  Ru105  1  0.50371819  0.68082365  0.24746690  1
  Ru4+  Ru106  1  0.49766046  0.65551374  0.50399268  1
  Ru4+  Ru107  1  0.49975872  0.66258775  0.74222271  1
  Ru4+  Ru108  1  0.10410378  0.16309308  0.00307286  1
  Ru4+  Ru109  1  0.10373169  0.17597942  0.24646584  1
  Ru4+  Ru110  1  0.10327051  0.17430203  0.50244033  1
  Ru4+  Ru111  1  0.10579522  0.16634215  0.75152696  1
  Ru4+  Ru112  1  0.11192538  0.50684342  0.00103951  1
  Ru4+  Ru113  1  0.10976525  0.49621429  0.24994456  1
  Ru4+  Ru114  1  0.11250303  0.50318980  0.49813813  1
  Ru4+  Ru115  1  0.10950482  0.49221366  0.74341941  1
  Ru4+  Ru116  1  0.10468432  0.82989837  -0.00005186  1
  Ru4+  Ru117  1  0.10925013  0.83450975  0.24947221  1
  Ru4+  Ru118  1  0.10896175  0.83944939  0.50251725  1
  Ru4+  Ru119  1  0.09835214  0.83981887  0.75104571  1
  Ru4+  Ru120  1  0.60908053  0.17614150  -0.00042742  1
  Ru4+  Ru121  1  0.61592941  0.15953560  0.24493161  1
  Ru4+  Ru122  1  0.61125136  0.16601143  0.50340156  1
  Ru4+  Ru123  1  0.61096248  0.16203174  0.74970635  1
  Ru4+  Ru124  1  0.62394682  0.49575384  0.00057611  1
  Ru4+  Ru125  1  0.61519821  0.49235548  0.26228119  1
  Ru4+  Ru126  1  0.60363451  0.49258117  0.50108755  1
  Ru4+  Ru127  1  0.60883305  0.50306317  0.75574143  1
  Ru4+  Ru128  1  0.61587607  0.83215672  0.00142652  1
  Ru4+  Ru129  1  0.60688530  0.84101338  0.25713831  1
  Ru4+  Ru130  1  0.60399062  0.83639029  0.50187023  1
  Ru4+  Ru131  1  0.61324037  0.83101104  0.74743773  1
  Ru4+  Ru132  1  0.39497597  0.17183813  0.00342776  1
  Ru4+  Ru133  1  0.38269910  0.16889677  0.24492207  1
  Ru4+  Ru134  1  0.39120201  0.17227800  0.49997218  1
  Ru4+  Ru135  1  0.38855845  0.16987027  0.74591074  1
  Ru4+  Ru136  1  0.38091712  0.48944249  -0.00267658  1
  Ru4+  Ru137  1  0.38511181  0.49624130  0.25099374  1
  Ru4+  Ru138  1  0.39335346  0.51521714  0.50019127  1
  Ru4+  Ru139  1  0.38692970  0.50145916  0.74761399  1
  Ru4+  Ru140  1  0.38686728  0.82691220  -0.00188886  1
  Ru4+  Ru141  1  0.39549967  0.84073827  0.25525321  1
  Ru4+  Ru142  1  0.38944668  0.83116660  0.50508393  1
  Ru4+  Ru143  1  0.38559650  0.82559268  0.74998058  1
  Ru4+  Ru144  1  0.89023241  0.18384813  0.00667447  1
  Ru4+  Ru145  1  0.89123460  0.16695133  0.24940621  1
  Ru4+  Ru146  1  0.89161074  0.17477638  0.49459125  1
  Ru4+  Ru147  1  0.88759902  0.16598658  0.74928366  1
  Ru4+  Ru148  1  0.88242997  0.49124782  0.00416021  1
  Ru4+  Ru149  1  0.89181814  0.50032400  0.24992925  1
  Ru4+  Ru150  1  0.89389090  0.50159673  0.50201836  1
  Ru4+  Ru151  1  0.89122183  0.50235329  0.75047744  1
  Ru4+  Ru152  1  0.89052551  0.83729128  -0.00197413  1
  Ru4+  Ru153  1  0.88593064  0.83250847  0.25311879  1
  Ru4+  Ru154  1  0.88857616  0.83264184  0.49688304  1
  Ru4+  Ru155  1  0.89842774  0.82146546  0.75075012  1
  Ru4+  Ru156  1  0.24875603  0.56913950  0.26384765  1
  Ru4+  Ru157  1  0.75031708  0.91586456  0.00011727  1
  Ru4+  Ru158  1  0.24842672  0.73203041  0.75661058  1
  Ru4+  Ru159  1  0.75074987  0.94123165  0.75492862  1
  Ru4+  Ru160  1  0.25006351  0.69993732  0.00006958  1
  Ru4+  Ru161  1  0.25197433  0.97026739  0.51299141  1
  Ru4+  Ru162  1  0.24757141  0.43114792  -0.01351648  1
  Ru4+  Ru163  1  0.74962038  0.90382126  0.26997484  1
  Ru4+  Ru164  1  0.25090594  0.97307207  -0.03594411  1
  Ru4+  Ru165  1  0.25041180  0.92640866  0.76027139  1
  Ru4+  Ru166  1  0.74801658  0.29899325  0.22070950  1
  Ru4+  Ru167  1  0.75186850  0.08237305  0.50299144  1
  Ru4+  Ru168  1  0.25126451  0.06634486  0.76812481  1
  Ru4+  Ru169  1  0.25008544  0.26167135  -0.01951984  1
  Ru4+  Ru170  1  0.75092836  0.59958982  0.76775786  1
  Ru4+  Ru171  1  0.25024931  0.43560007  0.49930662  1
  Ru4+  Ru172  1  0.24984102  0.67500608  0.49078831  1
  Ru4+  Ru173  1  0.25026590  0.56290783  0.00441055  1
  Ru4+  Ru174  1  0.24918221  0.42648675  0.25898507  1
  Ru4+  Ru175  1  0.75140831  0.91730219  0.49414722  1
  Ru4+  Ru176  1  0.74908284  0.03209917  0.21505995  1
  Ru4+  Ru177  1  0.25134969  0.26033089  0.52040387  1
  Ru4+  Ru178  1  0.25014328  0.95010468  0.25893457  1
  Ru4+  Ru179  1  0.74886616  0.74412711  0.26449174  1
  O2-  O180  1  0.16240695  0.08281069  -0.00382305  1
  O2-  O181  1  0.15735452  0.09139840  0.25118831  1
  O2-  O182  1  0.15862224  0.08671159  0.49796740  1
  O2-  O183  1  0.16859173  0.08497623  0.75081996  1
  O2-  O184  1  0.16621419  0.41693575  -0.00326840  1
  O2-  O185  1  0.16685470  0.41976954  0.24881213  1
  O2-  O186  1  0.16518672  0.41799513  0.49681563  1
  O2-  O187  1  0.16896670  0.41899608  0.75560437  1
  O2-  O188  1  0.16295339  0.73933875  -0.00444107  1
  O2-  O189  1  0.15705345  0.74454455  0.24672618  1
  O2-  O190  1  0.16379053  0.74374241  0.50176936  1
  O2-  O191  1  0.16205584  0.74605363  0.74931868  1
  O2-  O192  1  0.65827832  0.08339263  0.00294983  1
  O2-  O193  1  0.66848163  0.07359662  0.24592544  1
  O2-  O194  1  0.66928698  0.08003009  0.50451843  1
  O2-  O195  1  0.66932243  0.08384338  0.75066515  1
  O2-  O196  1  0.66505841  0.40701758  0.00442029  1
  O2-  O197  1  0.67067751  0.41598828  0.24076102  1
  O2-  O198  1  0.66637963  0.42038947  0.50656332  1
  O2-  O199  1  0.65653610  0.41316767  0.74650516  1
  O2-  O200  1  0.66215783  0.74454083  -0.00691470  1
  O2-  O201  1  0.66315447  0.75037506  0.25304133  1
  O2-  O202  1  0.66066695  0.75456866  0.50663142  1
  O2-  O203  1  0.66561974  0.74187681  0.75099202  1
  O2-  O204  1  0.33251833  0.25405642  -0.00270165  1
  O2-  O205  1  0.33150089  0.24833096  0.25365536  1
  O2-  O206  1  0.33490321  0.25367073  0.50110116  1
  O2-  O207  1  0.33128128  0.25993834  0.75284847  1
  O2-  O208  1  0.33228714  0.58148000  -0.00091180  1
  O2-  O209  1  0.33052353  0.58253016  0.24788619  1
  O2-  O210  1  0.33104960  0.58731654  0.50391242  1
  O2-  O211  1  0.33257521  0.58523003  0.74843082  1
  O2-  O212  1  0.33409068  0.92422166  -0.00362044  1
  O2-  O213  1  0.33394548  0.92503547  0.25680655  1
  O2-  O214  1  0.33159808  0.92244101  0.49596464  1
  O2-  O215  1  0.33398345  0.92250726  0.75235185  1
  O2-  O216  1  0.82563625  0.24128846  -0.00870682  1
  O2-  O217  1  0.83489314  0.25318997  0.25573725  1
  O2-  O218  1  0.83219551  0.24520318  0.49856118  1
  O2-  O219  1  0.83262235  0.25156783  0.74389186  1
  O2-  O220  1  0.83804849  0.58304290  -0.00490595  1
  O2-  O221  1  0.83872587  0.58713140  0.24858505  1
  O2-  O222  1  0.83264599  0.58271376  0.50851711  1
  O2-  O223  1  0.83307439  0.58711673  0.74803877  1
  O2-  O224  1  0.83308504  0.92348266  0.00106124  1
  O2-  O225  1  0.83250777  0.91775707  0.25476761  1
  O2-  O226  1  0.83531362  0.92244582  0.49707473  1
  O2-  O227  1  0.83064020  0.91569810  0.75378081  1
  O2-  O228  1  0.16654724  0.25000716  -0.00508158  1
  O2-  O229  1  0.16936973  0.23951250  0.25405892  1
  O2-  O230  1  0.16940691  0.25141498  0.49844584  1
  O2-  O231  1  0.16218607  0.25626568  0.75204183  1
  O2-  O232  1  0.16863348  0.58460073  -0.00249290  1
  O2-  O233  1  0.16761763  0.58489557  0.24788972  1
  O2-  O234  1  0.16462273  0.58983596  0.50244515  1
  O2-  O235  1  0.15946111  0.58115258  0.74919335  1
  O2-  O236  1  0.16535127  0.92138423  -0.00284210  1
  O2-  O237  1  0.16392282  0.92379902  0.25222494  1
  O2-  O238  1  0.16956863  0.92471129  0.50171880  1
  O2-  O239  1  0.16785103  0.91992576  0.74998087  1
  O2-  O240  1  0.66802950  0.24954039  0.00637861  1
  O2-  O241  1  0.66814522  0.25470632  0.24442920  1
  O2-  O242  1  0.66113804  0.24863957  0.50492392  1
  O2-  O243  1  0.66891929  0.25110186  0.74315970  1
  O2-  O244  1  0.66593130  0.58559792  -0.00732463  1
  O2-  O245  1  0.66137673  0.58493468  0.24900568  1
  O2-  O246  1  0.66667827  0.58067997  0.51235403  1
  O2-  O247  1  0.66999042  0.58783176  0.74443433  1
  O2-  O248  1  0.66581144  0.92201861  -0.00063150  1
  O2-  O249  1  0.66726769  0.91722801  0.24873743  1
  O2-  O250  1  0.66844238  0.91393409  0.49598692  1
  O2-  O251  1  0.66854625  0.91923172  0.75571213  1
  O2-  O252  1  0.34173058  0.07980385  -0.00597904  1
  O2-  O253  1  0.33298529  0.08425276  0.25991997  1
  O2-  O254  1  0.33903307  0.07586569  0.50316436  1
  O2-  O255  1  0.33612492  0.08136817  0.75135793  1
  O2-  O256  1  0.32757265  0.41276692  -0.00238079  1
  O2-  O257  1  0.33142327  0.41703197  0.25306765  1
  O2-  O258  1  0.33783194  0.42075481  0.49609280  1
  O2-  O259  1  0.33611164  0.41682792  0.75425244  1
  O2-  O260  1  0.33549712  0.73771206  -0.00547837  1
  O2-  O261  1  0.34542840  0.74434378  0.24801815  1
  O2-  O262  1  0.33155034  0.74144373  0.50017126  1
  O2-  O263  1  0.33319862  0.74118494  0.74981187  1
  O2-  O264  1  0.84609238  0.08384037  -0.00057174  1
  O2-  O265  1  0.83575502  0.07778947  0.25125900  1
  O2-  O266  1  0.83776794  0.08103655  0.50023431  1
  O2-  O267  1  0.82666998  0.08327408  0.74157519  1
  O2-  O268  1  0.82768023  0.41351414  -0.00290208  1
  O2-  O269  1  0.83709365  0.41831317  0.25558342  1
  O2-  O270  1  0.83504471  0.41861011  0.50365453  1
  O2-  O271  1  0.84298775  0.41203682  0.74975701  1
  O2-  O272  1  0.84281229  0.74900174  -0.00553032  1
  O2-  O273  1  0.83322826  0.74710214  0.25147924  1
  O2-  O274  1  0.83827958  0.74866929  0.50397907  1
  O2-  O275  1  0.83595048  0.74332671  0.75008580  1
  O2-  O276  1  0.04424369  0.56763715  0.26079758  1
  O2-  O277  1  0.54641283  0.76430272  0.00425891  1
  O2-  O278  1  0.95969462  0.20259876  0.45068507  1
  O2-  O279  1  0.53672076  0.45519459  0.55332452  1
  O2-  O280  1  0.44549301  0.57703819  0.23034197  1
  O2-  O281  1  0.55059774  0.90160789  0.18702508  1
  O2-  O282  1  0.44791876  0.90395039  0.00271998  1
  O2-  O283  1  0.54803021  0.24034691  0.73566446  1
  O2-  O284  1  0.95455954  0.56691506  0.01006459  1
  O2-  O285  1  0.06341398  0.25087084  0.02179169  1
  O2-  O286  1  0.95905418  0.22499390  0.74533561  1
  O2-  O287  1  0.45458544  0.43407133  0.74270473  1
  O2-  O288  1  0.05111710  0.75253440  0.47991234  1
  O2-  O289  1  0.45677465  0.56721600  0.98897228  1
  O2-  O290  1  0.04483115  0.08285374  0.02324719  1
  O2-  O291  1  0.46573797  0.56922474  0.25268453  1
  O2-  O292  1  0.44419375  0.24745947  0.79242705  1
  O2-  O293  1  0.03454622  0.44405596  0.78621793  1
  O2-  O294  1  0.04668672  0.43450312  0.00593279  1
  O2-  O295  1  0.05683382  0.74921904  0.74520816  1
  O2-  O296  1  0.44547975  0.75575532  0.24875212  1
  O2-  O297  1  0.44478255  0.07886028  0.23957844  1
  O2-  O298  1  0.55458204  0.76144427  0.25642905  1
  O2-  O299  1  0.04913950  0.08784788  0.22905140  1
  O2-  O300  1  0.01667827  0.21126965  0.26104192  1
  O2-  O301  1  0.01588840  0.87403360  0.73368002  1
  O2-  O302  1  0.43810698  0.57325842  0.01441421  1
  O2-  O303  1  0.94515385  0.42637995  0.95967974  1
  O2-  O304  1  0.96145417  0.21421101  0.96869678  1
  O2-  O305  1  0.45640576  0.90470382  0.31692223  1
  O2-  O306  1  0.96606294  0.21547562  -0.01404277  1
  O2-  O307  1  0.54821383  0.09128319  0.99216622  1
  O2-  O308  1  0.44796685  0.90159573  0.75756873  1
  O2-  O309  1  0.45681324  0.09381811  0.48134010  1
  O2-  O310  1  0.95217842  0.58293578  0.48242651  1
  O2-  O311  1  0.04846599  0.91088382  0.54495518  1
  O2-  O312  1  0.44758321  0.42941811  0.26527704  1
  O2-  O313  1  0.45854474  0.54911635  0.55322234  1
  O2-  O314  1  0.55060464  0.55651213  -0.00073020  1
  O2-  O315  1  0.55235304  0.91073063  0.00598308  1
  O2-  O316  1  0.03226715  0.87901596  0.27333194  1
  O2-  O317  1  0.95193084  0.42548790  0.50042928  1
  O2-  O318  1  0.54888343  0.24525962  0.26018883  1
  O2-  O319  1  0.04730156  0.58788563  0.76527399  1
  O2-  O320  1  0.52423552  0.86724699  0.48352120  1
  O2-  O321  1  0.54648219  0.46672718  0.21384869  1
  O2-  O322  1  0.95129547  0.42236847  0.49149464  1
  O2-  O323  1  0.55030701  0.90847364  0.73900411  1
  O2-  O324  1  0.43854990  0.74051647  0.54208533  1
  O2-  O325  1  0.07317603  0.38242428  0.68521784  1
  O2-  O326  1  0.08527359  0.29491538  0.22654135  1
  O2-  O327  1  0.41368606  0.23797753  0.63883399  1
  O2-  O328  1  0.90448606  0.27878892  0.06642177  1
  O2-  O329  1  0.91448532  0.43630243  0.11408283  1
  O2-  O330  1  0.94144424  0.73417304  0.82330936  1
  O2-  O331  1  0.55901194  0.73524615  0.47168519  1
  O2-  O332  1  0.92571441  0.92477957  0.72296898  1
  O2-  O333  1  0.56623559  0.95057650  0.31920803  1
  O2-  O334  1  0.43653048  0.40993064  0.97911710  1
  O2-  O335  1  0.05849127  0.73724099  0.29223120  1
  O2-  O336  1  0.94255745  0.93909381  0.08829303  1
  O2-  O337  1  0.06737708  0.94443539  0.16303508  1
  O2-  O338  1  0.43157967  0.24537202  0.07095684  1
  O2-  O339  1  0.56733999  0.25899461  0.91908355  1
  O2-  O340  1  0.56167528  0.59106515  0.79106684  1
  O2-  O341  1  0.57352990  0.38284954  0.44758640  1
  O2-  O342  1  0.55909224  0.58148097  0.02420291  1
  O2-  O343  1  0.45022285  0.09587186  0.24502873  1
  O2-  O344  1  0.56394170  0.24289155  0.06655413  1
  O2-  O345  1  0.08281504  0.90086039  0.84256982  1
  O2-  O346  1  0.56129995  0.58761798  0.45578096  1
  O2-  O347  1  0.93230534  0.90889354  0.93503016  1
  O2-  O348  1  0.06275362  0.25499959  0.57756435  1
  O2-  O349  1  0.93690746  0.07803917  0.76852481  1
  O2-  O350  1  0.03990175  0.89699881  0.54663885  1
  O2-  O351  1  0.57639044  0.95658456  0.55539983  1
  O2-  O352  1  0.55908993  0.74547497  0.73111200  1
  O2-  O353  1  0.94003942  0.74358147  0.21491313  1
  O2-  O354  1  0.43544191  0.26435182  0.23170657  1
  O2-  O355  1  0.56605620  0.24678790  0.28917721  1
  O2-  O356  1  0.08404594  0.90360398  0.39939468  1
  O2-  O357  1  0.93657762  0.41921868  0.95063794  1
  O2-  O358  1  0.93809236  0.74376219  0.67233907  1
  O2-  O359  1  0.07274386  0.23997963  0.42593670  1
  O2-  O360  1  0.06907048  0.98617776  0.70022582  1
  O2-  O361  1  0.56063969  0.07774251  0.45907591  1
  O2-  O362  1  0.43839626  0.61402936  0.42402778  1
  O2-  O363  1  0.56822952  0.38944773  0.30594515  1
  O2-  O364  1  0.92640535  0.26867485  0.55607242  1
  O2-  O365  1  0.43753014  0.24862955  0.93770349  1
  O2-  O366  1  0.43310143  0.92686670  0.52646330  1
  O2-  O367  1  0.93775405  0.92871706  0.28445933  1
  O2-  O368  1  0.42531112  0.92368150  0.18279317  1
  O2-  O369  1  0.94508445  0.58957323  0.03686494  1
  O2-  O370  1  0.43893070  0.59195015  0.77405658  1
  O2-  O371  1  0.44645897  0.23922277  0.78854303  1
  O2-  O372  1  0.74910106  -0.00046244  0.09679507  1
  O2-  O373  1  0.24906700  0.66785306  0.86649354  1
  O2-  O374  1  0.24821298  0.04021711  0.19625279  1
  O2-  O375  1  0.25053767  0.01202421  0.38646447  1
  O2-  O376  1  0.75205660  0.66945886  0.08906176  1
  O2-  O377  1  0.25112320  0.34503487  0.88931654  1
  O2-  O378  1  0.75187938  0.00403734  0.59613832  1
  O2-  O379  1  0.25180966  0.01312869  0.07360355  1
  O2-  O380  1  0.74972890  -0.00928107  0.88552331  1
  O2-  O381  1  0.24963472  0.33009902  0.31619072  1
  O2-  O382  1  0.74915788  0.34015225  0.87675274  1
  O2-  O383  1  0.24973179  0.33834593  0.18382538  1
  O2-  O384  1  0.24832210  0.65038986  0.35481424  1
  O2-  O385  1  0.25091970  0.34069551  0.43570358  1
  O2-  O386  1  0.75116452  -0.00434077  0.36021379  1
  O2-  O387  1  0.25203066  0.34610096  0.60912484  1
  O2-  O388  1  0.75158024  0.32625263  0.41805248  1
  O2-  O389  1  0.75138297  0.35370296  0.33124172  1
  O2-  O390  1  0.25176606  -0.00391740  0.64277563  1
  O2-  O391  1  0.74811659  0.35043796  0.61974271  1
  O2-  O392  1  0.24814980  0.65223977  0.12147322  1
  O2-  O393  1  0.74997780  0.67849855  0.37469917  1
  O2-  O394  1  0.74942721  0.65663096  0.18013182  1
  O2-  O395  1  0.24942973  0.34434355  0.06462462  1
  O2-  O396  1  0.75064235  0.15974180  0.84275389  1
  O2-  O397  1  0.24972294  0.49702005  0.66670639  1
  O2-  O398  1  0.74689135  0.17235256  0.92364237  1
  O2-  O399  1  0.24952127  0.87524249  0.34156242  1
  O2-  O400  1  0.25104401  0.82998289  0.82712090  1
  O2-  O401  1  0.75048985  0.82777993  0.18412975  1
  O2-  O402  1  0.24856325  0.82847278  0.69886837  1
  O2-  O403  1  0.74965875  0.82987035  0.06152373  1
  O2-  O404  1  0.75053916  0.50383763  0.41533651  1
  O2-  O405  1  0.24939433  0.51345055  0.58398796  1
  O2-  O406  1  0.74839541  0.50268633  0.33076210  1
  O2-  O407  1  0.74950414  0.83807926  0.91482015  1
  O2-  O408  1  0.74997680  0.15978946  0.42627793  1
  O2-  O409  1  0.75062629  0.17430810  0.14400180  1
  O2-  O410  1  0.24962267  0.49347715  0.38934674  1
  O2-  O411  1  0.25092337  0.78874922  0.08603766  1
  O2-  O412  1  0.74984112  0.85200756  0.65036799  1
  O2-  O413  1  0.74945076  0.53080175  0.85944222  1
  O2-  O414  1  0.75208275  0.82934062  0.56530832  1
  O2-  O415  1  0.25033456  0.88507011  0.16673434  1
  O2-  O416  1  0.74831475  0.49055047  0.07094701  1
  O2-  O417  1  0.25015504  0.77061027  0.36745700  1
  O2-  O418  1  0.75091822  0.16564098  0.06070409  1
  O2-  O419  1  0.25326936  0.84370018  0.61613938  1
  O2-  O420  1  0.97918140  0.00105549  0.86194901  1
  O2-  O421  1  0.95215023  0.33113992  0.83556381  1
  O2-  O422  1  0.97170307  0.32997051  0.15291509  1
  O2-  O423  1  0.48546671  0.33219119  0.61864875  1
  O2-  O424  1  0.02196919  0.34886931  0.11146909  1
  O2-  O425  1  0.53040713  0.34380373  0.13710287  1
  O2-  O426  1  0.47694176  0.01637046  0.63190490  1
  O2-  O427  1  0.47805604  0.68691455  0.87789210  1
  O2-  O428  1  0.04690159  0.31783898  0.87290811  1
  O2-  O429  1  0.54734071  0.65819091  0.14409313  1
  O2-  O430  1  0.03199761  0.66935091  0.12492042  1
  O2-  O431  1  0.01374870  0.01526720  0.38161849  1
  O2-  O432  1  0.03574719  0.01774705  0.88882363  1
  O2-  O433  1  0.47472256  0.00304916  0.87614460  1
  O2-  O434  1  0.47117485  0.32477885  0.38432555  1
  O2-  O435  1  0.97303621  0.01676245  0.61624480  1
  O2-  O436  1  0.02953634  0.65749801  0.62227334  1
  O2-  O437  1  0.97589097  0.34295793  0.64171930  1
  O2-  O438  1  0.45356043  0.67541043  0.11165514  1
  O2-  O439  1  0.02422330  0.35640189  0.37619139  1
  O2-  O440  1  0.48488592  0.00883372  0.11559905  1
  O2-  O441  1  0.49735564  0.35940563  0.87364550  1
  O2-  O442  1  0.46912568  0.37150765  0.11628500  1
  O2-  O443  1  0.52718646  0.66207038  0.61948420  1
