# generated using pymatgen
data_La7(Ru4O11)2
_symmetry_space_group_name_H-M   'P 1'
_cell_length_a   23.99072638
_cell_length_b   16.83052711
_cell_length_c   15.42700593
_cell_angle_alpha   89.99964013
_cell_angle_beta   90.00097293
_cell_angle_gamma   90.00068026
_symmetry_Int_Tables_number   1
_chemical_formula_structural   La7(Ru4O11)2
_chemical_formula_sum   'La84 Ru96 O264'
_cell_volume   6229.06355237
_cell_formula_units_Z   12
loop_
 _symmetry_equiv_pos_site_id
 _symmetry_equiv_pos_as_xyz
  1  'x, y, z'
loop_
 _atom_type_symbol
 _atom_type_oxidation_number
  La3+  3.0
  Ru4+  4.0
  O2-  -2.0
loop_
 _atom_site_type_symbol
 _atom_site_label
 _atom_site_symmetry_multiplicity
 _atom_site_fract_x
 _atom_site_fract_y
 _atom_site_fract_z
 _atom_site_occupancy
  La3+  La0  1  0.13163901  -0.00717697  0.13111761  1
  La3+  La1  1  0.13689198  -0.00567494  0.36587456  1
  La3+  La2  1  0.14165520  -0.00169786  0.62376810  1
  La3+  La3  1  0.13896418  -0.00149283  0.87647132  1
  La3+  La4  1  0.13983740  0.33334536  0.12294679  1
  La3+  La5  1  0.14076888  0.32977830  0.37574907  1
  La3+  La6  1  0.13915803  0.33229045  0.62534681  1
  La3+  La7  1  0.13877438  0.33363102  0.87690473  1
  La3+  La8  1  0.14140903  0.66801006  0.12177390  1
  La3+  La9  1  0.13843419  0.66863322  0.37392031  1
  La3+  La10  1  0.14071368  0.66995562  0.62429966  1
  La3+  La11  1  0.14108079  0.66890505  0.87581553  1
  La3+  La12  1  0.63738826  0.00068190  0.12818855  1
  La3+  La13  1  0.64175542  0.00301385  0.37765335  1
  La3+  La14  1  0.63723802  0.00170871  0.62443353  1
  La3+  La15  1  0.63859309  -0.00169548  0.87339690  1
  La3+  La16  1  0.64183624  0.33435578  0.12654522  1
  La3+  La17  1  0.63928215  0.32942499  0.37187793  1
  La3+  La18  1  0.63884841  0.33058727  0.62424418  1
  La3+  La19  1  0.63849731  0.33497849  0.87542273  1
  La3+  La20  1  0.63458947  0.66536488  0.12244026  1
  La3+  La21  1  0.63647374  0.66742947  0.37526179  1
  La3+  La22  1  0.63962293  0.67000699  0.62487903  1
  La3+  La23  1  0.63390221  0.66382147  0.87424373  1
  La3+  La24  1  0.36052927  0.00046113  0.12718101  1
  La3+  La25  1  0.35916016  0.00065526  0.37456091  1
  La3+  La26  1  0.36120705  -0.00034392  0.62347413  1
  La3+  La27  1  0.36254203  -0.00022727  0.87594058  1
  La3+  La28  1  0.35750820  0.33468751  0.12263467  1
  La3+  La29  1  0.35859343  0.32982589  0.37574481  1
  La3+  La30  1  0.36047684  0.33057610  0.62599301  1
  La3+  La31  1  0.36217167  0.33291219  0.88071182  1
  La3+  La32  1  0.36173503  0.66706730  0.12294527  1
  La3+  La33  1  0.35971866  0.66824080  0.37498772  1
  La3+  La34  1  0.36002838  0.66963645  0.62613582  1
  La3+  La35  1  0.36049106  0.66791016  0.87619455  1
  La3+  La36  1  0.86239538  0.00074874  0.12577585  1
  La3+  La37  1  0.86473407  -0.00244424  0.38263197  1
  La3+  La38  1  0.86695367  -0.00508495  0.61793813  1
  La3+  La39  1  0.86147998  -0.00011279  0.87246974  1
  La3+  La40  1  0.86019211  0.33353985  0.12701075  1
  La3+  La41  1  0.85923831  0.32906267  0.37613493  1
  La3+  La42  1  0.86154180  0.33214288  0.62456778  1
  La3+  La43  1  0.86181710  0.33444863  0.87591774  1
  La3+  La44  1  0.86456224  0.66645087  0.12223348  1
  La3+  La45  1  0.86216429  0.66845570  0.37828165  1
  La3+  La46  1  0.86303123  0.66726342  0.62697085  1
  La3+  La47  1  0.86355981  0.66723901  0.87563329  1
  La3+  La48  1  0.00016750  0.49926150  0.38931224  1
  La3+  La49  1  0.49888470  0.83197660  0.37959542  1
  La3+  La50  1  0.50396068  0.49365073  0.63789825  1
  La3+  La51  1  0.00016707  0.16679041  0.61230218  1
  La3+  La52  1  0.49984110  0.50437359  0.35906254  1
  La3+  La53  1  -0.00289540  0.50117480  0.88513297  1
  La3+  La54  1  0.00608089  0.17582290  0.13045886  1
  La3+  La55  1  -0.00299734  0.84114360  0.37184408  1
  La3+  La56  1  0.00115214  0.83067202  0.87902004  1
  La3+  La57  1  -0.00033224  0.16661463  0.88235515  1
  La3+  La58  1  0.50042753  0.16844977  0.13062444  1
  La3+  La59  1  -0.00315693  0.83704170  0.62910809  1
  La3+  La60  1  0.00164286  0.83809879  0.12321058  1
  La3+  La61  1  0.00195101  0.16932887  0.11030613  1
  La3+  La62  1  0.50322731  0.16425261  0.86787884  1
  La3+  La63  1  0.00423006  0.83647772  0.38337051  1
  La3+  La64  1  0.00039284  0.16895923  0.63442662  1
  La3+  La65  1  0.50155965  0.50173019  0.12550946  1
  La3+  La66  1  0.00477209  0.50065093  0.86600016  1
  La3+  La67  1  0.49916900  0.49919049  0.88229855  1
  La3+  La68  1  0.49865265  0.83290495  0.62131959  1
  La3+  La69  1  0.50621306  0.50592064  0.37901391  1
  La3+  La70  1  0.50087913  0.16655795  0.63399087  1
  La3+  La71  1  0.49696087  0.16182739  0.37392132  1
  La3+  La72  1  0.24964814  0.53623346  0.52755968  1
  La3+  La73  1  0.25030236  0.83359470  0.49011729  1
  La3+  La74  1  0.25025767  0.54042226  0.26701402  1
  La3+  La75  1  0.25004633  0.16799370  0.23406276  1
  La3+  La76  1  0.25031472  0.83420228  0.22655506  1
  La3+  La77  1  0.75003201  0.85611358  0.29661178  1
  La3+  La78  1  0.74940902  0.45943139  0.21636414  1
  La3+  La79  1  0.75037155  0.16163026  0.00012120  1
  La3+  La80  1  0.74987015  0.89316098  -0.00909319  1
  La3+  La81  1  0.75022621  0.48585794  0.50391704  1
  La3+  La82  1  0.74893835  0.88553072  0.53546813  1
  La3+  La83  1  0.25032035  0.46245730  0.72701370  1
  Ru4+  Ru84  1  -0.00330589  0.00804755  0.00028430  1
  Ru4+  Ru85  1  0.00347143  -0.00484539  0.25208559  1
  Ru4+  Ru86  1  -0.00221692  -0.00448186  0.49911742  1
  Ru4+  Ru87  1  0.00321489  -0.00071077  0.74882489  1
  Ru4+  Ru88  1  -0.00052739  0.33005388  0.00042858  1
  Ru4+  Ru89  1  0.00208988  0.33204647  0.24837220  1
  Ru4+  Ru90  1  -0.00098989  0.33387905  0.50141727  1
  Ru4+  Ru91  1  0.00140479  0.33184018  0.75174010  1
  Ru4+  Ru92  1  0.00365895  0.65988785  0.00055313  1
  Ru4+  Ru93  1  0.00074975  0.66882363  0.25224514  1
  Ru4+  Ru94  1  -0.00003202  0.66916811  0.49859319  1
  Ru4+  Ru95  1  0.00053812  0.66847427  0.75180716  1
  Ru4+  Ru96  1  0.49745545  0.00257469  -0.00633888  1
  Ru4+  Ru97  1  0.50067790  -0.00506075  0.25208267  1
  Ru4+  Ru98  1  0.50297045  -0.00334226  0.50266348  1
  Ru4+  Ru99  1  0.49967835  -0.00420996  0.74955422  1
  Ru4+  Ru100  1  0.49803697  0.33015141  -0.00456568  1
  Ru4+  Ru101  1  0.50100459  0.32948124  0.25360291  1
  Ru4+  Ru102  1  0.49943970  0.33257022  0.50363495  1
  Ru4+  Ru103  1  0.50049963  0.33211748  0.74702638  1
  Ru4+  Ru104  1  0.50012836  0.67728417  -0.00400597  1
  Ru4+  Ru105  1  0.50144581  0.66771228  0.24731913  1
  Ru4+  Ru106  1  0.49896780  0.66810905  0.50312255  1
  Ru4+  Ru107  1  0.50191188  0.67385876  0.75635865  1
  Ru4+  Ru108  1  0.11233729  0.16961134  0.00057255  1
  Ru4+  Ru109  1  0.11060411  0.16594572  0.24889661  1
  Ru4+  Ru110  1  0.11408495  0.16833100  0.50063962  1
  Ru4+  Ru111  1  0.11168849  0.16592365  0.75067902  1
  Ru4+  Ru112  1  0.11572070  0.50080977  0.00087881  1
  Ru4+  Ru113  1  0.11179790  0.49688093  0.24830213  1
  Ru4+  Ru114  1  0.11104881  0.50021341  0.49962615  1
  Ru4+  Ru115  1  0.11088499  0.49748927  0.74849416  1
  Ru4+  Ru116  1  0.11609473  0.82813865  0.00188156  1
  Ru4+  Ru117  1  0.11103914  0.83332559  0.24979870  1
  Ru4+  Ru118  1  0.11255189  0.83135251  0.50010733  1
  Ru4+  Ru119  1  0.11398959  0.83067148  0.75038878  1
  Ru4+  Ru120  1  0.60999042  0.16715856  0.00007085  1
  Ru4+  Ru121  1  0.61483291  0.16770572  0.25004966  1
  Ru4+  Ru122  1  0.61499080  0.16330058  0.49966026  1
  Ru4+  Ru123  1  0.61308271  0.16665558  0.75067808  1
  Ru4+  Ru124  1  0.61565993  0.49546963  -0.00010984  1
  Ru4+  Ru125  1  0.61240300  0.49907548  0.24906451  1
  Ru4+  Ru126  1  0.61062714  0.49911650  0.50202521  1
  Ru4+  Ru127  1  0.61366210  0.49871828  0.74948737  1
  Ru4+  Ru128  1  0.60916805  0.82920534  0.00162513  1
  Ru4+  Ru129  1  0.60897539  0.83572344  0.24912853  1
  Ru4+  Ru130  1  0.61106386  0.83260213  0.50111050  1
  Ru4+  Ru131  1  0.61358631  0.83562759  0.74962125  1
  Ru4+  Ru132  1  0.38740203  0.17045236  0.00056127  1
  Ru4+  Ru133  1  0.38721722  0.16655154  0.24952082  1
  Ru4+  Ru134  1  0.38398224  0.17243801  0.50002509  1
  Ru4+  Ru135  1  0.38777562  0.16835283  0.75035384  1
  Ru4+  Ru136  1  0.38446115  0.49860151  0.00008466  1
  Ru4+  Ru137  1  0.38703924  0.50245552  0.24839131  1
  Ru4+  Ru138  1  0.38809195  0.50041577  0.50183601  1
  Ru4+  Ru139  1  0.38568523  0.49422544  0.75053174  1
  Ru4+  Ru140  1  0.38762926  0.82999698  0.00093643  1
  Ru4+  Ru141  1  0.38855814  0.83649188  0.24956511  1
  Ru4+  Ru142  1  0.38875053  0.83271699  0.50006573  1
  Ru4+  Ru143  1  0.38730311  0.83156901  0.74928593  1
  Ru4+  Ru144  1  0.89213731  0.16618516  0.00020757  1
  Ru4+  Ru145  1  0.88222068  0.16989220  0.25455034  1
  Ru4+  Ru146  1  0.88664587  0.16484956  0.50134073  1
  Ru4+  Ru147  1  0.88865298  0.16670374  0.75068140  1
  Ru4+  Ru148  1  0.88610531  0.49812993  0.00019276  1
  Ru4+  Ru149  1  0.88598721  0.49850172  0.25183359  1
  Ru4+  Ru150  1  0.89166902  0.49977735  0.50054883  1
  Ru4+  Ru151  1  0.88684106  0.49968410  0.74896114  1
  Ru4+  Ru152  1  0.88629886  0.83949273  0.00122231  1
  Ru4+  Ru153  1  0.88864877  0.83549090  0.25171877  1
  Ru4+  Ru154  1  0.89028019  0.83392093  0.50215842  1
  Ru4+  Ru155  1  0.88644173  0.83433014  0.74691079  1
  Ru4+  Ru156  1  0.24972592  0.09076077  0.48869345  1
  Ru4+  Ru157  1  0.74975486  0.75199677  0.73749653  1
  Ru4+  Ru158  1  0.75018274  0.03266596  0.01638832  1
  Ru4+  Ru159  1  0.24987917  0.09109616  0.75203569  1
  Ru4+  Ru160  1  0.24969681  0.39577178  0.50754551  1
  Ru4+  Ru161  1  0.25014936  0.40282782  0.23625539  1
  Ru4+  Ru162  1  0.74966039  0.58028923  0.74453948  1
  Ru4+  Ru163  1  0.24946148  0.09351896  -0.00370688  1
  Ru4+  Ru164  1  0.74982917  0.72413164  0.26327152  1
  Ru4+  Ru165  1  0.74978637  0.97705483  0.24423974  1
  Ru4+  Ru166  1  0.74967269  0.61596920  0.49964288  1
  Ru4+  Ru167  1  0.74999868  0.58716197  0.26677517  1
  Ru4+  Ru168  1  0.24987305  0.24296599  0.74970855  1
  Ru4+  Ru169  1  0.74962455  0.35194684  0.51258203  1
  Ru4+  Ru170  1  0.74983465  0.74464162  -0.00643942  1
  Ru4+  Ru171  1  0.75001923  0.56727750  0.00039174  1
  Ru4+  Ru172  1  0.75047836  0.74681516  0.50337952  1
  Ru4+  Ru173  1  0.25019796  0.91279290  -0.00081717  1
  Ru4+  Ru174  1  0.24991572  0.59951189  0.76316742  1
  Ru4+  Ru175  1  0.25008636  0.91058768  0.74372677  1
  Ru4+  Ru176  1  0.75019836  0.24678072  0.75371884  1
  Ru4+  Ru177  1  0.75043563  0.08911988  0.75220056  1
  Ru4+  Ru178  1  0.74985225  0.41491607  0.75035212  1
  Ru4+  Ru179  1  0.75037032  0.29097495  -0.00668555  1
  O2-  O180  1  0.16699003  0.07853879  0.00031278  1
  O2-  O181  1  0.16571215  0.07827023  0.24784165  1
  O2-  O182  1  0.16715693  0.08111182  0.49936543  1
  O2-  O183  1  0.16891919  0.08085211  0.75027695  1
  O2-  O184  1  0.16612571  0.41399912  -0.00094615  1
  O2-  O185  1  0.16641007  0.41334257  0.25110964  1
  O2-  O186  1  0.16784876  0.41250343  0.50087503  1
  O2-  O187  1  0.16660493  0.41146101  0.75287217  1
  O2-  O188  1  0.16626156  0.74724151  0.00011915  1
  O2-  O189  1  0.16780492  0.74764973  0.24912688  1
  O2-  O190  1  0.16709361  0.74667955  0.49719009  1
  O2-  O191  1  0.16670914  0.74927138  0.74866937  1
  O2-  O192  1  0.66510690  0.07843993  -0.00110250  1
  O2-  O193  1  0.66826659  0.08185055  0.24993516  1
  O2-  O194  1  0.66721522  0.08351965  0.50259881  1
  O2-  O195  1  0.66854768  0.08030760  0.75081516  1
  O2-  O196  1  0.66593046  0.41606148  0.00011108  1
  O2-  O197  1  0.66558329  0.41304901  0.25278130  1
  O2-  O198  1  0.66540578  0.41218279  0.50093469  1
  O2-  O199  1  0.66603105  0.41386208  0.74953619  1
  O2-  O200  1  0.66534922  0.74722428  0.00016118  1
  O2-  O201  1  0.66516399  0.74550305  0.24993163  1
  O2-  O202  1  0.66707556  0.74800994  0.49856401  1
  O2-  O203  1  0.66585120  0.74739098  0.75065585  1
  O2-  O204  1  0.33237366  0.25143998  -0.00179658  1
  O2-  O205  1  0.33394885  0.25269531  0.25071714  1
  O2-  O206  1  0.33356872  0.25153980  0.50044473  1
  O2-  O207  1  0.33183340  0.25110056  0.75124458  1
  O2-  O208  1  0.33438113  0.58592714  0.00113641  1
  O2-  O209  1  0.33468153  0.58968328  0.24929407  1
  O2-  O210  1  0.33304541  0.58592376  0.49995774  1
  O2-  O211  1  0.33404761  0.58785072  0.74979910  1
  O2-  O212  1  0.33118955  0.92021068  -0.00084398  1
  O2-  O213  1  0.33410871  0.91872843  0.24876098  1
  O2-  O214  1  0.33443985  0.92131343  0.50021615  1
  O2-  O215  1  0.33394003  0.91965516  0.74982238  1
  O2-  O216  1  0.83476553  0.25615860  -0.00016807  1
  O2-  O217  1  0.83504597  0.25148023  0.25015960  1
  O2-  O218  1  0.83367593  0.25256084  0.50184651  1
  O2-  O219  1  0.83356847  0.25233564  0.75014621  1
  O2-  O220  1  0.83261923  0.58656112  0.00164572  1
  O2-  O221  1  0.83269768  0.58569300  0.24787835  1
  O2-  O222  1  0.83528486  0.58734936  0.50012500  1
  O2-  O223  1  0.83373714  0.58559730  0.74909320  1
  O2-  O224  1  0.83770765  0.92304921  0.00119112  1
  O2-  O225  1  0.83266413  0.92218860  0.24854545  1
  O2-  O226  1  0.83393234  0.92193029  0.50019509  1
  O2-  O227  1  0.83523532  0.91966372  0.75017177  1
  O2-  O228  1  0.16473371  0.25278924  -0.00044782  1
  O2-  O229  1  0.16512635  0.25259435  0.24923152  1
  O2-  O230  1  0.16797957  0.25117252  0.49990712  1
  O2-  O231  1  0.16753689  0.25117574  0.75170781  1
  O2-  O232  1  0.16562610  0.58506328  0.00110901  1
  O2-  O233  1  0.16523326  0.58878301  0.25107806  1
  O2-  O234  1  0.16361237  0.58730431  0.49841540  1
  O2-  O235  1  0.16502522  0.58693555  0.74961488  1
  O2-  O236  1  0.16729775  0.92085482  0.00067627  1
  O2-  O237  1  0.16796180  0.91954243  0.24778686  1
  O2-  O238  1  0.16569113  0.92068845  0.49845812  1
  O2-  O239  1  0.16582315  0.91960961  0.74933983  1
  O2-  O240  1  0.66538768  0.25496141  -0.00117736  1
  O2-  O241  1  0.66767298  0.25030225  0.25299447  1
  O2-  O242  1  0.66644936  0.25287130  0.50218970  1
  O2-  O243  1  0.66762125  0.25279500  0.75088967  1
  O2-  O244  1  0.66684480  0.58501259  0.00157612  1
  O2-  O245  1  0.66648204  0.58738043  0.24948929  1
  O2-  O246  1  0.66678748  0.58874657  0.49952286  1
  O2-  O247  1  0.66782509  0.58591865  0.75039695  1
  O2-  O248  1  0.66261416  0.92176883  -0.00074358  1
  O2-  O249  1  0.66850562  0.92188598  0.24969730  1
  O2-  O250  1  0.66254992  0.92046697  0.50026577  1
  O2-  O251  1  0.66487844  0.91968143  0.75045875  1
  O2-  O252  1  0.33229208  0.08096454  0.00084862  1
  O2-  O253  1  0.33370016  0.08066973  0.24868292  1
  O2-  O254  1  0.33135807  0.08094007  0.50065810  1
  O2-  O255  1  0.33183306  0.08113186  0.75029051  1
  O2-  O256  1  0.33228311  0.41544691  -0.00069310  1
  O2-  O257  1  0.33420547  0.41330055  0.25245852  1
  O2-  O258  1  0.33195335  0.41375812  0.49980880  1
  O2-  O259  1  0.33554342  0.41113131  0.75149490  1
  O2-  O260  1  0.33371977  0.74758326  -0.00053765  1
  O2-  O261  1  0.33116203  0.74676281  0.24720205  1
  O2-  O262  1  0.33441507  0.74656954  0.49917111  1
  O2-  O263  1  0.33428772  0.74949406  0.75047825  1
  O2-  O264  1  0.83488073  0.07686249  0.00083495  1
  O2-  O265  1  0.83110411  0.08046982  0.24935902  1
  O2-  O266  1  0.83510806  0.08070728  0.50207290  1
  O2-  O267  1  0.83090838  0.07930232  0.75031161  1
  O2-  O268  1  0.83494476  0.41538250  0.00068815  1
  O2-  O269  1  0.83312509  0.41354410  0.25040046  1
  O2-  O270  1  0.83377771  0.41189334  0.50090143  1
  O2-  O271  1  0.83318213  0.41403158  0.75009015  1
  O2-  O272  1  0.83470720  0.74585109  0.00007957  1
  O2-  O273  1  0.83448890  0.74452449  0.24869981  1
  O2-  O274  1  0.83577842  0.74768525  0.50091943  1
  O2-  O275  1  0.83311958  0.74735068  0.74890856  1
  O2-  O276  1  0.95387385  0.76294053  0.02229233  1
  O2-  O277  1  0.45417572  0.57239610  0.73113154  1
  O2-  O278  1  0.04774913  0.90355627  0.01900237  1
  O2-  O279  1  0.45170826  0.57031135  0.98878022  1
  O2-  O280  1  0.05045605  0.90293097  0.51849465  1
  O2-  O281  1  0.45307563  0.09826903  0.48080431  1
  O2-  O282  1  0.46260209  0.43624899  0.46621780  1
  O2-  O283  1  0.04675321  0.43284245  0.98981312  1
  O2-  O284  1  0.54815787  0.23808713  0.01494898  1
  O2-  O285  1  0.04323094  0.89520852  0.24715023  1
  O2-  O286  1  0.44805742  0.24298159  0.95391614  1
  O2-  O287  1  0.94844032  0.90731685  0.48101574  1
  O2-  O288  1  0.95353045  0.57168562  0.75856202  1
  O2-  O289  1  0.54436896  0.23625044  0.49091646  1
  O2-  O290  1  0.44845848  0.75367448  1.00274678  1
  O2-  O291  1  0.95719844  0.89591961  0.50248663  1
  O2-  O292  1  0.45429871  0.89927488  0.76117519  1
  O2-  O293  1  0.95328133  0.43065700  0.76190541  1
  O2-  O294  1  0.54997853  0.24010629  0.29559523  1
  O2-  O295  1  0.54407403  0.23546961  0.51157799  1
  O2-  O296  1  0.05156382  0.90639682  0.26923879  1
  O2-  O297  1  0.95256883  0.76449196  0.98299820  1
  O2-  O298  1  0.54579883  0.09602573  0.00938620  1
  O2-  O299  1  0.54928356  0.56891811  0.78987929  1
  O2-  O300  1  0.95868678  0.56203021  0.25243961  1
  O2-  O301  1  0.04222571  0.55535533  0.24327676  1
  O2-  O302  1  0.45411244  0.90457465  0.23874866  1
  O2-  O303  1  0.46226896  0.89273221  0.00782151  1
  O2-  O304  1  0.05272196  0.42561657  0.23807299  1
  O2-  O305  1  0.45340646  0.43163907  0.23622426  1
  O2-  O306  1  0.95417839  0.43379454  0.51272341  1
  O2-  O307  1  0.46432990  0.55813907  0.54207230  1
  O2-  O308  1  0.95577200  0.90120558  0.76524280  1
  O2-  O309  1  0.45392651  0.10058964  0.52009258  1
  O2-  O310  1  0.04757556  0.90144372  0.97986647  1
  O2-  O311  1  0.46108440  0.77009446  0.22097961  1
  O2-  O312  1  0.54405558  0.89984864  0.50859430  1
  O2-  O313  1  0.45268523  0.10043505  0.76004021  1
  O2-  O314  1  0.45087303  0.23568593  0.23759497  1
  O2-  O315  1  0.94405943  0.08078913  0.21672325  1
  O2-  O316  1  0.45370306  0.76283437  -0.00267304  1
  O2-  O317  1  0.96318141  0.43908867  0.25377789  1
  O2-  O318  1  0.95339461  0.76210561  0.25934696  1
  O2-  O319  1  0.55299505  0.76079429  0.01898408  1
  O2-  O320  1  0.54731051  0.42814670  0.98902728  1
  O2-  O321  1  0.44978753  0.56581012  0.76931551  1
  O2-  O322  1  0.54522939  0.89883554  0.96709376  1
  O2-  O323  1  0.55028571  0.57002320  0.98892134  1
  O2-  O324  1  0.56282966  0.59682245  0.21579441  1
  O2-  O325  1  0.42129174  0.39296784  0.55256772  1
  O2-  O326  1  0.42862839  0.73684251  0.28776569  1
  O2-  O327  1  0.06929944  0.93243143  0.21950589  1
  O2-  O328  1  0.93375729  0.59323484  0.97526608  1
  O2-  O329  1  0.55903587  0.57961621  0.79370737  1
  O2-  O330  1  0.43453242  0.07356779  0.97264436  1
  O2-  O331  1  0.56336578  0.06846181  0.31064302  1
  O2-  O332  1  0.06279592  0.73564767  0.53451512  1
  O2-  O333  1  0.06621143  0.40866124  0.72385763  1
  O2-  O334  1  0.93665745  0.93191899  0.03569501  1
  O2-  O335  1  0.43679081  0.59680036  0.21313037  1
  O2-  O336  1  0.56904128  0.58938593  0.44387427  1
  O2-  O337  1  0.56807519  0.60760420  0.67749642  1
  O2-  O338  1  0.56388740  0.59657560  0.97334736  1
  O2-  O339  1  0.06657801  0.41183839  0.55298255  1
  O2-  O340  1  0.56727753  0.08078980  0.19595379  1
  O2-  O341  1  0.93602377  0.07077082  0.78405177  1
  O2-  O342  1  0.44704578  0.24462300  0.94227116  1
  O2-  O343  1  0.06401409  0.73655458  0.28469858  1
  O2-  O344  1  0.92188847  0.38932616  0.28375570  1
  O2-  O345  1  0.42392009  0.26106054  0.07462161  1
  O2-  O346  1  0.06355654  0.07167514  0.68132938  1
  O2-  O347  1  0.06296160  0.74215066  0.77459994  1
  O2-  O348  1  0.43628583  0.40421736  0.96660563  1
  O2-  O349  1  0.93166707  0.93079487  0.53054044  1
  O2-  O350  1  0.56195852  0.73885590  0.53285740  1
  O2-  O351  1  0.06245125  0.07016703  0.81852558  1
  O2-  O352  1  0.93516394  0.06904052  0.31037366  1
  O2-  O353  1  0.56505641  0.07566051  0.72542997  1
  O2-  O354  1  0.93332203  0.92855977  0.28291346  1
  O2-  O355  1  0.42113629  0.94122177  0.03514584  1
  O2-  O356  1  0.56687625  0.92367044  0.22366354  1
  O2-  O357  1  0.93624373  0.73620368  0.71451032  1
  O2-  O358  1  0.56479161  0.06850612  0.46537682  1
  O2-  O359  1  0.06324196  0.25632481  0.52563213  1
  O2-  O360  1  0.94384529  0.08035311  0.21733445  1
  O2-  O361  1  0.43853980  0.73581139  0.71596786  1
  O2-  O362  1  0.57117621  0.93281195  0.03822839  1
  O2-  O363  1  0.07249358  0.61636889  0.20658244  1
  O2-  O364  1  0.56388443  0.59349401  0.56171482  1
  O2-  O365  1  0.06568286  0.40437219  0.43885853  1
  O2-  O366  1  0.42119058  0.60452827  0.45257473  1
  O2-  O367  1  0.56363530  0.26394725  0.78251368  1
  O2-  O368  1  0.55489127  0.24759447  0.30218222  1
  O2-  O369  1  0.92052078  0.61551867  0.28368202  1
  O2-  O370  1  0.56310163  0.40478020  0.28326764  1
  O2-  O371  1  0.57688497  0.26306539  0.17659610  1
  O2-  O372  1  0.74973847  0.34037650  0.88723435  1
  O2-  O373  1  0.24970809  -0.00173694  0.42231815  1
  O2-  O374  1  0.75019500  0.65513328  0.92742815  1
  O2-  O375  1  0.75021958  -0.00554804  0.39664834  1
  O2-  O376  1  0.24963524  0.00096312  0.33170489  1
  O2-  O377  1  0.74976221  -0.00085335  0.89217812  1
  O2-  O378  1  0.75000444  0.33051709  0.17767863  1
  O2-  O379  1  0.75038653  0.35329381  0.09055375  1
  O2-  O380  1  0.25008049  0.67479006  0.66654841  1
  O2-  O381  1  0.75040344  0.67020483  0.61527221  1
  O2-  O382  1  0.25008972  0.32433040  0.32825755  1
  O2-  O383  1  0.75012371  0.66918982  0.81378823  1
  O2-  O384  1  0.25010758  0.32333039  0.42106361  1
  O2-  O385  1  0.75019509  0.66101634  0.16575893  1
  O2-  O386  1  0.74990126  0.32969186  0.39474633  1
  O2-  O387  1  0.24992710  -0.00091246  0.84381397  1
  O2-  O388  1  0.25003761  0.66527519  0.57601708  1
  O2-  O389  1  0.25038471  0.67110184  0.84971173  1
  O2-  O390  1  0.74992705  0.33269050  0.65417769  1
  O2-  O391  1  0.75030176  0.65871366  0.07115260  1
  O2-  O392  1  0.24978796  0.32669443  0.15094053  1
  O2-  O393  1  0.74990119  0.66870825  0.38636342  1
  O2-  O394  1  0.24994138  0.33118355  0.65662348  1
  O2-  O395  1  0.25008874  0.00175971  0.65709878  1
  O2-  O396  1  0.75013437  0.50039395  0.82857027  1
  O2-  O397  1  0.74972492  0.16428577  0.12800728  1
  O2-  O398  1  0.74996427  0.84244518  0.80716068  1
  O2-  O399  1  0.24990879  0.49134507  0.13974873  1
  O2-  O400  1  0.74985731  0.81356704  0.89048598  1
  O2-  O401  1  0.25000500  0.49238304  0.39590089  1
  O2-  O402  1  0.75008944  0.83139111  0.65995391  1
  O2-  O403  1  0.24973633  0.83711182  0.08664107  1
  O2-  O404  1  0.74991033  0.49273285  0.92107518  1
  O2-  O405  1  0.75019365  0.81990268  0.41616015  1
  O2-  O406  1  0.25001818  0.83051847  0.35707616  1
  O2-  O407  1  0.75023512  0.83661451  0.16943586  1
  O2-  O408  1  0.75002544  0.16519705  0.65944893  1
  O2-  O409  1  0.25001799  0.16163557  0.37263243  1
  O2-  O410  1  0.75010247  0.49903712  0.65678053  1
  O2-  O411  1  0.74944280  0.81056215  0.09044058  1
  O2-  O412  1  0.24969342  0.83201936  0.91796461  1
  O2-  O413  1  0.74994975  0.16930818  0.85966274  1
  O2-  O414  1  0.24985602  0.83928303  0.62502785  1
  O2-  O415  1  0.24983590  0.50625510  0.85644594  1
  O2-  O416  1  0.24994528  0.16141238  0.08661621  1
  O2-  O417  1  0.24991763  0.83351802  0.83007895  1
  O2-  O418  1  0.24992064  0.16155667  0.90639886  1
  O2-  O419  1  0.75007374  0.50561401  0.35860285  1
  O2-  O420  1  0.46708434  0.00786128  0.13204644  1
  O2-  O421  1  0.95659607  0.33055573  0.87804783  1
  O2-  O422  1  0.04315480  0.33001671  0.87374263  1
  O2-  O423  1  0.95705904  0.33143833  0.12403812  1
  O2-  O424  1  0.54012968  0.67962586  0.36280464  1
  O2-  O425  1  0.97258016  0.00667242  0.63011950  1
  O2-  O426  1  0.97648199  0.32829656  0.38072232  1
  O2-  O427  1  0.04179550  0.65911157  0.88611406  1
  O2-  O428  1  0.95949754  0.67402677  0.86523145  1
  O2-  O429  1  0.47671834  0.32638679  0.63276151  1
  O2-  O430  1  0.03258935  0.32196574  0.63450635  1
  O2-  O431  1  0.47233168  -0.00274483  0.37435414  1
  O2-  O432  1  0.52396698  0.00048045  0.12188299  1
  O2-  O433  1  0.52319915  0.67821897  0.87448726  1
  O2-  O434  1  0.47680284  -0.00216132  0.87116447  1
  O2-  O435  1  0.04256213  0.32616384  0.12365871  1
  O2-  O436  1  0.52941640  0.34641326  0.11549016  1
  O2-  O437  1  0.46721501  0.66735490  0.37720465  1
  O2-  O438  1  0.45724253  -0.00249124  0.62809435  1
  O2-  O439  1  0.97483398  0.66983471  0.38342412  1
  O2-  O440  1  0.47147269  0.34515336  0.13409254  1
  O2-  O441  1  0.53866732  -0.00373196  0.62010179  1
  O2-  O442  1  0.95636587  0.32975522  0.62582317  1
  O2-  O443  1  0.02692726  0.01038178  0.11874536  1
