# generated using pymatgen
data_La7(Ru4O11)2
_symmetry_space_group_name_H-M   'P 1'
_cell_length_a   23.99245182
_cell_length_b   16.83238496
_cell_length_c   15.42795826
_cell_angle_alpha   89.99822605
_cell_angle_beta   89.99785032
_cell_angle_gamma   90.00022150
_symmetry_Int_Tables_number   1
_chemical_formula_structural   La7(Ru4O11)2
_chemical_formula_sum   'La84 Ru96 O264'
_cell_volume   6230.58379396
_cell_formula_units_Z   12
loop_
 _symmetry_equiv_pos_site_id
 _symmetry_equiv_pos_as_xyz
  1  'x, y, z'
loop_
 _atom_type_symbol
 _atom_type_oxidation_number
  La3+  3.0
  Ru4+  4.0
  O2-  -2.0
loop_
 _atom_site_type_symbol
 _atom_site_label
 _atom_site_symmetry_multiplicity
 _atom_site_fract_x
 _atom_site_fract_y
 _atom_site_fract_z
 _atom_site_occupancy
  La3+  La0  1  0.14333826  -0.00277466  0.12251710  1
  La3+  La1  1  0.13507055  -0.00186325  0.37327018  1
  La3+  La2  1  0.14331527  -0.00233580  0.62908994  1
  La3+  La3  1  0.14155598  -0.00036499  0.87462022  1
  La3+  La4  1  0.14415163  0.33225774  0.11976214  1
  La3+  La5  1  0.14076436  0.32718710  0.37405817  1
  La3+  La6  1  0.13917440  0.33017644  0.62803086  1
  La3+  La7  1  0.13510706  0.32758943  0.87466216  1
  La3+  La8  1  0.14343174  0.67087547  0.12107500  1
  La3+  La9  1  0.13902874  0.67283602  0.37450131  1
  La3+  La10  1  0.13408926  0.66743173  0.62874017  1
  La3+  La11  1  0.14858308  0.67488784  0.88665269  1
  La3+  La12  1  0.64136204  0.00137513  0.12299312  1
  La3+  La13  1  0.64383739  -0.00272061  0.37764186  1
  La3+  La14  1  0.63553509  0.00000891  0.62730176  1
  La3+  La15  1  0.65002131  -0.00053528  0.87234185  1
  La3+  La16  1  0.63823339  0.33342966  0.12465998  1
  La3+  La17  1  0.63834455  0.33659059  0.38207577  1
  La3+  La18  1  0.63615632  0.33316835  0.61940263  1
  La3+  La19  1  0.63306454  0.33222010  0.87794239  1
  La3+  La20  1  0.63325470  0.66869082  0.12785581  1
  La3+  La21  1  0.64399937  0.66853074  0.37724757  1
  La3+  La22  1  0.63964690  0.66786612  0.62175676  1
  La3+  La23  1  0.63237247  0.66898688  0.87742722  1
  La3+  La24  1  0.35507412  -0.00232214  0.12336330  1
  La3+  La25  1  0.36407642  0.00277591  0.38264821  1
  La3+  La26  1  0.35842834  0.00301255  0.62255215  1
  La3+  La27  1  0.35594796  -0.00053489  0.87308475  1
  La3+  La28  1  0.35652874  0.33446157  0.11866849  1
  La3+  La29  1  0.36565969  0.32918714  0.37668980  1
  La3+  La30  1  0.36144891  0.32804600  0.62718840  1
  La3+  La31  1  0.36415082  0.33116994  0.87925168  1
  La3+  La32  1  0.35632015  0.66716203  0.11841423  1
  La3+  La33  1  0.36116397  0.66937817  0.37531220  1
  La3+  La34  1  0.36030793  0.66846714  0.62644579  1
  La3+  La35  1  0.35850409  0.66899435  0.87937992  1
  La3+  La36  1  0.85848130  0.00091765  0.12361985  1
  La3+  La37  1  0.85932313  -0.00160913  0.38117040  1
  La3+  La38  1  0.86852742  -0.00319242  0.62228813  1
  La3+  La39  1  0.85617078  -0.00116941  0.86894196  1
  La3+  La40  1  0.86051555  0.33214844  0.12678759  1
  La3+  La41  1  0.84949100  0.33541475  0.38155333  1
  La3+  La42  1  0.86369947  0.32968832  0.62167069  1
  La3+  La43  1  0.86502084  0.33212669  0.87371307  1
  La3+  La44  1  0.86145986  0.67192571  0.12929887  1
  La3+  La45  1  0.85771640  0.67084222  0.37384850  1
  La3+  La46  1  0.85702885  0.66947423  0.62388653  1
  La3+  La47  1  0.86492872  0.66790760  0.87321661  1
  La3+  La48  1  0.00389015  0.49918576  0.37524792  1
  La3+  La49  1  0.00475412  0.83739193  0.37152473  1
  La3+  La50  1  0.49558980  0.82482747  0.13520737  1
  La3+  La51  1  0.49886878  0.83448089  0.64381502  1
  La3+  La52  1  0.49488224  0.83661047  0.11657143  1
  La3+  La53  1  -0.01428154  0.49661344  0.62686968  1
  La3+  La54  1  -0.00471403  0.48755167  0.11461055  1
  La3+  La55  1  -0.00004918  0.17276434  0.62345761  1
  La3+  La56  1  -0.00075221  0.83370954  0.12849890  1
  La3+  La57  1  -0.00365863  0.82281307  0.61528229  1
  La3+  La58  1  0.50202983  0.83926199  0.62252114  1
  La3+  La59  1  0.48902086  0.17242214  0.12708972  1
  La3+  La60  1  0.49754384  0.17519308  0.10904309  1
  La3+  La61  1  0.00303703  0.83510281  0.35473925  1
  La3+  La62  1  0.50591740  0.49897602  0.38260392  1
  La3+  La63  1  0.50313274  0.49280863  0.61839659  1
  La3+  La64  1  0.00261866  0.82098459  0.87871206  1
  La3+  La65  1  0.49749975  0.16605649  0.60985374  1
  La3+  La66  1  -0.00409690  0.49588000  0.09605398  1
  La3+  La67  1  0.50010468  0.83356042  0.37826370  1
  La3+  La68  1  0.00101100  0.16414759  0.36565944  1
  La3+  La69  1  0.50477829  0.49536117  0.36582348  1
  La3+  La70  1  0.00279354  0.16268162  0.10372713  1
  La3+  La71  1  -0.00635147  0.17579710  0.38060558  1
  La3+  La72  1  0.75293132  0.89016319  0.00389751  1
  La3+  La73  1  0.25005337  0.50748372  -0.01261022  1
  La3+  La74  1  0.75134810  0.12255834  0.25809999  1
  La3+  La75  1  0.74901659  0.83921564  0.73240554  1
  La3+  La76  1  0.74982317  0.15676384  -0.00345701  1
  La3+  La77  1  0.25018411  0.44736127  0.75973464  1
  La3+  La78  1  0.25107565  0.44363254  0.51973844  1
  La3+  La79  1  0.25140577  0.54975441  0.23733002  1
  La3+  La80  1  0.75231776  0.11018044  0.72442723  1
  La3+  La81  1  0.25152301  0.88187941  0.27307053  1
  La3+  La82  1  0.75098005  0.49047456  -0.01696250  1
  La3+  La83  1  0.74992801  0.51985403  0.70552510  1
  Ru4+  Ru84  1  -0.00037917  -0.00219096  -0.00359486  1
  Ru4+  Ru85  1  -0.00114497  0.00494633  0.24415999  1
  Ru4+  Ru86  1  0.00185292  -0.00465728  0.50275947  1
  Ru4+  Ru87  1  0.00269576  0.01648078  0.75351887  1
  Ru4+  Ru88  1  0.00265522  0.33152595  -0.00543563  1
  Ru4+  Ru89  1  -0.00285711  0.33073725  0.25096977  1
  Ru4+  Ru90  1  -0.00077233  0.34140997  0.50911857  1
  Ru4+  Ru91  1  0.00045538  0.33249498  0.75482514  1
  Ru4+  Ru92  1  0.00127143  0.66644361  -0.00542405  1
  Ru4+  Ru93  1  -0.00133334  0.64998710  0.25451636  1
  Ru4+  Ru94  1  -0.00339753  0.66232307  0.50646637  1
  Ru4+  Ru95  1  0.00595052  0.65699135  0.74998263  1
  Ru4+  Ru96  1  0.50618086  -0.00359101  0.00658392  1
  Ru4+  Ru97  1  0.50352244  0.00214568  0.25036196  1
  Ru4+  Ru98  1  0.50150087  -0.00608002  0.49489499  1
  Ru4+  Ru99  1  0.50413839  0.00852844  0.75488343  1
  Ru4+  Ru100  1  0.50251353  0.33835642  -0.00666830  1
  Ru4+  Ru101  1  0.49921157  0.33497823  0.24350015  1
  Ru4+  Ru102  1  0.49697979  0.32812482  0.50206012  1
  Ru4+  Ru103  1  0.49777426  0.33318342  0.74571081  1
  Ru4+  Ru104  1  0.49675130  0.65602370  0.00135155  1
  Ru4+  Ru105  1  0.50173537  0.66132257  0.24195474  1
  Ru4+  Ru106  1  0.50175429  0.66554954  0.49425042  1
  Ru4+  Ru107  1  0.49881366  0.66510784  0.74629935  1
  Ru4+  Ru108  1  0.11315288  0.16897308  0.00079539  1
  Ru4+  Ru109  1  0.11586944  0.16542449  0.24805908  1
  Ru4+  Ru110  1  0.11640918  0.16574341  0.50394614  1
  Ru4+  Ru111  1  0.11605705  0.16787536  0.75167358  1
  Ru4+  Ru112  1  0.11056410  0.50005708  0.00020301  1
  Ru4+  Ru113  1  0.11010476  0.50237401  0.25456595  1
  Ru4+  Ru114  1  0.10725082  0.49382342  0.49565088  1
  Ru4+  Ru115  1  0.10975757  0.51059060  0.75806003  1
  Ru4+  Ru116  1  0.11354655  0.83366198  -0.00049842  1
  Ru4+  Ru117  1  0.11926227  0.83201114  0.24771536  1
  Ru4+  Ru118  1  0.11495786  0.83521158  0.50352324  1
  Ru4+  Ru119  1  0.11715377  0.82960887  0.74999800  1
  Ru4+  Ru120  1  0.61127170  0.16676992  -0.00375553  1
  Ru4+  Ru121  1  0.61188821  0.16295962  0.25910977  1
  Ru4+  Ru122  1  0.61493417  0.16948164  0.49934540  1
  Ru4+  Ru123  1  0.60603971  0.15769966  0.75777131  1
  Ru4+  Ru124  1  0.60709293  0.50089718  -0.00427861  1
  Ru4+  Ru125  1  0.61166214  0.49958785  0.24898603  1
  Ru4+  Ru126  1  0.61984781  0.50767492  0.50018303  1
  Ru4+  Ru127  1  0.60954467  0.50101373  0.74757084  1
  Ru4+  Ru128  1  0.61147875  0.84115617  -0.00707530  1
  Ru4+  Ru129  1  0.61694799  0.82948600  0.25293400  1
  Ru4+  Ru130  1  0.61563486  0.82968750  0.49830024  1
  Ru4+  Ru131  1  0.61041427  0.83252104  0.75113861  1
  Ru4+  Ru132  1  0.38384522  0.16904336  -0.00370497  1
  Ru4+  Ru133  1  0.38688103  0.16515610  0.25299991  1
  Ru4+  Ru134  1  0.38679412  0.17270574  0.49951249  1
  Ru4+  Ru135  1  0.38485931  0.16931629  0.75233687  1
  Ru4+  Ru136  1  0.39107815  0.49882346  -0.00015547  1
  Ru4+  Ru137  1  0.39182406  0.49672431  0.25062312  1
  Ru4+  Ru138  1  0.38975882  0.50566114  0.50002305  1
  Ru4+  Ru139  1  0.39315034  0.50183442  0.74836093  1
  Ru4+  Ru140  1  0.38403726  0.83337398  -0.00043642  1
  Ru4+  Ru141  1  0.39089978  0.83257058  0.25009299  1
  Ru4+  Ru142  1  0.38635674  0.83844578  0.49332761  1
  Ru4+  Ru143  1  0.38835151  0.83413023  0.75586069  1
  Ru4+  Ru144  1  0.89022814  0.16867953  -0.00185362  1
  Ru4+  Ru145  1  0.89040072  0.17050270  0.24714492  1
  Ru4+  Ru146  1  0.88095320  0.17417161  0.50438549  1
  Ru4+  Ru147  1  0.89416313  0.16754252  0.75229866  1
  Ru4+  Ru148  1  0.89186279  0.49962414  -0.00126322  1
  Ru4+  Ru149  1  0.88753836  0.50455114  0.24916379  1
  Ru4+  Ru150  1  0.88625289  0.50209958  0.49920214  1
  Ru4+  Ru151  1  0.89091793  0.49870268  0.75605336  1
  Ru4+  Ru152  1  0.89244884  0.83339406  -0.00262827  1
  Ru4+  Ru153  1  0.88220003  0.83421873  0.24941476  1
  Ru4+  Ru154  1  0.88408581  0.83077261  0.50366827  1
  Ru4+  Ru155  1  0.88337745  0.82792053  0.74578731  1
  Ru4+  Ru156  1  0.74978452  0.41860376  0.49618414  1
  Ru4+  Ru157  1  0.74935126  0.38740083  0.74990382  1
  Ru4+  Ru158  1  0.25076146  0.23602114  0.25371641  1
  Ru4+  Ru159  1  0.74973168  0.34657566  -0.00740089  1
  Ru4+  Ru160  1  0.74985030  0.09678338  0.49138909  1
  Ru4+  Ru161  1  0.75014990  0.62160934  0.02209522  1
  Ru4+  Ru162  1  0.25058891  0.09803824  0.23672384  1
  Ru4+  Ru163  1  0.25125982  0.73927807  0.24950807  1
  Ru4+  Ru164  1  0.24971066  0.23402122  0.50852268  1
  Ru4+  Ru165  1  0.74922331  0.27268511  0.23589714  1
  Ru4+  Ru166  1  0.74972621  0.64765288  0.76312006  1
  Ru4+  Ru167  1  0.24997478  0.39329297  0.25434659  1
  Ru4+  Ru168  1  0.24959702  0.08509105  0.00367151  1
  Ru4+  Ru169  1  0.25048948  0.77223037  0.75270232  1
  Ru4+  Ru170  1  0.74940875  0.42800223  0.24632463  1
  Ru4+  Ru171  1  0.74970115  0.57723231  0.25020391  1
  Ru4+  Ru172  1  0.25078933  0.90965817  0.74650399  1
  Ru4+  Ru173  1  0.74896627  0.25248623  0.75569420  1
  Ru4+  Ru174  1  0.74965983  0.74984405  -0.00882266  1
  Ru4+  Ru175  1  0.25004770  0.76956446  0.49928036  1
  Ru4+  Ru176  1  0.74956201  0.90363860  0.24397999  1
  Ru4+  Ru177  1  0.24964842  0.09391192  0.51161050  1
  Ru4+  Ru178  1  0.24926708  0.59297371  0.49768860  1
  Ru4+  Ru179  1  0.25119482  0.58910879  0.75318938  1
  O2-  O180  1  0.16427805  0.08086140  0.00072464  1
  O2-  O181  1  0.17030135  0.07996153  0.24898710  1
  O2-  O182  1  0.16751475  0.07899253  0.50009316  1
  O2-  O183  1  0.16189110  0.07944136  0.74995692  1
  O2-  O184  1  0.16473689  0.41274293  -0.00495680  1
  O2-  O185  1  0.16387225  0.41438998  0.24847743  1
  O2-  O186  1  0.16396141  0.40814676  0.50060225  1
  O2-  O187  1  0.15885588  0.41198714  0.75272879  1
  O2-  O188  1  0.16766773  0.75354669  0.00578077  1
  O2-  O189  1  0.16764678  0.74478255  0.24952315  1
  O2-  O190  1  0.16621143  0.74817865  0.50260774  1
  O2-  O191  1  0.16859398  0.74994625  0.74896577  1
  O2-  O192  1  0.66566617  0.08260032  0.00092812  1
  O2-  O193  1  0.66445491  0.07843802  0.24495183  1
  O2-  O194  1  0.66572277  0.08155564  0.50120024  1
  O2-  O195  1  0.66453528  0.07893852  0.74436333  1
  O2-  O196  1  0.66775141  0.41235182  -0.00047029  1
  O2-  O197  1  0.66671599  0.41576616  0.24968054  1
  O2-  O198  1  0.66800574  0.41472519  0.50153556  1
  O2-  O199  1  0.66385555  0.41149079  0.74969418  1
  O2-  O200  1  0.66480421  0.74878084  -0.00002938  1
  O2-  O201  1  0.66752814  0.74780862  0.24922553  1
  O2-  O202  1  0.66871810  0.74556656  0.49992311  1
  O2-  O203  1  0.66627113  0.74550633  0.75028137  1
  O2-  O204  1  0.33465271  0.25268981  -0.00341765  1
  O2-  O205  1  0.33121351  0.25254269  0.25205386  1
  O2-  O206  1  0.33139708  0.25144800  0.49708514  1
  O2-  O207  1  0.33635215  0.25243268  0.75302074  1
  O2-  O208  1  0.33537784  0.58190137  -0.00076350  1
  O2-  O209  1  0.34154826  0.59160437  0.25264967  1
  O2-  O210  1  0.33477972  0.58787138  0.50200228  1
  O2-  O211  1  0.33578779  0.58623599  0.75123843  1
  O2-  O212  1  0.33738487  0.91889975  -0.00035928  1
  O2-  O213  1  0.33951405  0.92610403  0.25153480  1
  O2-  O214  1  0.33288157  0.91999751  0.49697083  1
  O2-  O215  1  0.33206781  0.91706044  0.74971297  1
  O2-  O216  1  0.83446078  0.25248829  -0.00108390  1
  O2-  O217  1  0.83110466  0.25232055  0.24542831  1
  O2-  O218  1  0.82951110  0.25410850  0.50276287  1
  O2-  O219  1  0.83454375  0.25183025  0.74796795  1
  O2-  O220  1  0.83430080  0.59024586  -0.00026657  1
  O2-  O221  1  0.83177085  0.58525650  0.24877584  1
  O2-  O222  1  0.83448877  0.58486795  0.49927959  1
  O2-  O223  1  0.83306673  0.58832639  0.75046580  1
  O2-  O224  1  0.84450188  0.92355921  -0.00149039  1
  O2-  O225  1  0.83299930  0.91965577  0.24886968  1
  O2-  O226  1  0.83515878  0.91836805  0.50257576  1
  O2-  O227  1  0.83255151  0.91664030  0.74914617  1
  O2-  O228  1  0.16252224  0.25255201  -0.00266854  1
  O2-  O229  1  0.16995420  0.24960707  0.24631071  1
  O2-  O230  1  0.16771616  0.25206795  0.50208514  1
  O2-  O231  1  0.16775826  0.25141902  0.75468299  1
  O2-  O232  1  0.16297929  0.58382154  0.00311374  1
  O2-  O233  1  0.16199907  0.59026663  0.24834704  1
  O2-  O234  1  0.16382101  0.58531803  0.50088110  1
  O2-  O235  1  0.17157932  0.58293159  0.74509880  1
  O2-  O236  1  0.16248287  0.91885628  0.00077919  1
  O2-  O237  1  0.16352648  0.92633539  0.24861537  1
  O2-  O238  1  0.16342788  0.92113615  0.49871008  1
  O2-  O239  1  0.16963567  0.91687737  0.75108280  1
  O2-  O240  1  0.66768534  0.25453393  -0.00256431  1
  O2-  O241  1  0.66924562  0.25202327  0.24791714  1
  O2-  O242  1  0.66393628  0.25379775  0.50084937  1
  O2-  O243  1  0.66228205  0.25036110  0.74797771  1
  O2-  O244  1  0.66675785  0.58809933  0.00055013  1
  O2-  O245  1  0.67061001  0.58576614  0.24716024  1
  O2-  O246  1  0.67054308  0.58789222  0.50257653  1
  O2-  O247  1  0.66937667  0.59107475  0.75340391  1
  O2-  O248  1  0.66402689  0.92073400  0.00321543  1
  O2-  O249  1  0.66609738  0.91945205  0.24963132  1
  O2-  O250  1  0.66150382  0.91867233  0.50221027  1
  O2-  O251  1  0.66473372  0.91760179  0.74438747  1
  O2-  O252  1  0.33447457  0.08017371  -0.00054330  1
  O2-  O253  1  0.33083305  0.08184004  0.24956436  1
  O2-  O254  1  0.33178698  0.08319046  0.49743315  1
  O2-  O255  1  0.33816412  0.08180292  0.75175553  1
  O2-  O256  1  0.33230592  0.41599919  -0.00578877  1
  O2-  O257  1  0.33558887  0.41219366  0.25219681  1
  O2-  O258  1  0.34059323  0.40594627  0.49553114  1
  O2-  O259  1  0.33952750  0.40958009  0.75305450  1
  O2-  O260  1  0.33747894  0.74836857  -0.00112507  1
  O2-  O261  1  0.33509969  0.74507683  0.25244299  1
  O2-  O262  1  0.33391324  0.74988456  0.50064901  1
  O2-  O263  1  0.33344533  0.74951124  0.74928524  1
  O2-  O264  1  0.83344374  0.08188442  -0.00352374  1
  O2-  O265  1  0.84213461  0.07821518  0.25011520  1
  O2-  O266  1  0.83344172  0.08110856  0.49967489  1
  O2-  O267  1  0.84181578  0.07786398  0.74642228  1
  O2-  O268  1  0.83412752  0.40919655  -0.00141637  1
  O2-  O269  1  0.83173250  0.41824094  0.24756784  1
  O2-  O270  1  0.83214413  0.41540124  0.50434366  1
  O2-  O271  1  0.83279829  0.41184384  0.74735046  1
  O2-  O272  1  0.83245454  0.74721519  -0.00128325  1
  O2-  O273  1  0.83420258  0.74784712  0.24741171  1
  O2-  O274  1  0.83233739  0.74824890  0.49831890  1
  O2-  O275  1  0.83022312  0.74590178  0.75408177  1
  O2-  O276  1  0.54496205  0.89636241  0.24509374  1
  O2-  O277  1  0.54647262  0.09577080  0.00532277  1
  O2-  O278  1  0.05219357  0.08688219  0.49191537  1
  O2-  O279  1  0.45269971  0.43475223  0.48244083  1
  O2-  O280  1  0.05073154  0.42841997  0.54419273  1
  O2-  O281  1  0.55026207  0.24034154  0.98704092  1
  O2-  O282  1  0.04944216  0.57655857  0.50481276  1
  O2-  O283  1  0.04934636  0.76246537  0.25453030  1
  O2-  O284  1  0.95386725  0.24242354  0.98799795  1
  O2-  O285  1  0.95356300  0.09541699  0.76550436  1
  O2-  O286  1  0.44555307  0.24421955  0.50751134  1
  O2-  O287  1  0.53612171  0.10438868  0.21580282  1
  O2-  O288  1  0.96897937  0.22083857  0.22906175  1
  O2-  O289  1  0.54555145  0.90110655  0.76120311  1
  O2-  O290  1  0.04415456  0.89923211  0.73621390  1
  O2-  O291  1  0.94956903  0.09295440  0.47826087  1
  O2-  O292  1  0.04416441  0.89914476  0.73553554  1
  O2-  O293  1  0.94811671  0.10100860  0.51638344  1
  O2-  O294  1  0.04250689  0.90152009  0.01354658  1
  O2-  O295  1  0.51970542  0.88433968  0.99093914  1
  O2-  O296  1  0.94227423  0.57714898  0.76923777  1
  O2-  O297  1  0.03939214  0.55574484  0.21175233  1
  O2-  O298  1  0.05037483  0.23943494  0.49586119  1
  O2-  O299  1  0.94866820  0.90802624  0.25956789  1
  O2-  O300  1  0.94946195  0.08660264  0.23535121  1
  O2-  O301  1  0.95845960  0.89837170  0.75891231  1
  O2-  O302  1  0.95346027  0.23880854  0.76362592  1
  O2-  O303  1  0.95093169  0.56695276  0.48582084  1
  O2-  O304  1  0.45605353  0.56503164  0.24253955  1
  O2-  O305  1  0.53859874  0.22511954  0.26678513  1
  O2-  O306  1  0.54869450  0.10334646  0.70267601  1
  O2-  O307  1  0.04579339  0.90122646  0.49086306  1
  O2-  O308  1  0.55325466  0.75657993  0.01455050  1
  O2-  O309  1  0.95100912  0.76450312  0.25902494  1
  O2-  O310  1  0.45525811  0.23092705  0.74016764  1
  O2-  O311  1  0.44962659  0.09152537  0.51105087  1
  O2-  O312  1  0.04087127  0.54852488  0.72684864  1
  O2-  O313  1  0.96390682  0.77531911  0.46884976  1
  O2-  O314  1  0.45672489  0.43807000  0.74244485  1
  O2-  O315  1  0.96360211  0.22790039  0.21528632  1
  O2-  O316  1  0.95595579  0.89504449  0.76940161  1
  O2-  O317  1  0.03696042  0.54356696  0.74312852  1
  O2-  O318  1  0.44890599  0.24002999  0.00197541  1
  O2-  O319  1  0.54527446  0.75482364  0.97736629  1
  O2-  O320  1  0.55003220  0.43790750  0.48916560  1
  O2-  O321  1  0.96134705  0.10248005  0.96715124  1
  O2-  O322  1  0.44552561  0.23694272  0.26963816  1
  O2-  O323  1  0.05255816  0.90503988  0.26016865  1
  O2-  O324  1  0.56416818  0.41114994  0.97492678  1
  O2-  O325  1  0.93933381  0.74002545  0.72387915  1
  O2-  O326  1  0.56326014  0.59032922  0.72782692  1
  O2-  O327  1  0.93770692  0.40831732  0.21146008  1
  O2-  O328  1  0.56763050  0.05516177  0.83845120  1
  O2-  O329  1  0.92327682  0.93383611  0.70604797  1
  O2-  O330  1  0.43073606  0.90885755  0.56899873  1
  O2-  O331  1  0.06942074  0.60421875  0.32445733  1
  O2-  O332  1  0.58056818  0.27979090  0.27763367  1
  O2-  O333  1  0.43629167  0.92655407  0.42337001  1
  O2-  O334  1  0.92843928  0.71863496  0.56237939  1
  O2-  O335  1  0.43922412  0.73518062  0.77933828  1
  O2-  O336  1  0.92194210  0.29766706  0.32251794  1
  O2-  O337  1  0.93664005  0.73950933  0.96693490  1
  O2-  O338  1  0.93609954  0.25862718  0.52201644  1
  O2-  O339  1  0.92933217  0.06668063  0.03922554  1
  O2-  O340  1  0.93686865  0.40154646  0.78313682  1
  O2-  O341  1  0.93676735  0.59788552  0.17395189  1
  O2-  O342  1  0.09177995  0.62329278  0.80594995  1
  O2-  O343  1  0.56295969  0.59417045  0.96631778  1
  O2-  O344  1  0.06266677  0.74799961  0.72185660  1
  O2-  O345  1  0.56270963  0.74318117  0.22440476  1
  O2-  O346  1  0.43880682  0.93049339  0.78499911  1
  O2-  O347  1  0.55499845  0.08951452  0.70320292  1
  O2-  O348  1  0.06459634  0.07156055  0.28054890  1
  O2-  O349  1  0.43810949  0.73912244  0.46940634  1
  O2-  O350  1  0.56264147  0.41239080  0.47012697  1
  O2-  O351  1  0.57046613  0.75528459  0.57442365  1
  O2-  O352  1  0.06825224  0.25855024  0.27656830  1
  O2-  O353  1  0.93748310  0.59006824  0.32083216  1
  O2-  O354  1  0.06665351  0.25486080  0.72748669  1
  O2-  O355  1  0.07708640  0.93430121  0.78832239  1
  O2-  O356  1  0.56664435  0.58642288  0.22607314  1
  O2-  O357  1  0.05535801  0.42098490  0.55186296  1
  O2-  O358  1  0.43329441  0.07001440  0.52944186  1
  O2-  O359  1  0.43851071  0.25370036  0.51614402  1
  O2-  O360  1  0.43749763  0.40426684  0.96652739  1
  O2-  O361  1  0.05508681  0.74264007  0.28590388  1
  O2-  O362  1  0.08154425  0.41717188  0.40620340  1
  O2-  O363  1  0.57786035  0.95870565  0.95422334  1
  O2-  O364  1  0.43725459  0.59348247  0.02818080  1
  O2-  O365  1  0.56800163  0.75343152  0.42808020  1
  O2-  O366  1  0.94708763  0.74146338  0.28858605  1
  O2-  O367  1  0.06323813  0.74404412  0.97719057  1
  O2-  O368  1  0.05880919  0.92403050  0.29219716  1
  O2-  O369  1  0.58040694  0.05887317  0.30679897  1
  O2-  O370  1  0.56228864  0.58749538  0.47412265  1
  O2-  O371  1  0.93867559  0.92542487  0.46182999  1
  O2-  O372  1  0.24938734  0.33864717  0.67391467  1
  O2-  O373  1  0.24953260  0.66152252  0.06867374  1
  O2-  O374  1  0.24868998  0.00464139  0.09968320  1
  O2-  O375  1  0.24909556  0.33490461  0.07340219  1
  O2-  O376  1  0.25042127  0.00543949  0.90558686  1
  O2-  O377  1  0.25089751  0.65991304  0.92825702  1
  O2-  O378  1  0.75121220  0.33084707  0.11445776  1
  O2-  O379  1  0.25078158  0.67598881  0.39613732  1
  O2-  O380  1  0.24918023  -0.00129610  0.58167853  1
  O2-  O381  1  0.25058781  0.68123630  0.68703962  1
  O2-  O382  1  0.25116360  0.68043831  0.83047150  1
  O2-  O383  1  0.24996043  0.31863658  0.16475625  1
  O2-  O384  1  0.24988228  0.32277928  0.58211453  1
  O2-  O385  1  0.75020311  -0.00317663  0.32908600  1
  O2-  O386  1  0.75322177  -0.00067246  0.84831078  1
  O2-  O387  1  0.75072469  0.00750651  0.07930394  1
  O2-  O388  1  0.74825366  0.34342390  0.35037276  1
  O2-  O389  1  0.75033602  0.00013528  0.17217905  1
  O2-  O390  1  0.24950982  0.00315509  0.67191967  1
  O2-  O391  1  0.25003868  0.66201111  0.16105111  1
  O2-  O392  1  0.75038477  0.33313742  0.86577080  1
  O2-  O393  1  0.75026463  -0.00042541  0.42443058  1
  O2-  O394  1  0.75042004  0.65522053  0.33994341  1
  O2-  O395  1  0.25010280  0.67858766  0.56720617  1
  O2-  O396  1  0.24980613  0.48298713  0.11863593  1
  O2-  O397  1  0.74997494  0.49980234  0.84652101  1
  O2-  O398  1  0.25008254  0.83387699  0.40702020  1
  O2-  O399  1  0.24955410  0.45523990  0.34794395  1
  O2-  O400  1  0.25007960  0.15782600  0.09495245  1
  O2-  O401  1  0.74990832  0.83766770  0.41471434  1
  O2-  O402  1  0.24983215  0.53233495  0.40297446  1
  O2-  O403  1  0.75061843  0.83319306  0.60299800  1
  O2-  O404  1  0.24996683  0.16922367  0.91853471  1
  O2-  O405  1  0.74987546  0.50255452  0.13993917  1
  O2-  O406  1  0.75008147  0.82926637  0.13823528  1
  O2-  O407  1  0.75006203  0.49773806  0.57034884  1
  O2-  O408  1  0.74972297  0.16478165  0.58369153  1
  O2-  O409  1  0.75000915  0.82916500  0.33071124  1
  O2-  O410  1  0.24994313  0.16547339  0.62317759  1
  O2-  O411  1  0.25069160  0.52421349  0.63422974  1
  O2-  O412  1  0.74997593  0.18574925  0.13411278  1
  O2-  O413  1  0.74982515  0.17940882  0.85387441  1
  O2-  O414  1  0.74966856  0.16867360  0.39487142  1
  O2-  O415  1  0.25017797  0.81908486  0.14864378  1
  O2-  O416  1  0.24962163  0.16731739  0.40708982  1
  O2-  O417  1  0.25008206  0.82938711  0.59845685  1
  O2-  O418  1  0.25006770  0.16452086  0.83553131  1
  O2-  O419  1  0.74946491  0.81220551  0.87991048  1
  O2-  O420  1  0.52374959  -0.01169153  0.38262211  1
  O2-  O421  1  0.52071046  0.66788948  0.11948094  1
  O2-  O422  1  0.54547586  0.33038956  0.12864881  1
  O2-  O423  1  0.97679276  -0.01634370  0.12360499  1
  O2-  O424  1  0.97708530  0.00502811  0.62267929  1
  O2-  O425  1  0.54590606  -0.02576376  0.59841961  1
  O2-  O426  1  0.02446550  0.66987900  0.62110216  1
  O2-  O427  1  0.51394771  0.33643503  0.37406823  1
  O2-  O428  1  0.02506232  0.00655804  0.88073597  1
  O2-  O429  1  0.01192384  0.67109513  0.87577940  1
  O2-  O430  1  0.52235708  0.33041554  0.86316178  1
  O2-  O431  1  0.45296774  0.00091963  0.12573369  1
  O2-  O432  1  0.45324787  0.33619533  0.13192500  1
  O2-  O433  1  0.02759836  0.33437160  0.87554476  1
  O2-  O434  1  0.01230835  0.33032072  0.37664439  1
  O2-  O435  1  0.03163971  0.31852362  0.63290444  1
  O2-  O436  1  0.54712757  0.33035392  0.63374611  1
  O2-  O437  1  0.54623592  -0.00851261  0.12197927  1
  O2-  O438  1  0.51454844  0.65612248  0.36393038  1
  O2-  O439  1  0.02717577  0.33477225  0.12095393  1
  O2-  O440  1  0.45765562  0.34787130  0.62693346  1
  O2-  O441  1  0.95811233  0.34807799  0.62990768  1
  O2-  O442  1  0.51194622  0.66222637  0.62381206  1
  O2-  O443  1  0.46066890  0.01083017  0.65341052  1
