# generated using pymatgen
data_La7(Ru4O11)2
_symmetry_space_group_name_H-M   'P 1'
_cell_length_a   23.99601655
_cell_length_b   16.83541166
_cell_length_c   15.43193243
_cell_angle_alpha   90.00276114
_cell_angle_beta   89.99645567
_cell_angle_gamma   89.99848169
_symmetry_Int_Tables_number   1
_chemical_formula_structural   La7(Ru4O11)2
_chemical_formula_sum   'La84 Ru96 O264'
_cell_volume   6234.23550979
_cell_formula_units_Z   12
loop_
 _symmetry_equiv_pos_site_id
 _symmetry_equiv_pos_as_xyz
  1  'x, y, z'
loop_
 _atom_type_symbol
 _atom_type_oxidation_number
  La3+  3.0
  Ru4+  4.0
  O2-  -2.0
loop_
 _atom_site_type_symbol
 _atom_site_label
 _atom_site_symmetry_multiplicity
 _atom_site_fract_x
 _atom_site_fract_y
 _atom_site_fract_z
 _atom_site_occupancy
  La3+  La0  1  0.13783347  0.00318199  0.12823940  1
  La3+  La1  1  0.13321947  0.00627429  0.37800029  1
  La3+  La2  1  0.14522788  0.00125563  0.62746417  1
  La3+  La3  1  0.13742002  0.00251457  0.87045492  1
  La3+  La4  1  0.14868609  0.33809262  0.12559579  1
  La3+  La5  1  0.15256433  0.33628869  0.37551529  1
  La3+  La6  1  0.14981350  0.33418521  0.62611433  1
  La3+  La7  1  0.14970961  0.34066333  0.87195824  1
  La3+  La8  1  0.13822953  0.65685957  0.12716575  1
  La3+  La9  1  0.13533302  0.66058102  0.37116635  1
  La3+  La10  1  0.13607930  0.66216033  0.62245246  1
  La3+  La11  1  0.13721584  0.66282605  0.87876545  1
  La3+  La12  1  0.63320261  -0.00064925  0.12512030  1
  La3+  La13  1  0.63809581  0.00217136  0.38039886  1
  La3+  La14  1  0.63752014  0.00097797  0.62164003  1
  La3+  La15  1  0.63987874  -0.00117901  0.87332967  1
  La3+  La16  1  0.63506424  0.33547523  0.12439963  1
  La3+  La17  1  0.64898288  0.32991846  0.38250782  1
  La3+  La18  1  0.63035104  0.32863068  0.61561784  1
  La3+  La19  1  0.64444626  0.33536849  0.87792231  1
  La3+  La20  1  0.64982303  0.66646480  0.12476633  1
  La3+  La21  1  0.63981925  0.66490076  0.37335667  1
  La3+  La22  1  0.63863773  0.66785984  0.62587610  1
  La3+  La23  1  0.63993565  0.67453937  0.88378886  1
  La3+  La24  1  0.36958099  0.00289983  0.12860502  1
  La3+  La25  1  0.37083773  0.00617340  0.37392954  1
  La3+  La26  1  0.35756982  0.00051871  0.62585298  1
  La3+  La27  1  0.36401111  -0.00216094  0.87453413  1
  La3+  La28  1  0.34660474  0.33594774  0.12626592  1
  La3+  La29  1  0.34703496  0.33102979  0.36413083  1
  La3+  La30  1  0.34757673  0.33442406  0.62048604  1
  La3+  La31  1  0.35449052  0.33495379  0.87010035  1
  La3+  La32  1  0.36452770  0.66535558  0.12708430  1
  La3+  La33  1  0.36261237  0.65845046  0.37157109  1
  La3+  La34  1  0.36649459  0.66285177  0.62240916  1
  La3+  La35  1  0.36253971  0.66410387  0.87666532  1
  La3+  La36  1  0.86076932  -0.00031357  0.12171738  1
  La3+  La37  1  0.85962519  0.00236452  0.37877309  1
  La3+  La38  1  0.86249953  0.00158232  0.62148097  1
  La3+  La39  1  0.85874280  0.00018968  0.87530308  1
  La3+  La40  1  0.85289017  0.32647128  0.13113770  1
  La3+  La41  1  0.85921306  0.32808147  0.37925925  1
  La3+  La42  1  0.86894544  0.33113483  0.61646334  1
  La3+  La43  1  0.86502020  0.33819070  0.88256238  1
  La3+  La44  1  0.85511026  0.66387793  0.12598358  1
  La3+  La45  1  0.85460840  0.66199775  0.37425705  1
  La3+  La46  1  0.85337217  0.66935545  0.62635981  1
  La3+  La47  1  0.85637613  0.66907065  0.87647511  1
  La3+  La48  1  0.01612136  0.50211918  0.88373742  1
  La3+  La49  1  0.49860903  0.83115721  0.11813847  1
  La3+  La50  1  0.50034984  0.51448782  0.88329305  1
  La3+  La51  1  0.49979438  0.83315014  0.63031131  1
  La3+  La52  1  0.50067659  0.16897490  0.86659443  1
  La3+  La53  1  0.00331504  0.83378468  0.64125622  1
  La3+  La54  1  0.49749994  0.83767152  0.88487252  1
  La3+  La55  1  0.00816128  0.48803438  0.34552370  1
  La3+  La56  1  0.50027358  0.17033971  0.12707794  1
  La3+  La57  1  -0.00644626  0.18236493  0.36205347  1
  La3+  La58  1  0.50936436  0.50533062  0.86914698  1
  La3+  La59  1  -0.00472319  0.82949892  0.62354490  1
  La3+  La60  1  0.00546153  0.81817663  0.38842571  1
  La3+  La61  1  0.49778536  0.50472650  0.11102974  1
  La3+  La62  1  0.00439997  0.83221899  0.11319659  1
  La3+  La63  1  0.49370579  0.16539130  0.62557109  1
  La3+  La64  1  0.00194390  0.17710958  0.88208753  1
  La3+  La65  1  0.50185941  0.16506828  0.88837230  1
  La3+  La66  1  -0.02079418  0.15531166  0.12680681  1
  La3+  La67  1  0.49285778  0.50775824  0.13197407  1
  La3+  La68  1  0.50530163  0.16009266  0.38525788  1
  La3+  La69  1  0.00914046  0.49651807  0.36581600  1
  La3+  La70  1  0.50754069  0.49959195  0.38165943  1
  La3+  La71  1  0.50233423  0.50281326  0.63226585  1
  La3+  La72  1  0.75000311  0.16332352  0.18881344  1
  La3+  La73  1  0.25042405  0.17579319  0.24841233  1
  La3+  La74  1  0.25122044  0.90757513  0.26443250  1
  La3+  La75  1  0.74960056  0.77816164  0.24648395  1
  La3+  La76  1  0.24895437  0.17523942  0.74677645  1
  La3+  La77  1  0.74938795  0.55176540  0.80013646  1
  La3+  La78  1  0.25047895  0.11144032  0.00190894  1
  La3+  La79  1  0.75063800  0.45063231  0.45675825  1
  La3+  La80  1  0.24720807  0.84561455  -0.06918896  1
  La3+  La81  1  0.25118464  0.79240345  0.52168379  1
  La3+  La82  1  0.75016678  0.11811570  0.69580825  1
  La3+  La83  1  0.74981275  0.78828350  0.74649372  1
  Ru4+  Ru84  1  -0.00033933  -0.00433371  0.00159895  1
  Ru4+  Ru85  1  -0.00650143  -0.00821390  0.24459209  1
  Ru4+  Ru86  1  0.00525868  0.01640944  0.50834540  1
  Ru4+  Ru87  1  0.00074622  0.00012557  0.75502681  1
  Ru4+  Ru88  1  -0.00053717  0.33773330  0.00162364  1
  Ru4+  Ru89  1  -0.00300528  0.32591467  0.23850334  1
  Ru4+  Ru90  1  0.00103393  0.33158217  0.51191012  1
  Ru4+  Ru91  1  -0.00370379  0.34089214  0.74743846  1
  Ru4+  Ru92  1  0.00203556  0.66754676  0.00999763  1
  Ru4+  Ru93  1  -0.00656551  0.67677812  0.23654958  1
  Ru4+  Ru94  1  -0.00501200  0.66200219  0.50840721  1
  Ru4+  Ru95  1  -0.00545235  0.65899852  0.75530483  1
  Ru4+  Ru96  1  0.50558405  0.00577482  0.00433140  1
  Ru4+  Ru97  1  0.50797788  -0.00823118  0.25185837  1
  Ru4+  Ru98  1  0.49914536  -0.00544724  0.49490654  1
  Ru4+  Ru99  1  0.49469383  -0.00218435  0.74347948  1
  Ru4+  Ru100  1  0.49802654  0.32831400  0.00085395  1
  Ru4+  Ru101  1  0.48921258  0.33199111  0.25264263  1
  Ru4+  Ru102  1  0.50339970  0.33709318  0.51514395  1
  Ru4+  Ru103  1  0.49343361  0.33463797  0.74424563  1
  Ru4+  Ru104  1  0.50009875  0.67041173  -0.00037586  1
  Ru4+  Ru105  1  0.50142397  0.67822443  0.26442211  1
  Ru4+  Ru106  1  0.50230111  0.66705318  0.48646656  1
  Ru4+  Ru107  1  0.50045558  0.66430316  0.73751568  1
  Ru4+  Ru108  1  0.10776427  0.17862496  -0.00778363  1
  Ru4+  Ru109  1  0.10786672  0.17600497  0.25286397  1
  Ru4+  Ru110  1  0.10580761  0.16495040  0.50086370  1
  Ru4+  Ru111  1  0.10885135  0.16357456  0.75454673  1
  Ru4+  Ru112  1  0.11336927  0.49830817  0.00283631  1
  Ru4+  Ru113  1  0.11949121  0.49916954  0.24247932  1
  Ru4+  Ru114  1  0.11697179  0.49888737  0.50584364  1
  Ru4+  Ru115  1  0.11167562  0.49794122  0.74847271  1
  Ru4+  Ru116  1  0.10821174  0.83424076  -0.00099821  1
  Ru4+  Ru117  1  0.10898916  0.83567019  0.25111834  1
  Ru4+  Ru118  1  0.10894822  0.82651196  0.49989381  1
  Ru4+  Ru119  1  0.11094207  0.82923023  0.75346208  1
  Ru4+  Ru120  1  0.60949112  0.16455817  0.00542026  1
  Ru4+  Ru121  1  0.60866924  0.16750087  0.24874849  1
  Ru4+  Ru122  1  0.61219354  0.17324466  0.49899285  1
  Ru4+  Ru123  1  0.60927626  0.17292429  0.75212193  1
  Ru4+  Ru124  1  0.62004944  0.49882591  0.00185002  1
  Ru4+  Ru125  1  0.61479158  0.49661809  0.25594442  1
  Ru4+  Ru126  1  0.61228541  0.49977663  0.49999887  1
  Ru4+  Ru127  1  0.61060232  0.50846272  0.74457069  1
  Ru4+  Ru128  1  0.61734442  0.83561536  -0.00122734  1
  Ru4+  Ru129  1  0.60665665  0.83664678  0.25200609  1
  Ru4+  Ru130  1  0.61070928  0.83401106  0.50222567  1
  Ru4+  Ru131  1  0.61024817  0.83458521  0.74766441  1
  Ru4+  Ru132  1  0.38968294  0.16635299  0.00236057  1
  Ru4+  Ru133  1  0.39131969  0.17589065  0.24340333  1
  Ru4+  Ru134  1  0.38630750  0.16599249  0.49996143  1
  Ru4+  Ru135  1  0.38594756  0.16239857  0.74693251  1
  Ru4+  Ru136  1  0.37821369  0.49472959  -0.00288896  1
  Ru4+  Ru137  1  0.38502483  0.48999921  0.25099875  1
  Ru4+  Ru138  1  0.38479142  0.48647023  0.49791292  1
  Ru4+  Ru139  1  0.38410505  0.49462533  0.73936383  1
  Ru4+  Ru140  1  0.37890438  0.83549328  -0.00420401  1
  Ru4+  Ru141  1  0.39394745  0.83401491  0.25554451  1
  Ru4+  Ru142  1  0.39257923  0.83436988  0.49742832  1
  Ru4+  Ru143  1  0.38762116  0.82748683  0.74897621  1
  Ru4+  Ru144  1  0.88707050  0.16740371  -0.00366145  1
  Ru4+  Ru145  1  0.89287204  0.16525787  0.25258798  1
  Ru4+  Ru146  1  0.88555174  0.16327637  0.49976436  1
  Ru4+  Ru147  1  0.89190806  0.16683276  0.75209121  1
  Ru4+  Ru148  1  0.88954774  0.49173177  0.00291082  1
  Ru4+  Ru149  1  0.88742163  0.49644594  0.24307203  1
  Ru4+  Ru150  1  0.89286317  0.50342407  0.51037783  1
  Ru4+  Ru151  1  0.89332760  0.50491974  0.74754702  1
  Ru4+  Ru152  1  0.88688467  0.83132097  -0.00103605  1
  Ru4+  Ru153  1  0.89722688  0.83641863  0.25388513  1
  Ru4+  Ru154  1  0.88869475  0.83299027  0.49611354  1
  Ru4+  Ru155  1  0.89143402  0.82893165  0.74919323  1
  Ru4+  Ru156  1  0.75089122  0.93141156  0.73857310  1
  Ru4+  Ru157  1  0.75071598  0.43273808  0.24710553  1
  Ru4+  Ru158  1  0.24983382  0.73670728  0.26973893  1
  Ru4+  Ru159  1  0.24974269  0.27037664  -0.01639628  1
  Ru4+  Ru160  1  0.74966441  0.05634810  0.29287647  1
  Ru4+  Ru161  1  0.25006101  0.92008458  0.74860425  1
  Ru4+  Ru162  1  0.74902622  0.61138701  0.49007719  1
  Ru4+  Ru163  1  0.74903520  0.75342202  0.49619175  1
  Ru4+  Ru164  1  0.24966142  0.73000332  0.73890176  1
  Ru4+  Ru165  1  0.74914321  0.08092513  0.01938752  1
  Ru4+  Ru166  1  0.75157588  0.25778016  0.74342728  1
  Ru4+  Ru167  1  0.24901230  0.24602733  0.50969206  1
  Ru4+  Ru168  1  0.75000460  0.90392881  0.00964972  1
  Ru4+  Ru169  1  0.74925846  0.29090437  0.25084392  1
  Ru4+  Ru170  1  0.24979427  0.10290478  0.49655216  1
  Ru4+  Ru171  1  0.75137484  0.58212010  0.00881408  1
  Ru4+  Ru172  1  0.24806592  0.71783240  0.00341072  1
  Ru4+  Ru173  1  0.24938776  0.58000589  0.75714911  1
  Ru4+  Ru174  1  0.74995369  0.91738654  0.50220459  1
  Ru4+  Ru175  1  0.74871516  0.92369629  0.23753540  1
  Ru4+  Ru176  1  0.24943401  0.93181815  0.47261556  1
  Ru4+  Ru177  1  0.74997804  0.40181541  0.73343797  1
  Ru4+  Ru178  1  0.74917288  0.25249070  0.01334111  1
  Ru4+  Ru179  1  0.24944029  0.95777993  0.01964224  1
  O2-  O180  1  0.15226971  0.07965394  -0.00099831  1
  O2-  O181  1  0.16220287  0.08161684  0.25259922  1
  O2-  O182  1  0.16867232  0.08550473  0.49241334  1
  O2-  O183  1  0.16585404  0.08224633  0.75364709  1
  O2-  O184  1  0.16794839  0.41694578  -0.00157518  1
  O2-  O185  1  0.16541739  0.41416555  0.24877099  1
  O2-  O186  1  0.16570950  0.41663067  0.50497943  1
  O2-  O187  1  0.16508529  0.41917636  0.74507613  1
  O2-  O188  1  0.16475692  0.74395732  -0.00121210  1
  O2-  O189  1  0.16521662  0.74523224  0.25732748  1
  O2-  O190  1  0.16204015  0.74092244  0.49903503  1
  O2-  O191  1  0.16432066  0.74331478  0.74616183  1
  O2-  O192  1  0.66312058  0.07941186  0.00361311  1
  O2-  O193  1  0.66481244  0.07659716  0.24905180  1
  O2-  O194  1  0.66114410  0.08287599  0.50377781  1
  O2-  O195  1  0.66020327  0.07844474  0.74642046  1
  O2-  O196  1  0.66337002  0.41007919  0.00329390  1
  O2-  O197  1  0.67264179  0.41579223  0.23740419  1
  O2-  O198  1  0.66707540  0.41265790  0.51187311  1
  O2-  O199  1  0.66109481  0.41493679  0.74918692  1
  O2-  O200  1  0.66877674  0.75158105  0.00408514  1
  O2-  O201  1  0.65859474  0.74393794  0.25057101  1
  O2-  O202  1  0.66436691  0.74879981  0.49791352  1
  O2-  O203  1  0.66387638  0.74443424  0.75052301  1
  O2-  O204  1  0.33101464  0.25291763  -0.00587627  1
  O2-  O205  1  0.33303452  0.24785806  0.24933958  1
  O2-  O206  1  0.33038282  0.24946939  0.50190457  1
  O2-  O207  1  0.33425964  0.24952802  0.74887096  1
  O2-  O208  1  0.33709257  0.58849782  -0.00250714  1
  O2-  O209  1  0.33971670  0.58339061  0.25182139  1
  O2-  O210  1  0.34062048  0.58464812  0.50302760  1
  O2-  O211  1  0.33154792  0.58531451  0.74800935  1
  O2-  O212  1  0.33399237  0.92780299  0.00336096  1
  O2-  O213  1  0.34345594  0.92496627  0.24821836  1
  O2-  O214  1  0.33022493  0.91868568  0.49542755  1
  O2-  O215  1  0.33444925  0.91856871  0.75079453  1
  O2-  O216  1  0.83146281  0.25034012  -0.00056901  1
  O2-  O217  1  0.83224057  0.25233789  0.25490732  1
  O2-  O218  1  0.83048670  0.25005157  0.51005472  1
  O2-  O219  1  0.83670991  0.25446015  0.74760700  1
  O2-  O220  1  0.83459828  0.58109584  0.00238567  1
  O2-  O221  1  0.83711265  0.58302927  0.24826344  1
  O2-  O222  1  0.83073917  0.58419551  0.49326584  1
  O2-  O223  1  0.83271769  0.58718513  0.75259180  1
  O2-  O224  1  0.83101295  0.91755556  -0.00271863  1
  O2-  O225  1  0.82893656  0.91444798  0.25346519  1
  O2-  O226  1  0.83512303  0.92053229  0.50397740  1
  O2-  O227  1  0.83436251  0.92093628  0.74850010  1
  O2-  O228  1  0.16905181  0.25122979  0.00017266  1
  O2-  O229  1  0.16898813  0.24785042  0.24340349  1
  O2-  O230  1  0.16601493  0.24591949  0.50438421  1
  O2-  O231  1  0.16044079  0.25115078  0.74853343  1
  O2-  O232  1  0.16393629  0.58480544  -0.00438608  1
  O2-  O233  1  0.16556611  0.58584453  0.25667951  1
  O2-  O234  1  0.16451380  0.58898293  0.50329108  1
  O2-  O235  1  0.16582444  0.58670937  0.74538068  1
  O2-  O236  1  0.16383032  0.92231524  0.00104550  1
  O2-  O237  1  0.15721802  0.92539753  0.24964024  1
  O2-  O238  1  0.16654247  0.91980778  0.49443460  1
  O2-  O239  1  0.16572931  0.91817767  0.75361107  1
  O2-  O240  1  0.66644688  0.25276566  0.00451692  1
  O2-  O241  1  0.66675202  0.25640257  0.24199718  1
  O2-  O242  1  0.67196963  0.24961646  0.51048431  1
  O2-  O243  1  0.66520060  0.25444724  0.74673842  1
  O2-  O244  1  0.66955803  0.58844094  0.00214202  1
  O2-  O245  1  0.66030816  0.58456374  0.25100608  1
  O2-  O246  1  0.66693999  0.58813141  0.49781185  1
  O2-  O247  1  0.66576539  0.59144819  0.74760357  1
  O2-  O248  1  0.66841275  0.91944256  0.00479001  1
  O2-  O249  1  0.66548412  0.91764252  0.24843886  1
  O2-  O250  1  0.66549619  0.92045212  0.50157126  1
  O2-  O251  1  0.66753793  0.91802259  0.74830182  1
  O2-  O252  1  0.34519446  0.07393420  0.00140010  1
  O2-  O253  1  0.33765578  0.08522235  0.25034497  1
  O2-  O254  1  0.33184013  0.08083907  0.49807554  1
  O2-  O255  1  0.33063907  0.08048921  0.75364349  1
  O2-  O256  1  0.32829412  0.41553797  -0.00731107  1
  O2-  O257  1  0.32786325  0.41742168  0.25046087  1
  O2-  O258  1  0.32304549  0.42539067  0.50848128  1
  O2-  O259  1  0.33130271  0.41830122  0.75381367  1
  O2-  O260  1  0.32941077  0.74287865  -0.00452438  1
  O2-  O261  1  0.33552987  0.74855785  0.25467426  1
  O2-  O262  1  0.34123449  0.74381463  0.50127401  1
  O2-  O263  1  0.33484776  0.74237072  0.74731879  1
  O2-  O264  1  0.83462624  0.08032930  -0.00130108  1
  O2-  O265  1  0.83400447  0.07682853  0.25050057  1
  O2-  O266  1  0.83266925  0.08326270  0.50646257  1
  O2-  O267  1  0.84139658  0.07950647  0.74873228  1
  O2-  O268  1  0.83010285  0.42154186  -0.00934666  1
  O2-  O269  1  0.83059830  0.41431179  0.24987848  1
  O2-  O270  1  0.83567125  0.41356247  0.50426867  1
  O2-  O271  1  0.83645861  0.41453272  0.74858759  1
  O2-  O272  1  0.83752767  0.74914389  -0.00174223  1
  O2-  O273  1  0.83982192  0.75178016  0.24616599  1
  O2-  O274  1  0.83084151  0.75009711  0.49789605  1
  O2-  O275  1  0.83686926  0.74589972  0.75366761  1
  O2-  O276  1  0.45866959  0.44772721  0.77349337  1
  O2-  O277  1  0.44214259  0.57513270  0.23901316  1
  O2-  O278  1  0.46292034  0.22430014  0.28389690  1
  O2-  O279  1  0.04943561  0.56310325  0.23784635  1
  O2-  O280  1  0.04401810  0.77046704  0.98870819  1
  O2-  O281  1  0.55136124  0.24207913  0.55150665  1
  O2-  O282  1  0.45627923  0.90797069  0.26343818  1
  O2-  O283  1  0.05199531  0.58971174  0.26412709  1
  O2-  O284  1  0.54404952  0.09700569  0.74048011  1
  O2-  O285  1  0.44622145  0.75758179  0.23267410  1
  O2-  O286  1  0.54805752  0.08878216  0.51866611  1
  O2-  O287  1  0.55294296  0.76194258  0.97828636  1
  O2-  O288  1  0.96359149  0.56249136  0.46192220  1
  O2-  O289  1  0.96140755  0.21876316  0.53437335  1
  O2-  O290  1  0.05006582  0.90110929  0.77089808  1
  O2-  O291  1  0.95789873  0.57013859  1.00792507  1
  O2-  O292  1  0.03984488  0.21001029  0.03818497  1
  O2-  O293  1  0.95064526  0.56959520  0.26143162  1
  O2-  O294  1  0.55109571  0.42378679  0.98924962  1
  O2-  O295  1  0.06137239  0.41304621  0.01847186  1
  O2-  O296  1  0.03567263  0.21135500  0.21523007  1
  O2-  O297  1  0.44552936  0.57238148  0.00651695  1
  O2-  O298  1  0.96832977  0.90972048  0.31430366  1
  O2-  O299  1  0.44331151  0.42844015  0.29740746  1
  O2-  O300  1  0.54350597  0.43557276  0.21318669  1
  O2-  O301  1  0.94725935  0.91103256  0.73663365  1
  O2-  O302  1  0.05476597  0.75644451  0.27376154  1
  O2-  O303  1  0.96645504  0.56336188  0.79433775  1
  O2-  O304  1  0.05516652  0.57347469  0.01073620  1
  O2-  O305  1  0.95380439  0.09340366  -0.01190228  1
  O2-  O306  1  0.96328356  0.43710750  -0.01625309  1
  O2-  O307  1  0.45710705  0.57586677  0.27065263  1
  O2-  O308  1  0.04497036  0.90466162  0.50615676  1
  O2-  O309  1  0.46436307  0.45735071  0.50937500  1
  O2-  O310  1  0.03557458  0.11211336  0.45089042  1
  O2-  O311  1  0.04736285  0.43259918  0.50328440  1
  O2-  O312  1  0.44142422  0.75649414  0.02581291  1
  O2-  O313  1  0.46131582  0.44750216  0.52486192  1
  O2-  O314  1  0.96595927  0.78729996  0.22704251  1
  O2-  O315  1  0.95894670  0.43418461  0.97226627  1
  O2-  O316  1  0.44921598  0.09032116  0.22936015  1
  O2-  O317  1  0.44395309  0.90288969  0.01172401  1
  O2-  O318  1  0.54671409  0.76938524  0.25131039  1
  O2-  O319  1  0.05235356  0.42384761  0.75900796  1
  O2-  O320  1  0.94895888  0.90748644  0.01081122  1
  O2-  O321  1  0.94458951  0.42639675  0.76168675  1
  O2-  O322  1  0.45286668  0.08478889  0.26795219  1
  O2-  O323  1  0.45209394  0.89631857  0.75344611  1
  O2-  O324  1  0.56428670  0.59044617  0.98000075  1
  O2-  O325  1  0.91763434  0.60341633  0.55929031  1
  O2-  O326  1  0.92954888  0.70379698  0.30908072  1
  O2-  O327  1  0.55768267  0.74821611  0.71862209  1
  O2-  O328  1  0.40335739  0.38740990  0.44517039  1
  O2-  O329  1  0.92511688  0.25768244  0.45454594  1
  O2-  O330  1  0.06590101  0.26100899  0.48176834  1
  O2-  O331  1  0.56674507  0.40887191  0.47935850  1
  O2-  O332  1  0.43901883  0.93531096  0.02757789  1
  O2-  O333  1  0.56586312  0.92847549  0.96704828  1
  O2-  O334  1  0.42915057  0.07665630  0.68238182  1
  O2-  O335  1  0.44049908  0.75358602  0.02630149  1
  O2-  O336  1  0.43471770  0.59029546  0.72433068  1
  O2-  O337  1  0.08301240  0.27145513  0.30916579  1
  O2-  O338  1  0.42184590  0.42006524  0.15453348  1
  O2-  O339  1  0.93609080  0.41862339  0.19007569  1
  O2-  O340  1  0.93037395  0.62633079  0.95421251  1
  O2-  O341  1  0.42938272  0.26671715  0.16678983  1
  O2-  O342  1  0.93979141  0.92025477  0.01524124  1
  O2-  O343  1  0.43814734  0.24472616  0.49229210  1
  O2-  O344  1  0.92117069  0.93146862  0.19307457  1
  O2-  O345  1  0.44825037  0.42226567  0.29678396  1
  O2-  O346  1  0.42799971  0.09270543  0.83021090  1
  O2-  O347  1  0.59171230  0.40026484  0.31139870  1
  O2-  O348  1  0.90539975  0.38698643  0.06032900  1
  O2-  O349  1  0.92296356  0.60909810  0.70045510  1
  O2-  O350  1  0.93683960  0.25277117  0.01770046  1
  O2-  O351  1  0.07357871  0.27562983  0.92330405  1
  O2-  O352  1  0.43730947  0.07640174  0.46228102  1
  O2-  O353  1  0.05780869  0.07537690  0.78948764  1
  O2-  O354  1  0.56587499  0.59133105  0.67079088  1
  O2-  O355  1  0.56334831  0.59199951  0.49064185  1
  O2-  O356  1  0.08081308  0.05840149  0.55184422  1
  O2-  O357  1  0.43849451  0.40684697  0.01373103  1
  O2-  O358  1  0.43927830  0.25050700  0.97384961  1
  O2-  O359  1  0.56127817  0.92844314  0.77846587  1
  O2-  O360  1  0.43907664  0.24840498  0.77974898  1
  O2-  O361  1  0.56104568  0.25982952  0.03527156  1
  O2-  O362  1  0.56147606  0.74907322  0.97052765  1
  O2-  O363  1  0.43917426  0.92050949  0.46768294  1
  O2-  O364  1  0.93893077  0.74250415  0.46926520  1
  O2-  O365  1  0.93523772  0.40641458  0.52619754  1
  O2-  O366  1  0.92237646  0.42340363  0.32792928  1
  O2-  O367  1  0.42501273  0.37928955  0.67559007  1
  O2-  O368  1  0.58661745  0.23212264  0.39635296  1
  O2-  O369  1  0.55476270  0.24815198  0.54415695  1
  O2-  O370  1  0.93720143  0.06538041  0.46581951  1
  O2-  O371  1  0.56641806  0.60176768  0.81954352  1
  O2-  O372  1  0.24925719  0.00832507  0.56231711  1
  O2-  O373  1  0.25115915  0.63492772  0.07311051  1
  O2-  O374  1  0.75002409  -0.00262669  0.62478366  1
  O2-  O375  1  0.24793698  0.32318045  0.33476510  1
  O2-  O376  1  0.75084628  0.66415812  0.89628279  1
  O2-  O377  1  0.74925924  0.33991471  0.83324772  1
  O2-  O378  1  0.74933669  0.67449268  0.37599718  1
  O2-  O379  1  0.74968086  0.34214633  0.96175410  1
  O2-  O380  1  0.24668652  0.31818005  0.62614860  1
  O2-  O381  1  0.74737855  0.66686586  0.13255745  1
  O2-  O382  1  0.24787459  0.34582585  0.07851935  1
  O2-  O383  1  0.24790208  0.32949905  0.16953194  1
  O2-  O384  1  0.25153452  0.32903284  0.87268043  1
  O2-  O385  1  0.24927492  -0.00516899  0.88527458  1
  O2-  O386  1  0.74967888  -0.00392464  0.94237097  1
  O2-  O387  1  0.25011810  0.65205866  0.20478310  1
  O2-  O388  1  0.24979485  0.33260220  0.42769171  1
  O2-  O389  1  0.24990981  0.66595550  0.88471319  1
  O2-  O390  1  0.75106364  0.01885802  0.80923721  1
  O2-  O391  1  0.75070434  -0.00357538  0.40528020  1
  O2-  O392  1  0.24948530  0.01397560  0.69692477  1
  O2-  O393  1  0.74865469  0.67663199  0.60729027  1
  O2-  O394  1  0.24926883  0.00792221  0.13212850  1
  O2-  O395  1  0.75283046  0.34279126  0.36587081  1
  O2-  O396  1  0.75069598  0.51185295  0.16325098  1
  O2-  O397  1  0.74847049  0.49928503  0.92833859  1
  O2-  O398  1  0.24965817  0.80387748  0.18099163  1
  O2-  O399  1  0.24975763  0.83425578  0.65996633  1
  O2-  O400  1  0.74936384  0.48980870  0.07883344  1
  O2-  O401  1  0.74946618  0.15922151  0.34528639  1
  O2-  O402  1  0.74974201  0.51199530  0.32994916  1
  O2-  O403  1  0.25030867  0.83325936  0.06706272  1
  O2-  O404  1  0.74957903  0.17867581  0.82214071  1
  O2-  O405  1  0.75061887  0.53150493  0.56530390  1
  O2-  O406  1  0.74966907  0.48826460  0.67210978  1
  O2-  O407  1  0.24985227  0.16156831  0.60272720  1
  O2-  O408  1  0.24968621  0.81547942  0.37516944  1
  O2-  O409  1  0.75037624  0.84030291  0.10314709  1
  O2-  O410  1  0.25039399  0.81857998  0.80482034  1
  O2-  O411  1  0.24926093  0.50223047  0.40663797  1
  O2-  O412  1  0.24964910  0.16682373  0.39743548  1
  O2-  O413  1  0.74955548  0.83474687  0.40598858  1
  O2-  O414  1  0.74991918  0.83542402  0.59502691  1
  O2-  O415  1  0.24987834  0.19457384  0.10628517  1
  O2-  O416  1  0.74931258  0.16367958  0.94566655  1
  O2-  O417  1  0.24915347  0.18718472  0.88805484  1
  O2-  O418  1  0.24915289  0.50774254  0.83534812  1
  O2-  O419  1  0.24946747  0.49687629  0.15831028  1
  O2-  O420  1  0.47552157  0.68036592  0.60915125  1
  O2-  O421  1  0.52555733  0.33603009  0.36418055  1
  O2-  O422  1  0.45136554  0.66928753  0.39426131  1
  O2-  O423  1  0.52957859  0.00260032  0.12814712  1
  O2-  O424  1  0.48225383  0.34233336  0.87431893  1
  O2-  O425  1  0.47860423  -0.00883529  0.88854962  1
  O2-  O426  1  0.97389608  0.32323494  0.36671430  1
  O2-  O427  1  0.54433593  0.66681319  0.36659409  1
  O2-  O428  1  0.95136494  0.67558065  0.11792774  1
  O2-  O429  1  0.48471276  -0.02138979  0.61631104  1
  O2-  O430  1  0.47439881  0.31124426  0.39487331  1
  O2-  O431  1  0.02973637  0.66504193  0.87030799  1
  O2-  O432  1  0.97463036  0.31587091  0.86938726  1
  O2-  O433  1  0.98232894  0.32699788  0.63238807  1
  O2-  O434  1  0.98901691  0.69238380  0.63028244  1
  O2-  O435  1  0.47291201  0.66944655  0.86821001  1
  O2-  O436  1  0.02903897  0.35256172  0.38198708  1
  O2-  O437  1  0.52853475  0.35738238  0.63861097  1
  O2-  O438  1  0.04572613  0.67433335  0.12671766  1
  O2-  O439  1  0.52948220  0.00088099  0.37282384  1
  O2-  O440  1  0.48720271  0.65598869  0.13363931  1
  O2-  O441  1  0.99380052  0.32376912  0.12331998  1
  O2-  O442  1  0.99042544  0.01880164  0.12770279  1
  O2-  O443  1  0.01948756  -0.01319331  0.63293704  1
