# generated using pymatgen
data_La7(Ru4O11)2
_symmetry_space_group_name_H-M   'P 1'
_cell_length_a   23.98965254
_cell_length_b   16.82933915
_cell_length_c   15.42604183
_cell_angle_alpha   89.99990224
_cell_angle_beta   89.99921551
_cell_angle_gamma   90.00079935
_symmetry_Int_Tables_number   1
_chemical_formula_structural   La7(Ru4O11)2
_chemical_formula_sum   'La84 Ru96 O264'
_cell_volume   6227.95584822
_cell_formula_units_Z   12
loop_
 _symmetry_equiv_pos_site_id
 _symmetry_equiv_pos_as_xyz
  1  'x, y, z'
loop_
 _atom_type_symbol
 _atom_type_oxidation_number
  La3+  3.0
  Ru4+  4.0
  O2-  -2.0
loop_
 _atom_site_type_symbol
 _atom_site_label
 _atom_site_symmetry_multiplicity
 _atom_site_fract_x
 _atom_site_fract_y
 _atom_site_fract_z
 _atom_site_occupancy
  La3+  La0  1  0.13859929  -0.00081851  0.12470383  1
  La3+  La1  1  0.13742676  -0.00220524  0.37734191  1
  La3+  La2  1  0.13767180  -0.00223732  0.62240728  1
  La3+  La3  1  0.13828138  -0.00089285  0.87582174  1
  La3+  La4  1  0.13792087  0.33374830  0.12475820  1
  La3+  La5  1  0.13734920  0.33215984  0.37505307  1
  La3+  La6  1  0.14061024  0.33382697  0.62411163  1
  La3+  La7  1  0.14104912  0.33477616  0.87652141  1
  La3+  La8  1  0.13986713  0.66556548  0.12383362  1
  La3+  La9  1  0.14005624  0.66784156  0.37416102  1
  La3+  La10  1  0.14078601  0.66675677  0.62520804  1
  La3+  La11  1  0.13878991  0.66457852  0.87500492  1
  La3+  La12  1  0.63757674  -0.00006710  0.12162461  1
  La3+  La13  1  0.63622210  0.00021172  0.37494281  1
  La3+  La14  1  0.63867625  -0.00013146  0.62756226  1
  La3+  La15  1  0.63897649  -0.00025845  0.87626713  1
  La3+  La16  1  0.64070942  0.33557285  0.12402291  1
  La3+  La17  1  0.63956735  0.33600765  0.37439870  1
  La3+  La18  1  0.63878337  0.33343307  0.62473887  1
  La3+  La19  1  0.63954295  0.33316426  0.87634160  1
  La3+  La20  1  0.63916704  0.66434496  0.12550899  1
  La3+  La21  1  0.63841494  0.66411666  0.37241544  1
  La3+  La22  1  0.63781826  0.66736376  0.62707317  1
  La3+  La23  1  0.63688698  0.66690610  0.87608935  1
  La3+  La24  1  0.36276046  -0.00198841  0.12322589  1
  La3+  La25  1  0.36153065  -0.00138104  0.37616917  1
  La3+  La26  1  0.36078520  -0.00002737  0.62588563  1
  La3+  La27  1  0.36319264  -0.00079740  0.87572969  1
  La3+  La28  1  0.36027611  0.33383283  0.12428833  1
  La3+  La29  1  0.36028213  0.33390053  0.37473451  1
  La3+  La30  1  0.35895852  0.33447632  0.62479107  1
  La3+  La31  1  0.35876372  0.33463346  0.87599456  1
  La3+  La32  1  0.36036854  0.66668838  0.12385691  1
  La3+  La33  1  0.36089918  0.66669497  0.37494409  1
  La3+  La34  1  0.36001142  0.66592659  0.62561613  1
  La3+  La35  1  0.36113761  0.66655362  0.87443905  1
  La3+  La36  1  0.86484855  -0.00266650  0.12678326  1
  La3+  La37  1  0.86606858  -0.00239882  0.37176729  1
  La3+  La38  1  0.86245155  -0.00027412  0.62836614  1
  La3+  La39  1  0.86094379  0.00028225  0.87385826  1
  La3+  La40  1  0.86045602  0.33487162  0.12396500  1
  La3+  La41  1  0.86087157  0.33540223  0.37615933  1
  La3+  La42  1  0.86255843  0.33423088  0.62381813  1
  La3+  La43  1  0.86222344  0.33294766  0.87618014  1
  La3+  La44  1  0.85785843  0.66629009  0.12497262  1
  La3+  La45  1  0.86155179  0.66458216  0.37289547  1
  La3+  La46  1  0.86123725  0.66708874  0.62628728  1
  La3+  La47  1  0.86105411  0.66730059  0.87431559  1
  La3+  La48  1  -0.00064502  0.16819489  0.61611094  1
  La3+  La49  1  0.49916030  0.49686406  0.88541950  1
  La3+  La50  1  -0.00099205  0.50171480  0.61574046  1
  La3+  La51  1  0.49693946  0.16849413  0.36409202  1
  La3+  La52  1  -0.00083700  0.83156316  0.88312724  1
  La3+  La53  1  -0.00117557  0.83757900  0.38324510  1
  La3+  La54  1  0.49909997  0.16557210  0.88244285  1
  La3+  La55  1  0.50037235  0.83150968  0.87330077  1
  La3+  La56  1  -0.00366532  0.83677452  0.11839285  1
  La3+  La57  1  0.50183408  0.17396026  0.38139918  1
  La3+  La58  1  0.00124047  0.83247192  0.13903333  1
  La3+  La59  1  0.00139995  0.16770733  0.36361439  1
  La3+  La60  1  0.50033625  0.16620882  0.13177237  1
  La3+  La61  1  0.50103408  0.50122446  0.63138216  1
  La3+  La62  1  0.49636901  0.16207219  0.63049353  1
  La3+  La63  1  -0.00059730  0.83344740  0.86194744  1
  La3+  La64  1  0.00121209  0.49982587  0.11246742  1
  La3+  La65  1  0.50132467  0.83285939  0.61882509  1
  La3+  La66  1  0.50214261  0.50049554  0.12494244  1
  La3+  La67  1  -0.00140438  0.16671359  0.88244956  1
  La3+  La68  1  -0.00052099  0.16685733  0.13337532  1
  La3+  La69  1  0.00030667  0.83453071  0.61303540  1
  La3+  La70  1  0.49964530  0.83174082  0.36284762  1
  La3+  La71  1  0.50007665  0.50659989  0.86546261  1
  La3+  La72  1  0.24993072  0.49885994  0.50060440  1
  La3+  La73  1  0.24997810  0.20516384  0.23303597  1
  La3+  La74  1  0.24997109  0.20357271  0.74741940  1
  La3+  La75  1  0.74989972  0.16541848  -0.03987377  1
  La3+  La76  1  0.75020644  0.82285224  0.48261989  1
  La3+  La77  1  0.25005932  0.21523387  -0.00339853  1
  La3+  La78  1  0.75012874  0.49910078  0.49119687  1
  La3+  La79  1  0.74993650  0.49895420  -0.00701625  1
  La3+  La80  1  0.75016011  0.17158870  0.30647129  1
  La3+  La81  1  0.74991730  0.46080863  0.74751183  1
  La3+  La82  1  0.24998355  0.19832097  0.50178289  1
  La3+  La83  1  0.75003165  0.78717924  0.24547812  1
  Ru4+  Ru84  1  0.00064942  0.00319082  0.00104471  1
  Ru4+  Ru85  1  -0.00137098  -0.00147514  0.24963326  1
  Ru4+  Ru86  1  -0.00297113  0.00351116  0.50014719  1
  Ru4+  Ru87  1  0.00204817  -0.00335277  0.74947484  1
  Ru4+  Ru88  1  -0.00292431  0.33002021  0.00054779  1
  Ru4+  Ru89  1  -0.00033760  0.33200885  0.25181115  1
  Ru4+  Ru90  1  0.00057691  0.33411825  0.49475030  1
  Ru4+  Ru91  1  -0.00079827  0.33274524  0.75040209  1
  Ru4+  Ru92  1  0.00082373  0.66686658  -0.00410558  1
  Ru4+  Ru93  1  0.00239676  0.66505406  0.25585597  1
  Ru4+  Ru94  1  -0.00006277  0.66534791  0.49723492  1
  Ru4+  Ru95  1  -0.00021151  0.66615510  0.75071867  1
  Ru4+  Ru96  1  0.49902588  -0.00185182  0.00210075  1
  Ru4+  Ru97  1  0.49935106  -0.00217648  0.25101336  1
  Ru4+  Ru98  1  0.50052457  0.00084481  0.50248762  1
  Ru4+  Ru99  1  0.50441089  -0.00362988  0.74526467  1
  Ru4+  Ru100  1  0.49757703  0.33002096  -0.00021244  1
  Ru4+  Ru101  1  0.49904092  0.33559698  0.25194818  1
  Ru4+  Ru102  1  0.49982157  0.33317745  0.50064993  1
  Ru4+  Ru103  1  0.49802717  0.33186892  0.74797273  1
  Ru4+  Ru104  1  0.49749115  0.67434323  0.00330258  1
  Ru4+  Ru105  1  0.50090888  0.66458475  0.24668947  1
  Ru4+  Ru106  1  0.49994203  0.66637069  0.50164077  1
  Ru4+  Ru107  1  0.49715422  0.66458480  0.74724000  1
  Ru4+  Ru108  1  0.11144553  0.16603168  -0.00039197  1
  Ru4+  Ru109  1  0.11445787  0.16389692  0.25096343  1
  Ru4+  Ru110  1  0.11400732  0.16376197  0.50085642  1
  Ru4+  Ru111  1  0.11112921  0.16786197  0.75067010  1
  Ru4+  Ru112  1  0.11591187  0.50190023  -0.00044000  1
  Ru4+  Ru113  1  0.11322321  0.50006787  0.25002236  1
  Ru4+  Ru114  1  0.11148593  0.50033318  0.49993832  1
  Ru4+  Ru115  1  0.11497037  0.50086164  0.75054184  1
  Ru4+  Ru116  1  0.11362421  0.83245431  -0.00068243  1
  Ru4+  Ru117  1  0.11358329  0.83266551  0.25012346  1
  Ru4+  Ru118  1  0.11583466  0.83178447  0.50063584  1
  Ru4+  Ru119  1  0.11239362  0.83130322  0.74999020  1
  Ru4+  Ru120  1  0.61487211  0.16962685  0.00048169  1
  Ru4+  Ru121  1  0.61285818  0.16752107  0.24928487  1
  Ru4+  Ru122  1  0.61265667  0.16846780  0.50029570  1
  Ru4+  Ru123  1  0.61381374  0.16617691  0.75002206  1
  Ru4+  Ru124  1  0.61644437  0.49781875  0.00080047  1
  Ru4+  Ru125  1  0.61381274  0.49992659  0.25046979  1
  Ru4+  Ru126  1  0.61195725  0.50053060  0.50012660  1
  Ru4+  Ru127  1  0.61272876  0.50074497  0.74864008  1
  Ru4+  Ru128  1  0.61257781  0.83403987  -0.00027370  1
  Ru4+  Ru129  1  0.61091550  0.83338216  0.24944827  1
  Ru4+  Ru130  1  0.61184438  0.83188713  0.50008461  1
  Ru4+  Ru131  1  0.61641172  0.83592313  0.75009708  1
  Ru4+  Ru132  1  0.38844715  0.16817184  0.00072160  1
  Ru4+  Ru133  1  0.38896060  0.16761644  0.24964555  1
  Ru4+  Ru134  1  0.38701010  0.16929534  0.50060194  1
  Ru4+  Ru135  1  0.38599935  0.17159182  0.74961320  1
  Ru4+  Ru136  1  0.38411162  0.49882879  0.00045066  1
  Ru4+  Ru137  1  0.38676483  0.49797344  0.25149181  1
  Ru4+  Ru138  1  0.38781415  0.49964807  0.50019705  1
  Ru4+  Ru139  1  0.38448010  0.50066127  0.74950473  1
  Ru4+  Ru140  1  0.38446103  0.83014382  -0.00027683  1
  Ru4+  Ru141  1  0.38761274  0.83289615  0.25067572  1
  Ru4+  Ru142  1  0.38495579  0.83315272  0.50055750  1
  Ru4+  Ru143  1  0.38601035  0.83097302  0.74965347  1
  Ru4+  Ru144  1  0.88737548  0.16737420  -0.00016455  1
  Ru4+  Ru145  1  0.88912208  0.16641452  0.24987879  1
  Ru4+  Ru146  1  0.88829225  0.16664430  0.49982613  1
  Ru4+  Ru147  1  0.88516897  0.17019898  0.75041986  1
  Ru4+  Ru148  1  0.88677952  0.49971387  -0.00040284  1
  Ru4+  Ru149  1  0.88325102  0.50131558  0.25033524  1
  Ru4+  Ru150  1  0.88605658  0.50366128  0.49922726  1
  Ru4+  Ru151  1  0.88848882  0.50068198  0.75102668  1
  Ru4+  Ru152  1  0.88738578  0.83310654  0.00004714  1
  Ru4+  Ru153  1  0.88756329  0.83572108  0.25131876  1
  Ru4+  Ru154  1  0.88970489  0.83316305  0.49885349  1
  Ru4+  Ru155  1  0.88621424  0.83365413  0.74921453  1
  Ru4+  Ru156  1  0.75025150  0.94322855  0.51482338  1
  Ru4+  Ru157  1  0.75012755  0.60710107  0.75318023  1
  Ru4+  Ru158  1  0.75022964  0.09262814  0.49980978  1
  Ru4+  Ru159  1  0.75002646  0.08454775  0.75388074  1
  Ru4+  Ru160  1  0.24994778  0.58083057  0.24865063  1
  Ru4+  Ru161  1  0.25002370  0.75262193  0.75007453  1
  Ru4+  Ru162  1  0.24993847  0.90831971  0.75092909  1
  Ru4+  Ru163  1  0.75003209  0.28649648  0.22701333  1
  Ru4+  Ru164  1  0.75018346  0.69999374  0.50602382  1
  Ru4+  Ru165  1  0.75011197  0.06000498  0.22605261  1
  Ru4+  Ru166  1  0.25011661  0.91502138  0.25365908  1
  Ru4+  Ru167  1  0.75005004  0.24888921  0.75197814  1
  Ru4+  Ru168  1  0.25030870  0.05771490  0.50259955  1
  Ru4+  Ru169  1  0.75012854  0.75540088  0.00051409  1
  Ru4+  Ru170  1  0.74969429  0.92535841  0.23637954  1
  Ru4+  Ru171  1  0.24993935  0.41646995  0.25024121  1
  Ru4+  Ru172  1  0.24998794  0.75009442  0.50118227  1
  Ru4+  Ru173  1  0.75051343  0.91433873  0.00050820  1
  Ru4+  Ru174  1  0.25018679  0.07296238  0.00059802  1
  Ru4+  Ru175  1  0.25011610  0.74752338  0.24900083  1
  Ru4+  Ru176  1  0.25025210  0.06419901  0.26514637  1
  Ru4+  Ru177  1  0.25016762  0.06930736  0.74404860  1
  Ru4+  Ru178  1  0.25009857  0.75137020  0.00292030  1
  Ru4+  Ru179  1  0.75019540  0.24722605  0.49904207  1
  O2-  O180  1  0.16642172  0.07985009  0.00010508  1
  O2-  O181  1  0.16719922  0.07992742  0.24999850  1
  O2-  O182  1  0.16664045  0.08042239  0.50110014  1
  O2-  O183  1  0.16614041  0.07929324  0.74974566  1
  O2-  O184  1  0.16668733  0.41568657  0.00089625  1
  O2-  O185  1  0.16718627  0.41452555  0.24982837  1
  O2-  O186  1  0.16722162  0.41540533  0.49903830  1
  O2-  O187  1  0.16784503  0.41478076  0.74881361  1
  O2-  O188  1  0.16789171  0.74755552  -0.00058707  1
  O2-  O189  1  0.16741074  0.74800321  0.24893322  1
  O2-  O190  1  0.16696676  0.74810135  0.49992984  1
  O2-  O191  1  0.16815868  0.74792231  0.75108760  1
  O2-  O192  1  0.66748578  0.08183100  0.00036528  1
  O2-  O193  1  0.66593624  0.07913684  0.24990602  1
  O2-  O194  1  0.66740471  0.07969787  0.49954599  1
  O2-  O195  1  0.66783170  0.08154002  0.75020973  1
  O2-  O196  1  0.66766472  0.41446209  -0.00062275  1
  O2-  O197  1  0.66700731  0.41518568  0.25040968  1
  O2-  O198  1  0.66865192  0.41365838  0.50069118  1
  O2-  O199  1  0.66516602  0.41130328  0.75001883  1
  O2-  O200  1  0.66733725  0.74773528  -0.00056369  1
  O2-  O201  1  0.66527853  0.74578469  0.25163531  1
  O2-  O202  1  0.66574652  0.74567657  0.49945064  1
  O2-  O203  1  0.66709710  0.74792870  0.75059522  1
  O2-  O204  1  0.33645844  0.25407874  0.00108454  1
  O2-  O205  1  0.33543875  0.25408659  0.25041494  1
  O2-  O206  1  0.33448146  0.25289689  0.49904454  1
  O2-  O207  1  0.33409793  0.25363813  0.74930307  1
  O2-  O208  1  0.33236611  0.58520134  0.00103917  1
  O2-  O209  1  0.33223039  0.58588322  0.24851589  1
  O2-  O210  1  0.33217857  0.58608034  0.49983030  1
  O2-  O211  1  0.33212642  0.58537463  0.74892035  1
  O2-  O212  1  0.33305643  0.91860814  0.00023847  1
  O2-  O213  1  0.33319062  0.91931379  0.24967792  1
  O2-  O214  1  0.33206313  0.91798351  0.49950324  1
  O2-  O215  1  0.33246146  0.91909763  0.75077486  1
  O2-  O216  1  0.83175817  0.25208493  -0.00072516  1
  O2-  O217  1  0.83386451  0.25380241  0.24998733  1
  O2-  O218  1  0.83257577  0.25291633  0.50057838  1
  O2-  O219  1  0.83176414  0.25196948  0.74978851  1
  O2-  O220  1  0.83201752  0.58625158  -0.00175763  1
  O2-  O221  1  0.83259820  0.58508589  0.25196532  1
  O2-  O222  1  0.83224378  0.58672913  0.49954624  1
  O2-  O223  1  0.83240956  0.58680999  0.75003364  1
  O2-  O224  1  0.83169277  0.91955228  0.00043944  1
  O2-  O225  1  0.83294250  0.92006179  0.25011251  1
  O2-  O226  1  0.83410924  0.92224760  0.49957390  1
  O2-  O227  1  0.83210674  0.91926696  0.74992400  1
  O2-  O228  1  0.16388882  0.25410116  0.00126869  1
  O2-  O229  1  0.16469121  0.25311809  0.25032277  1
  O2-  O230  1  0.16618810  0.25230632  0.49890884  1
  O2-  O231  1  0.16725641  0.25398225  0.74949446  1
  O2-  O232  1  0.16611451  0.58549045  -0.00067907  1
  O2-  O233  1  0.16758876  0.58584100  0.24921784  1
  O2-  O234  1  0.16944839  0.58435547  0.49937632  1
  O2-  O235  1  0.16631658  0.58492121  0.75025080  1
  O2-  O236  1  0.16708714  0.91977716  -0.00014179  1
  O2-  O237  1  0.16701585  0.91936526  0.24958984  1
  O2-  O238  1  0.16695728  0.91822604  0.50135704  1
  O2-  O239  1  0.16713565  0.92050444  0.75016054  1
  O2-  O240  1  0.66722617  0.25128555  -0.00101088  1
  O2-  O241  1  0.66720349  0.25376550  0.24986008  1
  O2-  O242  1  0.66724235  0.25236365  0.50040387  1
  O2-  O243  1  0.66881178  0.25221567  0.74990186  1
  O2-  O244  1  0.66703787  0.58578139  -0.00133221  1
  O2-  O245  1  0.66698956  0.58467874  0.25143531  1
  O2-  O246  1  0.66769596  0.58652765  0.50012764  1
  O2-  O247  1  0.66775893  0.58705955  0.75075578  1
  O2-  O248  1  0.66742123  0.91918667  0.00044447  1
  O2-  O249  1  0.66608479  0.92042035  0.25000472  1
  O2-  O250  1  0.66682951  0.92189856  0.49907244  1
  O2-  O251  1  0.66690183  0.91900504  0.74964156  1
  O2-  O252  1  0.33335171  0.07928227  -0.00004439  1
  O2-  O253  1  0.33292839  0.07896668  0.25008820  1
  O2-  O254  1  0.33184064  0.07960059  0.49978030  1
  O2-  O255  1  0.33267418  0.07945311  0.75081887  1
  O2-  O256  1  0.33295309  0.41570826  0.00135482  1
  O2-  O257  1  0.33267541  0.41591774  0.24975741  1
  O2-  O258  1  0.33276232  0.41448165  0.49925428  1
  O2-  O259  1  0.33343724  0.41441600  0.74920448  1
  O2-  O260  1  0.33200533  0.74907024  0.00008323  1
  O2-  O261  1  0.33222741  0.74772738  0.24920174  1
  O2-  O262  1  0.33315198  0.74784992  0.49958303  1
  O2-  O263  1  0.33160775  0.74848926  0.74956186  1
  O2-  O264  1  0.83368712  0.08133976  0.00051610  1
  O2-  O265  1  0.83287865  0.07861811  0.25037606  1
  O2-  O266  1  0.83290952  0.07989132  0.49951736  1
  O2-  O267  1  0.83231811  0.08078331  0.74952303  1
  O2-  O268  1  0.83412011  0.41398766  -0.00125719  1
  O2-  O269  1  0.83293168  0.41514131  0.24936033  1
  O2-  O270  1  0.83162278  0.41352990  0.50094837  1
  O2-  O271  1  0.83549101  0.41186406  0.74940635  1
  O2-  O272  1  0.83238208  0.74769117  -0.00027730  1
  O2-  O273  1  0.83495878  0.74625669  0.25250201  1
  O2-  O274  1  0.83381991  0.74464470  0.49952497  1
  O2-  O275  1  0.83390890  0.74813667  0.75032411  1
  O2-  O276  1  0.53704856  0.44385598  0.46640767  1
  O2-  O277  1  0.45904764  0.56030892  0.22341360  1
  O2-  O278  1  0.45459935  0.76106125  0.51445022  1
  O2-  O279  1  0.95281931  0.09653532  0.76645068  1
  O2-  O280  1  0.04572613  0.23409267  0.98674963  1
  O2-  O281  1  0.95040894  0.43077720  0.51449170  1
  O2-  O282  1  0.54941255  0.57052623  0.98350253  1
  O2-  O283  1  0.45832147  0.55804385  0.03137792  1
  O2-  O284  1  0.54682115  0.09509677  0.73559757  1
  O2-  O285  1  0.04821695  0.23530520  0.23443074  1
  O2-  O286  1  0.54532706  0.23527357  0.98649423  1
  O2-  O287  1  0.46141751  0.88784905  0.50295352  1
  O2-  O288  1  0.95808529  0.77072066  0.28217079  1
  O2-  O289  1  0.45080242  0.09962746  0.76695804  1
  O2-  O290  1  0.45284746  0.90200581  0.98042348  1
  O2-  O291  1  0.04752676  0.90466123  0.48509721  1
  O2-  O292  1  0.04912972  0.43065005  0.01499407  1
  O2-  O293  1  0.46017576  0.89375171  0.77545112  1
  O2-  O294  1  0.04868466  0.42943261  0.51574316  1
  O2-  O295  1  0.04562603  0.76508339  0.48840769  1
  O2-  O296  1  0.54823037  0.09803779  0.48900202  1
  O2-  O297  1  0.54606419  0.09825890  0.26026919  1
  O2-  O298  1  0.54759622  0.43115284  0.76299305  1
  O2-  O299  1  0.04501873  0.90177410  0.73436261  1
  O2-  O300  1  0.45333741  0.43169580  0.73538880  1
  O2-  O301  1  0.04725901  0.23576735  0.48366443  1
  O2-  O302  1  0.95945916  0.43734240  0.24505696  1
  O2-  O303  1  0.54728822  0.76463420  0.76956123  1
  O2-  O304  1  0.04813147  0.76327143  0.26376919  1
  O2-  O305  1  0.02450842  0.54301051  0.47868322  1
  O2-  O306  1  0.54976099  0.89817924  0.98537218  1
  O2-  O307  1  0.45729325  0.10675090  0.47558141  1
  O2-  O308  1  0.54657258  0.09517964  0.98621296  1
  O2-  O309  1  0.54048748  0.44102375  0.02915915  1
  O2-  O310  1  0.54772815  0.89946654  0.23574477  1
  O2-  O311  1  0.04474172  0.09793492  0.51466101  1
  O2-  O312  1  0.54283065  0.88869320  0.46715350  1
  O2-  O313  1  0.04608224  0.90204942  0.98531532  1
  O2-  O314  1  0.95939209  0.43748046  0.24482439  1
  O2-  O315  1  0.45253638  0.90117191  0.26346521  1
  O2-  O316  1  0.04000196  0.44163812  0.72365095  1
  O2-  O317  1  0.95013167  0.90717968  0.23569461  1
  O2-  O318  1  0.96671025  0.56193269  0.24483392  1
  O2-  O319  1  0.45376580  0.90150573  0.01952754  1
  O2-  O320  1  0.53817721  0.22708732  0.71946378  1
  O2-  O321  1  0.04861641  0.90553789  0.26612186  1
  O2-  O322  1  0.54468715  0.76465505  0.73030192  1
  O2-  O323  1  0.95702821  0.89665454  0.25980236  1
  O2-  O324  1  0.93246430  0.93502861  0.28406822  1
  O2-  O325  1  0.57137304  0.94180694  0.55102022  1
  O2-  O326  1  0.56501776  0.26637455  0.30942520  1
  O2-  O327  1  0.93643299  0.59772265  0.94694189  1
  O2-  O328  1  0.57151559  0.39063678  0.94847670  1
  O2-  O329  1  0.93320936  0.59173478  0.04788377  1
  O2-  O330  1  0.56604976  0.25745615  0.19545907  1
  O2-  O331  1  0.42933507  0.60646189  0.94892974  1
  O2-  O332  1  0.43639815  0.40154590  0.28185961  1
  O2-  O333  1  0.93634530  0.40371661  0.52802236  1
  O2-  O334  1  0.06832133  0.39629052  0.79590006  1
  O2-  O335  1  0.56563919  0.59266083  0.22105438  1
  O2-  O336  1  0.06359034  0.26052410  0.78376398  1
  O2-  O337  1  0.93733155  0.07164672  0.78185700  1
  O2-  O338  1  0.42310932  0.94095436  0.53754022  1
  O2-  O339  1  0.92419738  0.60702906  0.21360858  1
  O2-  O340  1  0.56515034  0.74091713  0.20182937  1
  O2-  O341  1  0.07409830  0.60095992  0.56265522  1
  O2-  O342  1  0.43722781  0.59606289  0.78169300  1
  O2-  O343  1  0.43576700  0.07282692  0.77886850  1
  O2-  O344  1  0.06172772  0.40419921  0.03347190  1
  O2-  O345  1  0.93638954  0.26414494  0.78248195  1
  O2-  O346  1  0.43610123  0.73818494  0.28287133  1
  O2-  O347  1  0.93587648  0.93021281  0.71691979  1
  O2-  O348  1  0.06323810  0.06935168  0.28300588  1
  O2-  O349  1  0.56462547  0.59501313  0.72117271  1
  O2-  O350  1  0.42737526  0.06691735  0.54506523  1
  O2-  O351  1  0.06195807  0.26179166  0.21836434  1
  O2-  O352  1  0.43173604  0.60350073  0.29523548  1
  O2-  O353  1  0.43668686  0.73767043  0.96836246  1
  O2-  O354  1  0.56397026  0.73561661  0.30387723  1
  O2-  O355  1  0.92695438  0.73373939  0.20563084  1
  O2-  O356  1  0.92699529  0.38402505  0.29513857  1
  O2-  O357  1  0.06305862  0.26233374  0.47292176  1
  O2-  O358  1  0.06182818  0.92921550  0.46679501  1
  O2-  O359  1  0.56400403  0.07322952  0.97106515  1
  O2-  O360  1  0.57176646  0.27586766  0.80222811  1
  O2-  O361  1  0.07717134  0.61177224  0.44227269  1
  O2-  O362  1  0.93572210  0.59760530  0.78236780  1
  O2-  O363  1  0.56495430  0.40703056  0.22095680  1
  O2-  O364  1  0.93606718  0.07393864  0.22064767  1
  O2-  O365  1  0.56239325  0.59679931  0.96613235  1
  O2-  O366  1  0.93625325  0.26428039  0.96690397  1
  O2-  O367  1  0.43464536  0.40452790  0.97101857  1
  O2-  O368  1  0.57067499  0.39055710  0.55145270  1
  O2-  O369  1  0.43600982  0.73704225  0.78205512  1
  O2-  O370  1  0.93542400  0.93064768  0.96638021  1
  O2-  O371  1  0.42759799  0.93527697  0.70669638  1
  O2-  O372  1  0.25000607  -0.00976550  0.07791529  1
  O2-  O373  1  0.74983408  -0.00091823  0.09354341  1
  O2-  O374  1  0.74982651  0.01074463  0.41944874  1
  O2-  O375  1  0.25013140  0.66691547  0.34452161  1
  O2-  O376  1  0.25024818  0.66712068  0.59287411  1
  O2-  O377  1  0.25012430  0.66767554  0.09390682  1
  O2-  O378  1  0.75004000  0.34073371  0.33355461  1
  O2-  O379  1  0.74990592  0.00926216  0.60710856  1
  O2-  O380  1  0.25012388  -0.00344441  0.16960721  1
  O2-  O381  1  0.74990118  -0.00346453  0.33060568  1
  O2-  O382  1  0.75008867  0.66728688  0.17008744  1
  O2-  O383  1  0.25002603  -0.00135464  0.40327032  1
  O2-  O384  1  0.25013370  -0.01070949  0.92227737  1
  O2-  O385  1  0.25004366  0.33503237  0.15695747  1
  O2-  O386  1  0.75007823  0.66654012  0.07843152  1
  O2-  O387  1  0.24985243  0.33170969  0.59431204  1
  O2-  O388  1  0.24974962  -0.00375493  0.65025734  1
  O2-  O389  1  0.75005168  0.33112515  0.09758170  1
  O2-  O390  1  0.75009760  0.66775623  0.65383784  1
  O2-  O391  1  0.24998298  0.33077798  0.90530868  1
  O2-  O392  1  0.74994726  -0.00073592  0.90761294  1
  O2-  O393  1  0.74991988  0.33552763  0.42560855  1
  O2-  O394  1  0.25008254  -0.00578659  0.83177539  1
  O2-  O395  1  0.25014162  0.33526510  0.34249050  1
  O2-  O396  1  0.74986628  0.84166074  0.36005236  1
  O2-  O397  1  0.25005079  0.83508803  0.57755995  1
  O2-  O398  1  0.75003224  0.50018002  0.11233450  1
  O2-  O399  1  0.24988200  0.83214813  0.16755120  1
  O2-  O400  1  0.24989558  0.15700927  0.87707143  1
  O2-  O401  1  0.74993703  0.50543286  0.62680948  1
  O2-  O402  1  0.24998631  0.83194615  0.33237511  1
  O2-  O403  1  0.74989438  0.16602591  0.67471404  1
  O2-  O404  1  0.25005857  0.16026886  0.36334828  1
  O2-  O405  1  0.74993690  0.83599616  0.61206291  1
  O2-  O406  1  0.75007160  0.50837298  0.86536463  1
  O2-  O407  1  0.74999494  0.16653795  0.08289728  1
  O2-  O408  1  0.25002858  0.83084183  0.66939001  1
  O2-  O409  1  0.75004146  0.50125526  0.34430145  1
  O2-  O410  1  0.74989803  0.16924415  0.57946067  1
  O2-  O411  1  0.25001544  0.83459378  0.42071298  1
  O2-  O412  1  0.24994755  0.50029222  0.83509921  1
  O2-  O413  1  0.24987345  0.83531876  0.07774525  1
  O2-  O414  1  0.25013137  0.49985996  0.34207762  1
  O2-  O415  1  0.24999731  0.15449765  0.11374499  1
  O2-  O416  1  0.24999342  0.50019340  0.91482517  1
  O2-  O417  1  0.74999033  0.84126531  0.12361108  1
  O2-  O418  1  0.74998315  0.83262679  0.91010995  1
  O2-  O419  1  0.74991137  0.16712119  0.16876605  1
  O2-  O420  1  0.53831974  -0.00019394  0.37303671  1
  O2-  O421  1  0.97098235  0.33204664  0.12435584  1
  O2-  O422  1  0.02614385  0.33606763  0.37096651  1
  O2-  O423  1  0.97368936  0.67198869  0.12094576  1
  O2-  O424  1  0.03471470  0.67266001  0.63305829  1
  O2-  O425  1  0.46636856  0.00280896  0.12598187  1
  O2-  O426  1  0.46915264  -0.00036267  0.88073251  1
  O2-  O427  1  0.96138046  0.66694952  0.62351283  1
  O2-  O428  1  0.02371993  0.66878260  0.37017743  1
  O2-  O429  1  0.52624388  0.66859044  0.61983794  1
  O2-  O430  1  0.52920353  0.33376148  0.11595877  1
  O2-  O431  1  0.52371769  0.66587847  0.11626594  1
  O2-  O432  1  0.03550320  0.66596952  0.12393030  1
  O2-  O433  1  0.03451134  0.33070005  0.62485017  1
  O2-  O434  1  0.02812823  0.66810655  0.87480270  1
  O2-  O435  1  0.47972221  0.00404063  0.62896473  1
  O2-  O436  1  0.53346163  0.00150857  0.12452143  1
  O2-  O437  1  0.46563279  0.33255333  0.12458601  1
  O2-  O438  1  0.53086648  -0.00241834  0.86869996  1
  O2-  O439  1  0.46203959  0.00016890  0.37359066  1
  O2-  O440  1  0.96670897  0.32999169  0.63016936  1
  O2-  O441  1  0.47223189  0.33258922  0.62438312  1
  O2-  O442  1  0.47381725  0.32982050  0.87183277  1
  O2-  O443  1  0.97300403  -0.00169383  0.12062266  1
