# generated using pymatgen
data_La7(Ru4O11)2
_symmetry_space_group_name_H-M   'P 1'
_cell_length_a   23.99580577
_cell_length_b   16.83758686
_cell_length_c   15.43141691
_cell_angle_alpha   89.99948452
_cell_angle_beta   90.00015084
_cell_angle_gamma   90.00173529
_symmetry_Int_Tables_number   1
_chemical_formula_structural   La7(Ru4O11)2
_chemical_formula_sum   'La84 Ru96 O264'
_cell_volume   6234.77796088
_cell_formula_units_Z   12
loop_
 _symmetry_equiv_pos_site_id
 _symmetry_equiv_pos_as_xyz
  1  'x, y, z'
loop_
 _atom_type_symbol
 _atom_type_oxidation_number
  La3+  3.0
  Ru4+  4.0
  O2-  -2.0
loop_
 _atom_site_type_symbol
 _atom_site_label
 _atom_site_symmetry_multiplicity
 _atom_site_fract_x
 _atom_site_fract_y
 _atom_site_fract_z
 _atom_site_occupancy
  La3+  La0  1  0.14954906  -0.00253818  0.12640118  1
  La3+  La1  1  0.14287886  0.00137683  0.37289699  1
  La3+  La2  1  0.13231729  -0.00564165  0.62449557  1
  La3+  La3  1  0.15368874  0.00329884  0.88331005  1
  La3+  La4  1  0.13425749  0.32824269  0.12598869  1
  La3+  La5  1  0.15000716  0.32988931  0.37108434  1
  La3+  La6  1  0.13219200  0.33217758  0.62463269  1
  La3+  La7  1  0.13491764  0.32986970  0.87796940  1
  La3+  La8  1  0.14048083  0.66571433  0.11856278  1
  La3+  La9  1  0.14596538  0.67433229  0.37815060  1
  La3+  La10  1  0.14359406  0.65922588  0.62771012  1
  La3+  La11  1  0.14462401  0.65833848  0.87111376  1
  La3+  La12  1  0.63757705  0.00703343  0.12962514  1
  La3+  La13  1  0.64199086  0.00827829  0.37244061  1
  La3+  La14  1  0.63018813  0.00302538  0.62404891  1
  La3+  La15  1  0.63555738  0.00599493  0.87725636  1
  La3+  La16  1  0.65200698  0.32324803  0.12722099  1
  La3+  La17  1  0.65846851  0.32917778  0.37106524  1
  La3+  La18  1  0.63287294  0.33904148  0.62025193  1
  La3+  La19  1  0.63217822  0.33134468  0.87584717  1
  La3+  La20  1  0.63893428  0.66171402  0.13328935  1
  La3+  La21  1  0.63512732  0.65908599  0.38525126  1
  La3+  La22  1  0.63243535  0.66301467  0.61138906  1
  La3+  La23  1  0.63495924  0.66545395  0.87340950  1
  La3+  La24  1  0.34750899  -0.00303148  0.12368525  1
  La3+  La25  1  0.35386327  -0.00154245  0.37855592  1
  La3+  La26  1  0.36475343  -0.00369958  0.61988766  1
  La3+  La27  1  0.35720486  -0.00397496  0.87707427  1
  La3+  La28  1  0.36010545  0.33376000  0.12983901  1
  La3+  La29  1  0.34646927  0.33075257  0.37013423  1
  La3+  La30  1  0.36405714  0.33516012  0.62576050  1
  La3+  La31  1  0.35550816  0.33461102  0.87136417  1
  La3+  La32  1  0.35936495  0.66575348  0.12249123  1
  La3+  La33  1  0.35340242  0.67773339  0.37979738  1
  La3+  La34  1  0.35560546  0.66827843  0.62587867  1
  La3+  La35  1  0.35262788  0.66360819  0.87575556  1
  La3+  La36  1  0.85965222  0.00891492  0.12820977  1
  La3+  La37  1  0.86847115  0.00507032  0.37131219  1
  La3+  La38  1  0.86625538  -0.00148277  0.62272423  1
  La3+  La39  1  0.86911320  -0.00044710  0.87888525  1
  La3+  La40  1  0.86290934  0.32576476  0.12498953  1
  La3+  La41  1  0.84567592  0.33306742  0.37110856  1
  La3+  La42  1  0.86303817  0.33345860  0.62130016  1
  La3+  La43  1  0.86928548  0.33162082  0.87703993  1
  La3+  La44  1  0.85614739  0.66521154  0.12617482  1
  La3+  La45  1  0.86299017  0.66200081  0.38144939  1
  La3+  La46  1  0.86929832  0.66396747  0.61957827  1
  La3+  La47  1  0.87322104  0.66126639  0.86880821  1
  La3+  La48  1  -0.00122855  0.16751110  0.89071416  1
  La3+  La49  1  0.49987555  0.49131413  0.89009454  1
  La3+  La50  1  0.00146334  0.48927042  0.12150968  1
  La3+  La51  1  -0.00020224  0.17314581  0.86922717  1
  La3+  La52  1  0.49739567  0.82512398  0.63182454  1
  La3+  La53  1  0.49785032  0.82836054  0.37105330  1
  La3+  La54  1  -0.00114294  0.83556001  0.37223188  1
  La3+  La55  1  0.50043798  0.16571652  0.62694318  1
  La3+  La56  1  0.50531182  0.49352017  0.61315527  1
  La3+  La57  1  -0.00478999  0.83953871  0.11158924  1
  La3+  La58  1  0.49802804  0.52079083  0.37687235  1
  La3+  La59  1  0.50266703  0.16868232  0.11345778  1
  La3+  La60  1  0.49701597  0.84100898  0.87576400  1
  La3+  La61  1  -0.00334539  0.83418194  0.86519406  1
  La3+  La62  1  0.50071117  0.15876959  0.37888966  1
  La3+  La63  1  0.49741474  0.49197509  0.86810510  1
  La3+  La64  1  0.50874953  0.50505930  0.63098220  1
  La3+  La65  1  0.49132139  0.84175139  0.12009844  1
  La3+  La66  1  0.00419723  0.84077690  0.12881210  1
  La3+  La67  1  0.49971122  0.49447114  0.11135828  1
  La3+  La68  1  0.49568828  0.83883351  0.85885589  1
  La3+  La69  1  -0.00432335  0.48879637  0.64511553  1
  La3+  La70  1  0.00371832  0.50504513  0.38574561  1
  La3+  La71  1  0.00496454  0.50138837  0.36971072  1
  La3+  La72  1  0.24957717  0.17721023  0.72175692  1
  La3+  La73  1  0.74960164  0.86890109  -0.00967372  1
  La3+  La74  1  0.74987190  0.49442302  0.79264707  1
  La3+  La75  1  0.74901435  0.16777884  0.01654142  1
  La3+  La76  1  0.74798922  0.89794021  0.22230081  1
  La3+  La77  1  0.75098682  0.47149836  0.07189641  1
  La3+  La78  1  0.25103855  0.54312958  0.50151693  1
  La3+  La79  1  0.24927342  0.16309797  0.49658762  1
  La3+  La80  1  0.75171123  0.84760218  0.77939544  1
  La3+  La81  1  0.25344643  0.12271341  -0.01337668  1
  La3+  La82  1  0.75377210  0.88199846  0.52728822  1
  La3+  La83  1  0.75355755  0.12634091  0.74218288  1
  Ru4+  Ru84  1  0.00635862  0.00463362  0.01387775  1
  Ru4+  Ru85  1  -0.00093130  0.00752521  0.25550023  1
  Ru4+  Ru86  1  -0.00250369  0.01028527  0.48978223  1
  Ru4+  Ru87  1  0.00798148  -0.01089332  0.75461850  1
  Ru4+  Ru88  1  -0.00043660  0.34289439  -0.00162926  1
  Ru4+  Ru89  1  0.00665526  0.33197344  0.24269344  1
  Ru4+  Ru90  1  0.00416475  0.32084173  0.50803111  1
  Ru4+  Ru91  1  -0.00351811  0.33654281  0.73913817  1
  Ru4+  Ru92  1  0.00195049  0.66628614  -0.00043311  1
  Ru4+  Ru93  1  -0.00017640  0.66576299  0.24458823  1
  Ru4+  Ru94  1  0.00485691  0.66698681  0.50871482  1
  Ru4+  Ru95  1  0.00109259  0.67963065  0.75961784  1
  Ru4+  Ru96  1  0.49953031  0.00532681  -0.01133700  1
  Ru4+  Ru97  1  0.50527180  0.00744366  0.24039142  1
  Ru4+  Ru98  1  0.50252396  -0.00626943  0.49610446  1
  Ru4+  Ru99  1  0.50656562  0.00544741  0.75305670  1
  Ru4+  Ru100  1  0.49804663  0.33242854  0.00043793  1
  Ru4+  Ru101  1  0.52084766  0.34373168  0.25813703  1
  Ru4+  Ru102  1  0.50251400  0.32938909  0.49822346  1
  Ru4+  Ru103  1  0.49370928  0.32377352  0.74609977  1
  Ru4+  Ru104  1  0.50339094  0.67705236  0.01529554  1
  Ru4+  Ru105  1  0.50829110  0.67052042  0.24193063  1
  Ru4+  Ru106  1  0.49351398  0.67104834  0.49701582  1
  Ru4+  Ru107  1  0.50039109  0.66134912  0.75206044  1
  Ru4+  Ru108  1  0.10996944  0.15823918  0.01083662  1
  Ru4+  Ru109  1  0.11161009  0.17204430  0.24917332  1
  Ru4+  Ru110  1  0.10591924  0.16443729  0.49929486  1
  Ru4+  Ru111  1  0.11397823  0.15910159  0.74239835  1
  Ru4+  Ru112  1  0.10934834  0.50189334  -0.00052735  1
  Ru4+  Ru113  1  0.11680725  0.49695624  0.24498817  1
  Ru4+  Ru114  1  0.10873437  0.50444888  0.49622067  1
  Ru4+  Ru115  1  0.11329485  0.49524226  0.75343927  1
  Ru4+  Ru116  1  0.11395212  0.83233987  0.00041126  1
  Ru4+  Ru117  1  0.11516724  0.83631894  0.24896831  1
  Ru4+  Ru118  1  0.11049978  0.82063022  0.50256301  1
  Ru4+  Ru119  1  0.11199842  0.83779768  0.75569448  1
  Ru4+  Ru120  1  0.60729591  0.16841411  0.00000052  1
  Ru4+  Ru121  1  0.61384888  0.16247507  0.24870875  1
  Ru4+  Ru122  1  0.61370976  0.16508062  0.50157648  1
  Ru4+  Ru123  1  0.61087893  0.17230081  0.75381966  1
  Ru4+  Ru124  1  0.61329528  0.49222368  0.00311438  1
  Ru4+  Ru125  1  0.61164416  0.49438004  0.25391007  1
  Ru4+  Ru126  1  0.62156563  0.49323406  0.49653522  1
  Ru4+  Ru127  1  0.61972017  0.50238240  0.75273691  1
  Ru4+  Ru128  1  0.60681569  0.82947461  -0.00654635  1
  Ru4+  Ru129  1  0.60672389  0.82404055  0.25716087  1
  Ru4+  Ru130  1  0.60728222  0.84184109  0.49999554  1
  Ru4+  Ru131  1  0.61372353  0.83560879  0.74989921  1
  Ru4+  Ru132  1  0.39427626  0.17183898  0.00012262  1
  Ru4+  Ru133  1  0.38711860  0.16787917  0.24857812  1
  Ru4+  Ru134  1  0.38970786  0.16762466  0.49951501  1
  Ru4+  Ru135  1  0.38966770  0.16528454  0.74540712  1
  Ru4+  Ru136  1  0.38494268  0.50565092  0.00094723  1
  Ru4+  Ru137  1  0.38930076  0.50764710  0.25137377  1
  Ru4+  Ru138  1  0.38546731  0.49350860  0.49423983  1
  Ru4+  Ru139  1  0.38299846  0.50359804  0.75437917  1
  Ru4+  Ru140  1  0.38402640  0.83191567  0.00263444  1
  Ru4+  Ru141  1  0.38542441  0.83730051  0.24923721  1
  Ru4+  Ru142  1  0.38424753  0.83204784  0.50156848  1
  Ru4+  Ru143  1  0.37700938  0.83347086  0.74853002  1
  Ru4+  Ru144  1  0.88864307  0.17008228  0.00487083  1
  Ru4+  Ru145  1  0.88684979  0.16149573  0.25202715  1
  Ru4+  Ru146  1  0.89169193  0.16574039  0.49758871  1
  Ru4+  Ru147  1  0.89223026  0.16587345  0.74868013  1
  Ru4+  Ru148  1  0.88940228  0.50189436  0.00406462  1
  Ru4+  Ru149  1  0.88385801  0.49963515  0.24671890  1
  Ru4+  Ru150  1  0.88542201  0.50131565  0.49629294  1
  Ru4+  Ru151  1  0.88673513  0.49400468  0.75092524  1
  Ru4+  Ru152  1  0.89753551  0.83327108  -0.00061824  1
  Ru4+  Ru153  1  0.88904840  0.83591369  0.25304848  1
  Ru4+  Ru154  1  0.89261760  0.83454247  0.50377075  1
  Ru4+  Ru155  1  0.89180121  0.83200592  0.75085132  1
  Ru4+  Ru156  1  0.75124399  0.24916839  0.50027785  1
  Ru4+  Ru157  1  0.75043485  0.26165851  0.76695076  1
  Ru4+  Ru158  1  0.24744757  0.74804759  0.75344403  1
  Ru4+  Ru159  1  0.25015238  0.89272661  0.74759260  1
  Ru4+  Ru160  1  0.75170782  0.10270137  0.50038750  1
  Ru4+  Ru161  1  0.25077720  0.03241989  0.71797075  1
  Ru4+  Ru162  1  0.75014615  0.59088048  -0.02453942  1
  Ru4+  Ru163  1  0.24995498  0.76115479  0.24859634  1
  Ru4+  Ru164  1  0.24927695  0.26322648  0.03722671  1
  Ru4+  Ru165  1  0.75079377  0.38356311  0.69564170  1
  Ru4+  Ru166  1  0.75043360  1.00793292  0.02412917  1
  Ru4+  Ru167  1  0.75349081  0.34566187  -0.01459463  1
  Ru4+  Ru168  1  0.74798435  0.98552250  0.78001429  1
  Ru4+  Ru169  1  0.75183244  0.73259857  -0.02445892  1
  Ru4+  Ru170  1  0.24824309  0.39544745  0.52952774  1
  Ru4+  Ru171  1  0.25071783  0.09672701  0.25395956  1
  Ru4+  Ru172  1  0.75224265  0.59192223  0.68664207  1
  Ru4+  Ru173  1  0.75054003  0.72041373  0.73641118  1
  Ru4+  Ru174  1  0.24830916  0.91468555  0.50104500  1
  Ru4+  Ru175  1  0.24903676  0.56445924  0.25043934  1
  Ru4+  Ru176  1  0.24988226  0.32209972  0.70508865  1
  Ru4+  Ru177  1  0.75098323  0.73232075  0.25452945  1
  Ru4+  Ru178  1  0.75047707  0.72579133  0.49965255  1
  Ru4+  Ru179  1  0.24958418  0.44301920  -0.01703081  1
  O2-  O180  1  0.16462624  0.07871294  0.00798867  1
  O2-  O181  1  0.17064885  0.08475152  0.25475317  1
  O2-  O182  1  0.16622594  0.08489242  0.50716148  1
  O2-  O183  1  0.16941423  0.07759306  0.74090074  1
  O2-  O184  1  0.16811575  0.41893037  0.00145094  1
  O2-  O185  1  0.16746668  0.41501188  0.24297617  1
  O2-  O186  1  0.16304517  0.41749487  0.50139042  1
  O2-  O187  1  0.16199342  0.41330950  0.75040607  1
  O2-  O188  1  0.16432563  0.74411977  0.00108812  1
  O2-  O189  1  0.16493306  0.74599826  0.24335603  1
  O2-  O190  1  0.16998981  0.75372385  0.49870282  1
  O2-  O191  1  0.16128648  0.75027723  0.75291962  1
  O2-  O192  1  0.66363924  0.07949667  0.00033482  1
  O2-  O193  1  0.66864639  0.08244138  0.24501485  1
  O2-  O194  1  0.66961314  0.08490693  0.50212087  1
  O2-  O195  1  0.66175642  0.07613301  0.74975562  1
  O2-  O196  1  0.67216546  0.40781595  -0.00612534  1
  O2-  O197  1  0.66653630  0.41890402  0.24609272  1
  O2-  O198  1  0.67213539  0.41382909  0.50053045  1
  O2-  O199  1  0.66835583  0.40951367  0.75041594  1
  O2-  O200  1  0.66795945  0.74423153  -0.00775255  1
  O2-  O201  1  0.66864194  0.74726488  0.24879628  1
  O2-  O202  1  0.66780284  0.74953178  0.50388409  1
  O2-  O203  1  0.66572916  0.74381402  0.75014967  1
  O2-  O204  1  0.33522099  0.25269939  0.00430113  1
  O2-  O205  1  0.33807942  0.25302908  0.24475615  1
  O2-  O206  1  0.33321921  0.25086671  0.50629096  1
  O2-  O207  1  0.33129603  0.25593349  0.74699078  1
  O2-  O208  1  0.33034478  0.58560858  0.00281353  1
  O2-  O209  1  0.32730258  0.58529506  0.24218515  1
  O2-  O210  1  0.33966533  0.59114500  0.49805911  1
  O2-  O211  1  0.33198438  0.58578822  0.75208890  1
  O2-  O212  1  0.33752206  0.91692731  0.00109819  1
  O2-  O213  1  0.33631063  0.91979459  0.25320321  1
  O2-  O214  1  0.32976327  0.91945530  0.50487375  1
  O2-  O215  1  0.33206254  0.92188041  0.74757939  1
  O2-  O216  1  0.82599814  0.26083763  -0.00501435  1
  O2-  O217  1  0.84203853  0.25215473  0.24613360  1
  O2-  O218  1  0.83665633  0.24919885  0.50086348  1
  O2-  O219  1  0.83488472  0.25326022  0.75342524  1
  O2-  O220  1  0.83601428  0.58626287  -0.00496049  1
  O2-  O221  1  0.84075608  0.58853511  0.25550925  1
  O2-  O222  1  0.83192262  0.58637442  0.49848130  1
  O2-  O223  1  0.83382835  0.58459746  0.75083901  1
  O2-  O224  1  0.83777881  0.92334629  0.00058841  1
  O2-  O225  1  0.83832863  0.92399083  0.25614636  1
  O2-  O226  1  0.84143837  0.92414840  0.49155690  1
  O2-  O227  1  0.83404749  0.92104535  0.75078967  1
  O2-  O228  1  0.16389313  0.25016125  0.00333658  1
  O2-  O229  1  0.16752792  0.24865282  0.24774335  1
  O2-  O230  1  0.16894143  0.24750279  0.50973339  1
  O2-  O231  1  0.16361810  0.25368486  0.74612299  1
  O2-  O232  1  0.16303692  0.58534139  0.00288734  1
  O2-  O233  1  0.16606666  0.58890883  0.24474652  1
  O2-  O234  1  0.16442600  0.59199864  0.49934812  1
  O2-  O235  1  0.16394292  0.58030902  0.75379259  1
  O2-  O236  1  0.16326254  0.91286059  0.00272890  1
  O2-  O237  1  0.16757873  0.91711994  0.25299040  1
  O2-  O238  1  0.16107830  0.91796868  0.50177648  1
  O2-  O239  1  0.17171431  0.91312650  0.73813536  1
  O2-  O240  1  0.66492181  0.25479415  -0.00919620  1
  O2-  O241  1  0.66419990  0.24705168  0.24645048  1
  O2-  O242  1  0.66643550  0.25309013  0.50624760  1
  O2-  O243  1  0.66584666  0.25525570  0.75535209  1
  O2-  O244  1  0.66472241  0.58481112  -0.00396168  1
  O2-  O245  1  0.66330202  0.57739168  0.25890326  1
  O2-  O246  1  0.66956235  0.58130897  0.49932494  1
  O2-  O247  1  0.67050218  0.58985253  0.74757246  1
  O2-  O248  1  0.65961346  0.92028977  0.00129388  1
  O2-  O249  1  0.65577759  0.91968427  0.25180138  1
  O2-  O250  1  0.66889727  0.92324539  0.50545377  1
  O2-  O251  1  0.66934951  0.92127758  0.74892694  1
  O2-  O252  1  0.34560447  0.07880684  0.00106738  1
  O2-  O253  1  0.33312242  0.08261013  0.25205025  1
  O2-  O254  1  0.33571326  0.08149380  0.50640041  1
  O2-  O255  1  0.33630956  0.07778822  0.74596119  1
  O2-  O256  1  0.33303188  0.41684637  0.00397538  1
  O2-  O257  1  0.34214691  0.41617273  0.24641635  1
  O2-  O258  1  0.33152531  0.41130003  0.50097628  1
  O2-  O259  1  0.33614506  0.41470383  0.74592582  1
  O2-  O260  1  0.33445966  0.74591752  0.00197485  1
  O2-  O261  1  0.33226193  0.74639448  0.24717141  1
  O2-  O262  1  0.33030626  0.75296870  0.50434948  1
  O2-  O263  1  0.33053665  0.74485026  0.75014985  1
  O2-  O264  1  0.83728173  0.08096200  -0.00407190  1
  O2-  O265  1  0.83420294  0.07999599  0.25367209  1
  O2-  O266  1  0.83516605  0.08300666  0.50001995  1
  O2-  O267  1  0.84503342  0.07288283  0.75182168  1
  O2-  O268  1  0.83243979  0.40944154  -0.00132212  1
  O2-  O269  1  0.83730256  0.41309531  0.24605703  1
  O2-  O270  1  0.83727680  0.41564853  0.50113209  1
  O2-  O271  1  0.82852703  0.41072192  0.75402164  1
  O2-  O272  1  0.83709107  0.74398490  -0.00739789  1
  O2-  O273  1  0.83517676  0.74605306  0.24908105  1
  O2-  O274  1  0.83373990  0.74612765  0.50013567  1
  O2-  O275  1  0.83731488  0.74334373  0.75034609  1
  O2-  O276  1  0.03705583  0.86476610  0.72455834  1
  O2-  O277  1  0.52794375  0.45545573  0.24670561  1
  O2-  O278  1  0.95523123  0.43775315  0.26455605  1
  O2-  O279  1  0.45897939  0.10756522  0.99982901  1
  O2-  O280  1  0.54646502  0.90760307  0.26044941  1
  O2-  O281  1  0.04430151  0.57413895  0.99261558  1
  O2-  O282  1  0.04997011  0.42801146  0.75022927  1
  O2-  O283  1  0.54989954  0.57043522  0.00117838  1
  O2-  O284  1  0.03269246  0.21417956  0.53829141  1
  O2-  O285  1  0.94926023  0.58932743  0.73434633  1
  O2-  O286  1  0.94186352  0.91732277  0.73983008  1
  O2-  O287  1  0.52052962  0.87869794  0.51159185  1
  O2-  O288  1  0.54283428  0.77658316  0.20521122  1
  O2-  O289  1  0.95555965  0.76513013  0.23834525  1
  O2-  O290  1  0.04927742  0.58691596  0.73197462  1
  O2-  O291  1  0.45617001  0.55863359  0.20853210  1
  O2-  O292  1  0.94750963  0.42896435  0.01304719  1
  O2-  O293  1  0.54744796  0.56767445  0.50332135  1
  O2-  O294  1  0.05410616  0.25653681  0.76251724  1
  O2-  O295  1  0.45354694  0.09222023  0.51248266  1
  O2-  O296  1  0.05031195  0.56875104  0.76528896  1
  O2-  O297  1  0.04249156  0.76917222  0.98690041  1
  O2-  O298  1  0.44645629  0.76505597  0.24188297  1
  O2-  O299  1  0.45603070  0.77122347  0.98363060  1
  O2-  O300  1  0.54015986  0.42537344  0.74531100  1
  O2-  O301  1  0.45909063  0.90196833  0.75384407  1
  O2-  O302  1  0.94961633  0.56435056  0.76247306  1
  O2-  O303  1  0.45336989  0.75964999  0.74396857  1
  O2-  O304  1  0.03227873  0.81534478  0.49676194  1
  O2-  O305  1  0.05515150  0.24092022  0.98510722  1
  O2-  O306  1  0.95028710  0.09769357  0.48856949  1
  O2-  O307  1  0.95963685  0.43330309  0.49093216  1
  O2-  O308  1  0.05361577  0.42456504  0.97685677  1
  O2-  O309  1  0.94628881  0.09512921  0.26798485  1
  O2-  O310  1  0.44870820  0.56513278  0.50750749  1
  O2-  O311  1  0.55788980  0.74500089  0.47473663  1
  O2-  O312  1  0.03785115  0.89193757  0.69906439  1
  O2-  O313  1  0.55129448  0.23503103  0.50574971  1
  O2-  O314  1  0.55445079  0.57505876  0.77593717  1
  O2-  O315  1  0.55125573  0.09140077  0.72948374  1
  O2-  O316  1  0.05091463  0.23099039  0.73519935  1
  O2-  O317  1  0.45610611  0.10609799  0.23061202  1
  O2-  O318  1  0.44675428  0.25002533  0.48433606  1
  O2-  O319  1  0.04506861  0.56674175  0.23666871  1
  O2-  O320  1  0.54958711  0.76480320  0.76671134  1
  O2-  O321  1  0.52746128  0.45741038  0.25591587  1
  O2-  O322  1  0.04271061  0.56814010  0.54576361  1
  O2-  O323  1  0.03658284  0.11389062  0.24250722  1
  O2-  O324  1  0.56284003  0.40222850  0.01383957  1
  O2-  O325  1  0.08292815  0.57699517  0.39903094  1
  O2-  O326  1  0.93704318  0.73879962  0.53172529  1
  O2-  O327  1  0.43574814  0.25354178  0.71539665  1
  O2-  O328  1  0.06367608  0.41423325  0.28118396  1
  O2-  O329  1  0.05716829  0.91623623  0.27428291  1
  O2-  O330  1  0.07791805  0.27290616  0.45829303  1
  O2-  O331  1  0.55247117  0.24065772  0.27995602  1
  O2-  O332  1  0.07951172  0.06061971  0.22582278  1
  O2-  O333  1  0.94270771  0.93313649  0.53020622  1
  O2-  O334  1  0.05405986  0.08392552  0.76769850  1
  O2-  O335  1  0.06636568  0.06907527  0.48185415  1
  O2-  O336  1  0.43878589  0.90881620  0.77595794  1
  O2-  O337  1  0.56422437  0.40805345  0.52184601  1
  O2-  O338  1  0.06272514  0.25565634  0.22709502  1
  O2-  O339  1  0.56103254  0.07980647  0.48140364  1
  O2-  O340  1  0.07145851  0.08488359  0.92485640  1
  O2-  O341  1  0.93211537  0.40165219  0.73106949  1
  O2-  O342  1  0.93749429  0.25964576  0.01735217  1
  O2-  O343  1  0.58369923  0.94323405  0.45760577  1
  O2-  O344  1  0.94120289  0.92987442  0.28640485  1
  O2-  O345  1  0.44160650  0.59483556  0.97539330  1
  O2-  O346  1  0.56969767  0.35688537  0.16278132  1
  O2-  O347  1  0.55808502  0.74758340  0.47625788  1
  O2-  O348  1  0.55327707  0.08885347  0.72861259  1
  O2-  O349  1  0.56805691  0.75862666  0.06212184  1
  O2-  O350  1  0.57180616  0.72578608  0.31692801  1
  O2-  O351  1  0.43636718  0.40518902  0.78969741  1
  O2-  O352  1  0.56470611  0.92188928  0.72057938  1
  O2-  O353  1  0.05156648  0.57672229  0.55747860  1
  O2-  O354  1  0.56515002  0.08639704  0.17572686  1
  O2-  O355  1  0.57180852  0.09040384  0.32231671  1
  O2-  O356  1  0.57098668  0.37545401  0.35231823  1
  O2-  O357  1  0.06104874  0.26027612  0.95334100  1
  O2-  O358  1  0.56544957  0.58309687  0.52512366  1
  O2-  O359  1  0.56190159  0.42001792  0.72623177  1
  O2-  O360  1  0.43119649  0.92912189  0.48111977  1
  O2-  O361  1  0.07608829  0.71548274  0.54806387  1
  O2-  O362  1  0.43433054  0.74927041  0.46515975  1
  O2-  O363  1  0.44300817  0.60035138  0.82392401  1
  O2-  O364  1  0.06209110  0.08882825  0.06909564  1
  O2-  O365  1  0.94024092  0.59176465  0.45701287  1
  O2-  O366  1  0.55670251  0.73942448  0.91837303  1
  O2-  O367  1  0.43030917  0.57212944  0.67826251  1
  O2-  O368  1  0.43104762  0.74990055  0.72897657  1
  O2-  O369  1  0.08750640  0.94294254  0.81225791  1
  O2-  O370  1  0.56883671  0.59298968  0.23458897  1
  O2-  O371  1  0.41031342  0.59309712  0.32164557  1
  O2-  O372  1  0.25134272  -0.00269398  0.94683746  1
  O2-  O373  1  0.75151592  0.00249475  0.90096275  1
  O2-  O374  1  0.24793000  0.67229562  0.84581360  1
  O2-  O375  1  0.75149085  0.00271766  0.66763652  1
  O2-  O376  1  0.75124006  0.66130539  0.07169761  1
  O2-  O377  1  0.25137418  0.33800907  0.33665704  1
  O2-  O378  1  0.75016180  0.66926346  0.85879945  1
  O2-  O379  1  0.24920767  0.66063759  0.67210643  1
  O2-  O380  1  0.25123134  0.33654520  0.94754573  1
  O2-  O381  1  0.74948805  0.33022342  0.58977397  1
  O2-  O382  1  0.25170151  -0.01387699  0.82919681  1
  O2-  O383  1  0.25091545  0.00418812  0.08506797  1
  O2-  O384  1  0.74905270  0.00621708  0.14467405  1
  O2-  O385  1  0.25086346  0.00397313  0.17990239  1
  O2-  O386  1  0.75092743  0.64186758  0.20263711  1
  O2-  O387  1  0.24973199  0.66658808  0.33889212  1
  O2-  O388  1  0.24881784  0.34995786  0.81374934  1
  O2-  O389  1  0.75530779  0.32385255  0.38114572  1
  O2-  O390  1  0.24897027  0.66814450  0.58095210  1
  O2-  O391  1  0.75138778  0.65893554  0.59149596  1
  O2-  O392  1  0.24924482  -0.00638943  0.40689366  1
  O2-  O393  1  0.75309239  0.01119707  0.55930990  1
  O2-  O394  1  0.24921943  0.32121011  0.42701683  1
  O2-  O395  1  0.24990372  0.00667552  0.59640600  1
  O2-  O396  1  0.74721987  0.80388918  0.41797889  1
  O2-  O397  1  0.75103889  0.48883871  0.92479416  1
  O2-  O398  1  0.75015970  0.17600243  0.14178845  1
  O2-  O399  1  0.75092007  0.80572932  0.11728840  1
  O2-  O400  1  0.75243660  0.50162734  0.18975699  1
  O2-  O401  1  0.75002638  0.16279336  0.32384662  1
  O2-  O402  1  0.25002905  0.82904786  0.84821485  1
  O2-  O403  1  0.24969827  0.84385973  0.33500971  1
  O2-  O404  1  0.25179420  0.15526820  0.35811590  1
  O2-  O405  1  0.24941045  0.50896142  0.15378824  1
  O2-  O406  1  0.75018291  0.17797947  0.60901370  1
  O2-  O407  1  0.24979098  0.50490066  0.34486427  1
  O2-  O408  1  0.25016129  0.47133810  0.62440436  1
  O2-  O409  1  0.25044388  0.83323007  0.64625117  1
  O2-  O410  1  0.25031285  0.82251843  0.15854008  1
  O2-  O411  1  0.25108230  0.18432447  0.12601551  1
  O2-  O412  1  0.24959927  0.17428359  0.85528341  1
  O2-  O413  1  0.75056396  0.80415634  0.64090896  1
  O2-  O414  1  0.74954602  0.19316552  0.87133915  1
  O2-  O415  1  0.25068967  0.48930720  0.88457554  1
  O2-  O416  1  0.75191806  0.82292707  0.33077053  1
  O2-  O417  1  0.75031798  0.49019208  0.62967178  1
  O2-  O418  1  0.75049737  0.17409937  0.41220636  1
  O2-  O419  1  0.24979210  0.82874858  0.42238246  1
  O2-  O420  1  0.53690455  0.65055989  0.12425694  1
  O2-  O421  1  0.95305276  0.31635257  0.60359390  1
  O2-  O422  1  0.52142249  0.31683033  0.62895669  1
  O2-  O423  1  0.95153792  0.33153809  0.15906529  1
  O2-  O424  1  0.04119544  0.35280601  0.11264890  1
  O2-  O425  1  0.45939095  0.00903018  0.35421871  1
  O2-  O426  1  0.51662828  -0.01010156  0.37196723  1
  O2-  O427  1  0.04422457  -0.04135871  0.12019420  1
  O2-  O428  1  0.01060708  0.33930058  0.37574075  1
  O2-  O429  1  0.44804465  0.67196350  0.10895885  1
  O2-  O430  1  0.01825923  0.68777135  0.36669553  1
  O2-  O431  1  0.45079127  -0.00051705  0.89018701  1
  O2-  O432  1  0.54563717  0.67177405  0.65028956  1
  O2-  O433  1  0.48665420  0.66341591  0.36941678  1
  O2-  O434  1  0.51647891  -0.00389987  0.61740166  1
  O2-  O435  1  0.96982322  0.32818446  0.87067973  1
  O2-  O436  1  0.04213461  0.34576024  0.62371018  1
  O2-  O437  1  0.51626580  -0.01481170  0.10883603  1
  O2-  O438  1  0.45823801  0.68929928  0.59914771  1
  O2-  O439  1  -0.00243537  -0.01568739  0.89128519  1
  O2-  O440  1  0.02146042  -0.00025100  0.37524816  1
  O2-  O441  1  0.95241814  -0.00058827  0.11625514  1
  O2-  O442  1  0.54497514  -0.00746955  0.88113248  1
  O2-  O443  1  0.97012397  0.67590124  0.87647492  1
