# generated using pymatgen
data_La7(Ru4O11)2
_symmetry_space_group_name_H-M   'P 1'
_cell_length_a   23.98921554
_cell_length_b   16.82899924
_cell_length_c   15.42576578
_cell_angle_alpha   89.99955846
_cell_angle_beta   90.00002806
_cell_angle_gamma   90.00012338
_symmetry_Int_Tables_number   1
_chemical_formula_structural   La7(Ru4O11)2
_chemical_formula_sum   'La84 Ru96 O264'
_cell_volume   6227.60516482
_cell_formula_units_Z   12
loop_
 _symmetry_equiv_pos_site_id
 _symmetry_equiv_pos_as_xyz
  1  'x, y, z'
loop_
 _atom_type_symbol
 _atom_type_oxidation_number
  La3+  3.0
  Ru4+  4.0
  O2-  -2.0
loop_
 _atom_site_type_symbol
 _atom_site_label
 _atom_site_symmetry_multiplicity
 _atom_site_fract_x
 _atom_site_fract_y
 _atom_site_fract_z
 _atom_site_occupancy
  La3+  La0  1  0.13907379  -0.00131788  0.12264169  1
  La3+  La1  1  0.13886487  -0.00042408  0.37643846  1
  La3+  La2  1  0.13848957  0.00000356  0.62509821  1
  La3+  La3  1  0.13975322  -0.00065404  0.87554075  1
  La3+  La4  1  0.13770583  0.33513268  0.12300171  1
  La3+  La5  1  0.13543383  0.33240987  0.37990067  1
  La3+  La6  1  0.13532106  0.33162580  0.62165729  1
  La3+  La7  1  0.13755740  0.33412273  0.87556827  1
  La3+  La8  1  0.14033829  0.66663830  0.12414127  1
  La3+  La9  1  0.13859565  0.66744654  0.37443833  1
  La3+  La10  1  0.13836768  0.66689288  0.62657428  1
  La3+  La11  1  0.13997861  0.66597253  0.87449572  1
  La3+  La12  1  0.64018006  0.00032102  0.12556072  1
  La3+  La13  1  0.63999207  -0.00054374  0.37626769  1
  La3+  La14  1  0.63881901  0.00077522  0.62684326  1
  La3+  La15  1  0.63913518  0.00098947  0.87264726  1
  La3+  La16  1  0.63760508  0.33235219  0.12443251  1
  La3+  La17  1  0.63885876  0.33279863  0.37485332  1
  La3+  La18  1  0.63734512  0.33149542  0.62781881  1
  La3+  La19  1  0.63709518  0.33234641  0.87287120  1
  La3+  La20  1  0.63746006  0.66714230  0.12473492  1
  La3+  La21  1  0.63938599  0.66760970  0.37862704  1
  La3+  La22  1  0.63834606  0.66776964  0.62250703  1
  La3+  La23  1  0.63876190  0.66680251  0.87374580  1
  La3+  La24  1  0.36251546  0.00001836  0.12293132  1
  La3+  La25  1  0.36145452  -0.00042756  0.37519632  1
  La3+  La26  1  0.36063030  0.00000798  0.62452299  1
  La3+  La27  1  0.36047584  -0.00057612  0.87668672  1
  La3+  La28  1  0.36253510  0.33415881  0.12289857  1
  La3+  La29  1  0.36202452  0.33377633  0.37609629  1
  La3+  La30  1  0.36226330  0.33342363  0.62448158  1
  La3+  La31  1  0.36254175  0.33437303  0.87635503  1
  La3+  La32  1  0.36157361  0.66760008  0.12696110  1
  La3+  La33  1  0.36428405  0.66799008  0.37316560  1
  La3+  La34  1  0.36194813  0.66616305  0.62607200  1
  La3+  La35  1  0.36072796  0.66541339  0.87424467  1
  La3+  La36  1  0.85927791  0.00003805  0.12624803  1
  La3+  La37  1  0.86009845  -0.00064296  0.37569052  1
  La3+  La38  1  0.86043394  -0.00153265  0.62593586  1
  La3+  La39  1  0.85987033  -0.00014474  0.87278369  1
  La3+  La40  1  0.86327729  0.33206266  0.12626712  1
  La3+  La41  1  0.86171760  0.33258531  0.37412272  1
  La3+  La42  1  0.86087237  0.33313254  0.62639875  1
  La3+  La43  1  0.86216007  0.33293056  0.87340164  1
  La3+  La44  1  0.86156920  0.66625989  0.12483555  1
  La3+  La45  1  0.86176736  0.66869148  0.38058045  1
  La3+  La46  1  0.86249561  0.66914657  0.62112147  1
  La3+  La47  1  0.86075748  0.66695449  0.87378983  1
  La3+  La48  1  0.00210247  0.16954112  0.87951674  1
  La3+  La49  1  0.50006202  0.16596927  0.36546864  1
  La3+  La50  1  -0.00010083  0.49853756  0.36491406  1
  La3+  La51  1  0.00080402  0.83580695  0.86314786  1
  La3+  La52  1  0.50002293  0.50057313  0.38402562  1
  La3+  La53  1  -0.00053279  0.50099456  0.88953886  1
  La3+  La54  1  0.50151635  0.16480900  0.88496558  1
  La3+  La55  1  -0.00059003  0.16693764  0.63265444  1
  La3+  La56  1  0.00167189  0.50141536  0.61608304  1
  La3+  La57  1  0.50022378  0.83358932  0.36498978  1
  La3+  La58  1  0.50005627  0.83368589  0.88504593  1
  La3+  La59  1  0.00064728  0.83388338  0.13922538  1
  La3+  La60  1  0.49890460  0.83332861  0.11883976  1
  La3+  La61  1  -0.00176396  0.83083736  0.39070172  1
  La3+  La62  1  0.49859322  0.50164600  0.63522321  1
  La3+  La63  1  -0.00284256  0.17056241  0.12008848  1
  La3+  La64  1  -0.00050616  0.83374865  0.61495360  1
  La3+  La65  1  0.00062821  0.16459120  0.61483196  1
  La3+  La66  1  0.00080852  0.49547439  0.86810977  1
  La3+  La67  1  0.50156009  0.83146689  0.63791126  1
  La3+  La68  1  0.49988592  0.83234260  0.61567041  1
  La3+  La69  1  0.00122189  0.49998493  0.63334179  1
  La3+  La70  1  0.00058897  0.83383622  0.11659434  1
  La3+  La71  1  0.49784189  0.16714997  0.86853088  1
  La3+  La72  1  0.74988824  0.12750189  -0.00475339  1
  La3+  La73  1  0.75010642  0.50333851  0.03172041  1
  La3+  La74  1  0.25006066  0.83427111  0.50040271  1
  La3+  La75  1  0.75010076  0.16474353  0.22745544  1
  La3+  La76  1  0.24990471  0.13325945  0.77906309  1
  La3+  La77  1  0.25020058  0.53238201  0.27140431  1
  La3+  La78  1  0.75025646  0.49696839  0.25144686  1
  La3+  La79  1  0.25014590  0.13333028  -0.03665679  1
  La3+  La80  1  0.75012714  0.86536849  0.25154339  1
  La3+  La81  1  0.24998341  0.47345836  0.52323015  1
  La3+  La82  1  0.74997179  0.50046366  0.74947276  1
  La3+  La83  1  0.25001269  0.16691295  0.27031727  1
  Ru4+  Ru84  1  0.00136841  -0.00283627  -0.00272144  1
  Ru4+  Ru85  1  -0.00494900  -0.00303934  0.25254368  1
  Ru4+  Ru86  1  0.00034322  -0.00041294  0.49980142  1
  Ru4+  Ru87  1  0.00150568  0.00065339  0.75203092  1
  Ru4+  Ru88  1  0.00006215  0.33297454  -0.00036828  1
  Ru4+  Ru89  1  -0.00095718  0.33169835  0.25064210  1
  Ru4+  Ru90  1  0.00161300  0.32910770  0.49788241  1
  Ru4+  Ru91  1  -0.00219511  0.33578178  0.75091011  1
  Ru4+  Ru92  1  0.00061256  0.66345936  -0.00362089  1
  Ru4+  Ru93  1  0.00018162  0.66555017  0.25357497  1
  Ru4+  Ru94  1  0.00031908  0.66702512  0.49589257  1
  Ru4+  Ru95  1  -0.00080965  0.67116286  0.75280217  1
  Ru4+  Ru96  1  0.49812375  0.00101297  0.00140082  1
  Ru4+  Ru97  1  0.49905367  0.00211926  0.24728628  1
  Ru4+  Ru98  1  0.50059565  0.00207958  0.49709053  1
  Ru4+  Ru99  1  0.49994286  -0.00184380  0.75324668  1
  Ru4+  Ru100  1  0.50378509  0.33733199  0.00129173  1
  Ru4+  Ru101  1  0.49840664  0.33409701  0.24626601  1
  Ru4+  Ru102  1  0.49935005  0.32927155  0.50394295  1
  Ru4+  Ru103  1  0.49854878  0.33830246  0.74858629  1
  Ru4+  Ru104  1  0.49961852  0.66258131  -0.00343195  1
  Ru4+  Ru105  1  0.50123031  0.66485001  0.25247268  1
  Ru4+  Ru106  1  0.49936650  0.66509649  0.49919489  1
  Ru4+  Ru107  1  0.49965887  0.66671769  0.75271054  1
  Ru4+  Ru108  1  0.11314895  0.16761367  -0.00021061  1
  Ru4+  Ru109  1  0.11589287  0.17142928  0.25049402  1
  Ru4+  Ru110  1  0.11111402  0.16747472  0.49972411  1
  Ru4+  Ru111  1  0.11405906  0.16262646  0.75052743  1
  Ru4+  Ru112  1  0.11457748  0.49989967  0.00117030  1
  Ru4+  Ru113  1  0.11240457  0.49928614  0.25020019  1
  Ru4+  Ru114  1  0.11342004  0.50214239  0.49981571  1
  Ru4+  Ru115  1  0.11579977  0.49804237  0.74940063  1
  Ru4+  Ru116  1  0.11428889  0.83503475  -0.00051454  1
  Ru4+  Ru117  1  0.11348282  0.83132299  0.25045086  1
  Ru4+  Ru118  1  0.11128173  0.83342073  0.50004820  1
  Ru4+  Ru119  1  0.11284024  0.83229378  0.74997891  1
  Ru4+  Ru120  1  0.61203202  0.16561101  -0.00095182  1
  Ru4+  Ru121  1  0.61244251  0.16531892  0.24930454  1
  Ru4+  Ru122  1  0.61267704  0.16628593  0.50019630  1
  Ru4+  Ru123  1  0.61865952  0.16428502  0.75033516  1
  Ru4+  Ru124  1  0.61084682  0.49831357  -0.00050761  1
  Ru4+  Ru125  1  0.61107939  0.49997002  0.24955459  1
  Ru4+  Ru126  1  0.61404521  0.50249496  0.49995531  1
  Ru4+  Ru127  1  0.61175641  0.50041086  0.74969037  1
  Ru4+  Ru128  1  0.61312242  0.83438263  -0.00042770  1
  Ru4+  Ru129  1  0.61183096  0.83308262  0.24975814  1
  Ru4+  Ru130  1  0.61688869  0.83615515  0.49951418  1
  Ru4+  Ru131  1  0.61322642  0.83482288  0.75033639  1
  Ru4+  Ru132  1  0.38657459  0.16178022  0.00102113  1
  Ru4+  Ru133  1  0.38934899  0.16500527  0.24961324  1
  Ru4+  Ru134  1  0.38796291  0.16659694  0.50032728  1
  Ru4+  Ru135  1  0.38738772  0.16677501  0.74870209  1
  Ru4+  Ru136  1  0.38632225  0.50182271  -0.00026379  1
  Ru4+  Ru137  1  0.38812956  0.50088714  0.24981721  1
  Ru4+  Ru138  1  0.38676343  0.49734128  0.50004067  1
  Ru4+  Ru139  1  0.38655838  0.50115302  0.74988113  1
  Ru4+  Ru140  1  0.38585479  0.83637483  0.00001732  1
  Ru4+  Ru141  1  0.38634423  0.83274276  0.25105788  1
  Ru4+  Ru142  1  0.38765418  0.83240850  0.49922619  1
  Ru4+  Ru143  1  0.38617834  0.83100727  0.75073463  1
  Ru4+  Ru144  1  0.88647640  0.16790897  0.00058117  1
  Ru4+  Ru145  1  0.88938674  0.16581160  0.25005257  1
  Ru4+  Ru146  1  0.88628082  0.16482217  0.49986867  1
  Ru4+  Ru147  1  0.88566463  0.16638294  0.75026412  1
  Ru4+  Ru148  1  0.88844023  0.49973077  -0.00006754  1
  Ru4+  Ru149  1  0.88897872  0.50030276  0.25010293  1
  Ru4+  Ru150  1  0.88468873  0.50512815  0.49940983  1
  Ru4+  Ru151  1  0.88673566  0.49912654  0.74991554  1
  Ru4+  Ru152  1  0.88527501  0.83453428  -0.00031621  1
  Ru4+  Ru153  1  0.88711122  0.83573244  0.25113907  1
  Ru4+  Ru154  1  0.88563991  0.83272276  0.50059356  1
  Ru4+  Ru155  1  0.88591235  0.83397123  0.74931451  1
  Ru4+  Ru156  1  0.75000075  0.62708106  -0.01293040  1
  Ru4+  Ru157  1  0.24992449  0.91773508  0.75491830  1
  Ru4+  Ru158  1  0.25007354  0.42265026  0.75177812  1
  Ru4+  Ru159  1  0.25001425  0.26858944  0.75867552  1
  Ru4+  Ru160  1  0.25014028  0.74944067  0.00185260  1
  Ru4+  Ru161  1  0.75006051  0.41615858  0.50002257  1
  Ru4+  Ru162  1  0.75014188  0.73905631  0.25348271  1
  Ru4+  Ru163  1  0.74999109  0.91360790  0.00128060  1
  Ru4+  Ru164  1  0.24998195  0.91443398  0.24829733  1
  Ru4+  Ru165  1  0.24993412  0.27225075  -0.00249300  1
  Ru4+  Ru166  1  0.25023327  0.24940283  0.49510289  1
  Ru4+  Ru167  1  0.75002514  0.36886234  0.25751391  1
  Ru4+  Ru168  1  0.75021894  0.62276942  0.25329415  1
  Ru4+  Ru169  1  0.25003993  0.60604956  0.49886123  1
  Ru4+  Ru170  1  0.74984823  0.25979853  0.00323219  1
  Ru4+  Ru171  1  0.74984992  0.07938969  0.50043583  1
  Ru4+  Ru172  1  0.25017647  0.08249557  0.49512838  1
  Ru4+  Ru173  1  0.75004857  0.75754963  -0.00114884  1
  Ru4+  Ru174  1  0.25037872  0.05264103  0.25840094  1
  Ru4+  Ru175  1  0.24996196  0.27919546  0.24057301  1
  Ru4+  Ru176  1  0.75006060  0.37874728  0.00220581  1
  Ru4+  Ru177  1  0.25004392  0.40264695  0.24369324  1
  Ru4+  Ru178  1  0.75000227  0.25505279  0.50226370  1
  Ru4+  Ru179  1  0.75000993  0.75275137  0.74854769  1
  O2-  O180  1  0.16719482  0.08110323  0.00102382  1
  O2-  O181  1  0.16741772  0.07884917  0.25016591  1
  O2-  O182  1  0.16665853  0.08138609  0.49969646  1
  O2-  O183  1  0.16755728  0.08044493  0.74950579  1
  O2-  O184  1  0.16756254  0.41357763  -0.00031192  1
  O2-  O185  1  0.16611619  0.41310433  0.24993614  1
  O2-  O186  1  0.16705434  0.41240580  0.49929555  1
  O2-  O187  1  0.16728056  0.41364041  0.75043119  1
  O2-  O188  1  0.16769217  0.74820352  -0.00058082  1
  O2-  O189  1  0.16742347  0.74794177  0.25045990  1
  O2-  O190  1  0.16778808  0.74619715  0.50007403  1
  O2-  O191  1  0.16713009  0.74782723  0.74913878  1
  O2-  O192  1  0.66547301  0.07945138  0.00066527  1
  O2-  O193  1  0.66654917  0.08125215  0.25020137  1
  O2-  O194  1  0.66760421  0.08129922  0.50000096  1
  O2-  O195  1  0.66733202  0.08154279  0.74980347  1
  O2-  O196  1  0.66658756  0.41335403  0.00047025  1
  O2-  O197  1  0.66700964  0.41351657  0.25041543  1
  O2-  O198  1  0.66923843  0.41371389  0.50046643  1
  O2-  O199  1  0.66868903  0.41382260  0.74975309  1
  O2-  O200  1  0.66758521  0.74729280  0.00022542  1
  O2-  O201  1  0.66664730  0.74665386  0.24978876  1
  O2-  O202  1  0.66646733  0.74826391  0.50013682  1
  O2-  O203  1  0.66826011  0.74677640  0.74984279  1
  O2-  O204  1  0.33322542  0.25375757  -0.00043227  1
  O2-  O205  1  0.33427033  0.25426068  0.24966193  1
  O2-  O206  1  0.33218839  0.25277950  0.49951389  1
  O2-  O207  1  0.33283043  0.25340926  0.75068546  1
  O2-  O208  1  0.33255484  0.58470901  0.00064312  1
  O2-  O209  1  0.33328081  0.58731530  0.25024840  1
  O2-  O210  1  0.33249973  0.58658289  0.50043986  1
  O2-  O211  1  0.33335216  0.58527168  0.74892305  1
  O2-  O212  1  0.33316893  0.91698075  0.00025277  1
  O2-  O213  1  0.33259316  0.91840986  0.25005455  1
  O2-  O214  1  0.33265049  0.91976287  0.49972321  1
  O2-  O215  1  0.33234238  0.91917499  0.75000265  1
  O2-  O216  1  0.83307294  0.25302894  0.00037684  1
  O2-  O217  1  0.83150690  0.25314035  0.25035349  1
  O2-  O218  1  0.83168700  0.25312119  0.49983624  1
  O2-  O219  1  0.83302026  0.25282127  0.74996811  1
  O2-  O220  1  0.83432852  0.58732800  -0.00018747  1
  O2-  O221  1  0.83417538  0.58735120  0.24998022  1
  O2-  O222  1  0.83317914  0.58513408  0.50066423  1
  O2-  O223  1  0.83180825  0.58595098  0.74960812  1
  O2-  O224  1  0.83225494  0.91848510  -0.00007645  1
  O2-  O225  1  0.83346401  0.91927660  0.25052753  1
  O2-  O226  1  0.83407380  0.91799868  0.49959839  1
  O2-  O227  1  0.83224877  0.91798819  0.75057209  1
  O2-  O228  1  0.16664762  0.25306634  -0.00016740  1
  O2-  O229  1  0.16568022  0.25443603  0.24965975  1
  O2-  O230  1  0.16878622  0.25315783  0.49917141  1
  O2-  O231  1  0.16680498  0.25380388  0.75004478  1
  O2-  O232  1  0.16693225  0.58502073  -0.00018397  1
  O2-  O233  1  0.16761954  0.58755172  0.25021956  1
  O2-  O234  1  0.16705072  0.58658210  0.50020214  1
  O2-  O235  1  0.16740577  0.58634240  0.74955392  1
  O2-  O236  1  0.16724459  0.91724806  0.00013307  1
  O2-  O237  1  0.16781665  0.91972814  0.25021617  1
  O2-  O238  1  0.16706532  0.91977704  0.50010621  1
  O2-  O239  1  0.16775387  0.91929842  0.74989392  1
  O2-  O240  1  0.66670487  0.25348088  0.00027890  1
  O2-  O241  1  0.66844160  0.25297147  0.25040376  1
  O2-  O242  1  0.66752522  0.25269995  0.50028854  1
  O2-  O243  1  0.66785220  0.25279414  0.74924499  1
  O2-  O244  1  0.66539850  0.58732284  0.00003057  1
  O2-  O245  1  0.66524682  0.58672105  0.25000001  1
  O2-  O246  1  0.66658235  0.58461601  0.50081483  1
  O2-  O247  1  0.66794254  0.58564894  0.74976537  1
  O2-  O248  1  0.66833800  0.91846244  0.00058137  1
  O2-  O249  1  0.66656058  0.91962807  0.25026209  1
  O2-  O250  1  0.66679515  0.91801631  0.49968235  1
  O2-  O251  1  0.66685211  0.91817419  0.75005990  1
  O2-  O252  1  0.33290963  0.08185014  0.00016608  1
  O2-  O253  1  0.33313008  0.07962985  0.25023553  1
  O2-  O254  1  0.33252214  0.08137419  0.49967186  1
  O2-  O255  1  0.33239625  0.08053826  0.75036757  1
  O2-  O256  1  0.33382721  0.41406385  -0.00005342  1
  O2-  O257  1  0.33345985  0.41267212  0.24958384  1
  O2-  O258  1  0.33370647  0.41317419  0.49945600  1
  O2-  O259  1  0.33295215  0.41341357  0.75036566  1
  O2-  O260  1  0.33184051  0.74797737  0.00024007  1
  O2-  O261  1  0.33167799  0.74810127  0.24982619  1
  O2-  O262  1  0.33213853  0.74652723  0.49993632  1
  O2-  O263  1  0.33208908  0.74843295  0.74824945  1
  O2-  O264  1  0.83372704  0.07941643  -0.00054882  1
  O2-  O265  1  0.83297220  0.08128749  0.25062148  1
  O2-  O266  1  0.83313875  0.08187607  0.49986826  1
  O2-  O267  1  0.83362368  0.08164458  0.75071947  1
  O2-  O268  1  0.83350079  0.41265987  0.00057125  1
  O2-  O269  1  0.83384575  0.41242791  0.25022916  1
  O2-  O270  1  0.83071920  0.41353554  0.49998867  1
  O2-  O271  1  0.83039039  0.41399045  0.74977676  1
  O2-  O272  1  0.83165594  0.74773434  -0.00052588  1
  O2-  O273  1  0.83277089  0.74609007  0.24980154  1
  O2-  O274  1  0.83276812  0.74875016  0.49986265  1
  O2-  O275  1  0.83203605  0.74778559  0.75015104  1
  O2-  O276  1  0.95520976  0.76374700  0.76446861  1
  O2-  O277  1  0.04239976  0.10586709  0.02571416  1
  O2-  O278  1  0.95888645  0.77259705  0.97012284  1
  O2-  O279  1  0.95056274  0.56926054  0.76371191  1
  O2-  O280  1  0.04602974  0.56838332  0.74687245  1
  O2-  O281  1  0.45812811  0.77072194  0.26076942  1
  O2-  O282  1  0.95117984  0.09730979  0.26389094  1
  O2-  O283  1  0.03851623  0.11265993  0.25061127  1
  O2-  O284  1  0.94477656  0.24958825  0.22593180  1
  O2-  O285  1  0.54547111  0.10174447  0.73678914  1
  O2-  O286  1  0.54468777  0.57293178  0.26549184  1
  O2-  O287  1  0.54533533  0.43265857  0.73680103  1
  O2-  O288  1  0.45286999  0.43123721  0.48620167  1
  O2-  O289  1  0.45467742  0.23410705  0.97754884  1
  O2-  O290  1  0.95769264  0.10550532  0.97306729  1
  O2-  O291  1  0.45311811  0.57278085  0.48490851  1
  O2-  O292  1  0.04613886  0.43068816  0.48358874  1
  O2-  O293  1  0.95827665  0.22555653  0.47014453  1
  O2-  O294  1  0.04442411  0.90017226  0.26580966  1
  O2-  O295  1  0.04388201  0.22890444  0.51306931  1
  O2-  O296  1  0.04614777  0.23577537  0.73167320  1
  O2-  O297  1  0.05298029  0.41643104  0.02310952  1
  O2-  O298  1  0.94681637  0.41755271  0.53389885  1
  O2-  O299  1  0.45371210  0.90230252  0.51141794  1
  O2-  O300  1  0.45530769  0.90042623  0.76445542  1
  O2-  O301  1  0.54489435  0.90140818  0.23540304  1
  O2-  O302  1  0.03855701  0.11253328  0.25039444  1
  O2-  O303  1  0.53386573  0.44591659  0.24369087  1
  O2-  O304  1  0.95352691  0.90326058  0.01168870  1
  O2-  O305  1  0.04754063  0.76494622  0.01243483  1
  O2-  O306  1  0.04624353  0.56785418  0.74975130  1
  O2-  O307  1  0.54548338  0.09806241  0.23552061  1
  O2-  O308  1  0.45460445  0.23527854  0.26387494  1
  O2-  O309  1  0.46313077  0.11756824  0.74428893  1
  O2-  O310  1  0.54251179  0.22248274  0.75637167  1
  O2-  O311  1  0.95771268  0.77225194  0.51017208  1
  O2-  O312  1  0.45352658  0.76388534  0.23560163  1
  O2-  O313  1  0.54706127  0.76162005  0.51425566  1
  O2-  O314  1  0.95398712  0.76273124  0.48402203  1
  O2-  O315  1  0.04747662  0.23710728  0.48667448  1
  O2-  O316  1  0.04461199  0.23406202  0.77087488  1
  O2-  O317  1  0.54155587  0.44114362  0.52651636  1
  O2-  O318  1  0.54525907  0.76542834  0.01393377  1
  O2-  O319  1  0.45661993  0.23315511  0.01657937  1
  O2-  O320  1  0.54248446  0.23187725  0.73206667  1
  O2-  O321  1  0.95027239  0.91015243  0.72967434  1
  O2-  O322  1  0.45517675  0.23508548  0.51407475  1
  O2-  O323  1  0.54340924  0.10971630  0.76388058  1
  O2-  O324  1  0.92840148  0.72971939  0.04183538  1
  O2-  O325  1  0.42292101  0.05439410  0.71288366  1
  O2-  O326  1  0.43231921  0.73001623  0.28478800  1
  O2-  O327  1  0.05613446  0.41736879  0.02367390  1
  O2-  O328  1  0.56339192  0.06920481  0.46684845  1
  O2-  O329  1  0.93447164  0.40586660  0.97063721  1
  O2-  O330  1  0.57592486  0.39159637  0.21345680  1
  O2-  O331  1  0.93624810  0.93099128  0.53289106  1
  O2-  O332  1  0.07067294  0.06440085  0.95757171  1
  O2-  O333  1  0.94696272  0.25293463  0.22500109  1
  O2-  O334  1  0.43578846  0.26539105  0.71850347  1
  O2-  O335  1  0.06574851  0.59447405  0.20395495  1
  O2-  O336  1  0.06545815  0.92858921  0.02953931  1
  O2-  O337  1  0.06217981  0.40624268  0.46882764  1
  O2-  O338  1  0.56170368  0.73766702  0.53265720  1
  O2-  O339  1  0.07320684  0.05934443  0.30151658  1
  O2-  O340  1  0.06399659  0.59786076  0.30122551  1
  O2-  O341  1  0.43333288  0.73970327  0.04607362  1
  O2-  O342  1  0.93515713  0.40388111  0.77851763  1
  O2-  O343  1  0.93318307  0.39538749  0.44571267  1
  O2-  O344  1  0.56704293  0.25986809  0.29567629  1
  O2-  O345  1  0.57098269  0.27065139  0.78740448  1
  O2-  O346  1  0.57128862  0.39780431  0.45943842  1
  O2-  O347  1  0.93202884  0.73376213  0.53001883  1
  O2-  O348  1  0.43593948  0.92973456  0.28404208  1
  O2-  O349  1  0.93603339  0.26347761  0.03227529  1
  O2-  O350  1  0.06903568  0.26751963  0.53172891  1
  O2-  O351  1  0.94168533  0.92308185  0.72255194  1
  O2-  O352  1  0.43449819  0.07176127  0.22188893  1
  O2-  O353  1  0.06489728  0.07140906  0.77913330  1
  O2-  O354  1  0.56545419  0.25899402  0.20384080  1
  O2-  O355  1  0.43540166  0.59421997  0.97112313  1
  O2-  O356  1  0.43479758  0.07169697  0.02918323  1
  O2-  O357  1  0.43526807  0.92685234  0.97007837  1
  O2-  O358  1  0.43781313  0.59720529  0.46817125  1
  O2-  O359  1  0.94717264  0.41906014  0.53331135  1
  O2-  O360  1  0.93039549  0.27383729  0.54610048  1
  O2-  O361  1  0.43484253  0.73826461  0.77871395  1
  O2-  O362  1  0.56773653  0.06262604  0.78912564  1
  O2-  O363  1  0.43386425  0.74024052  0.95345918  1
  O2-  O364  1  0.92879204  0.06387461  0.04103033  1
  O2-  O365  1  0.06360105  0.59858549  0.96725465  1
  O2-  O366  1  0.07376332  0.05957243  0.19928126  1
  O2-  O367  1  0.56499046  0.40461585  0.97169276  1
  O2-  O368  1  0.93321163  0.73799321  0.20304443  1
  O2-  O369  1  0.56539699  0.92780513  0.53009513  1
  O2-  O370  1  0.93611738  0.73547383  0.30208758  1
  O2-  O371  1  0.56381301  0.93117892  0.96758785  1
  O2-  O372  1  0.25001067  0.33317583  0.35118497  1
  O2-  O373  1  0.24994911  0.33430682  0.57297707  1
  O2-  O374  1  0.75016771  0.00032906  0.92066507  1
  O2-  O375  1  0.25001667  0.00164377  0.67181758  1
  O2-  O376  1  0.24975749  -0.00523886  0.16343640  1
  O2-  O377  1  0.74991337  -0.00136246  0.58169492  1
  O2-  O378  1  0.24986509  0.66775501  0.83154410  1
  O2-  O379  1  0.74993601  0.00210083  0.40775015  1
  O2-  O380  1  0.24983828  0.00077050  0.07577615  1
  O2-  O381  1  0.75001531  0.66809446  0.84144101  1
  O2-  O382  1  0.24992749  0.66583920  0.91935876  1
  O2-  O383  1  0.25007964  0.33477160  0.09556952  1
  O2-  O384  1  0.25000121  0.00142712  0.90253494  1
  O2-  O385  1  0.75002894  0.33182880  0.89636209  1
  O2-  O386  1  0.74997197  0.66624606  0.40194723  1
  O2-  O387  1  0.75019276  -0.00087751  0.83152045  1
  O2-  O388  1  0.25005849  -0.00161626  0.57857494  1
  O2-  O389  1  0.74994446  0.67099523  0.09893251  1
  O2-  O390  1  0.75000210  0.00056668  0.66829300  1
  O2-  O391  1  0.24993912  0.33790868  0.66691325  1
  O2-  O392  1  0.74983280  -0.00168989  0.15485244  1
  O2-  O393  1  0.24992519  -0.00004591  0.40642047  1
  O2-  O394  1  0.75003537  0.32911944  0.15098304  1
  O2-  O395  1  0.25008868  0.66928731  0.09185042  1
  O2-  O396  1  0.75001732  0.16713141  0.42942042  1
  O2-  O397  1  0.75018756  0.16637230  0.58325519  1
  O2-  O398  1  0.75001434  0.83147587  0.59364648  1
  O2-  O399  1  0.75015386  0.16707329  0.66720869  1
  O2-  O400  1  0.24996461  0.50122760  0.39425044  1
  O2-  O401  1  0.25003809  0.50107253  0.83354454  1
  O2-  O402  1  0.25011439  0.16576695  0.38393627  1
  O2-  O403  1  0.25010791  0.17032224  0.65775739  1
  O2-  O404  1  0.24994632  0.16620541  0.15378273  1
  O2-  O405  1  0.24999657  0.17208978  0.07798442  1
  O2-  O406  1  0.25002018  0.83449509  0.61430903  1
  O2-  O407  1  0.25001532  0.16625194  0.57028512  1
  O2-  O408  1  0.74998755  0.16717421  0.34649331  1
  O2-  O409  1  0.74995762  0.83297647  0.40589178  1
  O2-  O410  1  0.25001462  0.49920740  0.91640823  1
  O2-  O411  1  0.24986896  0.82830181  0.30919835  1
  O2-  O412  1  0.75015799  0.17197824  0.88148909  1
  O2-  O413  1  0.24995244  0.49644280  0.15269199  1
  O2-  O414  1  0.25001226  0.82920571  0.69158613  1
  O2-  O415  1  0.25003976  0.83328735  0.38657195  1
  O2-  O416  1  0.25000999  0.49994943  0.07140039  1
  O2-  O417  1  0.24998619  0.49976717  0.66197180  1
  O2-  O418  1  0.75009326  0.17352454  0.11228289  1
  O2-  O419  1  0.75000237  0.50110492  0.88752199  1
  O2-  O420  1  0.47394756  0.00356416  0.87246986  1
  O2-  O421  1  0.52411152  0.33268456  0.87536178  1
  O2-  O422  1  0.96797728  -0.00290555  0.13070205  1
  O2-  O423  1  0.02415791  -0.00609204  0.87397387  1
  O2-  O424  1  0.96647984  0.66352989  0.62902382  1
  O2-  O425  1  0.03550257  0.66682303  0.62406692  1
  O2-  O426  1  0.47150451  0.66242798  0.12720305  1
  O2-  O427  1  0.03031985  -0.00171704  0.12416874  1
  O2-  O428  1  0.47771005  0.66388572  0.87181152  1
  O2-  O429  1  0.47011424  -0.00249774  0.62073958  1
  O2-  O430  1  0.53133315  0.66632088  0.12399817  1
  O2-  O431  1  0.03030924  0.66955822  0.12102344  1
  O2-  O432  1  0.97161462  0.65972052  0.12485130  1
  O2-  O433  1  0.97490415  0.32772775  0.87502412  1
  O2-  O434  1  0.47547556  -0.00574394  0.12393185  1
  O2-  O435  1  0.53057176  0.00192004  0.62830111  1
  O2-  O436  1  0.52737397  0.33319275  0.62333044  1
  O2-  O437  1  0.96736564  -0.00156917  0.37610288  1
  O2-  O438  1  0.02719852  0.33676709  0.62933653  1
  O2-  O439  1  0.02792824  -0.00007208  0.62382786  1
  O2-  O440  1  0.03119255  -0.00311907  0.38080819  1
  O2-  O441  1  0.52699884  0.33341761  0.37529634  1
  O2-  O442  1  0.52356057  0.33325694  0.11692684  1
  O2-  O443  1  0.46786747  0.33375767  0.37448905  1
