# generated using pymatgen
data_La7(Ru4O11)2
_symmetry_space_group_name_H-M   'P 1'
_cell_length_a   23.99098685
_cell_length_b   16.83094980
_cell_length_c   15.42905783
_cell_angle_alpha   89.99934584
_cell_angle_beta   89.99923146
_cell_angle_gamma   89.99839232
_symmetry_Int_Tables_number   1
_chemical_formula_structural   La7(Ru4O11)2
_chemical_formula_sum   'La84 Ru96 O264'
_cell_volume   6230.11615796
_cell_formula_units_Z   12
loop_
 _symmetry_equiv_pos_site_id
 _symmetry_equiv_pos_as_xyz
  1  'x, y, z'
loop_
 _atom_type_symbol
 _atom_type_oxidation_number
  La3+  3.0
  Ru4+  4.0
  O2-  -2.0
loop_
 _atom_site_type_symbol
 _atom_site_label
 _atom_site_symmetry_multiplicity
 _atom_site_fract_x
 _atom_site_fract_y
 _atom_site_fract_z
 _atom_site_occupancy
  La3+  La0  1  0.13571824  0.00052304  0.12612186  1
  La3+  La1  1  0.13557412  0.00157024  0.37872580  1
  La3+  La2  1  0.13900411  0.00019305  0.62901614  1
  La3+  La3  1  0.14051820  0.00074042  0.86956985  1
  La3+  La4  1  0.14096542  0.33780349  0.12242016  1
  La3+  La5  1  0.13810857  0.33608660  0.37545745  1
  La3+  La6  1  0.13725442  0.33476644  0.62599011  1
  La3+  La7  1  0.13611126  0.33508234  0.87322033  1
  La3+  La8  1  0.13995706  0.66428937  0.12650410  1
  La3+  La9  1  0.13068762  0.66965214  0.38273098  1
  La3+  La10  1  0.13244540  0.67529128  0.61125925  1
  La3+  La11  1  0.13979080  0.66245353  0.87038149  1
  La3+  La12  1  0.64522863  0.00145703  0.12549123  1
  La3+  La13  1  0.63792798  -0.00023285  0.37028618  1
  La3+  La14  1  0.63805678  -0.00074863  0.62456019  1
  La3+  La15  1  0.64068126  -0.00081576  0.88145981  1
  La3+  La16  1  0.62884537  0.33803428  0.13521446  1
  La3+  La17  1  0.63370865  0.33804246  0.36742014  1
  La3+  La18  1  0.64307823  0.33444165  0.62353169  1
  La3+  La19  1  0.63890606  0.33634152  0.87431156  1
  La3+  La20  1  0.63936567  0.66336754  0.12433132  1
  La3+  La21  1  0.64267415  0.66960679  0.37639286  1
  La3+  La22  1  0.63919878  0.66613246  0.62347978  1
  La3+  La23  1  0.64161767  0.66666478  0.87807208  1
  La3+  La24  1  0.36464180  0.00019721  0.12465509  1
  La3+  La25  1  0.36191514  0.00459970  0.37645651  1
  La3+  La26  1  0.36471555  -0.00071659  0.62731612  1
  La3+  La27  1  0.36068910  0.00005694  0.86863000  1
  La3+  La28  1  0.35969879  0.33569670  0.11939493  1
  La3+  La29  1  0.36225046  0.33605795  0.37377316  1
  La3+  La30  1  0.36166273  0.33371449  0.62632569  1
  La3+  La31  1  0.35839099  0.33378020  0.87082407  1
  La3+  La32  1  0.36135994  0.66507587  0.12691394  1
  La3+  La33  1  0.35954244  0.66410803  0.37386432  1
  La3+  La34  1  0.35989227  0.66436530  0.62824247  1
  La3+  La35  1  0.36103993  0.66822604  0.87059873  1
  La3+  La36  1  0.85326311  -0.00084480  0.12351508  1
  La3+  La37  1  0.86100403  -0.00076471  0.37321966  1
  La3+  La38  1  0.86179569  -0.00132739  0.62442627  1
  La3+  La39  1  0.85875306  -0.00125011  0.87871542  1
  La3+  La40  1  0.85965435  0.33175331  0.12381592  1
  La3+  La41  1  0.85861863  0.33351258  0.37436742  1
  La3+  La42  1  0.86074999  0.33775340  0.62860457  1
  La3+  La43  1  0.85845841  0.33182920  0.87756497  1
  La3+  La44  1  0.86081595  0.66498865  0.12251801  1
  La3+  La45  1  0.86003229  0.66708918  0.37520068  1
  La3+  La46  1  0.86155316  0.66643617  0.62408150  1
  La3+  La47  1  0.85924847  0.66409521  0.87629578  1
  La3+  La48  1  0.50017611  0.83482150  0.12907873  1
  La3+  La49  1  0.49990784  0.16777440  0.63405351  1
  La3+  La50  1  0.00160214  0.82790956  0.62025676  1
  La3+  La51  1  -0.00068195  0.16885967  0.63057353  1
  La3+  La52  1  0.50155653  0.16150851  0.38201858  1
  La3+  La53  1  -0.00063435  0.49486850  0.88364689  1
  La3+  La54  1  0.00187274  0.83230417  0.38726471  1
  La3+  La55  1  0.50145790  0.16458956  0.87264529  1
  La3+  La56  1  0.49899475  0.82922860  0.64201180  1
  La3+  La57  1  0.50343476  0.50411626  0.87537710  1
  La3+  La58  1  0.49949979  0.48984374  0.13355881  1
  La3+  La59  1  -0.00005052  0.83898721  0.88651808  1
  La3+  La60  1  0.50023989  0.83586160  0.38787176  1
  La3+  La61  1  0.49234991  0.83255793  0.86834673  1
  La3+  La62  1  0.49468164  0.16558151  0.36255965  1
  La3+  La63  1  -0.00270007  0.49856720  0.12037962  1
  La3+  La64  1  0.50834487  0.50207325  0.36928128  1
  La3+  La65  1  0.00384657  0.50107233  0.61738511  1
  La3+  La66  1  -0.00028750  0.83559116  0.86517899  1
  La3+  La67  1  0.50956583  0.49952289  0.38561258  1
  La3+  La68  1  -0.00068655  0.16855265  0.86904449  1
  La3+  La69  1  0.00021051  0.83210041  0.13594741  1
  La3+  La70  1  -0.00085916  0.49961467  0.38085994  1
  La3+  La71  1  -0.00090892  0.16857107  0.13641999  1
  La3+  La72  1  0.24949801  0.49791360  0.00009301  1
  La3+  La73  1  0.74983022  0.16526308  0.27370835  1
  La3+  La74  1  0.75008827  0.21479780  0.79167473  1
  La3+  La75  1  0.25059415  0.81816939  0.00488432  1
  La3+  La76  1  0.24949928  0.50420596  0.26949681  1
  La3+  La77  1  0.24842738  0.84880229  0.52949017  1
  La3+  La78  1  0.25022425  0.23545476  -0.03147342  1
  La3+  La79  1  0.74985067  0.15320739  -0.04159938  1
  La3+  La80  1  0.75011582  0.84236270  0.02086504  1
  La3+  La81  1  0.75040040  0.80006835  0.49975932  1
  La3+  La82  1  0.24965757  0.15721473  0.26433232  1
  La3+  La83  1  0.74930969  0.10761663  0.49501731  1
  Ru4+  Ru84  1  -0.00005553  -0.00025517  -0.00433998  1
  Ru4+  Ru85  1  0.00099672  0.00486410  0.25775004  1
  Ru4+  Ru86  1  -0.00198383  -0.00068336  0.49651469  1
  Ru4+  Ru87  1  -0.00051836  0.00245042  0.75157120  1
  Ru4+  Ru88  1  -0.00136198  0.33241008  -0.00242952  1
  Ru4+  Ru89  1  0.00015268  0.33507967  0.24774346  1
  Ru4+  Ru90  1  0.00042027  0.32695372  0.50542696  1
  Ru4+  Ru91  1  -0.00098370  0.32939971  0.74657408  1
  Ru4+  Ru92  1  0.00142271  0.66656985  0.00243506  1
  Ru4+  Ru93  1  0.00110688  0.66744868  0.25342532  1
  Ru4+  Ru94  1  -0.00293622  0.67589848  0.50433521  1
  Ru4+  Ru95  1  0.00455515  0.65991048  0.74364259  1
  Ru4+  Ru96  1  0.49863984  0.00264962  -0.00271155  1
  Ru4+  Ru97  1  0.49624828  -0.00704677  0.25020640  1
  Ru4+  Ru98  1  0.49717379  -0.00263458  0.50414115  1
  Ru4+  Ru99  1  0.49819485  0.00156016  0.74871707  1
  Ru4+  Ru100  1  0.50359079  0.32816221  0.00239240  1
  Ru4+  Ru101  1  0.49826975  0.33866324  0.24254267  1
  Ru4+  Ru102  1  0.49917726  0.33551881  0.50147264  1
  Ru4+  Ru103  1  0.49883014  0.33240276  0.74506844  1
  Ru4+  Ru104  1  0.50436089  0.66639752  0.00552533  1
  Ru4+  Ru105  1  0.49848004  0.66581443  0.24289144  1
  Ru4+  Ru106  1  0.50102143  0.66623676  0.50021085  1
  Ru4+  Ru107  1  0.50609411  0.66264809  0.75073819  1
  Ru4+  Ru108  1  0.10980446  0.16433543  -0.00084104  1
  Ru4+  Ru109  1  0.10918136  0.16741653  0.24862078  1
  Ru4+  Ru110  1  0.11254243  0.16656353  0.50193489  1
  Ru4+  Ru111  1  0.11279299  0.16455532  0.74969846  1
  Ru4+  Ru112  1  0.11245951  0.49987440  0.00071137  1
  Ru4+  Ru113  1  0.11196221  0.50165078  0.25096392  1
  Ru4+  Ru114  1  0.11744367  0.49722948  0.49984823  1
  Ru4+  Ru115  1  0.11473128  0.50597429  0.74980871  1
  Ru4+  Ru116  1  0.11080447  0.83208473  0.00071696  1
  Ru4+  Ru117  1  0.11057637  0.83249810  0.25387078  1
  Ru4+  Ru118  1  0.10776799  0.83340390  0.49839558  1
  Ru4+  Ru119  1  0.11364701  0.83221216  0.74764387  1
  Ru4+  Ru120  1  0.60950745  0.16967354  -0.00214336  1
  Ru4+  Ru121  1  0.61777275  0.16679887  0.24756370  1
  Ru4+  Ru122  1  0.61197843  0.16505943  0.50389270  1
  Ru4+  Ru123  1  0.60971946  0.16652262  0.74857105  1
  Ru4+  Ru124  1  0.61379705  0.50564159  0.00203724  1
  Ru4+  Ru125  1  0.61269461  0.50269586  0.24786373  1
  Ru4+  Ru126  1  0.61324379  0.49753136  0.49973279  1
  Ru4+  Ru127  1  0.61551853  0.49893403  0.74787169  1
  Ru4+  Ru128  1  0.61139048  0.83217862  0.00310213  1
  Ru4+  Ru129  1  0.61317502  0.83554815  0.24987522  1
  Ru4+  Ru130  1  0.61097456  0.83410358  0.49895615  1
  Ru4+  Ru131  1  0.61190768  0.82987649  0.75047738  1
  Ru4+  Ru132  1  0.39004099  0.16649718  -0.00162711  1
  Ru4+  Ru133  1  0.38903430  0.16537054  0.24436642  1
  Ru4+  Ru134  1  0.38383839  0.16360055  0.50247295  1
  Ru4+  Ru135  1  0.38723129  0.16448076  0.75021508  1
  Ru4+  Ru136  1  0.38410127  0.50212825  -0.00214679  1
  Ru4+  Ru137  1  0.38669398  0.49868780  0.24776959  1
  Ru4+  Ru138  1  0.38601612  0.50211456  0.50011495  1
  Ru4+  Ru139  1  0.38451063  0.49964614  0.74888123  1
  Ru4+  Ru140  1  0.38918625  0.83450998  0.00184025  1
  Ru4+  Ru141  1  0.38795789  0.83131103  0.24946891  1
  Ru4+  Ru142  1  0.39049477  0.83568121  0.49775858  1
  Ru4+  Ru143  1  0.38384470  0.83928024  0.74991746  1
  Ru4+  Ru144  1  0.88869491  0.16853063  -0.00156802  1
  Ru4+  Ru145  1  0.88949512  0.16677617  0.25046410  1
  Ru4+  Ru146  1  0.89278477  0.16297880  0.49851762  1
  Ru4+  Ru147  1  0.89008486  0.16754263  0.75172030  1
  Ru4+  Ru148  1  0.88556739  0.50190715  -0.00009322  1
  Ru4+  Ru149  1  0.88759005  0.50212977  0.24877150  1
  Ru4+  Ru150  1  0.88591736  0.49666815  0.49924251  1
  Ru4+  Ru151  1  0.88499957  0.49890224  0.75287356  1
  Ru4+  Ru152  1  0.88796231  0.83589486  0.00171434  1
  Ru4+  Ru153  1  0.88694404  0.83676895  0.25046276  1
  Ru4+  Ru154  1  0.89290001  0.83256154  0.50004311  1
  Ru4+  Ru155  1  0.88835211  0.83194700  0.75116078  1
  Ru4+  Ru156  1  0.25076615  0.71803305  0.49629976  1
  Ru4+  Ru157  1  0.75060513  0.94258754  0.50525215  1
  Ru4+  Ru158  1  0.24998840  0.02866756  0.28583574  1
  Ru4+  Ru159  1  0.74995509  0.27448934  0.49691700  1
  Ru4+  Ru160  1  0.24985227  0.90473650  0.23800443  1
  Ru4+  Ru161  1  0.75001220  0.57509037  0.25115878  1
  Ru4+  Ru162  1  0.24999329  0.25078938  0.51869605  1
  Ru4+  Ru163  1  0.25040338  0.42794348  0.50345949  1
  Ru4+  Ru164  1  0.24979340  0.75669795  0.75656336  1
  Ru4+  Ru165  1  0.74986182  0.06174729  0.76160833  1
  Ru4+  Ru166  1  0.25039406  0.98226846  0.51350264  1
  Ru4+  Ru167  1  0.74993309  0.57602752  0.50973549  1
  Ru4+  Ru168  1  0.75011327  0.73788481  0.74008921  1
  Ru4+  Ru169  1  0.74911516  0.58590168  0.74548169  1
  Ru4+  Ru170  1  0.24962849  0.68337261  -0.00211438  1
  Ru4+  Ru171  1  0.25036477  0.08153467  -0.03135713  1
  Ru4+  Ru172  1  0.24974916  0.94400630  -0.03806046  1
  Ru4+  Ru173  1  0.75019862  0.92155359  0.74365799  1
  Ru4+  Ru174  1  0.24948475  0.74391440  0.23269079  1
  Ru4+  Ru175  1  0.74933266  0.41454875  0.00896602  1
  Ru4+  Ru176  1  0.24992138  0.28455772  0.24130077  1
  Ru4+  Ru177  1  0.25018065  0.24314552  0.75465937  1
  Ru4+  Ru178  1  0.74981761  0.76073619  0.25141532  1
  Ru4+  Ru179  1  0.75044084  0.42191071  0.25314856  1
  O2-  O180  1  0.16475165  0.08062595  -0.00024390  1
  O2-  O181  1  0.16611222  0.07617591  0.24983931  1
  O2-  O182  1  0.16840910  0.08189795  0.50002704  1
  O2-  O183  1  0.16440713  0.08205999  0.74754191  1
  O2-  O184  1  0.16675414  0.41356910  -0.00352475  1
  O2-  O185  1  0.16418819  0.41386635  0.25007669  1
  O2-  O186  1  0.16838330  0.41359983  0.50100350  1
  O2-  O187  1  0.16425591  0.41508716  0.75070242  1
  O2-  O188  1  0.16648330  0.74348323  0.00031903  1
  O2-  O189  1  0.16665983  0.74697180  0.24833079  1
  O2-  O190  1  0.16836365  0.74564209  0.49788693  1
  O2-  O191  1  0.16708909  0.74826107  0.75100625  1
  O2-  O192  1  0.66610347  0.08565675  -0.00133683  1
  O2-  O193  1  0.66789679  0.08085996  0.25177013  1
  O2-  O194  1  0.65927370  0.07593782  0.50293967  1
  O2-  O195  1  0.66491269  0.07917375  0.75172454  1
  O2-  O196  1  0.66722395  0.41591161  -0.00052096  1
  O2-  O197  1  0.66854509  0.41709619  0.24982168  1
  O2-  O198  1  0.66441808  0.41567694  0.49800916  1
  O2-  O199  1  0.66935942  0.41674671  0.75176281  1
  O2-  O200  1  0.66857458  0.74941352  -0.00103585  1
  O2-  O201  1  0.66749465  0.74744642  0.24854456  1
  O2-  O202  1  0.66427585  0.74636451  0.50160947  1
  O2-  O203  1  0.66887096  0.74566671  0.74897656  1
  O2-  O204  1  0.34065598  0.25390621  -0.00050123  1
  O2-  O205  1  0.33451693  0.25629166  0.25039400  1
  O2-  O206  1  0.33350604  0.25365240  0.50264760  1
  O2-  O207  1  0.33032369  0.25229011  0.74871092  1
  O2-  O208  1  0.33155850  0.58744668  -0.00127208  1
  O2-  O209  1  0.33548289  0.58564881  0.24990633  1
  O2-  O210  1  0.33511072  0.58383096  0.50082926  1
  O2-  O211  1  0.33583212  0.58315704  0.75122113  1
  O2-  O212  1  0.33262853  0.92155642  -0.00199313  1
  O2-  O213  1  0.33444606  0.91868364  0.24913232  1
  O2-  O214  1  0.33250574  0.92322505  0.50322783  1
  O2-  O215  1  0.33255323  0.91890128  0.74868218  1
  O2-  O216  1  0.83038761  0.25046877  0.00050760  1
  O2-  O217  1  0.83530875  0.25281844  0.24838897  1
  O2-  O218  1  0.83391423  0.25334186  0.49851695  1
  O2-  O219  1  0.83202048  0.25481828  0.74803840  1
  O2-  O220  1  0.83304335  0.58545028  0.00117794  1
  O2-  O221  1  0.83191381  0.58571960  0.24998492  1
  O2-  O222  1  0.83264512  0.58725918  0.49772428  1
  O2-  O223  1  0.83096473  0.58446736  0.74775067  1
  O2-  O224  1  0.83390317  0.91799501  -0.00150931  1
  O2-  O225  1  0.83561482  0.91780112  0.24901189  1
  O2-  O226  1  0.83327937  0.92008531  0.50102253  1
  O2-  O227  1  0.83176569  0.92048017  0.75044864  1
  O2-  O228  1  0.15973325  0.25616517  0.00111113  1
  O2-  O229  1  0.16416573  0.25639029  0.25108276  1
  O2-  O230  1  0.16540833  0.25191317  0.50074179  1
  O2-  O231  1  0.16922195  0.25329099  0.75082954  1
  O2-  O232  1  0.16854297  0.58789120  -0.00134286  1
  O2-  O233  1  0.16597220  0.58505948  0.24953802  1
  O2-  O234  1  0.16486828  0.58483127  0.49957694  1
  O2-  O235  1  0.16710887  0.58310428  0.75091686  1
  O2-  O236  1  0.16610886  0.92173527  -0.00049028  1
  O2-  O237  1  0.16459964  0.91911459  0.24833405  1
  O2-  O238  1  0.16265826  0.92090219  0.50123146  1
  O2-  O239  1  0.16505647  0.91881000  0.74912394  1
  O2-  O240  1  0.66826327  0.25083614  -0.00086719  1
  O2-  O241  1  0.66689534  0.25376700  0.24738416  1
  O2-  O242  1  0.66778132  0.25440157  0.49807550  1
  O2-  O243  1  0.66793121  0.25586462  0.75090817  1
  O2-  O244  1  0.66927741  0.58405647  0.00041597  1
  O2-  O245  1  0.66917360  0.58503625  0.24898088  1
  O2-  O246  1  0.66914463  0.58467451  0.49836029  1
  O2-  O247  1  0.66749413  0.58341755  0.74970417  1
  O2-  O248  1  0.66660027  0.91621740  -0.00294136  1
  O2-  O249  1  0.66415623  0.91870115  0.25099382  1
  O2-  O250  1  0.66784953  0.91966345  0.50136781  1
  O2-  O251  1  0.66464926  0.91894586  0.74953578  1
  O2-  O252  1  0.33554834  0.07974925  -0.00197836  1
  O2-  O253  1  0.33248310  0.07906667  0.24894876  1
  O2-  O254  1  0.33129689  0.08142842  0.50337380  1
  O2-  O255  1  0.33600048  0.08149738  0.74791146  1
  O2-  O256  1  0.33008189  0.41560474  -0.00240042  1
  O2-  O257  1  0.33282650  0.41597763  0.25181294  1
  O2-  O258  1  0.33387850  0.41399267  0.50253100  1
  O2-  O259  1  0.32939727  0.41520415  0.75155711  1
  O2-  O260  1  0.33465277  0.74294721  -0.00113032  1
  O2-  O261  1  0.33271088  0.74835209  0.24883413  1
  O2-  O262  1  0.33278158  0.74400368  0.49959217  1
  O2-  O263  1  0.33338237  0.74835412  0.75138379  1
  O2-  O264  1  0.83558089  0.08333418  -0.00057438  1
  O2-  O265  1  0.83290408  0.07977521  0.25090263  1
  O2-  O266  1  0.83732853  0.07767522  0.50364175  1
  O2-  O267  1  0.83486536  0.07974132  0.75050075  1
  O2-  O268  1  0.83149092  0.41578557  0.00020201  1
  O2-  O269  1  0.83347084  0.41429372  0.25078394  1
  O2-  O270  1  0.83557196  0.41495295  0.49740657  1
  O2-  O271  1  0.83069260  0.41812557  0.74680881  1
  O2-  O272  1  0.83403764  0.74577994  -0.00007572  1
  O2-  O273  1  0.83321620  0.74612165  0.24865488  1
  O2-  O274  1  0.83585656  0.74322095  0.49833358  1
  O2-  O275  1  0.83437253  0.74610923  0.74822514  1
  O2-  O276  1  0.95097705  0.10268803  0.26017166  1
  O2-  O277  1  0.94928864  0.43094450  0.26584480  1
  O2-  O278  1  0.95479965  0.76661635  0.26404770  1
  O2-  O279  1  0.55498325  0.43189081  0.00884030  1
  O2-  O280  1  0.45320248  0.44000265  0.78663137  1
  O2-  O281  1  0.54612042  0.23883720  0.23179814  1
  O2-  O282  1  0.44890862  0.76135839  0.98682444  1
  O2-  O283  1  0.45242145  0.90265209  0.54295036  1
  O2-  O284  1  0.04433161  0.23181754  0.98978656  1
  O2-  O285  1  0.95890295  0.44706698  0.71507100  1
  O2-  O286  1  0.55242484  0.23709545  0.26970274  1
  O2-  O287  1  0.05147863  0.23958464  0.51398035  1
  O2-  O288  1  0.44978736  0.23556106  0.23383020  1
  O2-  O289  1  0.55205352  0.09520034  0.26367809  1
  O2-  O290  1  0.94896062  0.42590181  0.99033512  1
  O2-  O291  1  0.04924762  0.42956966  0.26471841  1
  O2-  O292  1  0.44845558  0.76672188  0.76422468  1
  O2-  O293  1  0.95543122  0.76509772  0.01566785  1
  O2-  O294  1  0.95099128  0.23740259  0.48336332  1
  O2-  O295  1  0.05326211  0.75525387  0.51576830  1
  O2-  O296  1  0.04482222  0.89636841  0.73821488  1
  O2-  O297  1  0.54398008  0.43369699  0.51252129  1
  O2-  O298  1  0.05006266  0.56820157  0.48021869  1
  O2-  O299  1  0.05557880  0.08512685  0.22548536  1
  O2-  O300  1  0.53412120  0.21308786  0.03625322  1
  O2-  O301  1  0.54035099  0.45392489  0.74078025  1
  O2-  O302  1  0.95004076  0.56963287  0.51046741  1
  O2-  O303  1  0.05012206  0.42457826  0.01800734  1
  O2-  O304  1  0.55095008  0.42994319  0.23601683  1
  O2-  O305  1  0.54605393  0.43879819  0.26147920  1
  O2-  O306  1  0.54492715  0.76825834  0.51360546  1
  O2-  O307  1  0.04933596  0.57357713  0.01588888  1
  O2-  O308  1  0.05086877  0.57535047  0.79837189  1
  O2-  O309  1  0.45439653  0.56583270  0.48711248  1
  O2-  O310  1  0.94956868  0.57684258  0.98647821  1
  O2-  O311  1  0.54806648  0.57642020  0.20911395  1
  O2-  O312  1  0.45248865  0.23106159  0.51261107  1
  O2-  O313  1  0.46580302  0.45579277  1.00231563  1
  O2-  O314  1  0.54213198  0.76863616  0.96089377  1
  O2-  O315  1  0.03376631  0.11011046  0.50177509  1
  O2-  O316  1  0.53610313  0.89790848  0.96300993  1
  O2-  O317  1  0.55047298  0.23554543  0.49561628  1
  O2-  O318  1  0.04385397  0.76811564  0.49577749  1
  O2-  O319  1  0.45422267  0.44400936  0.03441197  1
  O2-  O320  1  0.97240719  0.45580906  0.74648933  1
  O2-  O321  1  0.45369226  0.44801061  0.28385515  1
  O2-  O322  1  0.45538673  0.89693442  0.25866307  1
  O2-  O323  1  0.04873460  0.57387348  0.51898370  1
  O2-  O324  1  0.43512133  0.74106486  0.22382861  1
  O2-  O325  1  0.57123576  0.39946881  0.28003275  1
  O2-  O326  1  0.06718619  0.60777574  0.66293449  1
  O2-  O327  1  0.06307120  0.73831989  0.03410521  1
  O2-  O328  1  0.43247901  0.07265273  0.22455224  1
  O2-  O329  1  0.57040127  0.27854496  0.93852795  1
  O2-  O330  1  0.93371826  0.59857016  0.78493501  1
  O2-  O331  1  0.56234589  0.06865040  0.28464677  1
  O2-  O332  1  0.06417884  0.92283246  0.97611026  1
  O2-  O333  1  0.92054986  0.37984173  0.81619525  1
  O2-  O334  1  0.56215298  0.59760395  0.93120702  1
  O2-  O335  1  0.56150125  0.07116960  0.96185096  1
  O2-  O336  1  0.57839731  0.93195095  0.05404876  1
  O2-  O337  1  0.93647262  0.07110395  0.57299605  1
  O2-  O338  1  0.57306157  0.39085824  0.70874439  1
  O2-  O339  1  0.56327854  0.93211136  0.46819280  1
  O2-  O340  1  0.56193983  0.58826872  0.05927498  1
  O2-  O341  1  0.06363851  0.40902307  0.52327802  1
  O2-  O342  1  0.43561668  0.07513408  0.47592153  1
  O2-  O343  1  0.05398747  0.58306370  0.80420389  1
  O2-  O344  1  0.06032194  0.59337709  0.28325824  1
  O2-  O345  1  0.57106103  0.74762209  0.68773398  1
  O2-  O346  1  0.56584555  0.59448809  0.47621349  1
  O2-  O347  1  0.93763620  0.93023122  0.03642406  1
  O2-  O348  1  0.06291965  0.74053712  0.28162426  1
  O2-  O349  1  0.93970611  0.25167773  0.78185372  1
  O2-  O350  1  0.57259522  0.73153938  0.06450026  1
  O2-  O351  1  0.44678829  0.90968333  0.54894589  1
  O2-  O352  1  0.43110011  0.74454454  0.56289717  1
  O2-  O353  1  0.43540605  0.92666960  0.72554214  1
  O2-  O354  1  0.56047352  0.25547995  0.71934651  1
  O2-  O355  1  0.93537890  0.92318529  0.77419029  1
  O2-  O356  1  0.93133488  0.08070383  0.44002440  1
  O2-  O357  1  0.43225525  0.74797164  0.43822818  1
  O2-  O358  1  0.93753366  0.59860021  0.21698636  1
  O2-  O359  1  0.55564107  0.58667880  0.19823798  1
  O2-  O360  1  0.93659988  0.26107456  0.96722357  1
  O2-  O361  1  0.57955390  0.59168356  0.32907235  1
  O2-  O362  1  0.07689222  0.05858083  0.53219199  1
  O2-  O363  1  0.06755827  0.73186549  0.46619584  1
  O2-  O364  1  0.43437206  0.92551201  0.02737464  1
  O2-  O365  1  0.05698573  0.07773956  0.21939845  1
  O2-  O366  1  0.42482910  0.36541342  0.93594537  1
  O2-  O367  1  0.56224941  0.73347581  0.82107780  1
  O2-  O368  1  0.42108288  0.92131710  0.41571720  1
  O2-  O369  1  0.43915573  0.73958514  0.78596241  1
  O2-  O370  1  0.42814723  0.38406651  0.18658373  1
  O2-  O371  1  0.42576030  0.39434723  0.70601486  1
  O2-  O372  1  0.75057089  0.33742419  0.34345308  1
  O2-  O373  1  0.74994088  0.33433973  0.59790804  1
  O2-  O374  1  0.24994198  0.00484185  0.06286596  1
  O2-  O375  1  0.25045410  0.66545198  0.67913075  1
  O2-  O376  1  0.24963205  0.33282222  0.06811170  1
  O2-  O377  1  0.75001756  0.33833882  0.09159652  1
  O2-  O378  1  0.75042930  0.66440852  0.84517309  1
  O2-  O379  1  0.25049348  0.66325046  0.31686005  1
  O2-  O380  1  0.25054492  0.64661896  0.59129902  1
  O2-  O381  1  0.24983349  0.66655827  0.14500723  1
  O2-  O382  1  0.74998155  -0.00164220  0.09678882  1
  O2-  O383  1  0.24986690  -0.00227383  0.17273116  1
  O2-  O384  1  0.25000251  0.36074839  0.15369974  1
  O2-  O385  1  0.75011074  0.66832218  0.59315129  1
  O2-  O386  1  0.74955247  0.00061323  0.39583739  1
  O2-  O387  1  0.25030930  0.64326895  0.40883917  1
  O2-  O388  1  0.24939376  0.00522328  0.39893502  1
  O2-  O389  1  0.74963054  -0.00167720  0.64190585  1
  O2-  O390  1  0.75076089  0.66569472  0.34375627  1
  O2-  O391  1  0.25009110  0.00257502  0.85735250  1
  O2-  O392  1  0.24948860  0.36140666  0.32480824  1
  O2-  O393  1  0.25013366  0.67042039  0.84958528  1
  O2-  O394  1  0.74947670  0.00673692  0.88896797  1
  O2-  O395  1  0.24995422  0.33145911  0.44356987  1
  O2-  O396  1  0.24996025  0.83347885  0.14272686  1
  O2-  O397  1  0.75004605  0.16520257  0.15623266  1
  O2-  O398  1  0.75056200  0.19381064  0.39840641  1
  O2-  O399  1  0.75034264  0.49990611  0.15691470  1
  O2-  O400  1  0.25001533  0.50177883  0.13192420  1
  O2-  O401  1  0.74971122  0.14623140  0.67913565  1
  O2-  O402  1  0.74990666  0.17053012  0.07660053  1
  O2-  O403  1  0.75033807  0.19253985  0.59280789  1
  O2-  O404  1  0.75007555  0.50540279  0.59068036  1
  O2-  O405  1  0.75008862  0.82426462  0.15477159  1
  O2-  O406  1  0.75018057  0.82846815  0.33941166  1
  O2-  O407  1  0.74992862  0.83210281  0.65658994  1
  O2-  O408  1  0.24987237  0.15843236  0.85348656  1
  O2-  O409  1  0.25003758  0.82360757  0.31377969  1
  O2-  O410  1  0.74984256  0.82946215  0.80501879  1
  O2-  O411  1  0.24974695  0.83241930  0.86150094  1
  O2-  O412  1  0.25027640  0.49649387  0.41862832  1
  O2-  O413  1  0.25016701  0.82809788  0.65944529  1
  O2-  O414  1  0.25071172  0.82808949  0.39969939  1
  O2-  O415  1  0.75003637  0.83035996  0.89060796  1
  O2-  O416  1  0.25028337  0.17137011  0.38998286  1
  O2-  O417  1  0.25009289  0.14109635  0.06788272  1
  O2-  O418  1  0.25004252  0.18674281  0.14045034  1
  O2-  O419  1  0.25010331  0.15286642  0.47157303  1
  O2-  O420  1  0.96852063  0.67196538  0.62902540  1
  O2-  O421  1  0.52879967  0.33479648  0.12372047  1
  O2-  O422  1  0.47297117  0.00198700  0.87603430  1
  O2-  O423  1  0.48182657  0.02008917  0.62869326  1
  O2-  O424  1  0.04546982  -0.00321528  0.37851767  1
  O2-  O425  1  0.95671231  0.00721433  0.88365623  1
  O2-  O426  1  0.47260922  -0.00070093  0.12288926  1
  O2-  O427  1  0.53027812  0.00845395  0.13355910  1
  O2-  O428  1  0.95521032  0.33014036  0.62048685  1
  O2-  O429  1  0.48323931  0.00809528  0.36695893  1
  O2-  O430  1  0.47048270  0.65496249  0.63567660  1
  O2-  O431  1  0.45446941  0.33251790  0.37792993  1
  O2-  O432  1  0.02317516  -0.00515277  0.62984040  1
  O2-  O433  1  0.52622921  0.68588076  0.38013108  1
  O2-  O434  1  0.97203690  0.33060992  0.12530305  1
  O2-  O435  1  0.04371738  0.00785367  0.86441205  1
  O2-  O436  1  0.02976412  0.33463151  0.86968406  1
  O2-  O437  1  0.46690030  0.65512911  0.35867031  1
  O2-  O438  1  0.54122564  0.32884232  0.38953784  1
  O2-  O439  1  0.47674469  0.32708813  0.61798348  1
  O2-  O440  1  0.47169864  0.66252331  0.12109997  1
  O2-  O441  1  0.52922860  0.65365567  0.61823332  1
  O2-  O442  1  0.95999337  -0.01954120  0.36638911  1
  O2-  O443  1  0.04338386  0.32934469  0.64266061  1
