# generated using pymatgen
data_La7(Ru4O11)2
_symmetry_space_group_name_H-M   'P 1'
_cell_length_a   23.99034886
_cell_length_b   16.83071770
_cell_length_c   15.42674638
_cell_angle_alpha   89.99995979
_cell_angle_beta   90.00023065
_cell_angle_gamma   90.00111693
_symmetry_Int_Tables_number   1
_chemical_formula_structural   La7(Ru4O11)2
_chemical_formula_sum   'La84 Ru96 O264'
_cell_volume   6228.93126443
_cell_formula_units_Z   12
loop_
 _symmetry_equiv_pos_site_id
 _symmetry_equiv_pos_as_xyz
  1  'x, y, z'
loop_
 _atom_type_symbol
 _atom_type_oxidation_number
  La3+  3.0
  Ru4+  4.0
  O2-  -2.0
loop_
 _atom_site_type_symbol
 _atom_site_label
 _atom_site_symmetry_multiplicity
 _atom_site_fract_x
 _atom_site_fract_y
 _atom_site_fract_z
 _atom_site_occupancy
  La3+  La0  1  0.13657711  0.00027085  0.12511269  1
  La3+  La1  1  0.13636496  -0.00000781  0.37847600  1
  La3+  La2  1  0.13684247  0.00150921  0.62112657  1
  La3+  La3  1  0.13483274  0.00273844  0.87444387  1
  La3+  La4  1  0.13893874  0.33346580  0.12819807  1
  La3+  La5  1  0.14336275  0.33528613  0.37444414  1
  La3+  La6  1  0.14066866  0.33508681  0.62374566  1
  La3+  La7  1  0.13850243  0.33448680  0.87226262  1
  La3+  La8  1  0.13738141  0.66618057  0.12814023  1
  La3+  La9  1  0.13914264  0.66482440  0.37313599  1
  La3+  La10  1  0.13789054  0.66313012  0.62400539  1
  La3+  La11  1  0.13623638  0.66502137  0.87213134  1
  La3+  La12  1  0.64220724  -0.00045077  0.12788327  1
  La3+  La13  1  0.64152884  -0.00152836  0.37345766  1
  La3+  La14  1  0.64093031  -0.00126191  0.62492829  1
  La3+  La15  1  0.64017791  0.00156851  0.87435781  1
  La3+  La16  1  0.63150443  0.33567775  0.12785769  1
  La3+  La17  1  0.62871085  0.33513360  0.36998602  1
  La3+  La18  1  0.64028031  0.33187921  0.62009873  1
  La3+  La19  1  0.63911754  0.32969447  0.87972995  1
  La3+  La20  1  0.63992548  0.66501432  0.12352277  1
  La3+  La21  1  0.63701101  0.67016488  0.37842084  1
  La3+  La22  1  0.63924045  0.66986989  0.62247558  1
  La3+  La23  1  0.63896540  0.66490686  0.87393346  1
  La3+  La24  1  0.36801559  0.00591460  0.11941332  1
  La3+  La25  1  0.36265388  -0.00051127  0.37895482  1
  La3+  La26  1  0.36077778  0.00044025  0.61987682  1
  La3+  La27  1  0.36758854  0.00558371  0.88651366  1
  La3+  La28  1  0.36169120  0.33428514  0.12735262  1
  La3+  La29  1  0.35554433  0.33551413  0.37290160  1
  La3+  La30  1  0.35810593  0.33616332  0.62545239  1
  La3+  La31  1  0.36126826  0.33399848  0.87213478  1
  La3+  La32  1  0.36220335  0.66754780  0.12955573  1
  La3+  La33  1  0.36377379  0.66633848  0.37040865  1
  La3+  La34  1  0.36060690  0.66323207  0.62413949  1
  La3+  La35  1  0.36156180  0.66387450  0.87418138  1
  La3+  La36  1  0.86062874  0.00058907  0.12890979  1
  La3+  La37  1  0.85943846  -0.00098941  0.37180311  1
  La3+  La38  1  0.86071798  0.00050086  0.62536704  1
  La3+  La39  1  0.86260447  0.00199481  0.87412858  1
  La3+  La40  1  0.86263102  0.33225334  0.12368297  1
  La3+  La41  1  0.86106925  0.33161569  0.37845110  1
  La3+  La42  1  0.86018782  0.33336563  0.62277785  1
  La3+  La43  1  0.85905745  0.33249773  0.87782270  1
  La3+  La44  1  0.86247185  0.66713224  0.12063376  1
  La3+  La45  1  0.86434137  0.66871978  0.37714631  1
  La3+  La46  1  0.85898256  0.66898860  0.62844075  1
  La3+  La47  1  0.86252781  0.66257774  0.87119667  1
  La3+  La48  1  0.50470199  0.49658495  0.12514932  1
  La3+  La49  1  0.49880721  0.82645721  0.13621556  1
  La3+  La50  1  0.49904917  0.15926185  0.36281923  1
  La3+  La51  1  0.50319314  0.16928787  0.60846413  1
  La3+  La52  1  0.49638104  0.83818693  0.86207552  1
  La3+  La53  1  0.50272039  0.16512115  0.38386952  1
  La3+  La54  1  0.49743830  0.50368850  0.86712195  1
  La3+  La55  1  -0.00371786  0.16634711  0.63002121  1
  La3+  La56  1  -0.00024972  0.50047641  0.11366116  1
  La3+  La57  1  0.00252509  0.83520035  0.88083788  1
  La3+  La58  1  0.50052839  0.49995123  0.63273430  1
  La3+  La59  1  0.50421269  0.83517668  0.62967447  1
  La3+  La60  1  0.49704042  0.16084403  0.88988609  1
  La3+  La61  1  0.49738609  0.83295981  0.61050679  1
  La3+  La62  1  0.50281736  0.49914326  0.88697570  1
  La3+  La63  1  0.00084541  0.83431368  0.36659186  1
  La3+  La64  1  0.49894854  0.83184245  0.37003728  1
  La3+  La65  1  0.00023496  0.83207619  0.63114516  1
  La3+  La66  1  -0.00164665  0.16655602  0.87240609  1
  La3+  La67  1  0.49935014  0.16770276  0.12304616  1
  La3+  La68  1  0.50638967  0.17736101  0.62837235  1
  La3+  La69  1  0.49494492  0.83802586  0.87884594  1
  La3+  La70  1  0.50298876  0.49836797  0.37665166  1
  La3+  La71  1  0.49703578  0.49483381  0.36278854  1
  La3+  La72  1  0.24988368  0.79513352  0.29878565  1
  La3+  La73  1  0.24966145  0.80119882  -0.04560796  1
  La3+  La74  1  0.25005071  0.20186115  -0.00992281  1
  La3+  La75  1  0.75041490  0.12707140  0.28408277  1
  La3+  La76  1  0.74983315  0.13224431  0.72336218  1
  La3+  La77  1  0.75031258  0.79828577  -0.03608295  1
  La3+  La78  1  0.25140923  0.49890548  -0.00813329  1
  La3+  La79  1  0.75033413  0.53577082  0.24282251  1
  La3+  La80  1  0.74966481  0.46235941  0.46573707  1
  La3+  La81  1  0.24986325  0.83943766  0.74210265  1
  La3+  La82  1  0.24976810  0.49802842  0.48579362  1
  La3+  La83  1  0.25042985  0.21871755  0.24216583  1
  Ru4+  Ru84  1  -0.00232579  0.00070739  0.00271141  1
  Ru4+  Ru85  1  -0.00076618  0.00337066  0.24683047  1
  Ru4+  Ru86  1  0.00207790  0.00065591  0.49987836  1
  Ru4+  Ru87  1  -0.00118859  -0.00588081  0.74781296  1
  Ru4+  Ru88  1  -0.00423788  0.33247104  0.00304966  1
  Ru4+  Ru89  1  -0.00085193  0.33805379  0.24496622  1
  Ru4+  Ru90  1  0.00223164  0.33519918  0.50395209  1
  Ru4+  Ru91  1  -0.00003788  0.33279801  0.74766118  1
  Ru4+  Ru92  1  -0.00029956  0.66745200  -0.00073751  1
  Ru4+  Ru93  1  0.00164344  0.66904855  0.24588194  1
  Ru4+  Ru94  1  -0.00164396  0.66909867  0.49606688  1
  Ru4+  Ru95  1  0.00007475  0.65786880  0.75501627  1
  Ru4+  Ru96  1  0.49809950  0.00242750  -0.00243771  1
  Ru4+  Ru97  1  0.50040681  -0.00148347  0.24817824  1
  Ru4+  Ru98  1  0.49795816  -0.00172614  0.50008899  1
  Ru4+  Ru99  1  0.50121683  0.00115036  0.75354082  1
  Ru4+  Ru100  1  0.49745521  0.33712073  0.00355792  1
  Ru4+  Ru101  1  0.49588645  0.34341219  0.24731491  1
  Ru4+  Ru102  1  0.49829992  0.34192789  0.49875550  1
  Ru4+  Ru103  1  0.49879101  0.32979491  0.74935585  1
  Ru4+  Ru104  1  0.50246793  0.66582907  0.00352103  1
  Ru4+  Ru105  1  0.50169498  0.66228624  0.25134422  1
  Ru4+  Ru106  1  0.49753035  0.66095217  0.49898323  1
  Ru4+  Ru107  1  0.50031655  0.66201117  0.75095336  1
  Ru4+  Ru108  1  0.10964056  0.16613514  -0.00099087  1
  Ru4+  Ru109  1  0.11116327  0.16552547  0.25095535  1
  Ru4+  Ru110  1  0.11362338  0.16639115  0.49902630  1
  Ru4+  Ru111  1  0.11554538  0.17355781  0.75030996  1
  Ru4+  Ru112  1  0.10985856  0.50157947  -0.00086688  1
  Ru4+  Ru113  1  0.11521398  0.50151123  0.25015516  1
  Ru4+  Ru114  1  0.11099712  0.49713229  0.50073386  1
  Ru4+  Ru115  1  0.11399152  0.50269818  0.74963740  1
  Ru4+  Ru116  1  0.11019716  0.83262351  -0.00092155  1
  Ru4+  Ru117  1  0.10945931  0.83333029  0.25027291  1
  Ru4+  Ru118  1  0.11365044  0.83545976  0.50029309  1
  Ru4+  Ru119  1  0.10873494  0.83299959  0.75108035  1
  Ru4+  Ru120  1  0.61686894  0.16573543  -0.00038805  1
  Ru4+  Ru121  1  0.61591389  0.15957408  0.24676096  1
  Ru4+  Ru122  1  0.62000020  0.16381848  0.50078969  1
  Ru4+  Ru123  1  0.61172629  0.16446077  0.75257757  1
  Ru4+  Ru124  1  0.61104677  0.50183037  0.00244407  1
  Ru4+  Ru125  1  0.61070208  0.49941678  0.24836848  1
  Ru4+  Ru126  1  0.61152134  0.50172223  0.49944230  1
  Ru4+  Ru127  1  0.61379029  0.50433030  0.75018015  1
  Ru4+  Ru128  1  0.61108844  0.83274000  0.00186488  1
  Ru4+  Ru129  1  0.61439423  0.83341897  0.25006039  1
  Ru4+  Ru130  1  0.61760276  0.83591944  0.49916276  1
  Ru4+  Ru131  1  0.61439032  0.83443528  0.75155206  1
  Ru4+  Ru132  1  0.39143835  0.16608568  -0.00021463  1
  Ru4+  Ru133  1  0.38656134  0.16661318  0.24594960  1
  Ru4+  Ru134  1  0.38250539  0.16377895  0.50135023  1
  Ru4+  Ru135  1  0.38722426  0.16737654  0.75358919  1
  Ru4+  Ru136  1  0.38897163  0.50010815  0.00072753  1
  Ru4+  Ru137  1  0.38657212  0.49888281  0.24993353  1
  Ru4+  Ru138  1  0.38682800  0.50018170  0.50020891  1
  Ru4+  Ru139  1  0.38459826  0.49980763  0.74906858  1
  Ru4+  Ru140  1  0.39036886  0.83258634  0.00021141  1
  Ru4+  Ru141  1  0.38561030  0.83766830  0.25038366  1
  Ru4+  Ru142  1  0.38567394  0.83422793  0.50015404  1
  Ru4+  Ru143  1  0.38952125  0.83789156  0.75091772  1
  Ru4+  Ru144  1  0.88920360  0.16847867  0.00120968  1
  Ru4+  Ru145  1  0.89087619  0.16314784  0.24989190  1
  Ru4+  Ru146  1  0.88632415  0.16911266  0.49946787  1
  Ru4+  Ru147  1  0.88840571  0.16744035  0.75088108  1
  Ru4+  Ru148  1  0.88850402  0.50212965  -0.00102701  1
  Ru4+  Ru149  1  0.88988006  0.50119155  0.24935723  1
  Ru4+  Ru150  1  0.88751786  0.49865900  0.50089672  1
  Ru4+  Ru151  1  0.89049648  0.50482315  0.74977472  1
  Ru4+  Ru152  1  0.88818013  0.83496677  -0.00018649  1
  Ru4+  Ru153  1  0.88584246  0.83444639  0.24925206  1
  Ru4+  Ru154  1  0.88664885  0.83068305  0.50004097  1
  Ru4+  Ru155  1  0.88563885  0.83084196  0.75008003  1
  Ru4+  Ru156  1  0.25007588  0.10031303  0.75245665  1
  Ru4+  Ru157  1  0.24979153  0.25557261  0.50027567  1
  Ru4+  Ru158  1  0.74951964  0.41835758  0.00645315  1
  Ru4+  Ru159  1  0.24983039  0.06906308  0.25385784  1
  Ru4+  Ru160  1  0.75054065  0.39911587  0.24160779  1
  Ru4+  Ru161  1  0.24972991  0.75733787  0.50490813  1
  Ru4+  Ru162  1  0.75058527  0.75063259  0.25076900  1
  Ru4+  Ru163  1  0.24990577  0.24549693  0.74509079  1
  Ru4+  Ru164  1  0.24996195  0.92973851  -0.00018777  1
  Ru4+  Ru165  1  0.24918514  0.06814564  -0.00486951  1
  Ru4+  Ru166  1  0.75017983  0.08436937  -0.00197385  1
  Ru4+  Ru167  1  0.74977375  0.41823131  0.75626006  1
  Ru4+  Ru168  1  0.75026476  0.60788397  0.50128093  1
  Ru4+  Ru169  1  0.75044204  0.91365360  0.50335586  1
  Ru4+  Ru170  1  0.75013322  0.94076982  0.01653323  1
  Ru4+  Ru171  1  0.24886484  0.62267637  0.01874965  1
  Ru4+  Ru172  1  0.24912751  0.37361806  0.01181794  1
  Ru4+  Ru173  1  0.25010353  0.96833770  0.74784570  1
  Ru4+  Ru174  1  0.25002323  0.93381570  0.24834562  1
  Ru4+  Ru175  1  0.75066642  0.08905144  0.49978222  1
  Ru4+  Ru176  1  0.25018044  0.71248711  0.74601223  1
  Ru4+  Ru177  1  0.75015227  0.27044918  0.76872911  1
  Ru4+  Ru178  1  0.75016071  0.91255365  0.74878454  1
  Ru4+  Ru179  1  0.75015057  0.26296486  0.23954363  1
  O2-  O180  1  0.16752416  0.07894876  0.00012592  1
  O2-  O181  1  0.16555600  0.08041938  0.24962940  1
  O2-  O182  1  0.16456572  0.08147013  0.50067780  1
  O2-  O183  1  0.16730953  0.08050071  0.75074078  1
  O2-  O184  1  0.16332705  0.41172548  0.00005075  1
  O2-  O185  1  0.16351944  0.41597129  0.24741799  1
  O2-  O186  1  0.16527691  0.41431913  0.50110919  1
  O2-  O187  1  0.16349436  0.41527131  0.74950643  1
  O2-  O188  1  0.16459666  0.74685768  -0.00004940  1
  O2-  O189  1  0.16712590  0.74654192  0.24963526  1
  O2-  O190  1  0.16767543  0.74869613  0.49762124  1
  O2-  O191  1  0.16730061  0.74414545  0.74899503  1
  O2-  O192  1  0.66605383  0.08099422  -0.00014109  1
  O2-  O193  1  0.66601210  0.07848120  0.24914794  1
  O2-  O194  1  0.66862944  0.07907912  0.50187916  1
  O2-  O195  1  0.66543614  0.07867357  0.75107717  1
  O2-  O196  1  0.66689496  0.41364872  0.00001782  1
  O2-  O197  1  0.66797253  0.41416956  0.24965923  1
  O2-  O198  1  0.66468495  0.41230834  0.49769162  1
  O2-  O199  1  0.66703250  0.41270428  0.75060107  1
  O2-  O200  1  0.66837509  0.74449797  -0.00145763  1
  O2-  O201  1  0.66765840  0.74655868  0.25102095  1
  O2-  O202  1  0.66650376  0.74764619  0.49652832  1
  O2-  O203  1  0.66603032  0.74588493  0.75090287  1
  O2-  O204  1  0.33783144  0.25290173  -0.00085279  1
  O2-  O205  1  0.33833480  0.25562206  0.24925802  1
  O2-  O206  1  0.33322452  0.25335125  0.50039486  1
  O2-  O207  1  0.33367389  0.25152216  0.75007541  1
  O2-  O208  1  0.33484894  0.58871348  -0.00041215  1
  O2-  O209  1  0.33483151  0.58687373  0.25196068  1
  O2-  O210  1  0.33400443  0.58731562  0.49851089  1
  O2-  O211  1  0.33422342  0.58476283  0.74979882  1
  O2-  O212  1  0.33482340  0.92070033  0.00036930  1
  O2-  O213  1  0.33239703  0.91970277  0.24919306  1
  O2-  O214  1  0.33156696  0.91978360  0.49823107  1
  O2-  O215  1  0.33524091  0.92237582  0.75112962  1
  O2-  O216  1  0.83625673  0.25013870  0.00012762  1
  O2-  O217  1  0.83238563  0.25266476  0.24910561  1
  O2-  O218  1  0.83377611  0.25000451  0.50060979  1
  O2-  O219  1  0.83416331  0.25397101  0.74899392  1
  O2-  O220  1  0.83455349  0.58583170  0.00114027  1
  O2-  O221  1  0.83530538  0.58839088  0.25016995  1
  O2-  O222  1  0.83105640  0.58655554  0.49695917  1
  O2-  O223  1  0.83309023  0.58484253  0.75103908  1
  O2-  O224  1  0.83218754  0.91861183  0.00016475  1
  O2-  O225  1  0.83351046  0.91694652  0.25112437  1
  O2-  O226  1  0.83357280  0.91987671  0.49995250  1
  O2-  O227  1  0.83374159  0.91990438  0.75077211  1
  O2-  O228  1  0.16279783  0.25431483  0.00076399  1
  O2-  O229  1  0.16286002  0.25581666  0.24684867  1
  O2-  O230  1  0.16802389  0.25243454  0.50097738  1
  O2-  O231  1  0.16745619  0.25208047  0.74993800  1
  O2-  O232  1  0.16672370  0.58937942  -0.00006881  1
  O2-  O233  1  0.16797301  0.58513901  0.25092468  1
  O2-  O234  1  0.16768028  0.58537863  0.50001077  1
  O2-  O235  1  0.16659510  0.58358558  0.75039719  1
  O2-  O236  1  0.16583405  0.92160536  -0.00068901  1
  O2-  O237  1  0.16762609  0.92022702  0.24979154  1
  O2-  O238  1  0.16770770  0.91864081  0.49831833  1
  O2-  O239  1  0.16366250  0.92174818  0.74939711  1
  O2-  O240  1  0.66476292  0.24997792  0.00041096  1
  O2-  O241  1  0.66513706  0.25343297  0.25054995  1
  O2-  O242  1  0.66609262  0.25162194  0.50032218  1
  O2-  O243  1  0.66644924  0.25361903  0.74936807  1
  O2-  O244  1  0.66578976  0.58682182  -0.00146890  1
  O2-  O245  1  0.66517031  0.58769686  0.25254991  1
  O2-  O246  1  0.66784890  0.58659262  0.49762340  1
  O2-  O247  1  0.66606564  0.58590285  0.75125564  1
  O2-  O248  1  0.66557586  0.91837507  0.00012840  1
  O2-  O249  1  0.66473581  0.91683866  0.25006394  1
  O2-  O250  1  0.66838029  0.91938544  0.49927022  1
  O2-  O251  1  0.66662103  0.91972210  0.75063755  1
  O2-  O252  1  0.33216109  0.07931573  -0.00004047  1
  O2-  O253  1  0.33308348  0.07914358  0.24932077  1
  O2-  O254  1  0.33151105  0.08036093  0.50147785  1
  O2-  O255  1  0.33165467  0.08101093  0.75011786  1
  O2-  O256  1  0.33559784  0.41121353  -0.00088183  1
  O2-  O257  1  0.33625138  0.41487918  0.24881589  1
  O2-  O258  1  0.33418303  0.41341706  0.49960913  1
  O2-  O259  1  0.33339317  0.41425527  0.75062487  1
  O2-  O260  1  0.33315185  0.74644582  -0.00048502  1
  O2-  O261  1  0.33249259  0.74646903  0.25006639  1
  O2-  O262  1  0.33381538  0.74709677  0.49688882  1
  O2-  O263  1  0.33417126  0.74347584  0.74997890  1
  O2-  O264  1  0.83365952  0.08101816  -0.00146763  1
  O2-  O265  1  0.83523757  0.08101683  0.25020124  1
  O2-  O266  1  0.83280251  0.08086057  0.50210938  1
  O2-  O267  1  0.83315015  0.07704918  0.74981770  1
  O2-  O268  1  0.83350538  0.41508284  0.00020498  1
  O2-  O269  1  0.83206904  0.41299349  0.24920666  1
  O2-  O270  1  0.83533709  0.41385380  0.49970310  1
  O2-  O271  1  0.83207058  0.41419368  0.75030543  1
  O2-  O272  1  0.83197937  0.74541178  0.00430316  1
  O2-  O273  1  0.83326913  0.74683351  0.24968770  1
  O2-  O274  1  0.83231522  0.74863743  0.49739542  1
  O2-  O275  1  0.83381879  0.74850676  0.75104638  1
  O2-  O276  1  0.95065327  0.76437771  0.26124357  1
  O2-  O277  1  0.95164842  0.57119066  0.74214257  1
  O2-  O278  1  0.95430158  0.90140588  0.48739117  1
  O2-  O279  1  0.94976437  0.42618995  0.23367146  1
  O2-  O280  1  0.54567885  0.89990109  0.26311486  1
  O2-  O281  1  0.45502007  0.43014583  0.01262187  1
  O2-  O282  1  0.95350678  0.10071130  0.01045850  1
  O2-  O283  1  0.53697161  0.77983440  0.96997107  1
  O2-  O284  1  0.04965379  0.09860180  0.77082481  1
  O2-  O285  1  0.54896817  0.23421754  0.22877389  1
  O2-  O286  1  0.45137128  0.09315597  0.98480298  1
  O2-  O287  1  0.95564611  0.90219972  0.76168236  1
  O2-  O288  1  0.46109415  0.11572007  0.72256634  1
  O2-  O289  1  0.44960798  0.24058838  0.49096639  1
  O2-  O290  1  0.95772081  0.54715125  0.50802101  1
  O2-  O291  1  0.54598812  0.43309207  0.76481474  1
  O2-  O292  1  0.94669869  0.09052606  0.76906534  1
  O2-  O293  1  0.54929853  0.23600604  0.49210325  1
  O2-  O294  1  0.95408999  0.56766383  0.99078443  1
  O2-  O295  1  0.54185732  0.43849863  0.24630773  1
  O2-  O296  1  0.04128608  0.55341885  0.49243393  1
  O2-  O297  1  0.54722091  0.76358766  0.51190338  1
  O2-  O298  1  0.95187770  0.57014481  0.75683839  1
  O2-  O299  1  0.45310937  0.09470325  0.23196823  1
  O2-  O300  1  0.05078340  0.76350572  0.26404415  1
  O2-  O301  1  0.45111225  0.76409151  0.26455461  1
  O2-  O302  1  0.95501933  0.43112727  0.98654676  1
  O2-  O303  1  0.95380112  0.76338193  0.73837655  1
  O2-  O304  1  0.45156746  0.76392688  0.73751523  1
  O2-  O305  1  0.54769703  0.57458403  0.26368508  1
  O2-  O306  1  0.96059552  0.21825672  0.25889805  1
  O2-  O307  1  0.55105294  0.42674603  0.26691374  1
  O2-  O308  1  0.45524791  0.57075178  0.01098638  1
  O2-  O309  1  0.54890502  0.23501914  0.98754806  1
  O2-  O310  1  0.54945607  0.23824243  0.26792208  1
  O2-  O311  1  0.45443318  0.57027274  0.51298906  1
  O2-  O312  1  0.44967415  0.24280170  0.26235836  1
  O2-  O313  1  0.04684616  0.22898380  0.22043756  1
  O2-  O314  1  0.96069771  0.43369280  0.72330166  1
  O2-  O315  1  0.95479634  0.23425200  0.01147398  1
  O2-  O316  1  0.54779374  0.76410661  0.76529724  1
  O2-  O317  1  0.96312969  0.77595928  0.02725798  1
  O2-  O318  1  0.04498632  0.42375651  0.51568608  1
  O2-  O319  1  0.45182731  0.42928205  0.51665807  1
  O2-  O320  1  0.04743641  0.09816390  0.73159221  1
  O2-  O321  1  0.96465063  0.77817989  1.00777990  1
  O2-  O322  1  0.45767091  0.10194525  0.00969745  1
  O2-  O323  1  0.54856988  0.43355225  0.48793586  1
  O2-  O324  1  0.43277060  0.06524580  0.03389717  1
  O2-  O325  1  0.91568536  0.71645752  0.95031991  1
  O2-  O326  1  0.93439625  0.92174102  0.20426756  1
  O2-  O327  1  0.06461053  0.59481437  0.93693547  1
  O2-  O328  1  0.06543176  0.07292165  0.97491578  1
  O2-  O329  1  0.06660681  0.59217923  0.72309769  1
  O2-  O330  1  0.56391488  0.92894729  0.53424213  1
  O2-  O331  1  0.93726844  0.07078632  0.53395585  1
  O2-  O332  1  0.56472101  0.07013835  0.46942774  1
  O2-  O333  1  0.43290222  0.75069508  0.06138559  1
  O2-  O334  1  0.06320404  0.26417114  0.46852915  1
  O2-  O335  1  0.43698965  0.40328057  0.71570373  1
  O2-  O336  1  0.56504264  0.06811165  0.31407391  1
  O2-  O337  1  0.93708550  0.74292278  0.52878278  1
  O2-  O338  1  0.06421122  0.59262242  0.22439237  1
  O2-  O339  1  0.92569683  0.27672839  0.29030454  1
  O2-  O340  1  0.56499388  0.06972500  0.68139095  1
  O2-  O341  1  0.07319497  0.61205636  0.45822637  1
  O2-  O342  1  0.43433905  0.92747720  0.27478949  1
  O2-  O343  1  0.42883661  0.05072458  0.80965351  1
  O2-  O344  1  0.43511839  0.92443840  0.52811473  1
  O2-  O345  1  0.93479558  0.07266169  0.22482588  1
  O2-  O346  1  0.94186981  0.08537797  0.77137883  1
  O2-  O347  1  0.06391523  0.74049275  0.78412222  1
  O2-  O348  1  0.94085370  0.41411854  0.22625079  1
  O2-  O349  1  0.92369606  0.60857532  0.53378600  1
  O2-  O350  1  0.43567918  0.73754747  0.92745799  1
  O2-  O351  1  0.56120192  0.07099915  0.82053818  1
  O2-  O352  1  0.43778614  0.59671582  0.71577202  1
  O2-  O353  1  0.56240381  0.26131827  0.78372577  1
  O2-  O354  1  0.93344027  0.92724465  0.97274178  1
  O2-  O355  1  0.06184091  0.74237591  0.46724431  1
  O2-  O356  1  0.56243366  0.06874652  0.18045197  1
  O2-  O357  1  0.56100416  0.74170943  0.53464267  1
  O2-  O358  1  0.93814387  0.26456852  0.46892218  1
  O2-  O359  1  0.93487331  0.92957574  0.30349323  1
  O2-  O360  1  0.06652474  0.27129693  0.29372178  1
  O2-  O361  1  0.56455587  0.25786937  0.47209244  1
  O2-  O362  1  0.57901202  0.72841958  0.05171820  1
  O2-  O363  1  0.92840742  0.39970505  0.78726041  1
  O2-  O364  1  0.06652791  0.59052661  0.05473404  1
  O2-  O365  1  0.56916918  0.40195280  0.21973053  1
  O2-  O366  1  0.56034691  0.26189058  0.96808130  1
  O2-  O367  1  0.06548224  0.92638735  0.52616502  1
  O2-  O368  1  0.43846517  0.73748195  0.28224783  1
  O2-  O369  1  0.43453226  0.07445099  0.47292019  1
  O2-  O370  1  0.06468513  0.92795821  0.27519772  1
  O2-  O371  1  0.56457432  0.59501335  0.53374959  1
  O2-  O372  1  0.74965747  0.00124577  0.14326873  1
  O2-  O373  1  0.24992108  0.68262051  0.91320722  1
  O2-  O374  1  0.24973150  0.33678199  0.82034135  1
  O2-  O375  1  0.75018241  0.33501515  0.57463525  1
  O2-  O376  1  0.24999705  0.63717476  0.83698633  1
  O2-  O377  1  0.74998534  0.33770542  0.66773202  1
  O2-  O378  1  0.75009640  0.00117364  0.90002200  1
  O2-  O379  1  0.25022189  0.66407856  0.56650605  1
  O2-  O380  1  0.74978607  0.33379016  0.35509643  1
  O2-  O381  1  0.75026683  -0.00001254  0.65446436  1
  O2-  O382  1  0.24985240  0.33145705  0.59506011  1
  O2-  O383  1  0.25051792  0.32695706  0.35271687  1
  O2-  O384  1  0.74982493  -0.00197161  0.32818984  1
  O2-  O385  1  0.24994351  0.01012247  0.86378160  1
  O2-  O386  1  0.74979717  0.66832489  0.59712561  1
  O2-  O387  1  0.24964953  0.31978644  0.11425612  1
  O2-  O388  1  0.74996289  0.33949944  0.90245575  1
  O2-  O389  1  0.75024658  0.00020434  0.42332307  1
  O2-  O390  1  0.24967369  0.64205812  0.65402497  1
  O2-  O391  1  0.24999535  0.00756275  0.63579379  1
  O2-  O392  1  0.24984384  0.31624433  0.90860400  1
  O2-  O393  1  0.25032694  0.68060759  0.11407670  1
  O2-  O394  1  0.25009916  -0.00017670  0.10645382  1
  O2-  O395  1  0.74996111  0.33681394  0.09301488  1
  O2-  O396  1  0.74983851  0.83760297  0.18651610  1
  O2-  O397  1  0.74969932  0.83969853  0.09800229  1
  O2-  O398  1  0.24983408  0.15087693  0.35670412  1
  O2-  O399  1  0.24995456  0.83953313  0.17019903  1
  O2-  O400  1  0.24995612  0.50004017  0.61366405  1
  O2-  O401  1  0.74996894  0.83279606  0.58112006  1
  O2-  O402  1  0.24984031  0.49948957  0.69475447  1
  O2-  O403  1  0.74996924  0.16642895  0.41949889  1
  O2-  O404  1  0.74995532  0.83113637  0.66901173  1
  O2-  O405  1  0.24998008  0.16091770  0.44457180  1
  O2-  O406  1  0.74991989  0.17154852  0.85864614  1
  O2-  O407  1  0.24987920  0.50089536  0.12447500  1
  O2-  O408  1  0.74985116  0.17547907  0.15314644  1
  O2-  O409  1  0.24981685  0.49848754  0.86826844  1
  O2-  O410  1  0.25012475  0.83135045  0.58986635  1
  O2-  O411  1  0.74986141  0.83797484  0.83350766  1
  O2-  O412  1  0.25015334  0.50269259  0.36583425  1
  O2-  O413  1  0.74983273  0.50635981  0.68485761  1
  O2-  O414  1  0.74995875  0.50391601  0.59684975  1
  O2-  O415  1  0.25003824  0.16724344  0.65501347  1
  O2-  O416  1  0.74993597  0.49721374  0.09168429  1
  O2-  O417  1  0.75004480  0.17160441  0.06513351  1
  O2-  O418  1  0.24990661  0.15259668  0.12064751  1
  O2-  O419  1  0.25017052  0.84111227  0.08308664  1
  O2-  O420  1  0.97187985  0.66517781  0.37597197  1
  O2-  O421  1  0.03659363  0.33348380  0.87533097  1
  O2-  O422  1  0.02323714  0.00161356  0.62832977  1
  O2-  O423  1  0.52264667  0.33590855  0.37111490  1
  O2-  O424  1  0.46183040  0.65779829  0.13646345  1
  O2-  O425  1  0.97728924  0.66815951  0.86927000  1
  O2-  O426  1  0.98073593  -0.00082904  0.11706388  1
  O2-  O427  1  0.97570940  0.32997715  0.11827637  1
  O2-  O428  1  0.96829815  0.32411170  0.87759749  1
  O2-  O429  1  0.97317939  0.32858310  0.62442040  1
  O2-  O430  1  0.97447419  0.66989697  0.63214641  1
  O2-  O431  1  0.47078800  0.33365102  0.87609095  1
  O2-  O432  1  0.02492605  0.00513761  0.37997571  1
  O2-  O433  1  0.52803953  0.33197904  0.62497759  1
  O2-  O434  1  0.02103703  0.67599905  0.12741727  1
  O2-  O435  1  0.53824514  0.65607241  0.13397054  1
  O2-  O436  1  0.03182580  0.67196797  0.61931554  1
  O2-  O437  1  0.03151636  -0.00716367  0.87215791  1
  O2-  O438  1  0.47731164  -0.00240601  0.37610559  1
  O2-  O439  1  0.97226007  0.00178779  0.87570770  1
  O2-  O440  1  0.54020727  0.32743073  0.10888144  1
  O2-  O441  1  0.47436361  0.00139652  0.62814647  1
  O2-  O442  1  0.52898794  0.66153571  0.87678966  1
  O2-  O443  1  0.45610835  0.33245241  0.12964982  1
