# generated using pymatgen
data_La7(Ru4O11)2
_symmetry_space_group_name_H-M   'P 1'
_cell_length_a   23.98981406
_cell_length_b   16.83005295
_cell_length_c   15.42706126
_cell_angle_alpha   89.99961594
_cell_angle_beta   90.00066295
_cell_angle_gamma   89.99955595
_symmetry_Int_Tables_number   1
_chemical_formula_structural   La7(Ru4O11)2
_chemical_formula_sum   'La84 Ru96 O264'
_cell_volume   6228.67352865
_cell_formula_units_Z   12
loop_
 _symmetry_equiv_pos_site_id
 _symmetry_equiv_pos_as_xyz
  1  'x, y, z'
loop_
 _atom_type_symbol
 _atom_type_oxidation_number
  La3+  3.0
  Ru4+  4.0
  O2-  -2.0
loop_
 _atom_site_type_symbol
 _atom_site_label
 _atom_site_symmetry_multiplicity
 _atom_site_fract_x
 _atom_site_fract_y
 _atom_site_fract_z
 _atom_site_occupancy
  La3+  La0  1  0.13942470  0.00060375  0.12087326  1
  La3+  La1  1  0.13751496  -0.00047748  0.37554849  1
  La3+  La2  1  0.14019881  -0.00069577  0.62762260  1
  La3+  La3  1  0.13947829  -0.00006832  0.87578553  1
  La3+  La4  1  0.13735762  0.33188492  0.12409086  1
  La3+  La5  1  0.13745457  0.33345748  0.37424217  1
  La3+  La6  1  0.13741975  0.33307215  0.62577904  1
  La3+  La7  1  0.13778177  0.33173421  0.87471097  1
  La3+  La8  1  0.13907731  0.66755623  0.12805701  1
  La3+  La9  1  0.13883706  0.66616087  0.37377831  1
  La3+  La10  1  0.13971876  0.66715469  0.62438724  1
  La3+  La11  1  0.13883556  0.66751854  0.87311365  1
  La3+  La12  1  0.64006767  -0.00060593  0.12578365  1
  La3+  La13  1  0.63903991  -0.00000202  0.37443179  1
  La3+  La14  1  0.63768519  -0.00106895  0.62377049  1
  La3+  La15  1  0.63960256  -0.00099508  0.87304069  1
  La3+  La16  1  0.63730967  0.33277366  0.12747255  1
  La3+  La17  1  0.63869203  0.33345231  0.37408379  1
  La3+  La18  1  0.63854598  0.33371423  0.62535678  1
  La3+  La19  1  0.63784813  0.33348382  0.87290849  1
  La3+  La20  1  0.64001517  0.66791317  0.12823024  1
  La3+  La21  1  0.63883601  0.66692365  0.37399068  1
  La3+  La22  1  0.64079793  0.66756400  0.62369469  1
  La3+  La23  1  0.63985023  0.66861432  0.87370944  1
  La3+  La24  1  0.35986742  0.00007462  0.12151224  1
  La3+  La25  1  0.36232266  -0.00055561  0.37644748  1
  La3+  La26  1  0.36046967  -0.00141089  0.62739466  1
  La3+  La27  1  0.35860771  -0.00090077  0.87359619  1
  La3+  La28  1  0.36233818  0.33250365  0.12573641  1
  La3+  La29  1  0.36280694  0.33423589  0.37371360  1
  La3+  La30  1  0.36151843  0.33357034  0.62584560  1
  La3+  La31  1  0.36103322  0.33256255  0.87504704  1
  La3+  La32  1  0.36069904  0.66753212  0.12818713  1
  La3+  La33  1  0.36148201  0.66647369  0.37503432  1
  La3+  La34  1  0.36044194  0.66751548  0.62478094  1
  La3+  La35  1  0.36095438  0.66672968  0.87312592  1
  La3+  La36  1  0.86167864  -0.00020790  0.12657390  1
  La3+  La37  1  0.86025439  -0.00090542  0.37396222  1
  La3+  La38  1  0.86276094  -0.00253341  0.62572712  1
  La3+  La39  1  0.86169030  -0.00225075  0.87410422  1
  La3+  La40  1  0.86133338  0.33325241  0.12889380  1
  La3+  La41  1  0.86138831  0.33392601  0.37371503  1
  La3+  La42  1  0.86149194  0.33434003  0.62542518  1
  La3+  La43  1  0.86251943  0.33199561  0.87241779  1
  La3+  La44  1  0.85898984  0.66838608  0.12697430  1
  La3+  La45  1  0.85986034  0.66716391  0.37374774  1
  La3+  La46  1  0.86003486  0.66767039  0.62584837  1
  La3+  La47  1  0.86032206  0.66827504  0.87417873  1
  La3+  La48  1  0.00262818  0.49898188  0.88497432  1
  La3+  La49  1  0.00066931  0.83335892  0.38495997  1
  La3+  La50  1  0.50192778  0.16669310  0.61439908  1
  La3+  La51  1  0.00095753  0.16494778  0.36187901  1
  La3+  La52  1  0.00018410  0.50011187  0.11764862  1
  La3+  La53  1  0.50024977  0.16654777  0.63128317  1
  La3+  La54  1  0.00058710  0.49965168  0.13932577  1
  La3+  La55  1  0.00089797  0.83472463  0.13215715  1
  La3+  La56  1  0.50020069  0.49920780  0.60981135  1
  La3+  La57  1  0.50126230  0.49799529  0.88322687  1
  La3+  La58  1  -0.00657558  0.49958789  0.86773641  1
  La3+  La59  1  0.00031703  0.16686087  0.13293933  1
  La3+  La60  1  0.00149727  0.16624474  0.37876184  1
  La3+  La61  1  0.50176909  0.16881469  0.13586974  1
  La3+  La62  1  0.49916105  0.16636311  0.86100291  1
  La3+  La63  1  0.49843166  0.16879155  0.36972132  1
  La3+  La64  1  0.49947507  0.83439044  0.86750724  1
  La3+  La65  1  0.00115490  0.17061204  0.63044963  1
  La3+  La66  1  0.49777164  0.17190518  0.88217153  1
  La3+  La67  1  -0.00041633  0.83431552  0.63559816  1
  La3+  La68  1  0.50137401  0.49904669  0.86629710  1
  La3+  La69  1  0.50046156  0.50123008  0.63187054  1
  La3+  La70  1  0.00253453  0.49613413  0.62064885  1
  La3+  La71  1  -0.00027036  0.49928377  0.38274517  1
  La3+  La72  1  0.25000468  0.50121853  0.25759460  1
  La3+  La73  1  0.74959587  0.51021860  0.01698425  1
  La3+  La74  1  0.24995538  0.53852387  0.54635228  1
  La3+  La75  1  0.24999679  0.86939278  -0.02683264  1
  La3+  La76  1  0.75013518  0.16747069  0.71298369  1
  La3+  La77  1  0.25010953  0.12788465  0.77456265  1
  La3+  La78  1  0.25027282  0.50788351  -0.03591504  1
  La3+  La79  1  0.74975146  0.16684169  0.49696517  1
  La3+  La80  1  0.24996967  0.16527828  0.20138972  1
  La3+  La81  1  0.74977226  0.16637816  0.05288256  1
  La3+  La82  1  0.25004438  0.50074601  0.74134708  1
  La3+  La83  1  0.24976447  0.79398741  0.22285129  1
  Ru4+  Ru84  1  0.00198858  -0.00079500  -0.00383703  1
  Ru4+  Ru85  1  0.00070350  -0.00017186  0.24874861  1
  Ru4+  Ru86  1  0.00095907  0.00058823  0.50190813  1
  Ru4+  Ru87  1  0.00161691  -0.00402194  0.75389409  1
  Ru4+  Ru88  1  0.00185249  0.32937374  0.00119647  1
  Ru4+  Ru89  1  0.00120031  0.33423592  0.25014113  1
  Ru4+  Ru90  1  0.00186809  0.33664088  0.49877847  1
  Ru4+  Ru91  1  -0.00022138  0.33035827  0.75303856  1
  Ru4+  Ru92  1  -0.00125642  0.67155749  0.00312180  1
  Ru4+  Ru93  1  -0.00027960  0.66821181  0.24987115  1
  Ru4+  Ru94  1  0.00123692  0.66869611  0.50145258  1
  Ru4+  Ru95  1  -0.00238210  0.66919052  0.74838274  1
  Ru4+  Ru96  1  0.49844474  -0.00503860  0.00331751  1
  Ru4+  Ru97  1  0.49806125  -0.00379823  0.24635751  1
  Ru4+  Ru98  1  0.49786336  -0.00950892  0.49886224  1
  Ru4+  Ru99  1  0.49773956  -0.00317487  0.75074534  1
  Ru4+  Ru100  1  0.50044699  0.33362053  0.00250049  1
  Ru4+  Ru101  1  0.49887229  0.33404069  0.25005362  1
  Ru4+  Ru102  1  0.50122671  0.33565989  0.49868880  1
  Ru4+  Ru103  1  0.49984096  0.33202246  0.74984221  1
  Ru4+  Ru104  1  0.50376091  0.67351985  -0.00021416  1
  Ru4+  Ru105  1  0.49822816  0.67089448  0.25401896  1
  Ru4+  Ru106  1  0.49957516  0.66921474  0.49569475  1
  Ru4+  Ru107  1  0.49801008  0.66950917  0.75015705  1
  Ru4+  Ru108  1  0.11298481  0.16496342  -0.00005376  1
  Ru4+  Ru109  1  0.10987583  0.16635489  0.25012768  1
  Ru4+  Ru110  1  0.11214295  0.16828492  0.49992666  1
  Ru4+  Ru111  1  0.11100267  0.16565197  0.75012608  1
  Ru4+  Ru112  1  0.11248202  0.49885406  0.00097108  1
  Ru4+  Ru113  1  0.11200920  0.49876072  0.25051557  1
  Ru4+  Ru114  1  0.11111518  0.49949938  0.49997214  1
  Ru4+  Ru115  1  0.11431306  0.49915056  0.74859656  1
  Ru4+  Ru116  1  0.11054897  0.83688202  -0.00072412  1
  Ru4+  Ru117  1  0.11110536  0.83242179  0.25015228  1
  Ru4+  Ru118  1  0.11193494  0.83299445  0.49999203  1
  Ru4+  Ru119  1  0.11330582  0.83705283  0.74999077  1
  Ru4+  Ru120  1  0.61234229  0.16864141  0.00055864  1
  Ru4+  Ru121  1  0.61660072  0.16951635  0.25015722  1
  Ru4+  Ru122  1  0.61366155  0.17071817  0.49993557  1
  Ru4+  Ru123  1  0.61322672  0.16827522  0.74912982  1
  Ru4+  Ru124  1  0.61104551  0.49994172  -0.00113850  1
  Ru4+  Ru125  1  0.61741564  0.49929814  0.25064305  1
  Ru4+  Ru126  1  0.61348259  0.49906253  0.50030325  1
  Ru4+  Ru127  1  0.61464473  0.49981363  0.75065322  1
  Ru4+  Ru128  1  0.61283307  0.83059212  0.00018845  1
  Ru4+  Ru129  1  0.61161479  0.82969396  0.24902709  1
  Ru4+  Ru130  1  0.61257270  0.83491620  0.49985182  1
  Ru4+  Ru131  1  0.61493513  0.83335973  0.74916711  1
  Ru4+  Ru132  1  0.38404076  0.16727791  0.00030200  1
  Ru4+  Ru133  1  0.38805701  0.16713533  0.24961811  1
  Ru4+  Ru134  1  0.38563458  0.16582909  0.49989257  1
  Ru4+  Ru135  1  0.38878946  0.16539306  0.74963300  1
  Ru4+  Ru136  1  0.38659442  0.49623130  0.00053090  1
  Ru4+  Ru137  1  0.39009644  0.50259823  0.24966307  1
  Ru4+  Ru138  1  0.38913804  0.50010470  0.49990041  1
  Ru4+  Ru139  1  0.38697048  0.50150802  0.75053245  1
  Ru4+  Ru140  1  0.38926218  0.83524117  0.00028621  1
  Ru4+  Ru141  1  0.38749597  0.83405031  0.25038287  1
  Ru4+  Ru142  1  0.39087317  0.83335995  0.50008817  1
  Ru4+  Ru143  1  0.38633100  0.83670657  0.74923531  1
  Ru4+  Ru144  1  0.88650005  0.16432465  0.00064794  1
  Ru4+  Ru145  1  0.88543408  0.16640871  0.25046751  1
  Ru4+  Ru146  1  0.88735980  0.16636718  0.50078237  1
  Ru4+  Ru147  1  0.88709881  0.16885269  0.75115290  1
  Ru4+  Ru148  1  0.88747940  0.50188508  0.00019923  1
  Ru4+  Ru149  1  0.88725285  0.50174246  0.24990771  1
  Ru4+  Ru150  1  0.88604532  0.49750165  0.49966070  1
  Ru4+  Ru151  1  0.88608715  0.50279753  0.74911979  1
  Ru4+  Ru152  1  0.88791235  0.83193616  -0.00034687  1
  Ru4+  Ru153  1  0.88632210  0.83261570  0.24976221  1
  Ru4+  Ru154  1  0.88403642  0.83099054  0.49994321  1
  Ru4+  Ru155  1  0.88658782  0.83434633  0.75030671  1
  Ru4+  Ru156  1  0.74999183  0.29804000  0.50030690  1
  Ru4+  Ru157  1  0.24967110  0.74684240  0.50473917  1
  Ru4+  Ru158  1  0.24996770  0.39662085  0.49027591  1
  Ru4+  Ru159  1  0.24980268  0.92561470  0.24860652  1
  Ru4+  Ru160  1  0.25003888  0.73923380  0.00321649  1
  Ru4+  Ru161  1  0.75008657  0.90859457  0.00270266  1
  Ru4+  Ru162  1  0.74997121  0.03492568  0.49937378  1
  Ru4+  Ru163  1  0.24977722  0.38928215  0.00295134  1
  Ru4+  Ru164  1  0.75007728  0.63428555  0.00842547  1
  Ru4+  Ru165  1  0.24999682  0.62260548  0.00931441  1
  Ru4+  Ru166  1  0.24980343  0.91405538  0.50588030  1
  Ru4+  Ru167  1  0.24978866  0.27846910  0.26319851  1
  Ru4+  Ru168  1  0.25009819  0.25806186  0.74764031  1
  Ru4+  Ru169  1  0.75012274  0.39111936  -0.01968469  1
  Ru4+  Ru170  1  0.75012826  0.41478469  0.74771064  1
  Ru4+  Ru171  1  0.24989454  0.08569574  0.50571506  1
  Ru4+  Ru172  1  0.74993628  0.05030409  -0.00684423  1
  Ru4+  Ru173  1  0.24997355  0.24698634  0.50329690  1
  Ru4+  Ru174  1  0.74994695  0.26928412  -0.02634773  1
  Ru4+  Ru175  1  0.24996578  0.75875393  0.74915686  1
  Ru4+  Ru176  1  0.75038377  0.42185277  0.25185124  1
  Ru4+  Ru177  1  0.24975193  0.04969830  0.25703281  1
  Ru4+  Ru178  1  0.74979837  0.91093754  0.24731087  1
  Ru4+  Ru179  1  0.74989472  0.58062989  0.49819225  1
  O2-  O180  1  0.16657953  0.08306016  -0.00016660  1
  O2-  O181  1  0.16648848  0.07903455  0.25038024  1
  O2-  O182  1  0.16721617  0.07988695  0.50010665  1
  O2-  O183  1  0.16474006  0.08069946  0.74873516  1
  O2-  O184  1  0.16659851  0.41229108  0.00057431  1
  O2-  O185  1  0.16660723  0.41372837  0.24950599  1
  O2-  O186  1  0.16688776  0.41300775  0.49961547  1
  O2-  O187  1  0.16783528  0.41441181  0.74995833  1
  O2-  O188  1  0.16666953  0.74587809  0.00010349  1
  O2-  O189  1  0.16498422  0.74569609  0.25103914  1
  O2-  O190  1  0.16731041  0.74745380  0.49964773  1
  O2-  O191  1  0.16792573  0.74707866  0.75050351  1
  O2-  O192  1  0.66728007  0.07940629  -0.00118579  1
  O2-  O193  1  0.66735745  0.08174393  0.25044829  1
  O2-  O194  1  0.66721101  0.07863478  0.50010587  1
  O2-  O195  1  0.66822627  0.07982365  0.74978248  1
  O2-  O196  1  0.66627184  0.41209644  0.00005938  1
  O2-  O197  1  0.66776858  0.41452953  0.24971688  1
  O2-  O198  1  0.66685938  0.41430185  0.50037569  1
  O2-  O199  1  0.66773115  0.41387123  0.74904517  1
  O2-  O200  1  0.66639576  0.74886746  0.00055145  1
  O2-  O201  1  0.66592076  0.74916066  0.25108667  1
  O2-  O202  1  0.66800866  0.74841209  0.49956805  1
  O2-  O203  1  0.66855685  0.74870987  0.75126755  1
  O2-  O204  1  0.33295072  0.25159517  -0.00057197  1
  O2-  O205  1  0.33293909  0.25396082  0.25029819  1
  O2-  O206  1  0.33249050  0.25295254  0.49974096  1
  O2-  O207  1  0.33330603  0.25459449  0.75033947  1
  O2-  O208  1  0.33347535  0.58805234  -0.00028598  1
  O2-  O209  1  0.33274465  0.58577570  0.25059857  1
  O2-  O210  1  0.33370756  0.58628522  0.50000313  1
  O2-  O211  1  0.33108946  0.58575033  0.74895561  1
  O2-  O212  1  0.33472909  0.91979240  0.00040665  1
  O2-  O213  1  0.33409772  0.91952478  0.24983931  1
  O2-  O214  1  0.33298452  0.91900747  0.49983052  1
  O2-  O215  1  0.33353591  0.91698093  0.75006356  1
  O2-  O216  1  0.83243506  0.25420915  -0.00129608  1
  O2-  O217  1  0.83281843  0.25204152  0.25074737  1
  O2-  O218  1  0.83261262  0.25390422  0.49969475  1
  O2-  O219  1  0.83170771  0.25209611  0.74884842  1
  O2-  O220  1  0.83327962  0.58755064  0.00063301  1
  O2-  O221  1  0.83381497  0.58509392  0.25002910  1
  O2-  O222  1  0.83095823  0.58627507  0.50107924  1
  O2-  O223  1  0.83310594  0.58527132  0.74975665  1
  O2-  O224  1  0.83200612  0.91835169  0.00032729  1
  O2-  O225  1  0.83259120  0.91913221  0.25007503  1
  O2-  O226  1  0.83280423  0.91909653  0.50026890  1
  O2-  O227  1  0.83289683  0.91917117  0.74978209  1
  O2-  O228  1  0.16602100  0.25211590  -0.00038858  1
  O2-  O229  1  0.16641812  0.25492827  0.25023283  1
  O2-  O230  1  0.16707326  0.25283390  0.49988534  1
  O2-  O231  1  0.16707554  0.25367570  0.75030619  1
  O2-  O232  1  0.16558273  0.58830931  -0.00021532  1
  O2-  O233  1  0.16793378  0.58678303  0.25008855  1
  O2-  O234  1  0.16634194  0.58626102  0.49889293  1
  O2-  O235  1  0.16929063  0.58539542  0.74990521  1
  O2-  O236  1  0.16627623  0.91899814  0.00059589  1
  O2-  O237  1  0.16663916  0.92069800  0.25020496  1
  O2-  O238  1  0.16721417  0.92000559  0.49997367  1
  O2-  O239  1  0.16511532  0.91706436  0.74922421  1
  O2-  O240  1  0.66579469  0.25351916  -0.00034456  1
  O2-  O241  1  0.66744533  0.25188487  0.25027187  1
  O2-  O242  1  0.66645275  0.25429807  0.50003804  1
  O2-  O243  1  0.66882001  0.25249264  0.74917984  1
  O2-  O244  1  0.66537176  0.58768217  0.00059576  1
  O2-  O245  1  0.66713634  0.58330986  0.24937216  1
  O2-  O246  1  0.66906218  0.58586245  0.49985037  1
  O2-  O247  1  0.66803789  0.58548908  0.74994211  1
  O2-  O248  1  0.66800562  0.91826602  -0.00074441  1
  O2-  O249  1  0.66853014  0.91845727  0.25106062  1
  O2-  O250  1  0.66647185  0.91860470  0.50033815  1
  O2-  O251  1  0.66606644  0.91812519  0.75048483  1
  O2-  O252  1  0.33338503  0.08203770  0.00000408  1
  O2-  O253  1  0.33401578  0.07930828  0.25053344  1
  O2-  O254  1  0.33323571  0.08056213  0.49971257  1
  O2-  O255  1  0.33500609  0.08031686  0.74936998  1
  O2-  O256  1  0.33421841  0.41245017  0.00073126  1
  O2-  O257  1  0.33343353  0.41440332  0.25004507  1
  O2-  O258  1  0.33293265  0.41316509  0.49972592  1
  O2-  O259  1  0.33227523  0.41402094  0.74947428  1
  O2-  O260  1  0.33340789  0.74651309  -0.00054998  1
  O2-  O261  1  0.33370243  0.74631866  0.25095881  1
  O2-  O262  1  0.33307751  0.74801544  0.50042635  1
  O2-  O263  1  0.33335183  0.74685055  0.75002229  1
  O2-  O264  1  0.83379138  0.07917146  -0.00013842  1
  O2-  O265  1  0.83341773  0.08160758  0.24934487  1
  O2-  O266  1  0.83371835  0.07954528  0.50008173  1
  O2-  O267  1  0.83100726  0.08044367  0.74815912  1
  O2-  O268  1  0.83449778  0.41193522  -0.00000406  1
  O2-  O269  1  0.83241946  0.41378390  0.25058155  1
  O2-  O270  1  0.83317474  0.41477618  0.50029905  1
  O2-  O271  1  0.83221490  0.41327473  0.74983876  1
  O2-  O272  1  0.83359912  0.74853092  0.00043639  1
  O2-  O273  1  0.83386633  0.74839117  0.25060162  1
  O2-  O274  1  0.83199178  0.74801913  0.50011905  1
  O2-  O275  1  0.83359418  0.74794047  0.74990021  1
  O2-  O276  1  0.95146511  0.42968041  0.76041505  1
  O2-  O277  1  0.95397909  0.90174963  0.50463978  1
  O2-  O278  1  0.04843636  0.76888182  0.99708705  1
  O2-  O279  1  0.45192191  0.90238248  0.51423819  1
  O2-  O280  1  0.54224369  0.89536941  0.02487798  1
  O2-  O281  1  0.05198241  0.23493563  0.01843269  1
  O2-  O282  1  0.95597905  0.10556221  0.72684925  1
  O2-  O283  1  0.54761256  0.09902717  0.51501703  1
  O2-  O284  1  0.45290258  0.76330661  0.48660162  1
  O2-  O285  1  0.95273521  0.09665385  0.48525952  1
  O2-  O286  1  0.53347173  0.78358002  0.74333854  1
  O2-  O287  1  0.05566376  0.58535953  0.27521662  1
  O2-  O288  1  0.54322851  0.55695043  0.22345676  1
  O2-  O289  1  0.95679437  0.89883343  0.49374051  1
  O2-  O290  1  0.44906928  0.56587750  0.23583844  1
  O2-  O291  1  0.54510734  0.76344301  0.01300829  1
  O2-  O292  1  0.45430805  0.09772644  0.23606421  1
  O2-  O293  1  0.04173507  0.56194372  0.77337752  1
  O2-  O294  1  0.45179878  0.90081499  0.01441862  1
  O2-  O295  1  0.54287219  0.10585457  0.97182589  1
  O2-  O296  1  0.04773995  0.42847118  0.76180779  1
  O2-  O297  1  0.04711354  0.09837859  0.48799434  1
  O2-  O298  1  0.95762691  0.55855032  0.52938660  1
  O2-  O299  1  0.54835851  0.89980446  0.48577638  1
  O2-  O300  1  0.96063544  0.22288661  0.98801001  1
  O2-  O301  1  0.95036379  0.76565626  0.01693046  1
  O2-  O302  1  0.95332516  0.42917464  0.98847522  1
  O2-  O303  1  0.04749974  0.90407227  0.76138988  1
  O2-  O304  1  0.04028685  0.77222440  0.77620502  1
  O2-  O305  1  0.95512959  0.76388605  0.23640192  1
  O2-  O306  1  0.53631056  0.55301035  0.25961725  1
  O2-  O307  1  0.54552215  0.09747249  0.73692242  1
  O2-  O308  1  0.55430642  0.08687618  0.28307294  1
  O2-  O309  1  0.04720111  0.56927605  0.48433672  1
  O2-  O310  1  0.45888802  0.10858716  0.03328928  1
  O2-  O311  1  0.45399212  0.43208004  0.73863405  1
  O2-  O312  1  0.54930137  0.76200148  0.23749100  1
  O2-  O313  1  0.45305633  0.09904849  0.51304018  1
  O2-  O314  1  0.04857731  0.09827242  0.73438333  1
  O2-  O315  1  0.44635777  0.58059616  0.96388799  1
  O2-  O316  1  0.45475172  0.56797511  0.48671236  1
  O2-  O317  1  0.53373274  0.88946682  0.24446991  1
  O2-  O318  1  0.45685875  0.77408373  0.22408301  1
  O2-  O319  1  0.04567587  0.76034144  0.00532060  1
  O2-  O320  1  0.04693781  0.57075326  0.99033278  1
  O2-  O321  1  0.96089668  0.22799957  0.47100557  1
  O2-  O322  1  0.96058124  0.22295004  -0.01183843  1
  O2-  O323  1  0.95233224  0.90011850  0.76448943  1
  O2-  O324  1  0.56333492  0.40230621  0.96676617  1
  O2-  O325  1  0.07041894  0.73443435  0.70954776  1
  O2-  O326  1  0.07256655  0.60157794  0.70455030  1
  O2-  O327  1  0.56366798  0.59534831  0.53348903  1
  O2-  O328  1  0.06582066  0.92692378  0.97173714  1
  O2-  O329  1  0.56413534  0.59287646  0.69234879  1
  O2-  O330  1  0.56372461  0.26123472  0.28324674  1
  O2-  O331  1  0.56558656  0.40468706  0.20660008  1
  O2-  O332  1  0.43693517  0.59832748  0.78286126  1
  O2-  O333  1  0.57738046  0.62171558  0.30083718  1
  O2-  O334  1  0.57061366  0.07208946  0.19681914  1
  O2-  O335  1  0.43630651  0.26439828  0.05787833  1
  O2-  O336  1  0.06418694  0.40300042  0.03365220  1
  O2-  O337  1  0.56329714  0.73714341  0.54678517  1
  O2-  O338  1  0.93455346  0.59548422  0.97193817  1
  O2-  O339  1  0.57330042  0.06392306  0.04515968  1
  O2-  O340  1  0.05139637  0.57929433  0.27133291  1
  O2-  O341  1  0.06503055  0.07310713  0.97233935  1
  O2-  O342  1  0.56428042  0.40420329  0.78404005  1
  O2-  O343  1  0.91898997  0.28409274  0.04668833  1
  O2-  O344  1  0.44972831  0.57717106  0.95393967  1
  O2-  O345  1  0.93110008  0.06163487  0.79492456  1
  O2-  O346  1  0.43520122  0.92803120  0.72268320  1
  O2-  O347  1  0.56858593  0.93710517  0.95484593  1
  O2-  O348  1  0.43316373  0.26035400  0.55019120  1
  O2-  O349  1  0.56454370  0.73539836  0.45324476  1
  O2-  O350  1  0.55415509  0.08714040  0.28307900  1
  O2-  O351  1  0.42610676  0.60092966  0.06139856  1
  O2-  O352  1  0.56351880  0.07524964  0.53058394  1
  O2-  O353  1  0.43638955  0.26509017  0.21722791  1
  O2-  O354  1  0.93604392  0.26325186  0.28362930  1
  O2-  O355  1  0.93617406  0.26466092  0.78237421  1
  O2-  O356  1  0.43595503  0.26587197  0.94166407  1
  O2-  O357  1  0.56381116  0.26307924  0.71642795  1
  O2-  O358  1  0.57577804  0.93968632  0.21534525  1
  O2-  O359  1  0.42996679  0.73215840  0.28899982  1
  O2-  O360  1  0.57330665  0.72231686  0.70971584  1
  O2-  O361  1  0.92584801  0.27108730  0.54543872  1
  O2-  O362  1  0.93618148  0.73585671  0.55758821  1
  O2-  O363  1  0.93637197  0.06994307  0.28437308  1
  O2-  O364  1  0.93673676  0.73871356  0.44218287  1
  O2-  O365  1  0.06410729  0.26489385  0.78233945  1
  O2-  O366  1  0.56453319  0.40475021  0.29835300  1
  O2-  O367  1  0.93565491  0.93214908  0.96829545  1
  O2-  O368  1  0.42817942  0.06162693  0.95554534  1
  O2-  O369  1  0.92937427  0.60467035  0.45013781  1
  O2-  O370  1  0.56607675  0.59282460  0.80231733  1
  O2-  O371  1  0.43360542  0.25993022  0.45027757  1
  O2-  O372  1  0.25004914  0.34478388  0.82962857  1
  O2-  O373  1  0.25030364  0.00227819  0.84517464  1
  O2-  O374  1  0.24993184  -0.00006114  0.58044122  1
  O2-  O375  1  0.75001546  0.33340097  0.09017537  1
  O2-  O376  1  0.24977818  0.66780668  0.40829744  1
  O2-  O377  1  0.25008976  0.00101169  0.67250928  1
  O2-  O378  1  0.25002770  0.34622781  0.67297487  1
  O2-  O379  1  0.25011202  0.00070634  0.40806946  1
  O2-  O380  1  0.25038273  -0.00129251  0.10054775  1
  O2-  O381  1  0.75003272  0.33127633  0.18188597  1
  O2-  O382  1  0.24987921  0.32796751  0.58210715  1
  O2-  O383  1  0.25001420  0.31580280  0.08503193  1
  O2-  O384  1  0.75028629  0.33379114  0.84167527  1
  O2-  O385  1  0.75007661  0.66425050  0.15054294  1
  O2-  O386  1  0.75005114  -0.00245679  0.34263860  1
  O2-  O387  1  0.75016570  -0.00431488  0.10161139  1
  O2-  O388  1  0.25004561  0.31769508  0.91579368  1
  O2-  O389  1  0.24990435  0.34851060  0.16824697  1
  O2-  O390  1  0.75005506  0.66929982  0.90020530  1
  O2-  O391  1  0.74992928  -0.00821248  0.89267474  1
  O2-  O392  1  0.24993846  0.66646290  0.84420703  1
  O2-  O393  1  0.25020293  0.66644674  0.59528166  1
  O2-  O394  1  0.24992002  0.34328405  0.35622140  1
  O2-  O395  1  0.24977058  0.66607698  0.15296281  1
  O2-  O396  1  0.25023515  0.49649804  0.07838304  1
  O2-  O397  1  0.75009485  0.49683888  0.89189196  1
  O2-  O398  1  0.24990212  0.49706072  0.85264256  1
  O2-  O399  1  0.74987782  0.16599861  0.83332994  1
  O2-  O400  1  0.25013107  0.16769425  0.33978394  1
  O2-  O401  1  0.75004005  0.83332485  0.65992309  1
  O2-  O402  1  0.25008934  0.83210939  0.10170679  1
  O2-  O403  1  0.75008548  0.16539842  0.91973206  1
  O2-  O404  1  0.75015241  0.83980638  0.16249881  1
  O2-  O405  1  0.25000069  0.16625815  0.42798520  1
  O2-  O406  1  0.75012838  0.49734924  0.42005681  1
  O2-  O407  1  0.25011549  0.16697713  0.08517739  1
  O2-  O408  1  0.25007081  0.83164093  0.43042853  1
  O2-  O409  1  0.74993461  0.50292039  0.33114510  1
  O2-  O410  1  0.25005660  0.82913660  0.83617093  1
  O2-  O411  1  0.24983831  0.50005157  0.15028917  1
  O2-  O412  1  0.24996247  0.17070110  0.63810511  1
  O2-  O413  1  0.25012735  0.49310452  0.43738917  1
  O2-  O414  1  0.75003541  0.16629447  0.16908347  1
  O2-  O415  1  0.74995827  0.50517225  0.80994847  1
  O2-  O416  1  0.25001855  0.82869342  0.65886545  1
  O2-  O417  1  0.25013248  0.83954325  0.34431157  1
  O2-  O418  1  0.25011947  0.50421841  0.36592852  1
  O2-  O419  1  0.75007603  0.49777028  0.13682543  1
  O2-  O420  1  0.96631312  0.33867210  0.63101045  1
  O2-  O421  1  0.96918546  0.66937571  0.86883563  1
  O2-  O422  1  0.47440610  0.66357252  0.37620416  1
  O2-  O423  1  0.47020647  0.00385261  0.62274863  1
  O2-  O424  1  0.47426099  0.33722304  0.36965971  1
  O2-  O425  1  0.52935586  -0.00248211  0.37972980  1
  O2-  O426  1  0.02422810  0.66719026  0.61751610  1
  O2-  O427  1  0.51937743  -0.00349763  0.12317786  1
  O2-  O428  1  0.03150758  0.66584928  0.87426783  1
  O2-  O429  1  0.03720363  0.33342973  0.62269456  1
  O2-  O430  1  0.02421889  0.00153638  0.87136996  1
  O2-  O431  1  0.97464818  0.33777709  0.13074672  1
  O2-  O432  1  0.52683487  0.32948826  0.12032439  1
  O2-  O433  1  0.02815324  -0.00098809  0.37357551  1
  O2-  O434  1  0.47460946  -0.00308896  0.86950973  1
  O2-  O435  1  0.53106255  0.66523680  0.12350503  1
  O2-  O436  1  0.52612313  0.67095705  0.88096597  1
  O2-  O437  1  0.97216244  0.00050624  0.62484931  1
  O2-  O438  1  0.47444527  0.33694916  0.62781404  1
  O2-  O439  1  0.46793830  0.00004985  0.37432321  1
  O2-  O440  1  0.53088353  -0.00392657  0.62868357  1
  O2-  O441  1  0.96098891  0.00061736  0.12455434  1
  O2-  O442  1  0.03885848  0.00020094  0.12566365  1
  O2-  O443  1  0.47262701  0.67299397  0.12798110  1
