# generated using pymatgen
data_La7(Ru4O11)2
_symmetry_space_group_name_H-M   'P 1'
_cell_length_a   23.98960549
_cell_length_b   16.82994039
_cell_length_c   15.42707493
_cell_angle_alpha   90.00062970
_cell_angle_beta   90.00063398
_cell_angle_gamma   89.99897219
_symmetry_Int_Tables_number   1
_chemical_formula_structural   La7(Ru4O11)2
_chemical_formula_sum   'La84 Ru96 O264'
_cell_volume   6228.58323513
_cell_formula_units_Z   12
loop_
 _symmetry_equiv_pos_site_id
 _symmetry_equiv_pos_as_xyz
  1  'x, y, z'
loop_
 _atom_type_symbol
 _atom_type_oxidation_number
  La3+  3.0
  Ru4+  4.0
  O2-  -2.0
loop_
 _atom_site_type_symbol
 _atom_site_label
 _atom_site_symmetry_multiplicity
 _atom_site_fract_x
 _atom_site_fract_y
 _atom_site_fract_z
 _atom_site_occupancy
  La3+  La0  1  0.13984187  0.00121572  0.12956414  1
  La3+  La1  1  0.13860209  0.00057653  0.37354254  1
  La3+  La2  1  0.13619453  0.00264964  0.62716792  1
  La3+  La3  1  0.13617572  0.00320015  0.87228343  1
  La3+  La4  1  0.14278137  0.33140563  0.12471694  1
  La3+  La5  1  0.14033878  0.33153902  0.37539866  1
  La3+  La6  1  0.14039846  0.33413739  0.62474435  1
  La3+  La7  1  0.13850178  0.33489357  0.87602118  1
  La3+  La8  1  0.13804223  0.66572708  0.12566990  1
  La3+  La9  1  0.13833553  0.66869940  0.37417264  1
  La3+  La10  1  0.13864601  0.66504275  0.62421128  1
  La3+  La11  1  0.13857492  0.66388105  0.87440989  1
  La3+  La12  1  0.63939552  0.00139091  0.12674104  1
  La3+  La13  1  0.63998358  0.00207319  0.37238530  1
  La3+  La14  1  0.63633472  -0.00058730  0.62297874  1
  La3+  La15  1  0.63631411  0.00008843  0.87771571  1
  La3+  La16  1  0.63946422  0.33280178  0.12421086  1
  La3+  La17  1  0.63753776  0.33225463  0.37628123  1
  La3+  La18  1  0.63692626  0.33474565  0.62448954  1
  La3+  La19  1  0.63796823  0.33372955  0.87517620  1
  La3+  La20  1  0.63892163  0.66637189  0.12360141  1
  La3+  La21  1  0.63977853  0.66786989  0.37809263  1
  La3+  La22  1  0.63985694  0.66802343  0.62238735  1
  La3+  La23  1  0.63828893  0.66644600  0.87608482  1
  La3+  La24  1  0.35902320  -0.00121604  0.12964697  1
  La3+  La25  1  0.35900638  -0.00087784  0.37073219  1
  La3+  La26  1  0.36141528  0.00097642  0.62392941  1
  La3+  La27  1  0.36431575  0.00226969  0.87494434  1
  La3+  La28  1  0.35835871  0.33291453  0.12436013  1
  La3+  La29  1  0.36149674  0.33648780  0.37994327  1
  La3+  La30  1  0.36701675  0.33468483  0.62502594  1
  La3+  La31  1  0.36474044  0.33117727  0.87216695  1
  La3+  La32  1  0.36266241  0.66494542  0.12487461  1
  La3+  La33  1  0.36091833  0.66737198  0.37659804  1
  La3+  La34  1  0.36207773  0.66515958  0.62467503  1
  La3+  La35  1  0.36377337  0.66290346  0.87500295  1
  La3+  La36  1  0.86070424  0.00112167  0.12620692  1
  La3+  La37  1  0.86233276  0.00061504  0.37579864  1
  La3+  La38  1  0.86480252  -0.00125433  0.62159068  1
  La3+  La39  1  0.86358665  -0.00038058  0.87826739  1
  La3+  La40  1  0.86128425  0.33190081  0.12393727  1
  La3+  La41  1  0.86259264  0.33202596  0.37712439  1
  La3+  La42  1  0.86321783  0.33447025  0.62289660  1
  La3+  La43  1  0.86199244  0.33342734  0.87534665  1
  La3+  La44  1  0.86050041  0.66837108  0.12430284  1
  La3+  La45  1  0.86152759  0.66831597  0.37728923  1
  La3+  La46  1  0.86062803  0.66785083  0.62241010  1
  La3+  La47  1  0.86269695  0.66617289  0.87742737  1
  La3+  La48  1  0.49951141  0.16710345  0.63903991  1
  La3+  La49  1  0.00080561  0.50013743  0.11706539  1
  La3+  La50  1  0.49733942  0.49559935  0.36803929  1
  La3+  La51  1  0.49949532  0.83302650  0.86723309  1
  La3+  La52  1  0.49866201  0.82895342  0.63367602  1
  La3+  La53  1  -0.00188819  0.83371641  0.86859045  1
  La3+  La54  1  0.50037335  0.16489730  0.13098700  1
  La3+  La55  1  -0.00088234  0.83485726  0.36469097  1
  La3+  La56  1  0.50003638  0.16932704  0.86679089  1
  La3+  La57  1  -0.00145093  0.16538940  0.86905755  1
  La3+  La58  1  0.00058482  0.49964838  0.87729529  1
  La3+  La59  1  0.49907492  0.83134480  0.61698748  1
  La3+  La60  1  0.49995823  0.17158612  0.62272431  1
  La3+  La61  1  0.50023351  0.49922986  0.88363063  1
  La3+  La62  1  0.50047972  0.16740602  0.38130862  1
  La3+  La63  1  -0.00180831  0.49667435  0.86687539  1
  La3+  La64  1  -0.00117572  0.49816027  0.13319682  1
  La3+  La65  1  0.00080789  0.16553827  0.61556933  1
  La3+  La66  1  -0.00116174  0.83558047  0.63293049  1
  La3+  La67  1  -0.00038962  0.49985783  0.38712193  1
  La3+  La68  1  0.50010343  0.83983178  0.12567899  1
  La3+  La69  1  0.49751857  0.49658480  0.38832620  1
  La3+  La70  1  0.50130645  0.16309408  0.11461227  1
  La3+  La71  1  -0.00229979  0.83476276  0.61591124  1
  La3+  La72  1  0.74995336  0.46161294  0.79805782  1
  La3+  La73  1  0.75006422  0.79100146  0.74527683  1
  La3+  La74  1  0.75029012  0.18279266  0.74913122  1
  La3+  La75  1  0.25019363  0.16700592  0.74925635  1
  La3+  La76  1  0.25024138  0.83537983  0.74867777  1
  La3+  La77  1  0.25039449  0.49703071  -0.02241338  1
  La3+  La78  1  0.24980279  0.46937720  0.47809723  1
  La3+  La79  1  0.74969573  0.16770427  0.00482693  1
  La3+  La80  1  0.75013149  0.50486475  0.50505171  1
  La3+  La81  1  0.25048609  0.83778989  -0.03411006  1
  La3+  La82  1  0.74988591  0.43805067  0.23420245  1
  La3+  La83  1  0.75000540  0.79867803  0.02300882  1
  Ru4+  Ru84  1  0.00208394  -0.00578273  -0.00085985  1
  Ru4+  Ru85  1  0.00028288  -0.00101218  0.25320624  1
  Ru4+  Ru86  1  0.00164654  0.00658456  0.49554729  1
  Ru4+  Ru87  1  -0.00245468  -0.00364026  0.74844511  1
  Ru4+  Ru88  1  -0.00014440  0.32476067  0.00305813  1
  Ru4+  Ru89  1  0.00028633  0.33149385  0.25192496  1
  Ru4+  Ru90  1  -0.00242070  0.32996568  0.49679525  1
  Ru4+  Ru91  1  -0.00050020  0.33298230  0.74863076  1
  Ru4+  Ru92  1  -0.00113665  0.67149154  -0.00208539  1
  Ru4+  Ru93  1  -0.00167061  0.66642858  0.24857908  1
  Ru4+  Ru94  1  -0.00087018  0.66433474  0.49889204  1
  Ru4+  Ru95  1  -0.00132856  0.66631830  0.75073432  1
  Ru4+  Ru96  1  0.50052226  -0.00071597  -0.00291254  1
  Ru4+  Ru97  1  0.50023040  -0.00038155  0.25359265  1
  Ru4+  Ru98  1  0.50314343  0.00299044  0.49617968  1
  Ru4+  Ru99  1  0.50077353  -0.00139927  0.75243165  1
  Ru4+  Ru100  1  0.49849179  0.33238520  -0.00095733  1
  Ru4+  Ru101  1  0.50047659  0.33532523  0.25047650  1
  Ru4+  Ru102  1  0.49976570  0.33393885  0.49915913  1
  Ru4+  Ru103  1  0.49911661  0.33455440  0.75182282  1
  Ru4+  Ru104  1  0.49686348  0.66471316  -0.00035745  1
  Ru4+  Ru105  1  0.49806528  0.66076898  0.24706655  1
  Ru4+  Ru106  1  0.49781521  0.66825527  0.49880257  1
  Ru4+  Ru107  1  0.49856434  0.66406665  0.75073180  1
  Ru4+  Ru108  1  0.11239275  0.16953117  -0.00006269  1
  Ru4+  Ru109  1  0.11534971  0.16661866  0.25006335  1
  Ru4+  Ru110  1  0.11224358  0.16771971  0.49936634  1
  Ru4+  Ru111  1  0.11496680  0.16706070  0.75036090  1
  Ru4+  Ru112  1  0.11515275  0.50140516  0.00165054  1
  Ru4+  Ru113  1  0.11241677  0.49983256  0.24929477  1
  Ru4+  Ru114  1  0.11167439  0.50007960  0.50129402  1
  Ru4+  Ru115  1  0.11489607  0.50073281  0.75012985  1
  Ru4+  Ru116  1  0.11112290  0.83305988  0.00061043  1
  Ru4+  Ru117  1  0.11251843  0.83563973  0.24911744  1
  Ru4+  Ru118  1  0.11445805  0.83226026  0.50021705  1
  Ru4+  Ru119  1  0.11148689  0.83460765  0.74946751  1
  Ru4+  Ru120  1  0.61249143  0.16496550  -0.00059897  1
  Ru4+  Ru121  1  0.61343890  0.16351679  0.25062798  1
  Ru4+  Ru122  1  0.61231253  0.16671837  0.49952042  1
  Ru4+  Ru123  1  0.61141137  0.16544387  0.74915186  1
  Ru4+  Ru124  1  0.61439126  0.50296049  0.00026764  1
  Ru4+  Ru125  1  0.61069082  0.49878231  0.24910932  1
  Ru4+  Ru126  1  0.61099845  0.49889863  0.50015154  1
  Ru4+  Ru127  1  0.61000267  0.49913876  0.74947067  1
  Ru4+  Ru128  1  0.61060794  0.83291380  -0.00028936  1
  Ru4+  Ru129  1  0.61307491  0.83549072  0.25084313  1
  Ru4+  Ru130  1  0.61470180  0.83087482  0.49948026  1
  Ru4+  Ru131  1  0.60967896  0.83251440  0.75029409  1
  Ru4+  Ru132  1  0.38604972  0.16946874  -0.00190834  1
  Ru4+  Ru133  1  0.38405551  0.16603252  0.25184114  1
  Ru4+  Ru134  1  0.38578386  0.16977926  0.50025507  1
  Ru4+  Ru135  1  0.38896731  0.16913560  0.74951724  1
  Ru4+  Ru136  1  0.38923454  0.50105005  -0.00096904  1
  Ru4+  Ru137  1  0.38755868  0.49851344  0.24982757  1
  Ru4+  Ru138  1  0.38932622  0.49728122  0.50098637  1
  Ru4+  Ru139  1  0.38715202  0.50078381  0.74875090  1
  Ru4+  Ru140  1  0.38986298  0.83449278  0.00022828  1
  Ru4+  Ru141  1  0.38507822  0.83674446  0.25077706  1
  Ru4+  Ru142  1  0.38641381  0.83178212  0.49933746  1
  Ru4+  Ru143  1  0.38929866  0.83078549  0.74972218  1
  Ru4+  Ru144  1  0.88624882  0.16987853  0.00117591  1
  Ru4+  Ru145  1  0.88551014  0.16431101  0.24981761  1
  Ru4+  Ru146  1  0.88797190  0.16623720  0.49833765  1
  Ru4+  Ru147  1  0.88970573  0.16688207  0.74915229  1
  Ru4+  Ru148  1  0.88196533  0.50388481  0.00053054  1
  Ru4+  Ru149  1  0.88841383  0.49935014  0.25030527  1
  Ru4+  Ru150  1  0.88889803  0.49882818  0.50075335  1
  Ru4+  Ru151  1  0.88787037  0.49847653  0.75028314  1
  Ru4+  Ru152  1  0.88855064  0.83325288  -0.00088861  1
  Ru4+  Ru153  1  0.88731377  0.83373188  0.25050508  1
  Ru4+  Ru154  1  0.88411756  0.82888636  0.49962422  1
  Ru4+  Ru155  1  0.89017663  0.83258855  0.74988168  1
  Ru4+  Ru156  1  0.75018463  0.90622966  0.50021097  1
  Ru4+  Ru157  1  0.75032776  0.75054991  0.25012692  1
  Ru4+  Ru158  1  0.74975928  0.24212563  0.49866216  1
  Ru4+  Ru159  1  0.74991107  0.09611803  0.49666774  1
  Ru4+  Ru160  1  0.25014011  0.70423890  0.72730298  1
  Ru4+  Ru161  1  0.24978379  0.96257841  -0.01632846  1
  Ru4+  Ru162  1  0.25004592  0.41900457  0.24230929  1
  Ru4+  Ru163  1  0.24999869  0.60600269  0.50603417  1
  Ru4+  Ru164  1  0.75021660  0.91755125  0.24724279  1
  Ru4+  Ru165  1  0.74958456  0.41450040  -0.00357858  1
  Ru4+  Ru166  1  0.25019969  0.09012304  0.00648697  1
  Ru4+  Ru167  1  0.75012218  0.05965246  0.74984395  1
  Ru4+  Ru168  1  0.74993337  0.91699985  0.74998200  1
  Ru4+  Ru169  1  0.74971626  0.93361403  0.01399395  1
  Ru4+  Ru170  1  0.25035759  0.91078001  0.49517550  1
  Ru4+  Ru171  1  0.74993873  0.30971205  0.73686144  1
  Ru4+  Ru172  1  0.25031697  0.96912950  0.73867741  1
  Ru4+  Ru173  1  0.25018197  0.75522946  0.25114369  1
  Ru4+  Ru174  1  0.25013677  0.72187877  0.00782621  1
  Ru4+  Ru175  1  0.25001363  0.57638207  0.25019756  1
  Ru4+  Ru176  1  0.74987490  0.60436469  0.24599021  1
  Ru4+  Ru177  1  0.74990475  0.23947318  0.24997190  1
  Ru4+  Ru178  1  0.25018099  0.08036870  0.49518548  1
  Ru4+  Ru179  1  0.74992327  0.60513215  0.75895916  1
  O2-  O180  1  0.16656363  0.08084237  -0.00082175  1
  O2-  O181  1  0.16592616  0.08245140  0.25143287  1
  O2-  O182  1  0.16756056  0.08071644  0.49978562  1
  O2-  O183  1  0.16858625  0.08005303  0.74915705  1
  O2-  O184  1  0.16756551  0.41420378  -0.00268425  1
  O2-  O185  1  0.16846283  0.41418802  0.24990586  1
  O2-  O186  1  0.16615518  0.41301941  0.50065693  1
  O2-  O187  1  0.16650475  0.41385915  0.75011444  1
  O2-  O188  1  0.16478892  0.74603005  -0.00095593  1
  O2-  O189  1  0.16864404  0.74781030  0.25096860  1
  O2-  O190  1  0.16659451  0.74695817  0.50076992  1
  O2-  O191  1  0.16549578  0.74510265  0.75003645  1
  O2-  O192  1  0.66909433  0.08148091  0.00000468  1
  O2-  O193  1  0.66663586  0.08259172  0.24877113  1
  O2-  O194  1  0.66734471  0.08154031  0.50083733  1
  O2-  O195  1  0.66628131  0.07834718  0.75050678  1
  O2-  O196  1  0.66767285  0.41317858  -0.00044371  1
  O2-  O197  1  0.66380835  0.41177566  0.25172146  1
  O2-  O198  1  0.66755906  0.41303081  0.50013499  1
  O2-  O199  1  0.66690328  0.41302720  0.74815659  1
  O2-  O200  1  0.66572432  0.74401500  -0.00079058  1
  O2-  O201  1  0.66729734  0.74754001  0.24924264  1
  O2-  O202  1  0.66638614  0.74843825  0.49893222  1
  O2-  O203  1  0.66491606  0.74423718  0.75118916  1
  O2-  O204  1  0.33309847  0.25055962  -0.00079134  1
  O2-  O205  1  0.33257018  0.25103856  0.24901730  1
  O2-  O206  1  0.33425615  0.25113068  0.50125761  1
  O2-  O207  1  0.33120972  0.25260211  0.74989386  1
  O2-  O208  1  0.33265516  0.58656437  0.00068400  1
  O2-  O209  1  0.33318152  0.58617474  0.25001654  1
  O2-  O210  1  0.33403733  0.58658600  0.49961123  1
  O2-  O211  1  0.33425207  0.58539434  0.74889795  1
  O2-  O212  1  0.33469728  0.92075655  -0.00114688  1
  O2-  O213  1  0.33411381  0.91572609  0.25016625  1
  O2-  O214  1  0.33118679  0.91957277  0.50103454  1
  O2-  O215  1  0.33357319  0.92195964  0.74991901  1
  O2-  O216  1  0.83178125  0.25221136  -0.00097527  1
  O2-  O217  1  0.83297534  0.25371287  0.25024819  1
  O2-  O218  1  0.83127782  0.25234142  0.50078009  1
  O2-  O219  1  0.83526325  0.25476428  0.75012024  1
  O2-  O220  1  0.83145201  0.58713288  -0.00080272  1
  O2-  O221  1  0.83339136  0.58658062  0.25021442  1
  O2-  O222  1  0.83393942  0.58592363  0.49858834  1
  O2-  O223  1  0.83348771  0.58737326  0.74997734  1
  O2-  O224  1  0.83227182  0.92061170  0.00021805  1
  O2-  O225  1  0.83350717  0.91874700  0.25021768  1
  O2-  O226  1  0.83305359  0.91988721  0.49993187  1
  O2-  O227  1  0.83329552  0.92164784  0.75039302  1
  O2-  O228  1  0.16622476  0.25084862  -0.00172197  1
  O2-  O229  1  0.16593080  0.25088416  0.25035163  1
  O2-  O230  1  0.16604681  0.25137274  0.50094998  1
  O2-  O231  1  0.16827383  0.25264301  0.75092916  1
  O2-  O232  1  0.16733842  0.58659047  -0.00048705  1
  O2-  O233  1  0.16683672  0.58645358  0.25034163  1
  O2-  O234  1  0.16641106  0.58716584  0.49980626  1
  O2-  O235  1  0.16559769  0.58610433  0.74898196  1
  O2-  O236  1  0.16660025  0.92068189  -0.00090221  1
  O2-  O237  1  0.16574506  0.91734886  0.25093958  1
  O2-  O238  1  0.16735607  0.91933221  0.50046852  1
  O2-  O239  1  0.16695867  0.92144324  0.74957210  1
  O2-  O240  1  0.66769489  0.25254313  -0.00071086  1
  O2-  O241  1  0.66712590  0.25363524  0.25023388  1
  O2-  O242  1  0.66974663  0.25314212  0.50023301  1
  O2-  O243  1  0.66513898  0.25478871  0.74984778  1
  O2-  O244  1  0.66558665  0.58583371  -0.00000619  1
  O2-  O245  1  0.66665808  0.58744435  0.24977954  1
  O2-  O246  1  0.66696262  0.58637767  0.49926131  1
  O2-  O247  1  0.66648056  0.58720255  0.75136248  1
  O2-  O248  1  0.66684744  0.92116027  0.00005657  1
  O2-  O249  1  0.66641930  0.91808214  0.24947404  1
  O2-  O250  1  0.66729044  0.91952325  0.50052431  1
  O2-  O251  1  0.66682297  0.92137528  0.75016802  1
  O2-  O252  1  0.33219643  0.08069422  -0.00057846  1
  O2-  O253  1  0.33280051  0.08323577  0.25018580  1
  O2-  O254  1  0.33107666  0.08086806  0.50041543  1
  O2-  O255  1  0.33322957  0.08003215  0.75018192  1
  O2-  O256  1  0.33301151  0.41501280  -0.00119080  1
  O2-  O257  1  0.33153478  0.41465477  0.24960670  1
  O2-  O258  1  0.33301366  0.41264375  0.50178552  1
  O2-  O259  1  0.33406393  0.41370467  0.74939382  1
  O2-  O260  1  0.33451078  0.74501369  -0.00017472  1
  O2-  O261  1  0.33091037  0.74736568  0.24990116  1
  O2-  O262  1  0.33402409  0.74773290  0.50111845  1
  O2-  O263  1  0.33399961  0.74567859  0.74969979  1
  O2-  O264  1  0.83042453  0.08199011  -0.00066544  1
  O2-  O265  1  0.83502913  0.08249455  0.25022112  1
  O2-  O266  1  0.83197117  0.08177200  0.50091699  1
  O2-  O267  1  0.83391596  0.07782296  0.75043064  1
  O2-  O268  1  0.83282667  0.41279016  0.00006447  1
  O2-  O269  1  0.83612234  0.41125387  0.25106327  1
  O2-  O270  1  0.83118104  0.41279965  0.49937578  1
  O2-  O271  1  0.83291205  0.41283478  0.74731037  1
  O2-  O272  1  0.83472571  0.74583513  -0.00077381  1
  O2-  O273  1  0.83337503  0.74747287  0.25068958  1
  O2-  O274  1  0.83451132  0.74735705  0.49909611  1
  O2-  O275  1  0.83505022  0.74432970  0.75090079  1
  O2-  O276  1  0.45450776  0.90020914  0.73729024  1
  O2-  O277  1  0.04543609  0.09620966  0.72776674  1
  O2-  O278  1  0.45122465  0.23979018  0.20864519  1
  O2-  O279  1  0.95540597  0.43083662  0.26486855  1
  O2-  O280  1  0.45606922  0.22864542  0.73755227  1
  O2-  O281  1  0.95586115  0.56836722  0.26295628  1
  O2-  O282  1  0.96085052  0.10384947  0.99365437  1
  O2-  O283  1  0.95066897  0.57226383  0.96173856  1
  O2-  O284  1  0.04543833  0.23373990  0.48829606  1
  O2-  O285  1  0.03961728  0.10703704  0.76242626  1
  O2-  O286  1  0.45204144  0.42658668  0.48277190  1
  O2-  O287  1  0.04470308  0.76455720  0.76136828  1
  O2-  O288  1  0.95027291  0.23968897  0.98448610  1
  O2-  O289  1  0.95446148  0.43158866  0.99968661  1
  O2-  O290  1  0.45526034  0.77372487  0.22621442  1
  O2-  O291  1  0.05356171  0.43106362  0.96170674  1
  O2-  O292  1  0.96095816  0.10387891  -0.00622657  1
  O2-  O293  1  0.04565804  0.76098598  0.98364296  1
  O2-  O294  1  0.54711604  0.56978325  0.48846566  1
  O2-  O295  1  0.54929383  0.23594309  0.75922658  1
  O2-  O296  1  0.46227780  0.11082715  0.51567939  1
  O2-  O297  1  0.45743407  0.43700588  0.50765936  1
  O2-  O298  1  0.45362434  0.09739189  0.76188189  1
  O2-  O299  1  0.04785892  0.23299569  0.01486672  1
  O2-  O300  1  0.03915812  0.22678437  0.77629004  1
  O2-  O301  1  0.45451624  0.76704045  0.01204916  1
  O2-  O302  1  0.95385747  0.56862582  0.76027771  1
  O2-  O303  1  0.03405412  0.88773638  0.00699063  1
  O2-  O304  1  0.04497265  0.56820101  0.51474609  1
  O2-  O305  1  0.46616227  0.11702765  0.50726804  1
  O2-  O306  1  0.45098385  0.56904630  0.76371298  1
  O2-  O307  1  0.04485680  0.76293391  0.51437205  1
  O2-  O308  1  0.54925811  0.56902781  0.76473744  1
  O2-  O309  1  0.55269890  0.90228640  0.54027328  1
  O2-  O310  1  0.45060463  0.24157748  0.76055151  1
  O2-  O311  1  0.04472194  0.90202308  0.23741865  1
  O2-  O312  1  0.04707608  0.90500648  0.51467900  1
  O2-  O313  1  0.54526304  0.76885989  0.22449517  1
  O2-  O314  1  0.54624000  0.90420554  0.23676699  1
  O2-  O315  1  0.44651899  0.57915767  0.98061490  1
  O2-  O316  1  0.95393529  0.43172577  0.00311535  1
  O2-  O317  1  0.05316107  0.75320471  0.27135913  1
  O2-  O318  1  0.45516455  0.42825074  0.76433169  1
  O2-  O319  1  0.95108003  0.90110734  0.51680621  1
  O2-  O320  1  0.04662695  0.43283864  0.76060125  1
  O2-  O321  1  0.54610475  0.23411800  0.01381102  1
  O2-  O322  1  0.54493502  0.56874897  0.23641744  1
  O2-  O323  1  0.45178182  0.09733334  0.96119060  1
  O2-  O324  1  0.06363293  0.59588164  0.03443910  1
  O2-  O325  1  0.07657216  0.94388556  0.03328635  1
  O2-  O326  1  0.93718339  0.40377016  0.53283238  1
  O2-  O327  1  0.55235212  0.91249326  0.54371976  1
  O2-  O328  1  0.43400608  0.39910086  0.53258739  1
  O2-  O329  1  0.93666576  0.06851810  0.71767789  1
  O2-  O330  1  0.56416388  0.26268779  0.47264967  1
  O2-  O331  1  0.43270911  0.26938791  0.71360541  1
  O2-  O332  1  0.43665051  0.26251709  0.96768640  1
  O2-  O333  1  0.43241804  0.92337322  0.55200170  1
  O2-  O334  1  0.93488846  0.92917278  0.96412482  1
  O2-  O335  1  0.07033772  0.06120067  0.79037794  1
  O2-  O336  1  0.93553091  0.07334521  0.47338606  1
  O2-  O337  1  0.56500185  0.07359234  0.27763215  1
  O2-  O338  1  0.43565914  0.92209936  0.44305478  1
  O2-  O339  1  0.93460880  0.40547614  0.77911392  1
  O2-  O340  1  0.06540779  0.40582056  0.45538461  1
  O2-  O341  1  0.56423251  0.40075971  0.71664623  1
  O2-  O342  1  0.44194799  0.58385541  0.97696757  1
  O2-  O343  1  0.06268375  0.92883771  0.71564215  1
  O2-  O344  1  0.43691570  0.40532004  0.96727566  1
  O2-  O345  1  0.56921146  0.72791488  0.29645986  1
  O2-  O346  1  0.06868137  0.39258366  0.07565503  1
  O2-  O347  1  0.42341947  0.06741851  0.07171318  1
  O2-  O348  1  0.56494559  0.06892608  0.96538457  1
  O2-  O349  1  0.06381923  0.06788596  0.46858007  1
  O2-  O350  1  0.07028504  0.27732204  0.69631070  1
  O2-  O351  1  0.92304801  0.05747218  0.04172081  1
  O2-  O352  1  0.44459755  0.08849890  0.95390399  1
  O2-  O353  1  0.06397452  0.40259466  0.55128915  1
  O2-  O354  1  0.06363878  0.40383372  0.21786617  1
  O2-  O355  1  0.57523571  0.93592127  0.42810810  1
  O2-  O356  1  0.41841410  0.04595169  0.44424485  1
  O2-  O357  1  0.93599554  0.26407349  0.46774044  1
  O2-  O358  1  0.43599660  0.40428313  0.21788322  1
  O2-  O359  1  0.94378330  0.58324910  0.95309461  1
  O2-  O360  1  0.92533536  0.60012396  0.07278229  1
  O2-  O361  1  0.56722232  0.40619376  0.95380062  1
  O2-  O362  1  0.44586787  0.24747987  0.20100411  1
  O2-  O363  1  0.42865611  0.73099542  0.29164084  1
  O2-  O364  1  0.42995610  0.27404948  0.32906332  1
  O2-  O365  1  0.56612445  0.40711384  0.04625145  1
  O2-  O366  1  0.56564413  0.07373532  0.72335909  1
  O2-  O367  1  0.05892806  0.41843849  0.95302399  1
  O2-  O368  1  0.93824552  0.92639682  0.53624992  1
  O2-  O369  1  0.43723455  0.07037141  0.28230458  1
  O2-  O370  1  0.05728331  0.74494042  0.27886726  1
  O2-  O371  1  0.56381800  0.73538485  0.53388281  1
  O2-  O372  1  0.24983920  0.33488344  0.41946740  1
  O2-  O373  1  0.24990296  0.64716052  0.91997404  1
  O2-  O374  1  0.25006347  0.33233597  0.32797238  1
  O2-  O375  1  0.74957372  0.67103679  0.14867687  1
  O2-  O376  1  0.74996860  0.67471868  0.66634042  1
  O2-  O377  1  0.24990649  0.00989700  0.09329547  1
  O2-  O378  1  0.24999952  0.66748999  0.18049997  1
  O2-  O379  1  0.24982181  -0.00046191  0.17961984  1
  O2-  O380  1  0.74997586  0.33428217  0.09422327  1
  O2-  O381  1  0.25001320  0.64573917  0.08941392  1
  O2-  O382  1  0.24997545  0.33643987  0.09990491  1
  O2-  O383  1  0.74998128  -0.00248808  0.15429942  1
  O2-  O384  1  0.74992568  -0.00900622  0.65519000  1
  O2-  O385  1  0.74984289  0.00214719  0.56503726  1
  O2-  O386  1  0.24979763  0.65424410  0.82887380  1
  O2-  O387  1  0.74995994  0.00000268  0.42262601  1
  O2-  O388  1  0.74992117  0.66356603  0.57664468  1
  O2-  O389  1  0.75004510  0.01426615  0.93073403  1
  O2-  O390  1  0.75015906  -0.01005246  0.84459907  1
  O2-  O391  1  0.74985940  0.66896770  0.34982661  1
  O2-  O392  1  0.75006843  0.00212998  0.32697607  1
  O2-  O393  1  0.24972754  0.00499273  0.85295969  1
  O2-  O394  1  0.75017212  0.33666766  0.85652416  1
  O2-  O395  1  0.24995246  -0.00164895  0.59428874  1
  O2-  O396  1  0.75001564  0.50615628  0.05270727  1
  O2-  O397  1  0.74995673  0.48931265  0.39235197  1
  O2-  O398  1  0.24996871  0.82891303  0.11266391  1
  O2-  O399  1  0.74989018  0.83452050  0.33029140  1
  O2-  O400  1  0.24975977  0.49866204  0.84328900  1
  O2-  O401  1  0.74998455  0.83779000  0.88641213  1
  O2-  O402  1  0.25003189  0.50077501  0.33781366  1
  O2-  O403  1  0.75000057  0.51147880  0.68906058  1
  O2-  O404  1  0.24988498  0.50042399  0.11909914  1
  O2-  O405  1  0.75000135  0.17047727  0.15880289  1
  O2-  O406  1  0.24981857  0.50662640  0.60977444  1
  O2-  O407  1  0.25000145  0.83729771  0.41233717  1
  O2-  O408  1  0.25025496  0.16678647  0.86727939  1
  O2-  O409  1  0.75003941  0.17184209  0.34094599  1
  O2-  O410  1  0.74992649  0.52430479  0.32470445  1
  O2-  O411  1  0.74997523  0.83651773  0.59217268  1
  O2-  O412  1  0.74994367  0.83472132  0.16050663  1
  O2-  O413  1  0.74997261  0.82903030  0.41984739  1
  O2-  O414  1  0.75007257  0.51610416  0.13831327  1
  O2-  O415  1  0.25011534  0.17448230  0.55036170  1
  O2-  O416  1  0.74996197  0.49486421  0.61703504  1
  O2-  O417  1  0.24995217  0.17823735  0.94681220  1
  O2-  O418  1  0.24986846  0.16496288  0.63107787  1
  O2-  O419  1  0.74999326  0.50112248  0.91735299  1
  O2-  O420  1  0.47275264  0.66763762  0.62494543  1
  O2-  O421  1  0.97096319  -0.00425751  0.13267315  1
  O2-  O422  1  0.47307294  0.66532904  0.12573043  1
  O2-  O423  1  0.46480179  -0.01053551  0.13581147  1
  O2-  O424  1  0.52512905  0.32812613  0.13013785  1
  O2-  O425  1  0.96844756  0.33144824  0.87696146  1
  O2-  O426  1  0.52565538  0.33077979  0.87186914  1
  O2-  O427  1  0.97767977  0.67294608  0.13332172  1
  O2-  O428  1  0.54013381  0.00149741  0.12126242  1
  O2-  O429  1  0.47504498  -0.00997170  0.87040431  1
  O2-  O430  1  0.97175228  0.33347259  0.12698607  1
  O2-  O431  1  0.02508540  0.33062718  0.36725351  1
  O2-  O432  1  0.97277223  0.66776484  0.37736755  1
  O2-  O433  1  0.46510872  0.00537760  0.63121285  1
  O2-  O434  1  0.52215571  0.00458882  0.37232771  1
  O2-  O435  1  0.53319990  0.00400806  0.62814769  1
  O2-  O436  1  0.97289637  0.66865656  0.62507928  1
  O2-  O437  1  0.02875495  0.00705941  0.13217607  1
  O2-  O438  1  0.52740578  0.33667440  0.37048230  1
  O2-  O439  1  0.47503935  0.66099644  0.38107282  1
  O2-  O440  1  0.97447653  -0.00433426  0.36800031  1
  O2-  O441  1  0.47532464  0.67335656  0.87199412  1
  O2-  O442  1  0.03173186  0.32757119  0.87170979  1
  O2-  O443  1  0.97530059  0.67539468  0.86913540  1
