# generated using pymatgen
data_La7(Ru4O11)2
_symmetry_space_group_name_H-M   'P 1'
_cell_length_a   23.99128007
_cell_length_b   16.83224279
_cell_length_c   15.42805410
_cell_angle_alpha   89.99833203
_cell_angle_beta   90.00029412
_cell_angle_gamma   90.00059836
_symmetry_Int_Tables_number   1
_chemical_formula_structural   La7(Ru4O11)2
_chemical_formula_sum   'La84 Ru96 O264'
_cell_volume   6230.26558864
_cell_formula_units_Z   12
loop_
 _symmetry_equiv_pos_site_id
 _symmetry_equiv_pos_as_xyz
  1  'x, y, z'
loop_
 _atom_type_symbol
 _atom_type_oxidation_number
  La3+  3.0
  Ru4+  4.0
  O2-  -2.0
loop_
 _atom_site_type_symbol
 _atom_site_label
 _atom_site_symmetry_multiplicity
 _atom_site_fract_x
 _atom_site_fract_y
 _atom_site_fract_z
 _atom_site_occupancy
  La3+  La0  1  0.14671912  -0.00121579  0.12586330  1
  La3+  La1  1  0.14319359  -0.00004469  0.37281054  1
  La3+  La2  1  0.13959323  -0.00140647  0.62395518  1
  La3+  La3  1  0.14164921  -0.00111378  0.88056186  1
  La3+  La4  1  0.14124236  0.33242860  0.12550463  1
  La3+  La5  1  0.14102896  0.33114053  0.37408464  1
  La3+  La6  1  0.13767112  0.33352287  0.62377522  1
  La3+  La7  1  0.13717277  0.33477242  0.87665528  1
  La3+  La8  1  0.14025683  0.66784256  0.12780299  1
  La3+  La9  1  0.14124287  0.66744025  0.37416379  1
  La3+  La10  1  0.13828599  0.66585637  0.62402422  1
  La3+  La11  1  0.13778649  0.66652455  0.87452024  1
  La3+  La12  1  0.63905399  -0.00057751  0.12891660  1
  La3+  La13  1  0.63679289  -0.00124023  0.36917878  1
  La3+  La14  1  0.63775040  -0.00090968  0.62857539  1
  La3+  La15  1  0.63326693  -0.00119454  0.87469184  1
  La3+  La16  1  0.63978869  0.33378190  0.12623966  1
  La3+  La17  1  0.63942917  0.33279047  0.36961654  1
  La3+  La18  1  0.63728727  0.33458489  0.62944944  1
  La3+  La19  1  0.63708047  0.33496632  0.87317281  1
  La3+  La20  1  0.64282981  0.66307095  0.12748148  1
  La3+  La21  1  0.63852856  0.66690210  0.37241584  1
  La3+  La22  1  0.63848879  0.66586884  0.62799384  1
  La3+  La23  1  0.64099086  0.66278943  0.87209504  1
  La3+  La24  1  0.35333459  -0.00342961  0.12641992  1
  La3+  La25  1  0.35765261  -0.00079357  0.37294345  1
  La3+  La26  1  0.36316988  -0.00102549  0.62089742  1
  La3+  La27  1  0.35672895  -0.00392639  0.87850504  1
  La3+  La28  1  0.35831832  0.33436838  0.12542522  1
  La3+  La29  1  0.35625819  0.33000686  0.37467315  1
  La3+  La30  1  0.35803499  0.33247252  0.62909275  1
  La3+  La31  1  0.36418518  0.33428984  0.87434559  1
  La3+  La32  1  0.35950490  0.66741663  0.12611701  1
  La3+  La33  1  0.35957894  0.66846812  0.37632900  1
  La3+  La34  1  0.36365917  0.66705531  0.62267040  1
  La3+  La35  1  0.36253188  0.66825066  0.87550774  1
  La3+  La36  1  0.85847520  0.00216529  0.13106086  1
  La3+  La37  1  0.86296905  0.00083108  0.36913306  1
  La3+  La38  1  0.86274846  -0.00134742  0.62679226  1
  La3+  La39  1  0.86595823  -0.00309779  0.87449869  1
  La3+  La40  1  0.85787268  0.33446518  0.12897272  1
  La3+  La41  1  0.86127216  0.33384183  0.37106612  1
  La3+  La42  1  0.86229566  0.33543638  0.62772538  1
  La3+  La43  1  0.86302792  0.33568484  0.87523593  1
  La3+  La44  1  0.86305132  0.66527324  0.12705829  1
  La3+  La45  1  0.86269805  0.66693691  0.37180570  1
  La3+  La46  1  0.86124654  0.66554952  0.62753194  1
  La3+  La47  1  0.86046343  0.66324004  0.87341778  1
  La3+  La48  1  0.00363514  0.16282888  0.87801493  1
  La3+  La49  1  0.50645590  0.82932538  0.62234256  1
  La3+  La50  1  0.00009671  0.83433048  0.12793624  1
  La3+  La51  1  -0.00005867  0.83492492  0.61504866  1
  La3+  La52  1  -0.00043727  0.50075907  0.38441976  1
  La3+  La53  1  -0.00377791  0.82906859  0.63549834  1
  La3+  La54  1  0.00003634  0.16869949  0.61488315  1
  La3+  La55  1  0.50425003  0.17125180  0.11887196  1
  La3+  La56  1  0.49631833  0.16500921  0.13663613  1
  La3+  La57  1  0.00246563  0.83566295  0.36134254  1
  La3+  La58  1  0.49986865  0.49817653  0.11749329  1
  La3+  La59  1  0.49944201  0.49715644  0.87820880  1
  La3+  La60  1  -0.00502618  0.17438020  0.37055729  1
  La3+  La61  1  0.00265075  0.82987403  0.86574905  1
  La3+  La62  1  0.50096728  0.50602858  0.37738521  1
  La3+  La63  1  0.00260757  0.83199954  0.88282852  1
  La3+  La64  1  0.50552260  0.17123255  0.86879635  1
  La3+  La65  1  0.00022383  0.49921837  0.63545173  1
  La3+  La66  1  0.49920111  0.83201460  0.64130386  1
  La3+  La67  1  0.49792197  0.83673788  0.11923884  1
  La3+  La68  1  -0.00277943  0.83213228  0.38181902  1
  La3+  La69  1  0.50417687  0.16586511  0.37521518  1
  La3+  La70  1  0.00270703  0.16262741  0.63513908  1
  La3+  La71  1  -0.00016816  0.50313738  0.13299064  1
  La3+  La72  1  0.25035434  0.79299189  0.70913088  1
  La3+  La73  1  0.74933010  0.81531389  0.50311913  1
  La3+  La74  1  0.74992315  0.83290087  0.69616548  1
  La3+  La75  1  0.24978176  0.46951506  0.75013073  1
  La3+  La76  1  0.74910983  0.18106821  -0.02459649  1
  La3+  La77  1  0.25007644  0.83758026  0.25197152  1
  La3+  La78  1  0.75024967  0.17040477  0.50609993  1
  La3+  La79  1  0.75007863  0.19896716  0.71883543  1
  La3+  La80  1  0.74942904  0.82386483  0.01493134  1
  La3+  La81  1  0.75007817  0.50034860  0.25076091  1
  La3+  La82  1  0.75011294  0.49907647  0.72403009  1
  La3+  La83  1  0.24882018  0.17654537  0.75087334  1
  Ru4+  Ru84  1  0.00431145  0.00834361  0.00111081  1
  Ru4+  Ru85  1  -0.00039724  0.00599391  0.25162745  1
  Ru4+  Ru86  1  -0.00343299  0.00102372  0.50035593  1
  Ru4+  Ru87  1  0.00033441  0.00642301  0.75143833  1
  Ru4+  Ru88  1  0.00330454  0.33350278  0.00119488  1
  Ru4+  Ru89  1  -0.00017066  0.33236106  0.24812684  1
  Ru4+  Ru90  1  -0.00150854  0.33473101  0.50254355  1
  Ru4+  Ru91  1  -0.00000821  0.33494381  0.75048353  1
  Ru4+  Ru92  1  -0.00203036  0.66325610  -0.00069273  1
  Ru4+  Ru93  1  0.00429268  0.65933488  0.24894023  1
  Ru4+  Ru94  1  -0.00173320  0.66190452  0.50314011  1
  Ru4+  Ru95  1  0.00086434  0.66610703  0.75020076  1
  Ru4+  Ru96  1  0.49771889  -0.00115782  -0.00353164  1
  Ru4+  Ru97  1  0.49955405  -0.00599199  0.24972911  1
  Ru4+  Ru98  1  0.50018564  0.00435179  0.50369913  1
  Ru4+  Ru99  1  0.50162005  -0.00148733  0.75091930  1
  Ru4+  Ru100  1  0.49949906  0.33663832  0.00079137  1
  Ru4+  Ru101  1  0.49862589  0.33706712  0.25280386  1
  Ru4+  Ru102  1  0.49943666  0.33040683  0.49973689  1
  Ru4+  Ru103  1  0.50275653  0.33854075  0.75246022  1
  Ru4+  Ru104  1  0.49633436  0.66784493  -0.00434846  1
  Ru4+  Ru105  1  0.50106370  0.66748485  0.24914017  1
  Ru4+  Ru106  1  0.49895587  0.66464674  0.50232934  1
  Ru4+  Ru107  1  0.49849414  0.66669062  0.75360383  1
  Ru4+  Ru108  1  0.11090174  0.16218317  0.00075201  1
  Ru4+  Ru109  1  0.11452231  0.16573794  0.25081013  1
  Ru4+  Ru110  1  0.11344415  0.16876601  0.50008805  1
  Ru4+  Ru111  1  0.10870835  0.16732095  0.74950516  1
  Ru4+  Ru112  1  0.11331724  0.49772179  0.00034909  1
  Ru4+  Ru113  1  0.11235276  0.50014165  0.25032662  1
  Ru4+  Ru114  1  0.11211565  0.50169269  0.50004911  1
  Ru4+  Ru115  1  0.10959022  0.49946039  0.74921397  1
  Ru4+  Ru116  1  0.11530949  0.83700116  0.00001338  1
  Ru4+  Ru117  1  0.11260653  0.83284092  0.24869484  1
  Ru4+  Ru118  1  0.11822395  0.83337097  0.50041980  1
  Ru4+  Ru119  1  0.11292496  0.83052578  0.75091822  1
  Ru4+  Ru120  1  0.61229817  0.16560139  -0.00045291  1
  Ru4+  Ru121  1  0.61777044  0.16653055  0.25182167  1
  Ru4+  Ru122  1  0.60988348  0.16605604  0.50192091  1
  Ru4+  Ru123  1  0.61082161  0.16704255  0.74904947  1
  Ru4+  Ru124  1  0.61446294  0.49891602  -0.00038469  1
  Ru4+  Ru125  1  0.61159606  0.50104664  0.24986557  1
  Ru4+  Ru126  1  0.61109973  0.49959949  0.49973201  1
  Ru4+  Ru127  1  0.61137805  0.49935519  0.75040162  1
  Ru4+  Ru128  1  0.61341403  0.83255319  -0.00100253  1
  Ru4+  Ru129  1  0.61154700  0.83626875  0.25216336  1
  Ru4+  Ru130  1  0.60901691  0.83334932  0.50047481  1
  Ru4+  Ru131  1  0.61177648  0.83315094  0.74848849  1
  Ru4+  Ru132  1  0.38368003  0.16345156  -0.00062351  1
  Ru4+  Ru133  1  0.38199948  0.16800681  0.25091491  1
  Ru4+  Ru134  1  0.38721087  0.16653326  0.50053183  1
  Ru4+  Ru135  1  0.38508024  0.16368315  0.74903550  1
  Ru4+  Ru136  1  0.38628842  0.49695652  -0.00008803  1
  Ru4+  Ru137  1  0.38774397  0.50045786  0.25032928  1
  Ru4+  Ru138  1  0.38611102  0.50347719  0.49983578  1
  Ru4+  Ru139  1  0.38994151  0.49912226  0.75117182  1
  Ru4+  Ru140  1  0.38755424  0.83559042  -0.00145748  1
  Ru4+  Ru141  1  0.38854688  0.83562972  0.25088437  1
  Ru4+  Ru142  1  0.38316416  0.83208961  0.49789251  1
  Ru4+  Ru143  1  0.38979777  0.83308108  0.74938003  1
  Ru4+  Ru144  1  0.88662008  0.16392053  0.00090518  1
  Ru4+  Ru145  1  0.88484708  0.16477332  0.24926705  1
  Ru4+  Ru146  1  0.88978567  0.16777626  0.49918847  1
  Ru4+  Ru147  1  0.88978590  0.16457390  0.75010942  1
  Ru4+  Ru148  1  0.88694187  0.50089087  -0.00047163  1
  Ru4+  Ru149  1  0.88872184  0.50157830  0.25025170  1
  Ru4+  Ru150  1  0.88756223  0.50152949  0.50049223  1
  Ru4+  Ru151  1  0.88987788  0.49993417  0.75042728  1
  Ru4+  Ru152  1  0.88800031  0.83178115  0.00245864  1
  Ru4+  Ru153  1  0.88361154  0.83891674  0.24884408  1
  Ru4+  Ru154  1  0.88830134  0.83272909  0.50021742  1
  Ru4+  Ru155  1  0.88849030  0.83309635  0.74980927  1
  Ru4+  Ru156  1  0.24940093  0.58683455  0.49860070  1
  Ru4+  Ru157  1  0.24982887  0.60540381  0.73785703  1
  Ru4+  Ru158  1  0.24991909  0.57873724  0.24784463  1
  Ru4+  Ru159  1  0.25013522  0.41486447  0.49835551  1
  Ru4+  Ru160  1  0.74957696  0.93403835  0.47348635  1
  Ru4+  Ru161  1  0.74964472  0.74950253  0.26460002  1
  Ru4+  Ru162  1  0.25007573  0.41388205  0.24748501  1
  Ru4+  Ru163  1  0.24991293  0.57130551  0.00462142  1
  Ru4+  Ru164  1  0.75009662  0.06516922  0.03206467  1
  Ru4+  Ru165  1  0.75038415  0.94685420  -0.01257258  1
  Ru4+  Ru166  1  0.75000599  0.29305346  0.49745155  1
  Ru4+  Ru167  1  0.75006667  0.43129590  0.49519660  1
  Ru4+  Ru168  1  0.75008126  0.06707887  0.76746555  1
  Ru4+  Ru169  1  0.24999685  0.75796122  0.00748996  1
  Ru4+  Ru170  1  0.25042162  0.92151403  0.76104404  1
  Ru4+  Ru171  1  0.75030733  0.05661344  0.45774117  1
  Ru4+  Ru172  1  0.24947928  0.30654191  0.75053055  1
  Ru4+  Ru173  1  0.75017787  0.30933320  -0.00355218  1
  Ru4+  Ru174  1  0.24990026  0.08648534  0.48607568  1
  Ru4+  Ru175  1  0.25012798  0.25455939  0.00624819  1
  Ru4+  Ru176  1  0.75005065  0.69065851  0.48015848  1
  Ru4+  Ru177  1  0.24985797  0.04727904  0.75411802  1
  Ru4+  Ru178  1  0.75047992  0.69846977  -0.01214710  1
  Ru4+  Ru179  1  0.75000136  0.56771445  0.49455055  1
  O2-  O180  1  0.16759849  0.08487110  0.00104150  1
  O2-  O181  1  0.16501736  0.08367963  0.25104336  1
  O2-  O182  1  0.16771099  0.07992571  0.50009997  1
  O2-  O183  1  0.16588752  0.07830436  0.74903440  1
  O2-  O184  1  0.16485842  0.41500150  -0.00230006  1
  O2-  O185  1  0.16592690  0.41467358  0.24913651  1
  O2-  O186  1  0.16764179  0.41294674  0.50061738  1
  O2-  O187  1  0.16589975  0.41027012  0.75032776  1
  O2-  O188  1  0.16590422  0.74576139  -0.00000645  1
  O2-  O189  1  0.16889990  0.74708027  0.25100966  1
  O2-  O190  1  0.16822467  0.74798651  0.50279883  1
  O2-  O191  1  0.16755797  0.74589907  0.74966539  1
  O2-  O192  1  0.66645003  0.07920693  -0.00179533  1
  O2-  O193  1  0.66535969  0.08126201  0.25058943  1
  O2-  O194  1  0.66604890  0.07941085  0.49972180  1
  O2-  O195  1  0.66712631  0.08022948  0.75130964  1
  O2-  O196  1  0.66592289  0.41438998  -0.00018770  1
  O2-  O197  1  0.66721283  0.41562529  0.24939311  1
  O2-  O198  1  0.66639058  0.41445546  0.50018132  1
  O2-  O199  1  0.66606455  0.41345971  0.75024860  1
  O2-  O200  1  0.66664738  0.74663140  -0.00112420  1
  O2-  O201  1  0.66583961  0.74762162  0.25048568  1
  O2-  O202  1  0.66471251  0.74440789  0.50075209  1
  O2-  O203  1  0.67007147  0.74674892  0.74850044  1
  O2-  O204  1  0.33267657  0.25253564  0.00013522  1
  O2-  O205  1  0.33279796  0.25023385  0.24924150  1
  O2-  O206  1  0.33232890  0.25065156  0.49976566  1
  O2-  O207  1  0.33396763  0.25388427  0.75143899  1
  O2-  O208  1  0.33299099  0.58645399  -0.00048208  1
  O2-  O209  1  0.33337233  0.58538182  0.24944319  1
  O2-  O210  1  0.33117735  0.58599958  0.50145991  1
  O2-  O211  1  0.33404636  0.58689124  0.74877993  1
  O2-  O212  1  0.33524062  0.91650556  -0.00029940  1
  O2-  O213  1  0.33224614  0.91608462  0.25056020  1
  O2-  O214  1  0.33183520  0.91774184  0.50276384  1
  O2-  O215  1  0.33375359  0.92026247  0.74819330  1
  O2-  O216  1  0.83245619  0.25535609  -0.00316242  1
  O2-  O217  1  0.83384515  0.25089135  0.24791954  1
  O2-  O218  1  0.83605922  0.25628636  0.50103779  1
  O2-  O219  1  0.83471618  0.25591881  0.75175963  1
  O2-  O220  1  0.83423439  0.58481998  0.00079417  1
  O2-  O221  1  0.83247057  0.58396125  0.24983647  1
  O2-  O222  1  0.83357430  0.58617355  0.49960747  1
  O2-  O223  1  0.83256064  0.58596024  0.74873089  1
  O2-  O224  1  0.83424983  0.92077848  -0.00159841  1
  O2-  O225  1  0.83417062  0.91801105  0.25070248  1
  O2-  O226  1  0.83400695  0.92069743  0.50080517  1
  O2-  O227  1  0.83118658  0.91912932  0.75047842  1
  O2-  O228  1  0.16700434  0.25247840  -0.00017655  1
  O2-  O229  1  0.16431669  0.25109226  0.24951038  1
  O2-  O230  1  0.16524332  0.25282133  0.50149395  1
  O2-  O231  1  0.16580526  0.25707545  0.75000972  1
  O2-  O232  1  0.16803976  0.58529963  -0.00152194  1
  O2-  O233  1  0.16845371  0.58569628  0.24951892  1
  O2-  O234  1  0.16723088  0.58477018  0.50129000  1
  O2-  O235  1  0.16709591  0.58730055  0.74952451  1
  O2-  O236  1  0.16693949  0.91636403  0.00092962  1
  O2-  O237  1  0.16531638  0.91779035  0.25216566  1
  O2-  O238  1  0.16609491  0.91946462  0.50151427  1
  O2-  O239  1  0.16612189  0.91962086  0.74796142  1
  O2-  O240  1  0.66530639  0.25540730  -0.00183545  1
  O2-  O241  1  0.66501497  0.25265738  0.24915241  1
  O2-  O242  1  0.66339748  0.25511157  0.50010106  1
  O2-  O243  1  0.66614093  0.25338800  0.75075909  1
  O2-  O244  1  0.66592219  0.58493247  -0.00005151  1
  O2-  O245  1  0.66947044  0.58317153  0.25060347  1
  O2-  O246  1  0.66685942  0.58594683  0.49926189  1
  O2-  O247  1  0.66741370  0.58704897  0.74847796  1
  O2-  O248  1  0.66594600  0.92248737  -0.00117627  1
  O2-  O249  1  0.66594549  0.91670524  0.25047143  1
  O2-  O250  1  0.66477555  0.92125448  0.49956413  1
  O2-  O251  1  0.66653960  0.91850225  0.75201040  1
  O2-  O252  1  0.33180688  0.08521592  0.00006319  1
  O2-  O253  1  0.33256343  0.08425362  0.25099426  1
  O2-  O254  1  0.33291102  0.08197957  0.50225188  1
  O2-  O255  1  0.33303244  0.08021192  0.74990602  1
  O2-  O256  1  0.33403969  0.41441072  -0.00201894  1
  O2-  O257  1  0.33283163  0.41514744  0.24906208  1
  O2-  O258  1  0.33061823  0.41546755  0.50125839  1
  O2-  O259  1  0.33150394  0.41223363  0.75146326  1
  O2-  O260  1  0.33387093  0.74650249  0.00038983  1
  O2-  O261  1  0.33384447  0.74724584  0.24939310  1
  O2-  O262  1  0.33457272  0.74831113  0.50288700  1
  O2-  O263  1  0.33433102  0.74478953  0.74962651  1
  O2-  O264  1  0.83433440  0.07847844  -0.00141808  1
  O2-  O265  1  0.83370715  0.08364200  0.25098253  1
  O2-  O266  1  0.83427503  0.07788250  0.50084111  1
  O2-  O267  1  0.83349479  0.08007393  0.75154265  1
  O2-  O268  1  0.83441312  0.41443457  -0.00139701  1
  O2-  O269  1  0.83201062  0.41573467  0.24940523  1
  O2-  O270  1  0.83165063  0.41371675  0.50070598  1
  O2-  O271  1  0.83370482  0.41322492  0.75126544  1
  O2-  O272  1  0.83417049  0.74466459  0.00022371  1
  O2-  O273  1  0.83342518  0.74732695  0.25054542  1
  O2-  O274  1  0.83397659  0.74454201  0.49999393  1
  O2-  O275  1  0.83187308  0.74686734  0.74808580  1
  O2-  O276  1  0.95409557  0.90546704  0.23730839  1
  O2-  O277  1  0.53510215  0.78151888  0.99553164  1
  O2-  O278  1  0.95174758  0.76311152  0.26975431  1
  O2-  O279  1  0.95277825  0.76301636  0.23058620  1
  O2-  O280  1  0.04872209  0.43333810  0.48964541  1
  O2-  O281  1  0.95611197  0.43465429  0.26198348  1
  O2-  O282  1  0.54867139  0.43005062  0.26385475  1
  O2-  O283  1  0.45545214  0.10743460  0.27826552  1
  O2-  O284  1  0.55001240  0.09274411  0.23595252  1
  O2-  O285  1  0.44454269  0.75809666  0.98939876  1
  O2-  O286  1  0.45093426  0.23862967  0.76730270  1
  O2-  O287  1  0.03909204  0.11212633  0.46504980  1
  O2-  O288  1  0.47122290  0.45571250  0.51020681  1
  O2-  O289  1  0.46868880  0.12356066  0.98571367  1
  O2-  O290  1  0.95058599  0.56601629  0.98567650  1
  O2-  O291  1  0.96072437  0.22111421  0.98257855  1
  O2-  O292  1  0.96164482  0.22617397  0.22102987  1
  O2-  O293  1  0.04467873  0.76597966  0.01286822  1
  O2-  O294  1  0.95465261  0.23624462  0.73815934  1
  O2-  O295  1  0.46650564  0.22000384  0.49773896  1
  O2-  O296  1  0.45930653  0.89615887  0.52068342  1
  O2-  O297  1  0.53362295  0.11792235  0.50746501  1
  O2-  O298  1  0.45155377  0.56764508  0.98906828  1
  O2-  O299  1  0.45884242  0.10070715  0.77611665  1
  O2-  O300  1  0.95929071  0.90980292  0.96202316  1
  O2-  O301  1  0.04387284  0.55625652  0.97311383  1
  O2-  O302  1  0.54549205  0.76703190  0.26128261  1
  O2-  O303  1  0.45303266  0.90373355  0.98393202  1
  O2-  O304  1  0.46775479  0.45042734  0.49952124  1
  O2-  O305  1  0.45532426  0.23558098  0.72897635  1
  O2-  O306  1  0.94408884  0.42390508  0.48093752  1
  O2-  O307  1  0.95657811  0.22377218  -0.00769656  1
  O2-  O308  1  0.54813353  0.56839002  0.49027935  1
  O2-  O309  1  0.04585852  0.09828890  0.26544087  1
  O2-  O310  1  0.46611263  0.11779726  0.00333962  1
  O2-  O311  1  0.46300326  0.22562826  0.48033870  1
  O2-  O312  1  0.55003529  0.91145010  0.01488700  1
  O2-  O313  1  0.45144704  0.43295784  0.26129584  1
  O2-  O314  1  0.04780898  0.90238714  0.48742939  1
  O2-  O315  1  0.95512696  0.43297283  0.76347827  1
  O2-  O316  1  0.05525651  0.24633121  0.01556266  1
  O2-  O317  1  0.53504709  0.78145215  -0.00455372  1
  O2-  O318  1  0.54679959  0.23913205  0.26368375  1
  O2-  O319  1  0.04640830  0.90101201  0.73662246  1
  O2-  O320  1  0.54818407  0.23676698  0.00600393  1
  O2-  O321  1  0.45427986  0.76297903  0.51253500  1
  O2-  O322  1  0.02180584  0.12238953  0.02253941  1
  O2-  O323  1  0.54746655  0.56744706  0.98725931  1
  O2-  O324  1  0.07300719  0.05414883  0.55918148  1
  O2-  O325  1  0.93249926  0.07698251  0.44071469  1
  O2-  O326  1  0.93482856  0.92516395  0.52820166  1
  O2-  O327  1  0.06359845  0.92228198  0.96973833  1
  O2-  O328  1  0.57516034  0.71435524  0.92593669  1
  O2-  O329  1  0.42767543  0.06401273  0.20793945  1
  O2-  O330  1  0.42784552  0.93391541  0.45892804  1
  O2-  O331  1  0.42746509  0.06457998  0.70854317  1
  O2-  O332  1  0.06414844  0.73817659  0.21479083  1
  O2-  O333  1  0.06902500  0.60566101  0.04801139  1
  O2-  O334  1  0.56495042  0.06952859  0.71832402  1
  O2-  O335  1  0.43195770  0.59487077  0.47119257  1
  O2-  O336  1  0.41931649  0.05443894  0.06878955  1
  O2-  O337  1  0.57347091  0.04966456  0.54085256  1
  O2-  O338  1  0.06784146  0.74570374  0.55827475  1
  O2-  O339  1  0.43645038  0.26458809  0.31232446  1
  O2-  O340  1  0.93529764  0.92963718  0.78229208  1
  O2-  O341  1  0.07340744  0.04835922  0.07056514  1
  O2-  O342  1  0.56526267  0.07082507  0.03378552  1
  O2-  O343  1  0.06509421  0.58951823  0.27412669  1
  O2-  O344  1  0.43482566  0.92408133  0.27740641  1
  O2-  O345  1  0.93626675  0.73470751  0.93256579  1
  O2-  O346  1  0.56794908  0.59012398  0.30662671  1
  O2-  O347  1  0.42605280  0.04599265  0.92153912  1
  O2-  O348  1  0.93334969  0.07715513  0.55998368  1
  O2-  O349  1  0.93404004  0.07292981  0.27764027  1
  O2-  O350  1  0.57465845  0.71349951  0.07749494  1
  O2-  O351  1  0.94317260  0.41481205  0.48095158  1
  O2-  O352  1  0.93880190  0.90912368  0.93914360  1
  O2-  O353  1  0.43579159  0.40751194  0.77547816  1
  O2-  O354  1  0.42568823  0.38940468  0.57427637  1
  O2-  O355  1  0.93087163  0.94388065  0.08374911  1
  O2-  O356  1  0.56605756  0.26208478  0.77479226  1
  O2-  O357  1  0.56337820  0.73510281  0.71688299  1
  O2-  O358  1  0.07382586  0.07050196  0.93177628  1
  O2-  O359  1  0.56159229  0.59732823  0.18503726  1
  O2-  O360  1  0.93360882  0.74457170  0.05963802  1
  O2-  O361  1  0.43303722  0.25900564  0.19803644  1
  O2-  O362  1  0.06427641  0.74262102  0.77994586  1
  O2-  O363  1  0.06894583  0.74447849  0.44236449  1
  O2-  O364  1  0.56464408  0.92813353  0.27486041  1
  O2-  O365  1  0.42568802  0.38058722  0.42553617  1
  O2-  O366  1  0.93361991  0.74022590  0.47326308  1
  O2-  O367  1  0.56444621  0.93314066  0.03636096  1
  O2-  O368  1  0.92244532  0.29572127  0.05859443  1
  O2-  O369  1  0.92842943  0.26514541  0.28868446  1
  O2-  O370  1  0.43102019  0.07373122  0.47050544  1
  O2-  O371  1  0.42077571  0.27996808  0.55769050  1
  O2-  O372  1  0.25005741  0.67645410  0.82729985  1
  O2-  O373  1  0.75008452  0.64942261  0.09091800  1
  O2-  O374  1  0.24993604  0.66953036  0.17747479  1
  O2-  O375  1  0.74994142  0.35767994  0.40027981  1
  O2-  O376  1  0.75005042  0.34046461  0.10708197  1
  O2-  O377  1  0.24995458  0.66509100  0.92709122  1
  O2-  O378  1  0.25020975  0.00079278  0.89257741  1
  O2-  O379  1  0.75006060  0.33310123  0.68660136  1
  O2-  O380  1  0.74981578  0.66312476  0.60934674  1
  O2-  O381  1  0.24995534  -0.00601526  0.41991644  1
  O2-  O382  1  0.74993084  0.65704585  0.88419697  1
  O2-  O383  1  0.24963467  -0.00068044  0.32960183  1
  O2-  O384  1  0.25014143  0.66520510  0.07514695  1
  O2-  O385  1  0.75008340  0.66392189  0.34875503  1
  O2-  O386  1  0.74998487  -0.01486349  0.68237177  1
  O2-  O387  1  0.75003324  0.33538476  0.31457733  1
  O2-  O388  1  0.74999337  0.00313218  0.59144341  1
  O2-  O389  1  0.25015930  0.66246838  0.40632908  1
  O2-  O390  1  0.74948036  -0.00050229  0.14343388  1
  O2-  O391  1  0.74987139  0.35641744  0.59758961  1
  O2-  O392  1  0.75023702  0.66374496  0.17953308  1
  O2-  O393  1  0.24950036  0.33932529  0.34527321  1
  O2-  O394  1  0.24986089  -0.00249299  0.15598656  1
  O2-  O395  1  0.24960815  0.33538990  0.15520549  1
  O2-  O396  1  0.24989326  0.49922974  0.59432965  1
  O2-  O397  1  0.24982659  0.83590140  0.84407270  1
  O2-  O398  1  0.75012545  0.84621335  0.20980783  1
  O2-  O399  1  0.24997322  0.15877124  0.95524596  1
  O2-  O400  1  0.25001992  0.84117860  0.93084078  1
  O2-  O401  1  0.74997816  0.16483765  0.11140491  1
  O2-  O402  1  0.75004496  0.83148556  0.34575169  1
  O2-  O403  1  0.24997427  0.50290598  0.09137438  1
  O2-  O404  1  0.74992555  0.49908708  0.93475747  1
  O2-  O405  1  0.74994974  0.49976192  0.85305843  1
  O2-  O406  1  0.24966310  0.17992737  0.54951731  1
  O2-  O407  1  0.75020376  0.83329415  0.13291981  1
  O2-  O408  1  0.75001829  0.15937700  0.84564977  1
  O2-  O409  1  0.74991812  0.50169066  0.59046682  1
  O2-  O410  1  0.75023786  0.83318671  0.89405268  1
  O2-  O411  1  0.24984521  0.16175628  0.41188227  1
  O2-  O412  1  0.24992164  0.49929082  0.42890779  1
  O2-  O413  1  0.25044748  0.16740363  0.87355174  1
  O2-  O414  1  0.75018417  0.83490021  0.81508551  1
  O2-  O415  1  0.25003109  0.83304260  0.40470231  1
  O2-  O416  1  0.74975785  0.16302119  0.35372862  1
  O2-  O417  1  0.25062728  0.16371969  0.62838285  1
  O2-  O418  1  0.24993714  0.83069317  0.09289574  1
  O2-  O419  1  0.24991066  0.50004159  0.32251487  1
  O2-  O420  1  0.47226884  0.66432837  0.86703805  1
  O2-  O421  1  0.53865089  0.34068336  0.88112173  1
  O2-  O422  1  0.47282616  0.66607447  0.62729908  1
  O2-  O423  1  0.48077735  -0.01439989  0.12688474  1
  O2-  O424  1  0.45972122  0.34244442  0.11070628  1
  O2-  O425  1  0.96099609  0.65857037  0.37411555  1
  O2-  O426  1  0.53281911  0.00403348  0.37956372  1
  O2-  O427  1  0.02179402  -0.00270845  0.86444005  1
  O2-  O428  1  0.02502562  0.66583856  0.87674610  1
  O2-  O429  1  0.03240371  0.66323577  0.37229950  1
  O2-  O430  1  0.47015856  0.67144073  0.36774442  1
  O2-  O431  1  0.04061666  0.33144627  0.37071681  1
  O2-  O432  1  0.97562136  0.65548509  0.13144378  1
  O2-  O433  1  0.46108938  0.32902905  0.88636219  1
  O2-  O434  1  0.47530330  -0.00689760  0.62162332  1
  O2-  O435  1  0.52817650  0.67356742  0.38451499  1
  O2-  O436  1  0.03937684  0.65584977  0.63344843  1
  O2-  O437  1  0.97855730  -0.01229155  0.37366864  1
  O2-  O438  1  0.97737934  -0.00271120  0.63478262  1
  O2-  O439  1  0.96799509  0.33093107  0.37853328  1
  O2-  O440  1  0.47476388  0.00516019  0.37027567  1
  O2-  O441  1  0.52943873  0.00101206  0.87407131  1
  O2-  O442  1  0.95522517  0.66597315  0.62581606  1
  O2-  O443  1  0.54390735  0.33630026  0.12504603  1
