# generated using pymatgen
data_La7(Ru4O11)2
_symmetry_space_group_name_H-M   'P 1'
_cell_length_a   23.99297381
_cell_length_b   16.83301719
_cell_length_c   15.43056742
_cell_angle_alpha   90.00452212
_cell_angle_beta   90.00079410
_cell_angle_gamma   89.99969758
_symmetry_Int_Tables_number   1
_chemical_formula_structural   La7(Ru4O11)2
_chemical_formula_sum   'La84 Ru96 O264'
_cell_volume   6232.00713445
_cell_formula_units_Z   12
loop_
 _symmetry_equiv_pos_site_id
 _symmetry_equiv_pos_as_xyz
  1  'x, y, z'
loop_
 _atom_type_symbol
 _atom_type_oxidation_number
  La3+  3.0
  Ru4+  4.0
  O2-  -2.0
loop_
 _atom_site_type_symbol
 _atom_site_label
 _atom_site_symmetry_multiplicity
 _atom_site_fract_x
 _atom_site_fract_y
 _atom_site_fract_z
 _atom_site_occupancy
  La3+  La0  1  0.14777591  0.01253101  0.11972845  1
  La3+  La1  1  0.15043329  0.00540141  0.38078642  1
  La3+  La2  1  0.14827773  0.00134431  0.62346447  1
  La3+  La3  1  0.13068655  0.00470043  0.87250289  1
  La3+  La4  1  0.13970282  0.33118403  0.12014475  1
  La3+  La5  1  0.14403880  0.33114130  0.37465299  1
  La3+  La6  1  0.13445531  0.33375746  0.62913485  1
  La3+  La7  1  0.13570535  0.32925759  0.87732828  1
  La3+  La8  1  0.13340420  0.66750455  0.12860095  1
  La3+  La9  1  0.14158291  0.66933300  0.37357309  1
  La3+  La10  1  0.13790407  0.66618354  0.62498510  1
  La3+  La11  1  0.13766084  0.66593877  0.87001364  1
  La3+  La12  1  0.63554807  0.00082851  0.12778346  1
  La3+  La13  1  0.63854812  0.00184121  0.37748121  1
  La3+  La14  1  0.63333907  0.00430714  0.61936342  1
  La3+  La15  1  0.64468378  0.00307315  0.87332422  1
  La3+  La16  1  0.63649145  0.33312468  0.12077035  1
  La3+  La17  1  0.64010085  0.33187378  0.37425044  1
  La3+  La18  1  0.64776051  0.33452426  0.62736502  1
  La3+  La19  1  0.64717432  0.33113991  0.87222546  1
  La3+  La20  1  0.63787336  0.66980401  0.13106311  1
  La3+  La21  1  0.63176401  0.66781149  0.36992297  1
  La3+  La22  1  0.63922444  0.66598247  0.62335301  1
  La3+  La23  1  0.63914405  0.66794213  0.87621586  1
  La3+  La24  1  0.35241703  -0.00243884  0.12801327  1
  La3+  La25  1  0.35585807  0.00226155  0.37613041  1
  La3+  La26  1  0.34856346  0.00876762  0.62691469  1
  La3+  La27  1  0.36710893  0.00910832  0.86987390  1
  La3+  La28  1  0.36277555  0.32980479  0.12556496  1
  La3+  La29  1  0.36249802  0.33158604  0.37253798  1
  La3+  La30  1  0.35849659  0.33350064  0.62520016  1
  La3+  La31  1  0.35678876  0.33227845  0.87758952  1
  La3+  La32  1  0.36441193  0.66645440  0.12810669  1
  La3+  La33  1  0.36099315  0.66951050  0.37670847  1
  La3+  La34  1  0.36127750  0.66921345  0.62598488  1
  La3+  La35  1  0.35907764  0.66489267  0.86839233  1
  La3+  La36  1  0.86297481  -0.00012617  0.12519105  1
  La3+  La37  1  0.85840481  -0.00055559  0.37435825  1
  La3+  La38  1  0.86325377  0.00576212  0.62576927  1
  La3+  La39  1  0.85656028  0.00546299  0.87364528  1
  La3+  La40  1  0.86506079  0.32831333  0.12292457  1
  La3+  La41  1  0.85935525  0.33290727  0.37515341  1
  La3+  La42  1  0.85558702  0.33206104  0.63187799  1
  La3+  La43  1  0.85148538  0.33062748  0.87077228  1
  La3+  La44  1  0.85986999  0.67043777  0.12785940  1
  La3+  La45  1  0.86244058  0.66336880  0.37049983  1
  La3+  La46  1  0.85714781  0.67016348  0.62144224  1
  La3+  La47  1  0.86226426  0.66586252  0.87555069  1
  La3+  La48  1  0.00097451  0.49959126  0.63058568  1
  La3+  La49  1  0.50304260  0.83066052  0.88322543  1
  La3+  La50  1  0.49837014  0.83582975  0.86340801  1
  La3+  La51  1  0.00979866  0.84896471  0.63550404  1
  La3+  La52  1  -0.00530879  0.50545193  0.12161246  1
  La3+  La53  1  -0.00086809  0.83120719  0.38957184  1
  La3+  La54  1  0.50293564  0.82896272  0.62616875  1
  La3+  La55  1  0.00148738  0.83350075  0.37260521  1
  La3+  La56  1  0.49726581  0.16250874  0.62114090  1
  La3+  La57  1  -0.00176383  0.16569741  0.88102229  1
  La3+  La58  1  0.49732736  0.16066576  0.86202627  1
  La3+  La59  1  0.00732493  0.48989850  0.87794073  1
  La3+  La60  1  0.00261539  0.16772368  0.12547346  1
  La3+  La61  1  -0.00697666  0.15386300  0.37773286  1
  La3+  La62  1  0.00345506  0.82329791  0.11225644  1
  La3+  La63  1  0.49951725  0.49958379  0.89890884  1
  La3+  La64  1  0.49873012  0.16593072  0.14284728  1
  La3+  La65  1  0.50331389  0.49482037  0.87777579  1
  La3+  La66  1  0.50253250  0.82954231  0.14489899  1
  La3+  La67  1  0.50169899  0.83040400  0.12773434  1
  La3+  La68  1  0.50037695  0.16342732  0.87830241  1
  La3+  La69  1  0.49848565  0.50022150  0.62548579  1
  La3+  La70  1  -0.00593032  0.16286726  0.39785510  1
  La3+  La71  1  0.49731134  0.16541349  0.12033388  1
  La3+  La72  1  0.24895406  0.46817883  -0.00845435  1
  La3+  La73  1  0.74912106  0.54619784  -0.02063054  1
  La3+  La74  1  0.74739734  0.89980256  0.01537732  1
  La3+  La75  1  0.74876964  0.44156636  0.23060739  1
  La3+  La76  1  0.75003642  0.52658830  0.56106853  1
  La3+  La77  1  0.24865361  0.85431967  -0.04156320  1
  La3+  La78  1  0.74947813  0.83536954  0.50853339  1
  La3+  La79  1  0.25027364  0.55082056  0.25028461  1
  La3+  La80  1  0.74987337  0.83351609  0.26240548  1
  La3+  La81  1  0.24959054  0.84852204  0.48343497  1
  La3+  La82  1  0.25011892  0.82866117  0.79433640  1
  La3+  La83  1  0.24938780  0.49800785  0.72891951  1
  Ru4+  Ru84  1  -0.00829237  -0.00565321  -0.00144896  1
  Ru4+  Ru85  1  0.00073975  -0.00781262  0.23890341  1
  Ru4+  Ru86  1  -0.00590462  0.00597316  0.50317853  1
  Ru4+  Ru87  1  0.00522561  0.00427828  0.75416724  1
  Ru4+  Ru88  1  0.00016748  0.33878395  -0.00440856  1
  Ru4+  Ru89  1  0.00816161  0.33905930  0.24345330  1
  Ru4+  Ru90  1  0.00030651  0.33962244  0.50457406  1
  Ru4+  Ru91  1  0.00454382  0.32819121  0.74282170  1
  Ru4+  Ru92  1  0.00018943  0.66524170  -0.00061954  1
  Ru4+  Ru93  1  0.00533380  0.66211899  0.24561451  1
  Ru4+  Ru94  1  0.00056993  0.66341302  0.49862356  1
  Ru4+  Ru95  1  -0.00672484  0.66168049  0.74855276  1
  Ru4+  Ru96  1  0.50240737  0.00486274  -0.00176133  1
  Ru4+  Ru97  1  0.49903427  -0.00102217  0.25644888  1
  Ru4+  Ru98  1  0.48933328  -0.00445937  0.50290170  1
  Ru4+  Ru99  1  0.50478657  -0.01045472  0.74697776  1
  Ru4+  Ru100  1  0.49946787  0.33702686  0.01037513  1
  Ru4+  Ru101  1  0.49541850  0.33774099  0.24928218  1
  Ru4+  Ru102  1  0.50309557  0.33401126  0.49017473  1
  Ru4+  Ru103  1  0.50347878  0.33318640  0.74567425  1
  Ru4+  Ru104  1  0.49866671  0.66678073  0.00491256  1
  Ru4+  Ru105  1  0.49620146  0.65608987  0.24572541  1
  Ru4+  Ru106  1  0.49911208  0.66605164  0.49951961  1
  Ru4+  Ru107  1  0.49539697  0.66598415  0.75139553  1
  Ru4+  Ru108  1  0.12071165  0.16557643  0.00303830  1
  Ru4+  Ru109  1  0.11541724  0.17381535  0.24773062  1
  Ru4+  Ru110  1  0.11438145  0.16640053  0.50434009  1
  Ru4+  Ru111  1  0.11145913  0.16458385  0.74633998  1
  Ru4+  Ru112  1  0.10788646  0.50155788  -0.00084117  1
  Ru4+  Ru113  1  0.10654570  0.49385366  0.25609154  1
  Ru4+  Ru114  1  0.10963427  0.50081853  0.49768362  1
  Ru4+  Ru115  1  0.11320730  0.50205257  0.75243365  1
  Ru4+  Ru116  1  0.10901586  0.83039704  -0.00374351  1
  Ru4+  Ru117  1  0.11001125  0.84768294  0.24746222  1
  Ru4+  Ru118  1  0.11521680  0.82644265  0.50099957  1
  Ru4+  Ru119  1  0.11143965  0.83592332  0.75165525  1
  Ru4+  Ru120  1  0.60998185  0.16931216  -0.00059072  1
  Ru4+  Ru121  1  0.61208266  0.16514793  0.25195754  1
  Ru4+  Ru122  1  0.61206911  0.16395228  0.50119244  1
  Ru4+  Ru123  1  0.61538304  0.16811739  0.74731448  1
  Ru4+  Ru124  1  0.60979271  0.50142502  0.00312443  1
  Ru4+  Ru125  1  0.60768580  0.50348641  0.24946211  1
  Ru4+  Ru126  1  0.60815821  0.50070005  0.50172349  1
  Ru4+  Ru127  1  0.61292758  0.49484499  0.74822800  1
  Ru4+  Ru128  1  0.60549111  0.83324311  -0.00246094  1
  Ru4+  Ru129  1  0.61537024  0.83952359  0.25064120  1
  Ru4+  Ru130  1  0.61021116  0.82169325  0.49584123  1
  Ru4+  Ru131  1  0.61277993  0.83937799  0.75332164  1
  Ru4+  Ru132  1  0.38130918  0.16477863  0.00096986  1
  Ru4+  Ru133  1  0.38596287  0.16685844  0.25418063  1
  Ru4+  Ru134  1  0.38270912  0.15825876  0.50118064  1
  Ru4+  Ru135  1  0.37997776  0.17244377  0.75029794  1
  Ru4+  Ru136  1  0.39163429  0.50219141  0.00050855  1
  Ru4+  Ru137  1  0.39188066  0.49749912  0.25081378  1
  Ru4+  Ru138  1  0.39300088  0.50702436  0.49878714  1
  Ru4+  Ru139  1  0.38677059  0.50314846  0.74866131  1
  Ru4+  Ru140  1  0.38793823  0.83085123  0.00123447  1
  Ru4+  Ru141  1  0.38688343  0.83462779  0.25026767  1
  Ru4+  Ru142  1  0.39294955  0.84343474  0.49757264  1
  Ru4+  Ru143  1  0.38897415  0.83408201  0.75005415  1
  Ru4+  Ru144  1  0.88527012  0.16815843  0.00067416  1
  Ru4+  Ru145  1  0.88582085  0.16380693  0.24731206  1
  Ru4+  Ru146  1  0.88375915  0.16704602  0.50270144  1
  Ru4+  Ru147  1  0.88882083  0.16541053  0.74944283  1
  Ru4+  Ru148  1  0.89086807  0.50089574  -0.00265672  1
  Ru4+  Ru149  1  0.89073599  0.50210061  0.24951716  1
  Ru4+  Ru150  1  0.89274855  0.49967337  0.49832738  1
  Ru4+  Ru151  1  0.88955399  0.50234188  0.74836090  1
  Ru4+  Ru152  1  0.89380484  0.84065621  -0.00567887  1
  Ru4+  Ru153  1  0.88423069  0.83954426  0.24816328  1
  Ru4+  Ru154  1  0.89073366  0.82901313  0.49993115  1
  Ru4+  Ru155  1  0.88915575  0.83433001  0.74804795  1
  Ru4+  Ru156  1  0.75036681  0.92792941  0.73134118  1
  Ru4+  Ru157  1  0.74979985  0.70028037  0.45514814  1
  Ru4+  Ru158  1  0.74988309  0.24481198  0.24819661  1
  Ru4+  Ru159  1  0.24958747  0.73086154  0.02976680  1
  Ru4+  Ru160  1  0.74889015  0.09901409  -0.00327484  1
  Ru4+  Ru161  1  0.25067880  0.99136093  -0.02133103  1
  Ru4+  Ru162  1  0.75009977  0.75222221  0.74749234  1
  Ru4+  Ru163  1  0.74990012  0.73969888  0.00007837  1
  Ru4+  Ru164  1  0.24986045  0.74733209  0.23987555  1
  Ru4+  Ru165  1  0.74947305  0.24444784  0.50518466  1
  Ru4+  Ru166  1  0.74953357  0.56773261  0.76711901  1
  Ru4+  Ru167  1  0.25005978  0.60446573  -0.01356006  1
  Ru4+  Ru168  1  0.75012186  0.38605931  0.50209932  1
  Ru4+  Ru169  1  0.74999148  0.97782761  0.52588892  1
  Ru4+  Ru170  1  0.25020140  0.43410149  0.49892812  1
  Ru4+  Ru171  1  0.25002963  0.57354365  0.49704337  1
  Ru4+  Ru172  1  0.75076886  0.60387672  0.26115605  1
  Ru4+  Ru173  1  0.24922102  0.24750050  0.74871048  1
  Ru4+  Ru174  1  0.25109341  0.32748018  0.01596720  1
  Ru4+  Ru175  1  0.24987051  0.08698551  0.25732652  1
  Ru4+  Ru176  1  0.25018306  0.24554579  0.50720043  1
  Ru4+  Ru177  1  0.75120857  0.39901965  0.00832848  1
  Ru4+  Ru178  1  0.24985672  0.40139720  0.24189310  1
  Ru4+  Ru179  1  0.74982584  0.08866823  0.23980139  1
  O2-  O180  1  0.16944175  0.08117907  -0.00998668  1
  O2-  O181  1  0.16504433  0.08440599  0.25078117  1
  O2-  O182  1  0.16566892  0.08469394  0.50387699  1
  O2-  O183  1  0.16528645  0.08007959  0.75315027  1
  O2-  O184  1  0.16525976  0.40824703  -0.00172504  1
  O2-  O185  1  0.16736510  0.41545816  0.24747716  1
  O2-  O186  1  0.16813860  0.41992685  0.50233141  1
  O2-  O187  1  0.16977118  0.41304754  0.74992093  1
  O2-  O188  1  0.16687294  0.74611154  0.00163104  1
  O2-  O189  1  0.16663375  0.75029949  0.24589481  1
  O2-  O190  1  0.16776579  0.74404390  0.50582065  1
  O2-  O191  1  0.16611202  0.74772849  0.75009135  1
  O2-  O192  1  0.66516611  0.07939039  0.00220700  1
  O2-  O193  1  0.66869577  0.08088300  0.24781599  1
  O2-  O194  1  0.66710928  0.08168793  0.50171916  1
  O2-  O195  1  0.66555751  0.08114398  0.74824762  1
  O2-  O196  1  0.66886631  0.41244122  0.00026163  1
  O2-  O197  1  0.65667191  0.41049400  0.25251009  1
  O2-  O198  1  0.66532352  0.41190519  0.49818771  1
  O2-  O199  1  0.66457537  0.41586351  0.74949441  1
  O2-  O200  1  0.66507737  0.74583872  -0.00043946  1
  O2-  O201  1  0.66791630  0.74986307  0.25440733  1
  O2-  O202  1  0.67048991  0.74427402  0.50013088  1
  O2-  O203  1  0.66598685  0.74657387  0.74962474  1
  O2-  O204  1  0.33044891  0.25323762  -0.00056044  1
  O2-  O205  1  0.33415499  0.25046235  0.25237957  1
  O2-  O206  1  0.33241289  0.25105462  0.49786667  1
  O2-  O207  1  0.33084488  0.25652027  0.75237797  1
  O2-  O208  1  0.33661845  0.58858509  -0.00202913  1
  O2-  O209  1  0.34268222  0.58875591  0.24992363  1
  O2-  O210  1  0.33124161  0.58266128  0.50443962  1
  O2-  O211  1  0.32933316  0.58702312  0.74915344  1
  O2-  O212  1  0.33374712  0.92164476  -0.00613956  1
  O2-  O213  1  0.33698777  0.91598233  0.25079088  1
  O2-  O214  1  0.33072827  0.91662904  0.49538138  1
  O2-  O215  1  0.33280584  0.91799742  0.75869885  1
  O2-  O216  1  0.83605728  0.25350727  0.00264770  1
  O2-  O217  1  0.83219742  0.25476062  0.24716715  1
  O2-  O218  1  0.83053825  0.25298631  0.50183598  1
  O2-  O219  1  0.83655235  0.24927357  0.74970316  1
  O2-  O220  1  0.83966641  0.59047588  0.00371809  1
  O2-  O221  1  0.83458345  0.58433963  0.24710829  1
  O2-  O222  1  0.83595143  0.58219446  0.49943791  1
  O2-  O223  1  0.83203872  0.58376206  0.75468552  1
  O2-  O224  1  0.83727098  0.91989725  0.00388936  1
  O2-  O225  1  0.82839676  0.91876558  0.24601083  1
  O2-  O226  1  0.83209313  0.91995528  0.50356242  1
  O2-  O227  1  0.83402423  0.91970330  0.74483493  1
  O2-  O228  1  0.16957979  0.25257895  -0.00196925  1
  O2-  O229  1  0.16875930  0.24787414  0.25324429  1
  O2-  O230  1  0.16631870  0.25318984  0.50291655  1
  O2-  O231  1  0.16908086  0.25184134  0.75279213  1
  O2-  O232  1  0.16292187  0.58892558  0.00063837  1
  O2-  O233  1  0.15792837  0.58860118  0.24750508  1
  O2-  O234  1  0.17080797  0.58232891  0.50560306  1
  O2-  O235  1  0.16955010  0.58700175  0.74554822  1
  O2-  O236  1  0.16469180  0.91993704  -0.00361588  1
  O2-  O237  1  0.17040131  0.91157798  0.24801127  1
  O2-  O238  1  0.16515107  0.91811711  0.50199361  1
  O2-  O239  1  0.17165408  0.91832986  0.75496998  1
  O2-  O240  1  0.66186343  0.25276424  0.00100177  1
  O2-  O241  1  0.66494171  0.25214546  0.24764307  1
  O2-  O242  1  0.66750968  0.25144180  0.49861522  1
  O2-  O243  1  0.66779852  0.24839336  0.75327133  1
  O2-  O244  1  0.65775204  0.59132827  -0.00019024  1
  O2-  O245  1  0.66831729  0.58541786  0.24973286  1
  O2-  O246  1  0.66413878  0.58486611  0.49887071  1
  O2-  O247  1  0.66686717  0.58547085  0.75287372  1
  O2-  O248  1  0.65501526  0.92700958  0.00094913  1
  O2-  O249  1  0.66807177  0.92211977  0.24915609  1
  O2-  O250  1  0.66500981  0.91995065  0.50104153  1
  O2-  O251  1  0.66711710  0.92216729  0.74567454  1
  O2-  O252  1  0.32953719  0.07833831  -0.00700392  1
  O2-  O253  1  0.33214902  0.08315608  0.24912649  1
  O2-  O254  1  0.32914564  0.08351166  0.49649902  1
  O2-  O255  1  0.33158326  0.08385868  0.75862765  1
  O2-  O256  1  0.33330509  0.40711545  -0.00012719  1
  O2-  O257  1  0.33185046  0.41411686  0.24925370  1
  O2-  O258  1  0.33582521  0.41711817  0.50064544  1
  O2-  O259  1  0.33323670  0.41351742  0.75178782  1
  O2-  O260  1  0.33171748  0.74602166  -0.00142528  1
  O2-  O261  1  0.33169030  0.74706504  0.24737473  1
  O2-  O262  1  0.33613990  0.75006931  0.50273749  1
  O2-  O263  1  0.32898585  0.74680006  0.75498652  1
  O2-  O264  1  0.83070347  0.08075695  0.00300204  1
  O2-  O265  1  0.83300246  0.08150171  0.24826938  1
  O2-  O266  1  0.83391291  0.08025221  0.50537987  1
  O2-  O267  1  0.83385379  0.08157180  0.74404659  1
  O2-  O268  1  0.83604049  0.41341028  0.00375351  1
  O2-  O269  1  0.83973507  0.40784690  0.24926260  1
  O2-  O270  1  0.83433066  0.41062660  0.50191566  1
  O2-  O271  1  0.83793769  0.41863947  0.74865507  1
  O2-  O272  1  0.83726714  0.74894640  0.00125416  1
  O2-  O273  1  0.83349316  0.74781333  0.25123858  1
  O2-  O274  1  0.82868076  0.74715999  0.49988080  1
  O2-  O275  1  0.83459334  0.74822030  0.75075335  1
  O2-  O276  1  0.94861951  0.09814086  0.52486074  1
  O2-  O277  1  0.94827440  0.08753893  0.76315280  1
  O2-  O278  1  0.95184880  0.42205175  0.73731185  1
  O2-  O279  1  0.45126378  0.10126156  0.74392651  1
  O2-  O280  1  0.46775064  0.86731968  0.50669624  1
  O2-  O281  1  0.94774644  0.24345896  0.23152776  1
  O2-  O282  1  0.04087316  0.90528918  0.49108189  1
  O2-  O283  1  0.95349198  0.76760918  0.23431729  1
  O2-  O284  1  0.54734829  0.56830789  0.75852820  1
  O2-  O285  1  0.04699395  0.57247143  0.23894792  1
  O2-  O286  1  0.44927653  0.75022899  0.48941375  1
  O2-  O287  1  0.04918998  0.24091483  0.98307465  1
  O2-  O288  1  0.05183444  0.09170496  0.49386499  1
  O2-  O289  1  0.96090901  0.56149681  0.79450336  1
  O2-  O290  1  0.95019982  0.24186609  0.01743159  1
  O2-  O291  1  0.94813785  0.42594515  0.23594188  1
  O2-  O292  1  0.95159993  0.24300073  0.76505725  1
  O2-  O293  1  0.97628480  0.87114628  0.99406267  1
  O2-  O294  1  0.04539240  0.08959925  0.98411414  1
  O2-  O295  1  0.45517543  0.42836303  0.75966854  1
  O2-  O296  1  0.04638251  0.23846006  0.50935259  1
  O2-  O297  1  0.95632046  0.76496298  0.73594483  1
  O2-  O298  1  0.02320825  0.54534861  0.49596401  1
  O2-  O299  1  0.54837837  0.76270313  0.76185789  1
  O2-  O300  1  0.55693391  0.90504498  0.48104536  1
  O2-  O301  1  0.05334539  0.09992936  0.01929372  1
  O2-  O302  1  0.55008219  0.09109201  0.74071256  1
  O2-  O303  1  0.45681057  0.89855023  1.00004037  1
  O2-  O304  1  0.05089482  0.09937777  0.74006149  1
  O2-  O305  1  0.55268090  0.91961803  0.51609947  1
  O2-  O306  1  0.02300151  0.87991516  0.25250656  1
  O2-  O307  1  0.02422235  0.87122515  0.23700105  1
  O2-  O308  1  0.45294867  0.90101793  0.25028950  1
  O2-  O309  1  0.55833258  0.24507472  0.51790453  1
  O2-  O310  1  0.05672373  0.23471132  0.01984949  1
  O2-  O311  1  0.44563784  0.09181340  0.96139832  1
  O2-  O312  1  0.45672696  0.43187006  0.49632463  1
  O2-  O313  1  0.55022798  0.42848772  0.01698354  1
  O2-  O314  1  0.96881544  0.77635886  0.54264321  1
  O2-  O315  1  0.04490852  0.44079618  0.20591945  1
  O2-  O316  1  0.54217839  0.22978013  0.77353059  1
  O2-  O317  1  0.54615967  0.76069142  0.23700091  1
  O2-  O318  1  0.95429581  0.76311320  0.27330580  1
  O2-  O319  1  0.45527790  0.22600424  0.48621192  1
  O2-  O320  1  0.95378539  0.43100143  0.49006846  1
  O2-  O321  1  0.54965494  0.90446408  0.25957933  1
  O2-  O322  1  0.04280210  0.22289993  0.29054067  1
  O2-  O323  1  0.45749332  0.22633030  0.49127889  1
  O2-  O324  1  0.43851923  0.07637852  0.52869421  1
  O2-  O325  1  0.43309729  0.73798650  0.27026271  1
  O2-  O326  1  0.43450028  0.41179665  0.27617212  1
  O2-  O327  1  0.44027288  0.08805296  0.95549297  1
  O2-  O328  1  0.44003298  0.07240367  0.27948645  1
  O2-  O329  1  0.94102545  0.59686628  0.96815315  1
  O2-  O330  1  0.41368053  0.93407230  0.57530544  1
  O2-  O331  1  0.93039450  0.92613025  0.27920629  1
  O2-  O332  1  0.06415864  0.92309879  0.77095651  1
  O2-  O333  1  0.06350689  0.41064968  0.97605903  1
  O2-  O334  1  0.43530565  0.41319161  0.01649732  1
  O2-  O335  1  0.92035427  0.73067410  0.44566685  1
  O2-  O336  1  0.56486269  0.74779766  0.21472112  1
  O2-  O337  1  0.43575987  0.07661795  0.72895573  1
  O2-  O338  1  0.06851257  0.40644082  0.52539055  1
  O2-  O339  1  0.93038429  0.61648061  0.67850450  1
  O2-  O340  1  0.92194957  0.95176357  0.95062878  1
  O2-  O341  1  0.06241894  0.59910477  0.78304508  1
  O2-  O342  1  0.06148579  0.73532180  0.96855883  1
  O2-  O343  1  0.44132949  0.59833261  0.57268313  1
  O2-  O344  1  0.56862668  0.74929137  0.43429133  1
  O2-  O345  1  0.08452292  0.61978946  0.47680463  1
  O2-  O346  1  0.09044310  0.92867467  0.32672312  1
  O2-  O347  1  0.06367367  0.41583911  0.72356930  1
  O2-  O348  1  0.07092103  0.38736596  0.32078906  1
  O2-  O349  1  0.07077136  0.74171808  0.27687530  1
  O2-  O350  1  0.07599454  0.26975436  0.18586754  1
  O2-  O351  1  0.43331977  0.06222328  0.10525036  1
  O2-  O352  1  0.43790937  0.59065492  0.72288338  1
  O2-  O353  1  0.56222170  0.07197194  0.27915207  1
  O2-  O354  1  0.93634320  0.08380136  0.96274225  1
  O2-  O355  1  0.56961724  0.29085396  0.67873439  1
  O2-  O356  1  0.43888709  0.25073356  0.02267674  1
  O2-  O357  1  0.55934577  0.07036919  0.53393123  1
  O2-  O358  1  0.93590353  0.92306060  0.48294250  1
  O2-  O359  1  0.55777929  0.41816468  0.01731226  1
  O2-  O360  1  0.56035584  0.72907908  0.57817204  1
  O2-  O361  1  0.56255979  0.59048821  0.22700329  1
  O2-  O362  1  0.43813937  0.74296197  0.71486556  1
  O2-  O363  1  0.42790660  0.28280392  0.55804623  1
  O2-  O364  1  0.42919648  0.58107159  0.43355312  1
  O2-  O365  1  0.06806293  0.25929865  0.72617136  1
  O2-  O366  1  0.05985585  0.90964152  0.46530608  1
  O2-  O367  1  0.09044719  0.93297044  0.17142303  1
  O2-  O368  1  0.43783286  0.25017511  0.22353119  1
  O2-  O369  1  0.43662375  0.74282464  0.02204469  1
  O2-  O370  1  0.93501047  0.26771944  0.46638655  1
  O2-  O371  1  0.43518648  0.94954450  0.41769184  1
  O2-  O372  1  0.74944762  0.01362313  0.41185523  1
  O2-  O373  1  0.75020413  0.33701461  0.83123567  1
  O2-  O374  1  0.24991477  0.00783466  0.34555425  1
  O2-  O375  1  0.25013465  0.33626256  0.44232874  1
  O2-  O376  1  0.75046090  0.65485871  0.08390830  1
  O2-  O377  1  0.24936619  0.66112006  0.13486228  1
  O2-  O378  1  0.74954197  0.33134178  0.34300249  1
  O2-  O379  1  0.75050977  0.32183575  0.92111275  1
  O2-  O380  1  0.24995707  0.32986289  0.14322717  1
  O2-  O381  1  0.25003836  0.31741563  0.31507707  1
  O2-  O382  1  0.75011199  0.65657735  0.69276750  1
  O2-  O383  1  0.75094835  0.67874887  0.17284019  1
  O2-  O384  1  0.75051557  0.66310314  0.89327530  1
  O2-  O385  1  0.25003938  0.67650900  0.88380772  1
  O2-  O386  1  0.24976971  0.66407781  0.33421555  1
  O2-  O387  1  0.74972517  0.65858592  0.56421475  1
  O2-  O388  1  0.24805278  -0.00682986  0.59804693  1
  O2-  O389  1  0.75163389  0.33473702  0.62519046  1
  O2-  O390  1  0.25113359  0.02236442  0.09366999  1
  O2-  O391  1  0.74988389  -0.00534602  0.31989971  1
  O2-  O392  1  0.25031035  0.33016164  0.88781464  1
  O2-  O393  1  0.74891537  0.00303363  0.90674670  1
  O2-  O394  1  0.24966143  0.66963459  0.42721496  1
  O2-  O395  1  0.24903277  -0.00789730  0.18031212  1
  O2-  O396  1  0.75001776  0.16723392  0.33086889  1
  O2-  O397  1  0.25053760  0.51327183  0.86072236  1
  O2-  O398  1  0.74978784  0.15693490  0.10068854  1
  O2-  O399  1  0.25162880  0.82701223  0.59979150  1
  O2-  O400  1  0.75001648  0.16243654  0.91109418  1
  O2-  O401  1  0.75059940  0.52861142  0.33819473  1
  O2-  O402  1  0.74975385  0.84827400  0.80205906  1
  O2-  O403  1  0.75068975  0.81054297  0.91493715  1
  O2-  O404  1  0.24991037  0.82991847  0.67811512  1
  O2-  O405  1  0.24982652  0.48620280  0.37874313  1
  O2-  O406  1  0.25059632  0.83410315  0.08863663  1
  O2-  O407  1  0.25028839  0.16346372  0.58334667  1
  O2-  O408  1  0.25087250  0.81353114  0.36708009  1
  O2-  O409  1  0.75000854  0.81643196  0.12368964  1
  O2-  O410  1  0.25021646  0.85401089  0.29549042  1
  O2-  O411  1  0.25039944  0.49039193  0.12967541  1
  O2-  O412  1  0.25093245  0.16485091  0.67366463  1
  O2-  O413  1  0.24972333  0.16725859  0.17044097  1
  O2-  O414  1  0.74996886  0.49287238  0.84977879  1
  O2-  O415  1  0.75013768  0.47189354  0.43352840  1
  O2-  O416  1  0.75050417  0.48781564  0.10333536  1
  O2-  O417  1  0.25008312  0.83943770  0.17431318  1
  O2-  O418  1  0.25007139  0.16543287  0.08595427  1
  O2-  O419  1  0.75000639  0.16807679  0.42292658  1
  O2-  O420  1  0.02340331  -0.00748620  0.62336616  1
  O2-  O421  1  0.01420850  0.34517656  0.11149712  1
  O2-  O422  1  0.95220848  -0.00091463  0.12499234  1
  O2-  O423  1  0.47890811  -0.01610807  0.86612039  1
  O2-  O424  1  0.02674015  0.67062527  0.12235750  1
  O2-  O425  1  0.03884799  0.02301655  0.36207208  1
  O2-  O426  1  0.02623127  0.67434298  0.37351343  1
  O2-  O427  1  0.03796713  0.01113848  0.12017930  1
  O2-  O428  1  0.02337426  0.00139333  0.87876734  1
  O2-  O429  1  0.01272290  0.33250671  0.62374986  1
  O2-  O430  1  0.96996244  0.64740858  0.36242771  1
  O2-  O431  1  0.02040459  0.33210560  0.86873556  1
  O2-  O432  1  0.49149062  -0.00511771  0.63388136  1
  O2-  O433  1  0.52580130  0.33660123  0.87740363  1
  O2-  O434  1  0.54459014  0.67018141  0.09833234  1
  O2-  O435  1  0.46474507  0.34457827  0.12785468  1
  O2-  O436  1  0.45665175  0.65619696  0.13722025  1
  O2-  O437  1  0.48211395  0.33145936  0.36773679  1
  O2-  O438  1  0.47562672  0.66785139  0.36743147  1
  O2-  O439  1  0.95391066  0.02014309  0.37912231  1
  O2-  O440  1  0.54896846  0.31070693  0.14817863  1
  O2-  O441  1  0.53183108  0.65082197  0.36399801  1
  O2-  O442  1  0.53153319  -0.00120415  0.12237032  1
  O2-  O443  1  0.52783508  0.66604516  0.88120193  1
