# generated using pymatgen
data_La7(Ru4O11)2
_symmetry_space_group_name_H-M   'P 1'
_cell_length_a   23.98974714
_cell_length_b   16.82987599
_cell_length_c   15.42661061
_cell_angle_alpha   89.99968703
_cell_angle_beta   90.00083974
_cell_angle_gamma   89.99970148
_symmetry_Int_Tables_number   1
_chemical_formula_structural   La7(Ru4O11)2
_chemical_formula_sum   'La84 Ru96 O264'
_cell_volume   6228.40871443
_cell_formula_units_Z   12
loop_
 _symmetry_equiv_pos_site_id
 _symmetry_equiv_pos_as_xyz
  1  'x, y, z'
loop_
 _atom_type_symbol
 _atom_type_oxidation_number
  La3+  3.0
  Ru4+  4.0
  O2-  -2.0
loop_
 _atom_site_type_symbol
 _atom_site_label
 _atom_site_symmetry_multiplicity
 _atom_site_fract_x
 _atom_site_fract_y
 _atom_site_fract_z
 _atom_site_occupancy
  La3+  La0  1  0.13774955  -0.00073436  0.12188693  1
  La3+  La1  1  0.13951861  0.00144050  0.37795250  1
  La3+  La2  1  0.13997750  0.00259566  0.62479107  1
  La3+  La3  1  0.13959316  -0.00053262  0.87525703  1
  La3+  La4  1  0.13809071  0.33415915  0.12204470  1
  La3+  La5  1  0.14218836  0.33191553  0.37660214  1
  La3+  La6  1  0.13864860  0.33386703  0.62413651  1
  La3+  La7  1  0.14025337  0.33582652  0.87636403  1
  La3+  La8  1  0.13862614  0.66696294  0.12390439  1
  La3+  La9  1  0.14050068  0.66700881  0.37489224  1
  La3+  La10  1  0.13868107  0.66632689  0.62370956  1
  La3+  La11  1  0.13949553  0.66711713  0.87730278  1
  La3+  La12  1  0.63917097  0.00035905  0.12414434  1
  La3+  La13  1  0.63946897  -0.00257644  0.37296903  1
  La3+  La14  1  0.63757188  0.00024288  0.62610041  1
  La3+  La15  1  0.63740504  0.00185168  0.87598666  1
  La3+  La16  1  0.64052764  0.33326809  0.12422576  1
  La3+  La17  1  0.63937927  0.33359617  0.37414354  1
  La3+  La18  1  0.63651026  0.33156101  0.62352019  1
  La3+  La19  1  0.63915921  0.33134878  0.87697325  1
  La3+  La20  1  0.63661607  0.66523497  0.12770124  1
  La3+  La21  1  0.63687533  0.66844451  0.37423607  1
  La3+  La22  1  0.63095538  0.66457692  0.62888514  1
  La3+  La23  1  0.63191153  0.66218811  0.87158827  1
  La3+  La24  1  0.36235328  0.00165220  0.12319883  1
  La3+  La25  1  0.36071539  0.00209287  0.37684414  1
  La3+  La26  1  0.35933838  0.00271521  0.62644888  1
  La3+  La27  1  0.36050415  0.00148686  0.87395106  1
  La3+  La28  1  0.36310123  0.33116701  0.12224035  1
  La3+  La29  1  0.35937665  0.33184161  0.37651927  1
  La3+  La30  1  0.36022317  0.33350700  0.62409388  1
  La3+  La31  1  0.36112730  0.33278390  0.87687823  1
  La3+  La32  1  0.36140571  0.66743677  0.12630087  1
  La3+  La33  1  0.36137857  0.66627530  0.37399643  1
  La3+  La34  1  0.36032006  0.66580600  0.62216540  1
  La3+  La35  1  0.36000843  0.66658407  0.87603564  1
  La3+  La36  1  0.86346338  -0.00196010  0.12557889  1
  La3+  La37  1  0.86234735  -0.00222690  0.37248660  1
  La3+  La38  1  0.86190965  0.00008533  0.62522173  1
  La3+  La39  1  0.86279616  0.00077498  0.87599135  1
  La3+  La40  1  0.86019056  0.33506473  0.12759226  1
  La3+  La41  1  0.85990348  0.33369140  0.37141265  1
  La3+  La42  1  0.86208566  0.33155855  0.62525593  1
  La3+  La43  1  0.86260753  0.33329803  0.87633039  1
  La3+  La44  1  0.86172988  0.66724432  0.12778342  1
  La3+  La45  1  0.86094968  0.66863112  0.37471326  1
  La3+  La46  1  0.86395085  0.66820669  0.62307865  1
  La3+  La47  1  0.86497848  0.66610404  0.87575395  1
  La3+  La48  1  0.49798358  0.16725842  0.36370278  1
  La3+  La49  1  -0.00282467  0.16348062  0.61687433  1
  La3+  La50  1  -0.00183023  0.50113434  0.64054996  1
  La3+  La51  1  -0.00380478  0.16036198  0.11756225  1
  La3+  La52  1  0.00475405  0.16335961  0.63588488  1
  La3+  La53  1  0.50147757  0.16803582  0.62098699  1
  La3+  La54  1  0.50046262  0.49842328  0.63908394  1
  La3+  La55  1  0.50026712  0.50171376  0.86608075  1
  La3+  La56  1  0.50233639  0.50629374  0.62125455  1
  La3+  La57  1  -0.00099730  0.16636181  0.13601601  1
  La3+  La58  1  0.50096901  0.83396506  0.86506829  1
  La3+  La59  1  -0.00025093  0.83280970  0.38225595  1
  La3+  La60  1  0.50386181  0.82839334  0.37291603  1
  La3+  La61  1  -0.00042024  0.49982626  0.38919419  1
  La3+  La62  1  0.50542293  0.50117120  0.11706430  1
  La3+  La63  1  -0.00109806  0.83320548  0.88364517  1
  La3+  La64  1  -0.00089366  0.51099979  0.37009061  1
  La3+  La65  1  0.49931411  0.83253127  0.11634890  1
  La3+  La66  1  0.00021569  0.16632311  0.86648748  1
  La3+  La67  1  -0.00054912  0.83439047  0.11819867  1
  La3+  La68  1  -0.00228780  0.16863018  0.36611939  1
  La3+  La69  1  0.49974780  0.49904099  0.38269115  1
  La3+  La70  1  0.00210845  0.16232865  0.38617772  1
  La3+  La71  1  0.49825507  0.50104643  0.13655763  1
  La3+  La72  1  0.25000046  0.54275241  0.23046813  1
  La3+  La73  1  0.25020100  0.16582524  -0.02053700  1
  La3+  La74  1  0.75039214  0.82675629  0.02652114  1
  La3+  La75  1  0.24991171  0.86872879  0.75899508  1
  La3+  La76  1  0.75011061  0.49559181  0.69114211  1
  La3+  La77  1  0.25026947  0.83192269  0.20357073  1
  La3+  La78  1  0.75029014  0.19691065  0.24996568  1
  La3+  La79  1  0.25010896  0.19521683  0.25751150  1
  La3+  La80  1  0.25018847  0.78752139  0.51466872  1
  La3+  La81  1  0.75023481  0.87818727  0.70203837  1
  La3+  La82  1  0.75003831  0.49442912  0.49125914  1
  La3+  La83  1  0.25006955  0.49891405  0.53939032  1
  Ru4+  Ru84  1  -0.00118686  0.00975951  0.00055991  1
  Ru4+  Ru85  1  0.00093231  0.00353361  0.24990503  1
  Ru4+  Ru86  1  -0.00468338  -0.00735610  0.49916897  1
  Ru4+  Ru87  1  0.00001462  -0.00090369  0.75053762  1
  Ru4+  Ru88  1  0.00238112  0.33892158  -0.00095135  1
  Ru4+  Ru89  1  0.00130698  0.32481844  0.24329026  1
  Ru4+  Ru90  1  -0.00090040  0.33372268  0.50459156  1
  Ru4+  Ru91  1  0.00311858  0.33224346  0.74888881  1
  Ru4+  Ru92  1  0.00239035  0.66292004  0.00203798  1
  Ru4+  Ru93  1  0.00142777  0.66580620  0.24703249  1
  Ru4+  Ru94  1  -0.00092298  0.66777398  0.50016948  1
  Ru4+  Ru95  1  -0.00000255  0.66721534  0.75209509  1
  Ru4+  Ru96  1  0.49868635  0.00409594  0.00097901  1
  Ru4+  Ru97  1  0.50024780  -0.00068805  0.24843750  1
  Ru4+  Ru98  1  0.50138158  -0.00741455  0.49525171  1
  Ru4+  Ru99  1  0.50061093  -0.00212333  0.75153838  1
  Ru4+  Ru100  1  0.50128870  0.33474183  -0.00394120  1
  Ru4+  Ru101  1  0.49930592  0.33073382  0.25321290  1
  Ru4+  Ru102  1  0.49744005  0.32917194  0.49779424  1
  Ru4+  Ru103  1  0.50091774  0.33339857  0.75375661  1
  Ru4+  Ru104  1  0.50061023  0.66871283  -0.00208725  1
  Ru4+  Ru105  1  0.49960897  0.67669777  0.24571470  1
  Ru4+  Ru106  1  0.50242901  0.66526778  0.50355162  1
  Ru4+  Ru107  1  0.50055419  0.66699137  0.75054236  1
  Ru4+  Ru108  1  0.11325612  0.16658457  -0.00065841  1
  Ru4+  Ru109  1  0.11317030  0.16897320  0.24994747  1
  Ru4+  Ru110  1  0.11911448  0.16910978  0.49968343  1
  Ru4+  Ru111  1  0.11330212  0.16454904  0.75078226  1
  Ru4+  Ru112  1  0.10854225  0.49818696  -0.00012836  1
  Ru4+  Ru113  1  0.11302984  0.50194167  0.24797589  1
  Ru4+  Ru114  1  0.11311752  0.50067556  0.50079979  1
  Ru4+  Ru115  1  0.11381813  0.49829120  0.74950409  1
  Ru4+  Ru116  1  0.11532592  0.82948511  -0.00034124  1
  Ru4+  Ru117  1  0.11167426  0.83311961  0.24997565  1
  Ru4+  Ru118  1  0.11084226  0.83274633  0.49972089  1
  Ru4+  Ru119  1  0.11159447  0.83422740  0.75007071  1
  Ru4+  Ru120  1  0.61462294  0.16486154  -0.00138640  1
  Ru4+  Ru121  1  0.61143577  0.16732713  0.24989159  1
  Ru4+  Ru122  1  0.61564740  0.16859150  0.49919912  1
  Ru4+  Ru123  1  0.61243333  0.16614856  0.74877117  1
  Ru4+  Ru124  1  0.61152938  0.49972139  -0.00223096  1
  Ru4+  Ru125  1  0.61646884  0.49503766  0.25065303  1
  Ru4+  Ru126  1  0.61406198  0.50382235  0.50013580  1
  Ru4+  Ru127  1  0.61070376  0.50068073  0.75239668  1
  Ru4+  Ru128  1  0.61016727  0.83361672  -0.00103443  1
  Ru4+  Ru129  1  0.61298273  0.83507224  0.24947547  1
  Ru4+  Ru130  1  0.61373949  0.83048385  0.49933318  1
  Ru4+  Ru131  1  0.61028972  0.83470619  0.74910192  1
  Ru4+  Ru132  1  0.38779335  0.16188699  0.00102379  1
  Ru4+  Ru133  1  0.38841797  0.16854706  0.25080296  1
  Ru4+  Ru134  1  0.38192624  0.17171391  0.50015282  1
  Ru4+  Ru135  1  0.38553113  0.16356703  0.74880459  1
  Ru4+  Ru136  1  0.38513154  0.49874486  -0.00085150  1
  Ru4+  Ru137  1  0.38458862  0.49688072  0.25100152  1
  Ru4+  Ru138  1  0.38637304  0.50034732  0.49974465  1
  Ru4+  Ru139  1  0.38691998  0.49842996  0.75098873  1
  Ru4+  Ru140  1  0.38661173  0.83127687  0.00044059  1
  Ru4+  Ru141  1  0.38717055  0.83197079  0.24856857  1
  Ru4+  Ru142  1  0.38654176  0.83678395  0.49940183  1
  Ru4+  Ru143  1  0.39037287  0.83176500  0.75055633  1
  Ru4+  Ru144  1  0.88498522  0.16594651  -0.00050232  1
  Ru4+  Ru145  1  0.88962034  0.16770033  0.25002763  1
  Ru4+  Ru146  1  0.88536098  0.16563869  0.50003918  1
  Ru4+  Ru147  1  0.88624934  0.16429201  0.75012734  1
  Ru4+  Ru148  1  0.88588106  0.50017297  0.00211015  1
  Ru4+  Ru149  1  0.88225010  0.50199276  0.24947028  1
  Ru4+  Ru150  1  0.88831819  0.50095174  0.50201293  1
  Ru4+  Ru151  1  0.88748146  0.50491335  0.75035443  1
  Ru4+  Ru152  1  0.88617986  0.82792554  -0.00108366  1
  Ru4+  Ru153  1  0.88349419  0.83004605  0.24988964  1
  Ru4+  Ru154  1  0.88685061  0.83100656  0.50120069  1
  Ru4+  Ru155  1  0.88952646  0.83405958  0.75037697  1
  Ru4+  Ru156  1  0.24983282  0.58563106  0.00257999  1
  Ru4+  Ru157  1  0.75005259  0.74369444  0.75430036  1
  Ru4+  Ru158  1  0.75018203  0.62018331  0.48759665  1
  Ru4+  Ru159  1  0.74985866  0.08392403  0.74796277  1
  Ru4+  Ru160  1  0.24999518  0.72555844  0.75556692  1
  Ru4+  Ru161  1  0.74977090  0.08490742  0.49947263  1
  Ru4+  Ru162  1  0.75019283  0.36651899  0.51813536  1
  Ru4+  Ru163  1  0.75034678  0.05672544  0.25100065  1
  Ru4+  Ru164  1  0.24990544  0.39195916  0.25575861  1
  Ru4+  Ru165  1  0.74984166  0.91526938  0.49831381  1
  Ru4+  Ru166  1  0.25029037  0.57883244  0.75191557  1
  Ru4+  Ru167  1  0.25020351  0.05825616  0.25169112  1
  Ru4+  Ru168  1  0.25007042  0.94212798  0.50843572  1
  Ru4+  Ru169  1  0.74942004  0.57616742  0.24926046  1
  Ru4+  Ru170  1  0.75063742  0.60217440  0.77051767  1
  Ru4+  Ru171  1  0.74983442  0.75080162  0.25133986  1
  Ru4+  Ru172  1  0.74954343  0.41304970  0.00876648  1
  Ru4+  Ru173  1  0.74987196  0.38218185  0.75906823  1
  Ru4+  Ru174  1  0.24983146  0.24793278  0.75818754  1
  Ru4+  Ru175  1  0.74963118  0.57826755  0.01043361  1
  Ru4+  Ru176  1  0.74991677  0.24442134  0.75127841  1
  Ru4+  Ru177  1  0.25025478  0.91095170  -0.00578575  1
  Ru4+  Ru178  1  0.74976505  0.70277138  -0.00485225  1
  Ru4+  Ru179  1  0.74962231  0.95303768  0.00449394  1
  O2-  O180  1  0.16749868  0.08036710  0.00031960  1
  O2-  O181  1  0.16705948  0.07876951  0.24945589  1
  O2-  O182  1  0.16686989  0.08167782  0.49972689  1
  O2-  O183  1  0.16493635  0.08207203  0.75017584  1
  O2-  O184  1  0.16727555  0.41481527  -0.00000410  1
  O2-  O185  1  0.16903539  0.41303996  0.25006645  1
  O2-  O186  1  0.16858539  0.41463162  0.50301151  1
  O2-  O187  1  0.16552071  0.41479254  0.74877710  1
  O2-  O188  1  0.16515793  0.74896788  0.00091062  1
  O2-  O189  1  0.16732283  0.74709123  0.24886436  1
  O2-  O190  1  0.16354652  0.74537105  0.50072534  1
  O2-  O191  1  0.16631709  0.74554334  0.75032754  1
  O2-  O192  1  0.66639658  0.08297902  0.00114534  1
  O2-  O193  1  0.66839748  0.08003955  0.24927399  1
  O2-  O194  1  0.66865616  0.08138066  0.49972620  1
  O2-  O195  1  0.66712469  0.08128636  0.75011069  1
  O2-  O196  1  0.66771613  0.41418697  -0.00022841  1
  O2-  O197  1  0.66543514  0.41441966  0.25062532  1
  O2-  O198  1  0.66602995  0.41272036  0.49998204  1
  O2-  O199  1  0.66591725  0.41259048  0.74904167  1
  O2-  O200  1  0.66494846  0.74479574  0.00010238  1
  O2-  O201  1  0.66858528  0.74625727  0.24952548  1
  O2-  O202  1  0.66755791  0.74849337  0.50169780  1
  O2-  O203  1  0.66576269  0.74572620  0.75019049  1
  O2-  O204  1  0.33229839  0.25370248  -0.00035524  1
  O2-  O205  1  0.33320641  0.25427503  0.24819034  1
  O2-  O206  1  0.33246682  0.25154299  0.50216925  1
  O2-  O207  1  0.33320249  0.25254600  0.74892400  1
  O2-  O208  1  0.33205405  0.58452692  0.00025147  1
  O2-  O209  1  0.33517622  0.58707218  0.24979790  1
  O2-  O210  1  0.33272923  0.58554197  0.49967917  1
  O2-  O211  1  0.33111616  0.58616661  0.75038338  1
  O2-  O212  1  0.33271282  0.91979359  0.00097352  1
  O2-  O213  1  0.33083179  0.91911103  0.25093114  1
  O2-  O214  1  0.33339566  0.91871931  0.50020053  1
  O2-  O215  1  0.33654882  0.91889981  0.75017040  1
  O2-  O216  1  0.83375075  0.25263562  -0.00008726  1
  O2-  O217  1  0.83330802  0.25346388  0.24834883  1
  O2-  O218  1  0.83253471  0.25273042  0.50092989  1
  O2-  O219  1  0.83406743  0.25305674  0.75089862  1
  O2-  O220  1  0.83239783  0.58532656  -0.00070522  1
  O2-  O221  1  0.83298729  0.58692094  0.24991402  1
  O2-  O222  1  0.83404494  0.58755373  0.49991768  1
  O2-  O223  1  0.83470262  0.58699574  0.74953180  1
  O2-  O224  1  0.83384399  0.92199853  -0.00043176  1
  O2-  O225  1  0.83311394  0.91891013  0.25089038  1
  O2-  O226  1  0.83361001  0.91877154  0.49974366  1
  O2-  O227  1  0.83373418  0.92094721  0.75045821  1
  O2-  O228  1  0.16847743  0.25258818  -0.00009316  1
  O2-  O229  1  0.16707791  0.25386646  0.24808374  1
  O2-  O230  1  0.16640155  0.25247635  0.50187258  1
  O2-  O231  1  0.16770495  0.25359798  0.74808616  1
  O2-  O232  1  0.16741491  0.58430604  -0.00045703  1
  O2-  O233  1  0.16400713  0.58821730  0.25034907  1
  O2-  O234  1  0.16666459  0.58589327  0.50138207  1
  O2-  O235  1  0.16685802  0.58654862  0.75077394  1
  O2-  O236  1  0.16718754  0.91893797  0.00143757  1
  O2-  O237  1  0.16787521  0.92040656  0.24966200  1
  O2-  O238  1  0.16718476  0.92006356  0.49999287  1
  O2-  O239  1  0.16376605  0.91970947  0.75039026  1
  O2-  O240  1  0.66699099  0.25096426  0.00026448  1
  O2-  O241  1  0.66567870  0.25284554  0.24979029  1
  O2-  O242  1  0.66668653  0.25192922  0.49972362  1
  O2-  O243  1  0.66676108  0.25214396  0.75042072  1
  O2-  O244  1  0.66771116  0.58718846  0.00004557  1
  O2-  O245  1  0.66774595  0.58714459  0.24969339  1
  O2-  O246  1  0.66547239  0.58843567  0.50044634  1
  O2-  O247  1  0.66668774  0.58828969  0.74914569  1
  O2-  O248  1  0.66691823  0.92149325  -0.00014339  1
  O2-  O249  1  0.66618227  0.91836394  0.24975715  1
  O2-  O250  1  0.66668014  0.91872760  0.50064086  1
  O2-  O251  1  0.66754732  0.92014469  0.75043205  1
  O2-  O252  1  0.33272495  0.08230654  -0.00084685  1
  O2-  O253  1  0.33280042  0.07962443  0.25019774  1
  O2-  O254  1  0.33469436  0.08210330  0.50044897  1
  O2-  O255  1  0.33357719  0.08313225  0.75034847  1
  O2-  O256  1  0.33324960  0.41458312  -0.00020749  1
  O2-  O257  1  0.33268697  0.41331993  0.24854373  1
  O2-  O258  1  0.33293721  0.41425120  0.50191471  1
  O2-  O259  1  0.33482801  0.41462632  0.74972235  1
  O2-  O260  1  0.33497254  0.74895245  0.00118824  1
  O2-  O261  1  0.33164750  0.74887854  0.24899901  1
  O2-  O262  1  0.33579982  0.74626647  0.49990606  1
  O2-  O263  1  0.33177018  0.74748969  0.75034479  1
  O2-  O264  1  0.83439180  0.08115937  0.00046097  1
  O2-  O265  1  0.83192420  0.07912908  0.24998308  1
  O2-  O266  1  0.83241338  0.08049276  0.49919746  1
  O2-  O267  1  0.83217176  0.08074197  0.75042342  1
  O2-  O268  1  0.83261165  0.41481879  -0.00155247  1
  O2-  O269  1  0.83232438  0.41620890  0.24878193  1
  O2-  O270  1  0.83342514  0.41214002  0.50037752  1
  O2-  O271  1  0.83397504  0.41139627  0.75009639  1
  O2-  O272  1  0.83440850  0.74472307  -0.00127616  1
  O2-  O273  1  0.83185063  0.74784992  0.25038905  1
  O2-  O274  1  0.83260776  0.74858816  0.50073061  1
  O2-  O275  1  0.83366147  0.74581157  0.75030557  1
  O2-  O276  1  0.45309137  0.90700752  0.76508098  1
  O2-  O277  1  0.45263713  0.56977637  0.26774882  1
  O2-  O278  1  0.54202173  0.56232877  0.75582499  1
  O2-  O279  1  0.05018254  0.90292158  0.98537532  1
  O2-  O280  1  0.45321580  0.43088541  0.51400705  1
  O2-  O281  1  0.95115734  0.57311093  0.23504385  1
  O2-  O282  1  0.54958783  0.43066871  0.51631255  1
  O2-  O283  1  0.46173478  0.89121689  0.28053822  1
  O2-  O284  1  0.04820206  0.56949837  0.23656638  1
  O2-  O285  1  0.95130618  0.90174695  0.01426273  1
  O2-  O286  1  0.45188648  0.76557088  0.48140788  1
  O2-  O287  1  0.45401905  0.43168737  0.26302656  1
  O2-  O288  1  0.04153695  0.22365163  0.02987278  1
  O2-  O289  1  0.95191301  0.23596359  0.48754438  1
  O2-  O290  1  0.04905501  0.90031990  0.48468495  1
  O2-  O291  1  0.95439919  0.43261984  0.97030173  1
  O2-  O292  1  0.54653326  0.23542520  0.26347311  1
  O2-  O293  1  0.45101185  0.09660127  0.48049054  1
  O2-  O294  1  0.45478766  0.42920108  0.01187378  1
  O2-  O295  1  0.54957726  0.56771976  0.23693742  1
  O2-  O296  1  0.04882821  0.43034636  0.00900781  1
  O2-  O297  1  0.45511336  0.90515387  0.48541832  1
  O2-  O298  1  0.95145258  0.90043779  0.48580261  1
  O2-  O299  1  0.45392754  0.56929173  0.01075812  1
  O2-  O300  1  0.03698325  0.44720939  0.53516755  1
  O2-  O301  1  0.04850181  0.43026886  0.98993580  1
  O2-  O302  1  0.04588664  0.43646727  0.27672817  1
  O2-  O303  1  0.95302838  0.90190862  0.23452727  1
  O2-  O304  1  0.04447389  0.76301654  0.00965534  1
  O2-  O305  1  0.04650192  0.09467074  0.26315297  1
  O2-  O306  1  0.04577242  0.09630746  0.51327797  1
  O2-  O307  1  0.95298245  0.23407755  0.98194456  1
  O2-  O308  1  0.47612045  0.78886564  0.72790470  1
  O2-  O309  1  0.95791254  0.43516203  0.23750602  1
  O2-  O310  1  0.45255456  0.23383721  0.01968848  1
  O2-  O311  1  0.95100161  0.43168852  0.76837473  1
  O2-  O312  1  0.96195330  0.55654856  0.00716301  1
  O2-  O313  1  0.44928672  0.09705372  0.51973463  1
  O2-  O314  1  0.95435408  0.23505119  0.73759273  1
  O2-  O315  1  0.45354832  0.23611052  0.98095584  1
  O2-  O316  1  0.54117458  0.11208840  0.49519987  1
  O2-  O317  1  0.45611542  0.76192371  0.51973046  1
  O2-  O318  1  0.05073870  0.57492908  0.01223731  1
  O2-  O319  1  0.54519124  0.23863216  0.48460376  1
  O2-  O320  1  0.95784344  0.43497457  0.23738144  1
  O2-  O321  1  0.04879630  0.23676708  0.51275874  1
  O2-  O322  1  0.55008166  0.57292143  0.73323511  1
  O2-  O323  1  0.54585661  0.57055883  0.48576474  1
  O2-  O324  1  0.56462560  0.26327471  0.95103050  1
  O2-  O325  1  0.93640855  0.92806604  0.02760308  1
  O2-  O326  1  0.56426854  0.06994266  0.19853762  1
  O2-  O327  1  0.43733481  0.06921840  0.71650482  1
  O2-  O328  1  0.43042721  0.72993771  0.82182945  1
  O2-  O329  1  0.43432995  0.07057549  0.02706405  1
  O2-  O330  1  0.43359571  0.25857439  0.44671405  1
  O2-  O331  1  0.06427628  0.07644611  0.52843076  1
  O2-  O332  1  0.93394209  0.07215465  0.72279577  1
  O2-  O333  1  0.93614395  0.73548958  0.43816605  1
  O2-  O334  1  0.93528680  0.40334166  0.56320622  1
  O2-  O335  1  0.56148579  0.40323034  0.53409482  1
  O2-  O336  1  0.93640313  0.92647257  0.22173550  1
  O2-  O337  1  0.07334279  0.39886935  0.20678550  1
  O2-  O338  1  0.06513386  0.25953166  0.27748545  1
  O2-  O339  1  0.56364593  0.40199673  0.81259752  1
  O2-  O340  1  0.92696267  0.61417994  0.03966085  1
  O2-  O341  1  0.07096529  0.27685825  0.94423924  1
  O2-  O342  1  0.06370696  0.06917890  0.03204090  1
  O2-  O343  1  0.56597703  0.07287868  0.29623187  1
  O2-  O344  1  0.93660917  0.73666484  0.21679296  1
  O2-  O345  1  0.93717533  0.73881857  0.56180548  1
  O2-  O346  1  0.56417374  0.40261294  0.68704903  1
  O2-  O347  1  0.43348924  0.25999789  0.27890269  1
  O2-  O348  1  0.07641742  0.39578764  0.45348601  1
  O2-  O349  1  0.93179335  0.39447359  0.04379328  1
  O2-  O350  1  0.92248794  0.39112344  0.29252836  1
  O2-  O351  1  0.06324729  0.92962461  0.96841883  1
  O2-  O352  1  0.56288292  0.26150025  0.71645709  1
  O2-  O353  1  0.93787174  0.40281348  0.78065085  1
  O2-  O354  1  0.93664774  0.59452873  0.53302662  1
  O2-  O355  1  0.56632403  0.73993197  0.47045440  1
  O2-  O356  1  0.93255879  0.40894512  0.44531699  1
  O2-  O357  1  0.56178951  0.59333759  0.21684120  1
  O2-  O358  1  0.57703739  0.05436751  0.46538264  1
  O2-  O359  1  0.43508728  0.74032676  0.22101765  1
  O2-  O360  1  0.56721721  0.60039530  0.77970645  1
  O2-  O361  1  0.56323639  0.07123929  0.96836522  1
  O2-  O362  1  0.42654405  0.71585376  0.68425993  1
  O2-  O363  1  0.42541211  0.93878096  0.20382824  1
  O2-  O364  1  0.56351120  0.92939391  0.71865332  1
  O2-  O365  1  0.56299195  0.92700246  0.96781409  1
  O2-  O366  1  0.56279149  0.07229060  0.71619767  1
  O2-  O367  1  0.56615837  0.26017034  0.04295106  1
  O2-  O368  1  0.43526636  0.59197507  0.78433392  1
  O2-  O369  1  0.43554410  0.59466077  0.27744542  1
  O2-  O370  1  0.56349616  0.73941135  0.21567240  1
  O2-  O371  1  0.43579015  0.26351143  0.55925222  1
  O2-  O372  1  0.74981729  0.67551914  0.38841986  1
  O2-  O373  1  0.74967306  0.66526772  0.66634788  1
  O2-  O374  1  0.75024056  -0.00564283  0.82242830  1
  O2-  O375  1  0.25005635  0.66680548  0.42057368  1
  O2-  O376  1  0.74966696  0.68838906  0.57900881  1
  O2-  O377  1  0.75023273  0.33391724  0.09342855  1
  O2-  O378  1  0.75005107  0.00700002  0.10493425  1
  O2-  O379  1  0.24995632  0.00227536  0.92194949  1
  O2-  O380  1  0.25008785  0.66424446  0.09330069  1
  O2-  O381  1  0.24975571  -0.00249540  0.83170380  1
  O2-  O382  1  0.75010977  -0.00241439  0.59530937  1
  O2-  O383  1  0.24995428  0.33052560  0.84014398  1
  O2-  O384  1  0.74982498  0.67307748  0.86337614  1
  O2-  O385  1  0.24968585  0.66175775  0.90605340  1
  O2-  O386  1  0.25001955  0.33581365  0.39762970  1
  O2-  O387  1  0.25011088  0.66649863  0.32952050  1
  O2-  O388  1  0.75032742  0.32461672  0.86071639  1
  O2-  O389  1  0.25001616  0.00014429  0.40340805  1
  O2-  O390  1  0.75014388  0.32845765  0.64615938  1
  O2-  O391  1  0.75029483  0.01581471  0.91005782  1
  O2-  O392  1  0.74983882  0.33264857  0.32305517  1
  O2-  O393  1  0.25015858  -0.00401877  0.64909665  1
  O2-  O394  1  0.24973937  0.66400160  0.64970038  1
  O2-  O395  1  0.74983867  0.32037592  0.41172280  1
  O2-  O396  1  0.74996676  0.83124326  0.41883460  1
  O2-  O397  1  0.74981616  0.83259269  0.14883344  1
  O2-  O398  1  0.74990443  0.50533168  0.15915215  1
  O2-  O399  1  0.75001681  0.50390610  0.34018795  1
  O2-  O400  1  0.74994908  0.16709667  0.91858532  1
  O2-  O401  1  0.25005757  0.49272812  0.11368829  1
  O2-  O402  1  0.25000631  0.84543428  0.40833541  1
  O2-  O403  1  0.75018038  0.49877435  0.93056697  1
  O2-  O404  1  0.75006616  0.16953512  0.57665990  1
  O2-  O405  1  0.74975777  0.50045661  0.83942939  1
  O2-  O406  1  0.74974840  0.83807603  0.90284346  1
  O2-  O407  1  0.24993720  0.83190794  0.32618496  1
  O2-  O408  1  0.24992408  0.50128635  0.66891211  1
  O2-  O409  1  0.24989920  0.50249540  0.42042330  1
  O2-  O410  1  0.74990446  0.83681568  0.33055224  1
  O2-  O411  1  0.24994646  0.16517449  0.11402025  1
  O2-  O412  1  0.24992650  0.83571482  0.91228762  1
  O2-  O413  1  0.75003792  0.16605233  0.83461384  1
  O2-  O414  1  0.25001186  0.16889652  0.83389328  1
  O2-  O415  1  0.24983339  0.16523726  0.40308884  1
  O2-  O416  1  0.74985442  0.83096370  0.82346881  1
  O2-  O417  1  0.75013098  0.16515199  0.66538422  1
  O2-  O418  1  0.24991267  0.84130758  0.62773755  1
  O2-  O419  1  0.25007968  0.48831083  0.34079797  1
  O2-  O420  1  0.53446454  0.34023563  0.13047803  1
  O2-  O421  1  0.03625346  -0.00486861  0.63294208  1
  O2-  O422  1  0.47163274  0.33500340  0.87350463  1
  O2-  O423  1  0.47438337  0.66564125  0.12190824  1
  O2-  O424  1  0.97217181  0.66809778  0.87528690  1
  O2-  O425  1  0.97265790  0.00076169  0.87503309  1
  O2-  O426  1  0.46298602  0.33321553  0.12864173  1
  O2-  O427  1  0.47825157  -0.00151143  0.12103000  1
  O2-  O428  1  0.02495039  0.32578653  0.12554398  1
  O2-  O429  1  0.96404233  -0.00310858  0.62027647  1
  O2-  O430  1  0.52630517  0.67146918  0.88170599  1
  O2-  O431  1  0.02929879  0.33182247  0.62791290  1
  O2-  O432  1  0.52833291  0.66816867  0.62323346  1
  O2-  O433  1  0.52305801  -0.00968061  0.37431400  1
  O2-  O434  1  0.46855601  0.66884464  0.38228923  1
  O2-  O435  1  0.03073608  0.33080559  0.37313077  1
  O2-  O436  1  0.53090287  0.66459234  0.36540948  1
  O2-  O437  1  0.47784361  0.34103691  0.37249931  1
  O2-  O438  1  0.02827814  0.66712533  0.37513517  1
  O2-  O439  1  0.96949162  0.32135699  0.37276717  1
  O2-  O440  1  0.97662392  0.00871093  0.12508315  1
  O2-  O441  1  0.97276701  0.00132733  0.37392522  1
  O2-  O442  1  0.02691054  0.67010731  0.12756875  1
  O2-  O443  1  0.47261195  -0.00008516  0.87674773  1
