# generated using pymatgen
data_La7(Ru4O11)2
_symmetry_space_group_name_H-M   'P 1'
_cell_length_a   23.98979913
_cell_length_b   16.83007130
_cell_length_c   15.42611058
_cell_angle_alpha   90.00003755
_cell_angle_beta   90.00027365
_cell_angle_gamma   89.99980340
_symmetry_Int_Tables_number   1
_chemical_formula_structural   La7(Ru4O11)2
_chemical_formula_sum   'La84 Ru96 O264'
_cell_volume   6228.29260662
_cell_formula_units_Z   12
loop_
 _symmetry_equiv_pos_site_id
 _symmetry_equiv_pos_as_xyz
  1  'x, y, z'
loop_
 _atom_type_symbol
 _atom_type_oxidation_number
  La3+  3.0
  Ru4+  4.0
  O2-  -2.0
loop_
 _atom_site_type_symbol
 _atom_site_label
 _atom_site_symmetry_multiplicity
 _atom_site_fract_x
 _atom_site_fract_y
 _atom_site_fract_z
 _atom_site_occupancy
  La3+  La0  1  0.13704524  0.00056188  0.12088385  1
  La3+  La1  1  0.13802062  0.00041386  0.37661511  1
  La3+  La2  1  0.14156986  0.00133170  0.62897633  1
  La3+  La3  1  0.14217918  0.00192240  0.87196093  1
  La3+  La4  1  0.13803718  0.33426724  0.12449136  1
  La3+  La5  1  0.13845467  0.33167359  0.37816198  1
  La3+  La6  1  0.14152892  0.33280757  0.62269800  1
  La3+  La7  1  0.14030974  0.33290078  0.87287140  1
  La3+  La8  1  0.13593139  0.66790674  0.12457785  1
  La3+  La9  1  0.13781407  0.66595741  0.37713232  1
  La3+  La10  1  0.13738258  0.66554404  0.62463067  1
  La3+  La11  1  0.13852345  0.66800329  0.87344747  1
  La3+  La12  1  0.64026321  -0.00031395  0.12239849  1
  La3+  La13  1  0.63962000  -0.00146548  0.37815512  1
  La3+  La14  1  0.63772775  -0.00082732  0.62370150  1
  La3+  La15  1  0.64078143  0.00051015  0.87666232  1
  La3+  La16  1  0.63744722  0.33349745  0.12588830  1
  La3+  La17  1  0.63578426  0.33495467  0.37612797  1
  La3+  La18  1  0.63847132  0.33455923  0.62468269  1
  La3+  La19  1  0.63942809  0.33283036  0.87349068  1
  La3+  La20  1  0.63900170  0.66666261  0.12476330  1
  La3+  La21  1  0.64149416  0.66431351  0.37709036  1
  La3+  La22  1  0.64027014  0.66710745  0.62660846  1
  La3+  La23  1  0.63912661  0.66654407  0.87351826  1
  La3+  La24  1  0.36336729  -0.00020633  0.12380967  1
  La3+  La25  1  0.36313805  -0.00082441  0.37638481  1
  La3+  La26  1  0.35891928  -0.00055967  0.62765543  1
  La3+  La27  1  0.35752969  0.00053054  0.87179665  1
  La3+  La28  1  0.36122092  0.33614695  0.12399269  1
  La3+  La29  1  0.36242011  0.33446609  0.37845919  1
  La3+  La30  1  0.36022534  0.33280121  0.62263664  1
  La3+  La31  1  0.36086313  0.33293909  0.87343533  1
  La3+  La32  1  0.36352916  0.66606881  0.12344018  1
  La3+  La33  1  0.36160618  0.66552410  0.37847939  1
  La3+  La34  1  0.36160134  0.66742926  0.62450907  1
  La3+  La35  1  0.36158549  0.66597663  0.87569232  1
  La3+  La36  1  0.86002107  -0.00025840  0.12265878  1
  La3+  La37  1  0.86063509  -0.00096344  0.37693505  1
  La3+  La38  1  0.86254820  0.00015142  0.62555465  1
  La3+  La39  1  0.86035566  -0.00046115  0.87587440  1
  La3+  La40  1  0.86204396  0.33450071  0.12578523  1
  La3+  La41  1  0.86195851  0.33437122  0.37502685  1
  La3+  La42  1  0.86088078  0.33379888  0.62693218  1
  La3+  La43  1  0.86149060  0.33263565  0.87331542  1
  La3+  La44  1  0.86060568  0.66699379  0.12633542  1
  La3+  La45  1  0.85830888  0.66623874  0.37381710  1
  La3+  La46  1  0.85908709  0.66596357  0.62795907  1
  La3+  La47  1  0.85830660  0.66704840  0.87290062  1
  La3+  La48  1  -0.00098716  0.50100431  0.88380150  1
  La3+  La49  1  0.00434818  0.17041391  0.11440605  1
  La3+  La50  1  -0.00024197  0.50013774  0.13339452  1
  La3+  La51  1  -0.00047442  0.50033054  0.86234117  1
  La3+  La52  1  0.50028094  0.50049871  0.88457083  1
  La3+  La53  1  0.50036688  0.50099395  0.37069166  1
  La3+  La54  1  -0.00021093  0.49916867  0.38391626  1
  La3+  La55  1  -0.00037523  0.16550356  0.13477762  1
  La3+  La56  1  0.50209912  0.83094717  0.88333361  1
  La3+  La57  1  -0.00116352  0.83571334  0.38605337  1
  La3+  La58  1  0.50085110  0.50203629  0.11588849  1
  La3+  La59  1  0.50099440  0.16692868  0.63622689  1
  La3+  La60  1  -0.00134645  0.15935138  0.86580306  1
  La3+  La61  1  0.49919973  0.83427284  0.13298571  1
  La3+  La62  1  0.50311559  0.16161074  0.37078820  1
  La3+  La63  1  0.49937287  0.49669045  0.63380353  1
  La3+  La64  1  0.00191814  0.82969921  0.11844381  1
  La3+  La65  1  0.00105915  0.82893245  0.61886103  1
  La3+  La66  1  -0.00057072  0.82515939  0.36692455  1
  La3+  La67  1  0.50060309  0.50549027  0.61353155  1
  La3+  La68  1  -0.00122875  0.50186673  0.36215263  1
  La3+  La69  1  -0.00003847  0.83493232  0.63413602  1
  La3+  La70  1  0.50037229  0.16610131  0.86418944  1
  La3+  La71  1  0.49938842  0.83222861  0.86115465  1
  La3+  La72  1  0.25027039  0.82676759  0.25252431  1
  La3+  La73  1  0.74987539  0.50272400  -0.03061697  1
  La3+  La74  1  0.25009860  0.46344111  0.24394278  1
  La3+  La75  1  0.74987578  0.13597902  0.49696804  1
  La3+  La76  1  0.74987839  0.83275017  0.50634391  1
  La3+  La77  1  0.75033325  0.16201841  0.24625005  1
  La3+  La78  1  0.25004837  0.17691293  0.19738784  1
  La3+  La79  1  0.75016853  0.16776481  0.71949472  1
  La3+  La80  1  0.25002890  0.49972147  0.75901955  1
  La3+  La81  1  0.74991599  0.83016466  0.26654930  1
  La3+  La82  1  0.24999804  0.13500949  -0.00927021  1
  La3+  La83  1  0.24982775  0.49752567  0.45095699  1
  Ru4+  Ru84  1  -0.00100460  -0.00037746  0.00302721  1
  Ru4+  Ru85  1  -0.00118255  0.00273603  0.25094737  1
  Ru4+  Ru86  1  -0.00198641  0.00288522  0.50002515  1
  Ru4+  Ru87  1  -0.00191879  0.00153591  0.74915005  1
  Ru4+  Ru88  1  -0.00004392  0.33488010  -0.00106562  1
  Ru4+  Ru89  1  -0.00436136  0.33746873  0.24956716  1
  Ru4+  Ru90  1  0.00327551  0.33354874  0.50258190  1
  Ru4+  Ru91  1  -0.00107044  0.33432282  0.74975061  1
  Ru4+  Ru92  1  -0.00010841  0.66694458  -0.00087078  1
  Ru4+  Ru93  1  -0.00335787  0.66237264  0.24933530  1
  Ru4+  Ru94  1  -0.00524760  0.66878545  0.50071659  1
  Ru4+  Ru95  1  -0.00207871  0.66320420  0.74962849  1
  Ru4+  Ru96  1  0.49961922  0.00296356  0.00076288  1
  Ru4+  Ru97  1  0.49847527  -0.00104467  0.25264983  1
  Ru4+  Ru98  1  0.50115632  -0.00505039  0.49649275  1
  Ru4+  Ru99  1  0.50022593  0.00083555  0.74944514  1
  Ru4+  Ru100  1  0.50112340  0.33752132  -0.00380109  1
  Ru4+  Ru101  1  0.50566816  0.33075150  0.25338159  1
  Ru4+  Ru102  1  0.50325806  0.32669600  0.49869869  1
  Ru4+  Ru103  1  0.49818704  0.33151635  0.75203532  1
  Ru4+  Ru104  1  0.49863180  0.66978175  -0.00526140  1
  Ru4+  Ru105  1  0.49947068  0.66460238  0.25120916  1
  Ru4+  Ru106  1  0.49680666  0.67401615  0.49953330  1
  Ru4+  Ru107  1  0.50222049  0.66788341  0.74872914  1
  Ru4+  Ru108  1  0.11494547  0.17030571  -0.00066765  1
  Ru4+  Ru109  1  0.11355897  0.16311664  0.25110839  1
  Ru4+  Ru110  1  0.11339391  0.17063327  0.50080282  1
  Ru4+  Ru111  1  0.11532227  0.16506160  0.74850232  1
  Ru4+  Ru112  1  0.11355581  0.49962968  -0.00014497  1
  Ru4+  Ru113  1  0.11156118  0.49992809  0.24860069  1
  Ru4+  Ru114  1  0.11436292  0.49497950  0.50179177  1
  Ru4+  Ru115  1  0.11126512  0.49971519  0.75129379  1
  Ru4+  Ru116  1  0.11427431  0.83190826  0.00009635  1
  Ru4+  Ru117  1  0.11497989  0.83611761  0.24809343  1
  Ru4+  Ru118  1  0.11476908  0.83714637  0.50071862  1
  Ru4+  Ru119  1  0.11515494  0.83528674  0.75098189  1
  Ru4+  Ru120  1  0.61371746  0.16402836  -0.00053972  1
  Ru4+  Ru121  1  0.61071864  0.16903999  0.24959171  1
  Ru4+  Ru122  1  0.61109795  0.16561938  0.50001446  1
  Ru4+  Ru123  1  0.61102089  0.16645381  0.74984782  1
  Ru4+  Ru124  1  0.61409459  0.49540303  0.00051581  1
  Ru4+  Ru125  1  0.61410455  0.50238726  0.24944325  1
  Ru4+  Ru126  1  0.61810546  0.50060041  0.49913799  1
  Ru4+  Ru127  1  0.61465312  0.50397465  0.75087384  1
  Ru4+  Ru128  1  0.61532563  0.83294062  0.00081694  1
  Ru4+  Ru129  1  0.61356011  0.83456309  0.25096814  1
  Ru4+  Ru130  1  0.61203986  0.83538801  0.49973495  1
  Ru4+  Ru131  1  0.61320211  0.83001917  0.74821493  1
  Ru4+  Ru132  1  0.38819522  0.16471405  0.00058244  1
  Ru4+  Ru133  1  0.38807438  0.16461440  0.24880349  1
  Ru4+  Ru134  1  0.38321185  0.16481987  0.49986791  1
  Ru4+  Ru135  1  0.38496085  0.16666261  0.75028258  1
  Ru4+  Ru136  1  0.38495273  0.49827819  0.00040844  1
  Ru4+  Ru137  1  0.38651920  0.50328054  0.24961165  1
  Ru4+  Ru138  1  0.38493244  0.50302987  0.49945613  1
  Ru4+  Ru139  1  0.38847368  0.49996780  0.75027639  1
  Ru4+  Ru140  1  0.38623839  0.83272610  -0.00003096  1
  Ru4+  Ru141  1  0.38793500  0.83486807  0.24974490  1
  Ru4+  Ru142  1  0.39074871  0.83400561  0.50116462  1
  Ru4+  Ru143  1  0.38624794  0.83544081  0.75001438  1
  Ru4+  Ru144  1  0.88490674  0.16508615  -0.00067170  1
  Ru4+  Ru145  1  0.88838505  0.16777950  0.25061615  1
  Ru4+  Ru146  1  0.89008643  0.16358495  0.50020240  1
  Ru4+  Ru147  1  0.88802690  0.16577881  0.75029188  1
  Ru4+  Ru148  1  0.88917542  0.49827920  0.00046033  1
  Ru4+  Ru149  1  0.88731240  0.50209180  0.24932695  1
  Ru4+  Ru150  1  0.88606127  0.50128874  0.50032285  1
  Ru4+  Ru151  1  0.88674334  0.50324663  0.74877092  1
  Ru4+  Ru152  1  0.88122622  0.83001126  0.00037598  1
  Ru4+  Ru153  1  0.88679360  0.83214596  0.24902655  1
  Ru4+  Ru154  1  0.88647217  0.83487572  0.50108501  1
  Ru4+  Ru155  1  0.88522621  0.83340842  0.75133727  1
  Ru4+  Ru156  1  0.75002025  0.37680950  0.01521642  1
  Ru4+  Ru157  1  0.25024743  0.70614881  0.24918267  1
  Ru4+  Ru158  1  0.74982893  0.24236679  0.00397989  1
  Ru4+  Ru159  1  0.74986539  0.29174399  0.24956767  1
  Ru4+  Ru160  1  0.24989852  0.75425096  0.00154486  1
  Ru4+  Ru161  1  0.75013770  0.63312414  -0.00824332  1
  Ru4+  Ru162  1  0.25007045  0.07932305  0.50755849  1
  Ru4+  Ru163  1  0.25024822  0.27202831  -0.00451684  1
  Ru4+  Ru164  1  0.24987096  0.58693442  0.24935611  1
  Ru4+  Ru165  1  0.25006115  0.75319583  0.74932595  1
  Ru4+  Ru166  1  0.24989384  0.58363610  0.01020867  1
  Ru4+  Ru167  1  0.24994219  0.75231877  0.49866856  1
  Ru4+  Ru168  1  0.75004902  0.41836972  0.49944363  1
  Ru4+  Ru169  1  0.25003249  0.94561067  0.23406873  1
  Ru4+  Ru170  1  0.74985809  0.27602491  0.50200821  1
  Ru4+  Ru171  1  0.25001987  0.29714499  0.23688164  1
  Ru4+  Ru172  1  0.75012449  0.42083327  0.75065902  1
  Ru4+  Ru173  1  0.25000153  0.06560157  0.25599825  1
  Ru4+  Ru174  1  0.74997429  0.03271579  0.26964877  1
  Ru4+  Ru175  1  0.75014430  0.42849408  0.24665323  1
  Ru4+  Ru176  1  0.24967993  0.91466744  -0.00492044  1
  Ru4+  Ru177  1  0.75004936  0.58529935  0.50006710  1
  Ru4+  Ru178  1  0.25020362  0.91823180  0.50299923  1
  Ru4+  Ru179  1  0.75024559  0.91277988  0.74754719  1
  O2-  O180  1  0.16745360  0.07961969  0.00155511  1
  O2-  O181  1  0.16495511  0.07918774  0.24994363  1
  O2-  O182  1  0.16651333  0.08027204  0.49852051  1
  O2-  O183  1  0.16599408  0.08420514  0.75009488  1
  O2-  O184  1  0.16569018  0.41471371  -0.00033390  1
  O2-  O185  1  0.16717271  0.41155513  0.24979156  1
  O2-  O186  1  0.16806708  0.41647985  0.49848137  1
  O2-  O187  1  0.16732402  0.41328630  0.75115370  1
  O2-  O188  1  0.16739897  0.74781328  0.00117687  1
  O2-  O189  1  0.16468354  0.74568290  0.25057418  1
  O2-  O190  1  0.16782813  0.74604530  0.50002952  1
  O2-  O191  1  0.16771546  0.74746718  0.74914473  1
  O2-  O192  1  0.66478437  0.08300309  -0.00031633  1
  O2-  O193  1  0.66654684  0.07965706  0.24968072  1
  O2-  O194  1  0.66798411  0.08039251  0.50257802  1
  O2-  O195  1  0.66780351  0.07968018  0.74872128  1
  O2-  O196  1  0.66586756  0.41265640  0.00045162  1
  O2-  O197  1  0.66773189  0.41406245  0.25032599  1
  O2-  O198  1  0.66756461  0.41416676  0.49990579  1
  O2-  O199  1  0.66672396  0.41334267  0.74972546  1
  O2-  O200  1  0.66759156  0.74826248  0.00024148  1
  O2-  O201  1  0.66728922  0.74864306  0.24800987  1
  O2-  O202  1  0.66591951  0.74748904  0.50035294  1
  O2-  O203  1  0.66673432  0.75023957  0.75045165  1
  O2-  O204  1  0.33248904  0.25341445  -0.00010377  1
  O2-  O205  1  0.33280625  0.25501885  0.25044792  1
  O2-  O206  1  0.33428312  0.25076994  0.49950139  1
  O2-  O207  1  0.33285097  0.25228746  0.74962102  1
  O2-  O208  1  0.33206783  0.58656959  0.00023633  1
  O2-  O209  1  0.33430058  0.58621263  0.24946326  1
  O2-  O210  1  0.33210321  0.58619206  0.50137234  1
  O2-  O211  1  0.33307374  0.58748097  0.74853728  1
  O2-  O212  1  0.33252639  0.91993717  0.00161190  1
  O2-  O213  1  0.33513116  0.92049893  0.24927214  1
  O2-  O214  1  0.33216474  0.91882713  0.49927439  1
  O2-  O215  1  0.33485676  0.91745433  0.75059108  1
  O2-  O216  1  0.83258184  0.25301463  -0.00050748  1
  O2-  O217  1  0.83509974  0.25423553  0.25057560  1
  O2-  O218  1  0.83236994  0.25304814  0.49996664  1
  O2-  O219  1  0.83292017  0.25284271  0.75011493  1
  O2-  O220  1  0.83333940  0.58787469  0.00000858  1
  O2-  O221  1  0.83412288  0.58491057  0.24905910  1
  O2-  O222  1  0.83111404  0.58516943  0.50008924  1
  O2-  O223  1  0.83350454  0.58349714  0.75058123  1
  O2-  O224  1  0.83217449  0.91763344  -0.00050716  1
  O2-  O225  1  0.83268854  0.92032993  0.25065466  1
  O2-  O226  1  0.83393545  0.92012436  0.50085440  1
  O2-  O227  1  0.83139126  0.91804494  0.74842725  1
  O2-  O228  1  0.16626630  0.25352135  0.00052105  1
  O2-  O229  1  0.16636919  0.25484182  0.24964878  1
  O2-  O230  1  0.16665961  0.24962337  0.49918730  1
  O2-  O231  1  0.16681946  0.25189398  0.75164517  1
  O2-  O232  1  0.16671391  0.58650338  0.00022014  1
  O2-  O233  1  0.16538803  0.58723195  0.25055547  1
  O2-  O234  1  0.16751766  0.58635187  0.50008117  1
  O2-  O235  1  0.16697164  0.58735674  0.74874160  1
  O2-  O236  1  0.16886424  0.91919130  0.00139060  1
  O2-  O237  1  0.16539549  0.92078771  0.25135702  1
  O2-  O238  1  0.16783089  0.91902886  0.49845227  1
  O2-  O239  1  0.16659512  0.91645282  0.74965236  1
  O2-  O240  1  0.66735512  0.25356485  -0.00002844  1
  O2-  O241  1  0.66570533  0.25349233  0.25095448  1
  O2-  O242  1  0.66697169  0.25375533  0.50017394  1
  O2-  O243  1  0.66743854  0.25367608  0.75013828  1
  O2-  O244  1  0.66703670  0.58787104  -0.00002915  1
  O2-  O245  1  0.66595766  0.58383434  0.24871557  1
  O2-  O246  1  0.66799085  0.58550167  0.49969787  1
  O2-  O247  1  0.66662216  0.58338927  0.74911167  1
  O2-  O248  1  0.66602052  0.91828447  -0.00003295  1
  O2-  O249  1  0.66807291  0.91910232  0.24936038  1
  O2-  O250  1  0.66730097  0.91896241  0.50206506  1
  O2-  O251  1  0.66777354  0.91925115  0.74950837  1
  O2-  O252  1  0.33413941  0.07979500  0.00094432  1
  O2-  O253  1  0.33575655  0.07992768  0.24938301  1
  O2-  O254  1  0.33203580  0.08094497  0.50006252  1
  O2-  O255  1  0.33565960  0.08225131  0.74996294  1
  O2-  O256  1  0.33474299  0.41553713  -0.00061296  1
  O2-  O257  1  0.33365911  0.41292448  0.25068617  1
  O2-  O258  1  0.33233320  0.41548101  0.49882133  1
  O2-  O259  1  0.33268465  0.41302114  0.75010460  1
  O2-  O260  1  0.33202181  0.74755490  0.00134118  1
  O2-  O261  1  0.33393142  0.74585382  0.24963615  1
  O2-  O262  1  0.33303475  0.74828822  0.50044332  1
  O2-  O263  1  0.33287826  0.74657192  0.74952687  1
  O2-  O264  1  0.83434113  0.08239280  -0.00004053  1
  O2-  O265  1  0.83411912  0.07896463  0.25093269  1
  O2-  O266  1  0.83401337  0.08086783  0.50121816  1
  O2-  O267  1  0.83107589  0.08078732  0.74822706  1
  O2-  O268  1  0.83395102  0.41252767  -0.00002787  1
  O2-  O269  1  0.83224854  0.41363686  0.24999098  1
  O2-  O270  1  0.83251315  0.41393843  0.49991215  1
  O2-  O271  1  0.83260751  0.41374334  0.75091444  1
  O2-  O272  1  0.83397258  0.74745113  -0.00033567  1
  O2-  O273  1  0.83365875  0.74757861  0.24866567  1
  O2-  O274  1  0.83315203  0.74622301  0.49965312  1
  O2-  O275  1  0.83304284  0.75017899  0.74927605  1
  O2-  O276  1  0.44858716  0.43093402  0.26545349  1
  O2-  O277  1  0.45462232  0.43041560  0.01366142  1
  O2-  O278  1  0.45135488  0.43140158  0.51309291  1
  O2-  O279  1  0.04318152  0.88318363  0.99347291  1
  O2-  O280  1  0.45467615  0.76076424  0.51600268  1
  O2-  O281  1  0.95098641  0.90136030  0.26080892  1
  O2-  O282  1  0.95514466  0.56648885  0.01408420  1
  O2-  O283  1  0.95257347  0.09657084  0.24092381  1
  O2-  O284  1  0.45168783  0.90295317  0.98662385  1
  O2-  O285  1  0.53917650  0.10622240  0.22135368  1
  O2-  O286  1  0.95285480  0.42869819  0.48829904  1
  O2-  O287  1  0.03999321  0.22817265  0.77666344  1
  O2-  O288  1  0.95376238  0.09626215  0.51371109  1
  O2-  O289  1  0.95640666  0.89293523  0.99142316  1
  O2-  O290  1  0.54542407  0.43043049  0.76398579  1
  O2-  O291  1  0.45575934  0.56786392  0.23505701  1
  O2-  O292  1  0.44887232  0.57710848  0.98067036  1
  O2-  O293  1  0.95208712  0.09648269  0.01274672  1
  O2-  O294  1  0.45449178  0.23710964  0.51822495  1
  O2-  O295  1  0.54544576  0.89964159  0.73618475  1
  O2-  O296  1  0.45267389  0.90208573  0.51455322  1
  O2-  O297  1  0.04190959  0.89465291  0.27953236  1
  O2-  O298  1  0.54947630  0.42921645  0.51471901  1
  O2-  O299  1  0.54156113  0.78161124  0.25697031  1
  O2-  O300  1  0.45916734  0.22759585  0.27487488  1
  O2-  O301  1  0.04716689  0.76459118  0.49334362  1
  O2-  O302  1  0.45502633  0.23661961  0.47882748  1
  O2-  O303  1  0.54693341  0.90130712  0.01629540  1
  O2-  O304  1  0.04641646  0.76559138  0.51264844  1
  O2-  O305  1  0.96305773  0.78431066  0.75535001  1
  O2-  O306  1  0.04435431  0.56815151  0.52067503  1
  O2-  O307  1  0.04412357  0.23267275  0.26950058  1
  O2-  O308  1  0.04939344  0.57120555  0.48221653  1
  O2-  O309  1  0.04641463  0.76304674  0.23196453  1
  O2-  O310  1  0.96266630  0.22408750  0.96514072  1
  O2-  O311  1  0.54670681  0.43265034  0.26239314  1
  O2-  O312  1  0.04743431  0.23850134  0.23123110  1
  O2-  O313  1  0.95068760  0.76495261  0.48916890  1
  O2-  O314  1  0.95909271  0.23105550  0.52643983  1
  O2-  O315  1  0.04634040  0.09724053  0.98459512  1
  O2-  O316  1  0.45967265  0.22279185  0.97321538  1
  O2-  O317  1  0.04512591  0.43111461  0.98702572  1
  O2-  O318  1  0.05192214  0.75690508  0.76886759  1
  O2-  O319  1  0.54964601  0.56681725  0.98722518  1
  O2-  O320  1  0.54691918  0.56969774  0.48247952  1
  O2-  O321  1  0.45859918  0.78350007  0.25759133  1
  O2-  O322  1  0.95659400  0.89279937  -0.00825412  1
  O2-  O323  1  0.46171340  0.10623288  0.53031275  1
  O2-  O324  1  0.06288548  0.40291767  0.53142764  1
  O2-  O325  1  0.07178608  0.94448860  0.19451934  1
  O2-  O326  1  0.56480752  0.74005573  0.72237479  1
  O2-  O327  1  0.57354475  0.71821831  0.29153064  1
  O2-  O328  1  0.93546943  0.59221350  0.72188962  1
  O2-  O329  1  0.06180139  0.73731455  0.21818676  1
  O2-  O330  1  0.06377602  0.40352806  0.18669022  1
  O2-  O331  1  0.06484259  0.40212063  0.31270632  1
  O2-  O332  1  0.06627841  0.92470554  0.80075099  1
  O2-  O333  1  0.06369151  0.73497063  0.03196350  1
  O2-  O334  1  0.93264801  0.27136317  0.45668809  1
  O2-  O335  1  0.92376656  0.94437510  0.04191076  1
  O2-  O336  1  0.56446458  0.73999613  0.97176694  1
  O2-  O337  1  0.92376301  0.72429459  0.78647514  1
  O2-  O338  1  0.93548455  0.07378680  0.77850890  1
  O2-  O339  1  0.56619821  0.26220917  0.22148260  1
  O2-  O340  1  0.56362779  0.92722861  0.30404905  1
  O2-  O341  1  0.56353999  0.07257628  0.46708965  1
  O2-  O342  1  0.06915307  0.27414875  0.70261463  1
  O2-  O343  1  0.42753140  0.06304867  0.45623514  1
  O2-  O344  1  0.06369048  0.26201020  0.53152668  1
  O2-  O345  1  0.06343465  0.92702721  0.69154325  1
  O2-  O346  1  0.56340657  0.59375483  0.97226987  1
  O2-  O347  1  0.42362496  0.72158715  0.28599212  1
  O2-  O348  1  0.43856932  0.40247702  0.28416354  1
  O2-  O349  1  0.92808947  0.27874654  0.05337617  1
  O2-  O350  1  0.93442303  0.59429573  0.47102422  1
  O2-  O351  1  0.43955933  0.58899173  0.97242504  1
  O2-  O352  1  0.56199520  0.59521572  0.46817533  1
  O2-  O353  1  0.07746464  0.94131325  0.96347735  1
  O2-  O354  1  0.43659406  0.93171282  0.21577513  1
  O2-  O355  1  0.56472117  0.59239020  0.77819639  1
  O2-  O356  1  0.56435945  0.93108523  0.19423330  1
  O2-  O357  1  0.56876368  0.06537079  0.29495401  1
  O2-  O358  1  0.42777413  0.26753752  0.20813179  1
  O2-  O359  1  0.93420981  0.92661284  0.77808180  1
  O2-  O360  1  0.43624993  0.40718332  0.53004268  1
  O2-  O361  1  0.56608282  0.25846135  0.04716643  1
  O2-  O362  1  0.06067779  0.74394621  0.77679100  1
  O2-  O363  1  0.56173146  0.40284898  0.53322729  1
  O2-  O364  1  0.56404313  0.92913106  0.46866690  1
  O2-  O365  1  0.93708501  0.40120938  0.71877047  1
  O2-  O366  1  0.42751613  0.26752976  0.04126330  1
  O2-  O367  1  0.43544588  0.73901886  0.96699221  1
  O2-  O368  1  0.56489065  0.26258016  0.94634097  1
  O2-  O369  1  0.06517486  0.07590240  0.97229904  1
  O2-  O370  1  0.43600434  0.26028101  0.77795045  1
  O2-  O371  1  0.06344540  0.07133849  0.71780194  1
  O2-  O372  1  0.24959440  0.66661148  0.40713590  1
  O2-  O373  1  0.75016660  0.00354568  0.40294548  1
  O2-  O374  1  0.75006946  0.34116429  0.35713970  1
  O2-  O375  1  0.74986596  -0.00135768  0.91792188  1
  O2-  O376  1  0.25028726  0.00075737  0.64559413  1
  O2-  O377  1  0.74979827  0.66988619  0.10136928  1
  O2-  O378  1  0.24978623  0.66690691  0.92911160  1
  O2-  O379  1  0.24979538  -0.00052007  0.36239494  1
  O2-  O380  1  0.75001961  0.00020964  0.82795944  1
  O2-  O381  1  0.74991558  0.66593276  0.34978193  1
  O2-  O382  1  0.74996314  0.34021389  0.14261822  1
  O2-  O383  1  0.74998035  0.33266317  0.65706133  1
  O2-  O384  1  0.25015920  0.34826250  0.34044494  1
  O2-  O385  1  0.25009045  0.33424059  0.42770962  1
  O2-  O386  1  0.75000202  0.66429874  0.64928997  1
  O2-  O387  1  0.75015941  0.66454693  0.85263104  1
  O2-  O388  1  0.25027305  0.33551338  0.59495347  1
  O2-  O389  1  0.24999585  0.33423580  0.10006069  1
  O2-  O390  1  0.25038324  -0.00163738  0.85235476  1
  O2-  O391  1  0.74982775  -0.01158648  0.16161747  1
  O2-  O392  1  0.74991853  0.33013291  0.89813553  1
  O2-  O393  1  0.24969252  0.33556839  0.90249217  1
  O2-  O394  1  0.74979257  0.00102181  0.07528374  1
  O2-  O395  1  0.25008447  0.66474488  0.81985002  1
  O2-  O396  1  0.74998816  0.16858303  0.84687366  1
  O2-  O397  1  0.24988084  0.49880657  0.64547122  1
  O2-  O398  1  0.75002428  0.16926394  0.09196045  1
  O2-  O399  1  0.25005459  0.16908432  0.43421578  1
  O2-  O400  1  0.24986182  0.83478532  0.67139737  1
  O2-  O401  1  0.74994647  0.16061819  0.93252942  1
  O2-  O402  1  0.24995617  0.16514757  0.66613798  1
  O2-  O403  1  0.24996296  0.83255429  0.57897570  1
  O2-  O404  1  0.74999797  0.83766805  0.63346388  1
  O2-  O405  1  0.74988020  0.83355598  0.06773882  1
  O2-  O406  1  0.74995634  0.83357117  0.38400404  1
  O2-  O407  1  0.25013795  0.83363547  0.90827620  1
  O2-  O408  1  0.74991563  0.83346031  0.14793760  1
  O2-  O409  1  0.74998644  0.49616821  0.83490142  1
  O2-  O410  1  0.24995243  0.49142183  0.95079277  1
  O2-  O411  1  0.75005396  0.49506799  0.11563294  1
  O2-  O412  1  0.25017431  0.50199705  0.87371684  1
  O2-  O413  1  0.25002512  0.50126686  0.56837475  1
  O2-  O414  1  0.24990961  0.50319853  0.09348035  1
  O2-  O415  1  0.74996773  0.50081130  0.67592400  1
  O2-  O416  1  0.75006576  0.50014825  0.57379863  1
  O2-  O417  1  0.25000667  0.16862970  0.58271927  1
  O2-  O418  1  0.25009249  0.16809498  0.84901933  1
  O2-  O419  1  0.25009394  0.16649831  0.34671047  1
  O2-  O420  1  0.97242361  0.66765214  0.12622672  1
  O2-  O421  1  0.52161945  0.67201871  0.87141358  1
  O2-  O422  1  0.52518565  0.66186419  0.62043144  1
  O2-  O423  1  0.97225016  -0.00298166  0.62619214  1
  O2-  O424  1  0.53551736  0.00205750  0.62266618  1
  O2-  O425  1  0.97460568  0.67239992  0.62415455  1
  O2-  O426  1  0.52772312  0.00057900  0.87304331  1
  O2-  O427  1  0.46179659  0.66898450  0.12377841  1
  O2-  O428  1  0.47433492  0.66178279  0.37974604  1
  O2-  O429  1  0.02680288  0.00658432  0.87115557  1
  O2-  O430  1  0.97163578  0.33569144  0.87295444  1
  O2-  O431  1  0.52867423  0.33139418  0.37696234  1
  O2-  O432  1  0.47458109  0.33849378  0.87797051  1
  O2-  O433  1  0.97319896  -0.00004963  0.37564549  1
  O2-  O434  1  0.96989928  0.00125309  0.88046275  1
  O2-  O435  1  0.47230685  0.34229664  0.12643466  1
  O2-  O436  1  0.46462035  0.00053565  0.63088749  1
  O2-  O437  1  0.52888727  0.34234099  0.12562460  1
  O2-  O438  1  0.97546098  0.00199790  0.13047304  1
  O2-  O439  1  0.53889578  0.66597169  0.12799935  1
  O2-  O440  1  0.97586765  0.66148981  0.87989236  1
  O2-  O441  1  0.97443142  0.66887988  0.36894288  1
  O2-  O442  1  0.47336493  -0.00191582  0.37033277  1
  O2-  O443  1  0.47434797  0.33063667  0.63094161  1
