# generated using pymatgen
data_La7(Ru4O11)2
_symmetry_space_group_name_H-M   'P 1'
_cell_length_a   23.99061909
_cell_length_b   16.83069181
_cell_length_c   15.42667509
_cell_angle_alpha   89.99989145
_cell_angle_beta   90.00068205
_cell_angle_gamma   90.00034581
_symmetry_Int_Tables_number   1
_chemical_formula_structural   La7(Ru4O11)2
_chemical_formula_sum   'La84 Ru96 O264'
_cell_volume   6228.96306556
_cell_formula_units_Z   12
loop_
 _symmetry_equiv_pos_site_id
 _symmetry_equiv_pos_as_xyz
  1  'x, y, z'
loop_
 _atom_type_symbol
 _atom_type_oxidation_number
  La3+  3.0
  Ru4+  4.0
  O2-  -2.0
loop_
 _atom_site_type_symbol
 _atom_site_label
 _atom_site_symmetry_multiplicity
 _atom_site_fract_x
 _atom_site_fract_y
 _atom_site_fract_z
 _atom_site_occupancy
  La3+  La0  1  0.14259727  -0.00132435  0.12345939  1
  La3+  La1  1  0.13810539  -0.00105690  0.37315468  1
  La3+  La2  1  0.13790256  -0.00000248  0.62746016  1
  La3+  La3  1  0.14264936  -0.00163917  0.87348609  1
  La3+  La4  1  0.13664338  0.33237731  0.12827096  1
  La3+  La5  1  0.13894825  0.33168280  0.37384515  1
  La3+  La6  1  0.13937201  0.33212696  0.62322238  1
  La3+  La7  1  0.13744541  0.33286280  0.87415558  1
  La3+  La8  1  0.13839533  0.66665442  0.12661720  1
  La3+  La9  1  0.13935626  0.66655750  0.37414658  1
  La3+  La10  1  0.14044421  0.66644070  0.62483717  1
  La3+  La11  1  0.13868133  0.66893259  0.87447962  1
  La3+  La12  1  0.63916403  0.00077582  0.12245815  1
  La3+  La13  1  0.63838012  0.00025495  0.37604321  1
  La3+  La14  1  0.63792882  0.00202588  0.62319571  1
  La3+  La15  1  0.64009231  -0.00068285  0.87624129  1
  La3+  La16  1  0.64037172  0.33305550  0.12318952  1
  La3+  La17  1  0.64075780  0.33490956  0.37756149  1
  La3+  La18  1  0.64160049  0.33384649  0.62089575  1
  La3+  La19  1  0.63885100  0.33285519  0.87839940  1
  La3+  La20  1  0.63895790  0.66792179  0.12075252  1
  La3+  La21  1  0.63776075  0.66568940  0.37947658  1
  La3+  La22  1  0.63938227  0.66824594  0.62526663  1
  La3+  La23  1  0.63900116  0.66956554  0.87475756  1
  La3+  La24  1  0.35663272  -0.00236362  0.12401832  1
  La3+  La25  1  0.36134460  -0.00023135  0.37333783  1
  La3+  La26  1  0.36060845  0.00035607  0.62642007  1
  La3+  La27  1  0.35757492  -0.00126803  0.87547005  1
  La3+  La28  1  0.36150766  0.33297599  0.12720684  1
  La3+  La29  1  0.35926396  0.33033477  0.37290748  1
  La3+  La30  1  0.36001638  0.33179250  0.62456821  1
  La3+  La31  1  0.36130722  0.33435356  0.87396892  1
  La3+  La32  1  0.36231752  0.66615875  0.12702272  1
  La3+  La33  1  0.36072299  0.66606073  0.37279896  1
  La3+  La34  1  0.36109598  0.66707044  0.62628458  1
  La3+  La35  1  0.36214115  0.67014041  0.87445203  1
  La3+  La36  1  0.86174800  0.00242549  0.12446620  1
  La3+  La37  1  0.86358436  0.00224795  0.37475937  1
  La3+  La38  1  0.86014704  -0.00031788  0.62427515  1
  La3+  La39  1  0.85976882  0.00090060  0.87685964  1
  La3+  La40  1  0.85963942  0.33251399  0.12366507  1
  La3+  La41  1  0.85879190  0.33525206  0.37835807  1
  La3+  La42  1  0.85752743  0.33311616  0.61977521  1
  La3+  La43  1  0.85884181  0.33168521  0.87906998  1
  La3+  La44  1  0.86253450  0.66694038  0.12330752  1
  La3+  La45  1  0.86255786  0.66558021  0.37949471  1
  La3+  La46  1  0.86171725  0.66654127  0.62193343  1
  La3+  La47  1  0.85941337  0.66952796  0.87528316  1
  La3+  La48  1  0.00482401  0.49075263  0.12111242  1
  La3+  La49  1  0.49904473  0.16493012  0.13575603  1
  La3+  La50  1  0.49956159  0.83524536  0.13671450  1
  La3+  La51  1  -0.00208284  0.16502164  0.38362415  1
  La3+  La52  1  0.49965700  0.50350195  0.86692798  1
  La3+  La53  1  0.49952331  0.16758544  0.38806715  1
  La3+  La54  1  0.00047328  0.83756715  0.86914351  1
  La3+  La55  1  -0.00201001  0.16648077  0.61148708  1
  La3+  La56  1  0.00102291  0.83605537  0.88589320  1
  La3+  La57  1  0.50070663  0.17178072  0.86344803  1
  La3+  La58  1  0.50282308  0.83545512  0.62843782  1
  La3+  La59  1  0.00520130  0.16629959  0.63053401  1
  La3+  La60  1  -0.00116359  0.16747553  0.13655990  1
  La3+  La61  1  0.00089584  0.50021146  0.88493803  1
  La3+  La62  1  0.00081122  0.17317732  0.88409300  1
  La3+  La63  1  0.50056545  0.16963804  0.87995266  1
  La3+  La64  1  0.49650221  0.82951950  0.37925506  1
  La3+  La65  1  0.50159546  0.49934017  0.61598599  1
  La3+  La66  1  0.00179119  0.16332593  0.86446282  1
  La3+  La67  1  0.49749805  0.16538049  0.61532063  1
  La3+  La68  1  0.00159414  0.83192230  0.11939926  1
  La3+  La69  1  0.49900019  0.50104514  0.13627279  1
  La3+  La70  1  0.50392320  0.16124621  0.62792877  1
  La3+  La71  1  0.00040456  0.16907117  0.36221321  1
  La3+  La72  1  0.75018714  0.17224635  0.46743500  1
  La3+  La73  1  0.24940015  0.16381609  0.74802001  1
  La3+  La74  1  0.24992775  0.11740241  -0.03400138  1
  La3+  La75  1  0.74983063  0.13685467  0.27854333  1
  La3+  La76  1  0.24957362  0.83658588  0.75529574  1
  La3+  La77  1  0.24895023  0.49546932  0.49999167  1
  La3+  La78  1  0.24996823  0.80072261  0.53564225  1
  La3+  La79  1  0.74984443  0.45961522  0.22183906  1
  La3+  La80  1  0.74948361  0.83022810  0.30078236  1
  La3+  La81  1  0.74976520  0.50523115  0.74303811  1
  La3+  La82  1  0.24950324  0.83776439  0.02200601  1
  La3+  La83  1  0.24962547  0.50443357  -0.05716350  1
  Ru4+  Ru84  1  0.00046481  -0.00003516  0.00320057  1
  Ru4+  Ru85  1  0.00400951  -0.00789472  0.25099020  1
  Ru4+  Ru86  1  -0.00027099  0.00152371  0.50170543  1
  Ru4+  Ru87  1  0.00475618  -0.00263521  0.74553171  1
  Ru4+  Ru88  1  -0.00006810  0.33627955  0.00185411  1
  Ru4+  Ru89  1  0.00133566  0.33726575  0.24870622  1
  Ru4+  Ru90  1  0.00084762  0.33677464  0.49725589  1
  Ru4+  Ru91  1  0.00419953  0.33322339  0.74860648  1
  Ru4+  Ru92  1  0.00227937  0.66548871  0.00239800  1
  Ru4+  Ru93  1  0.00010252  0.67163723  0.24728081  1
  Ru4+  Ru94  1  -0.00104928  0.66717754  0.50724161  1
  Ru4+  Ru95  1  -0.00017251  0.66305034  0.74626213  1
  Ru4+  Ru96  1  0.50560546  -0.00242656  -0.00085473  1
  Ru4+  Ru97  1  0.50040173  -0.00207041  0.25023421  1
  Ru4+  Ru98  1  0.49884994  0.00065148  0.49929492  1
  Ru4+  Ru99  1  0.50054128  -0.00484325  0.74914393  1
  Ru4+  Ru100  1  0.49959181  0.33459924  0.00044190  1
  Ru4+  Ru101  1  0.50105504  0.33189568  0.25079912  1
  Ru4+  Ru102  1  0.49954994  0.33394381  0.49796204  1
  Ru4+  Ru103  1  0.50009754  0.33472997  0.74954522  1
  Ru4+  Ru104  1  0.49925283  0.66495098  -0.00415599  1
  Ru4+  Ru105  1  0.49801122  0.66648095  0.24880160  1
  Ru4+  Ru106  1  0.49956979  0.66720033  0.49990449  1
  Ru4+  Ru107  1  0.50534924  0.66504930  0.75283023  1
  Ru4+  Ru108  1  0.11266912  0.16729800  0.00074842  1
  Ru4+  Ru109  1  0.11356655  0.16905068  0.24955008  1
  Ru4+  Ru110  1  0.11437100  0.16824308  0.50052673  1
  Ru4+  Ru111  1  0.11010931  0.16673964  0.74957093  1
  Ru4+  Ru112  1  0.11021704  0.49983879  -0.00085461  1
  Ru4+  Ru113  1  0.11116527  0.49835390  0.25134568  1
  Ru4+  Ru114  1  0.10892155  0.49756419  0.50231740  1
  Ru4+  Ru115  1  0.11243862  0.49851892  0.74998965  1
  Ru4+  Ru116  1  0.11271195  0.83361695  0.00068741  1
  Ru4+  Ru117  1  0.11235494  0.83538377  0.25082972  1
  Ru4+  Ru118  1  0.10804795  0.83153868  0.50085150  1
  Ru4+  Ru119  1  0.11213126  0.83517220  0.74805351  1
  Ru4+  Ru120  1  0.61565829  0.16483201  0.00025284  1
  Ru4+  Ru121  1  0.61128533  0.16884454  0.25094583  1
  Ru4+  Ru122  1  0.61328939  0.16638080  0.49953691  1
  Ru4+  Ru123  1  0.61262636  0.16919117  0.74952321  1
  Ru4+  Ru124  1  0.61269633  0.49962498  -0.00024070  1
  Ru4+  Ru125  1  0.61046698  0.49923069  0.24978051  1
  Ru4+  Ru126  1  0.61548457  0.49942547  0.50042296  1
  Ru4+  Ru127  1  0.61099893  0.50152812  0.74941229  1
  Ru4+  Ru128  1  0.61293225  0.83477871  -0.00112701  1
  Ru4+  Ru129  1  0.61016033  0.83516474  0.25048784  1
  Ru4+  Ru130  1  0.61466209  0.83040142  0.50104383  1
  Ru4+  Ru131  1  0.60929326  0.83163404  0.75117281  1
  Ru4+  Ru132  1  0.38802320  0.16620985  0.00142859  1
  Ru4+  Ru133  1  0.38534778  0.16773003  0.24954149  1
  Ru4+  Ru134  1  0.38809248  0.16863317  0.50023828  1
  Ru4+  Ru135  1  0.38747586  0.16529700  0.75078569  1
  Ru4+  Ru136  1  0.39021406  0.50135278  -0.00055793  1
  Ru4+  Ru137  1  0.38647864  0.50227848  0.24906800  1
  Ru4+  Ru138  1  0.38930747  0.49960028  0.49959491  1
  Ru4+  Ru139  1  0.38763097  0.49775521  0.75014528  1
  Ru4+  Ru140  1  0.38365019  0.82857906  -0.00315852  1
  Ru4+  Ru141  1  0.38729598  0.83486330  0.25037615  1
  Ru4+  Ru142  1  0.38977714  0.83129847  0.50009083  1
  Ru4+  Ru143  1  0.38446320  0.83656743  0.74835042  1
  Ru4+  Ru144  1  0.88330736  0.16766717  0.00175268  1
  Ru4+  Ru145  1  0.88516879  0.17117988  0.24847029  1
  Ru4+  Ru146  1  0.88984923  0.16772176  0.49962030  1
  Ru4+  Ru147  1  0.88488315  0.16661501  0.74984010  1
  Ru4+  Ru148  1  0.88581375  0.49735204  -0.00071697  1
  Ru4+  Ru149  1  0.88627990  0.49791895  0.25196645  1
  Ru4+  Ru150  1  0.88518256  0.50229951  0.50032224  1
  Ru4+  Ru151  1  0.88681100  0.50155364  0.75000556  1
  Ru4+  Ru152  1  0.88485979  0.83166050  -0.00020178  1
  Ru4+  Ru153  1  0.89071615  0.83265384  0.24927894  1
  Ru4+  Ru154  1  0.88562665  0.83174989  0.50030118  1
  Ru4+  Ru155  1  0.88520604  0.83256616  0.74804261  1
  Ru4+  Ru156  1  0.24982887  0.08583165  0.25279265  1
  Ru4+  Ru157  1  0.74949679  0.08018825  0.75097633  1
  Ru4+  Ru158  1  0.74978913  0.58310431  -0.00404222  1
  Ru4+  Ru159  1  0.25008822  0.36455835  0.48744691  1
  Ru4+  Ru160  1  0.74997249  0.94502710  0.23862515  1
  Ru4+  Ru161  1  0.25007721  0.57304759  0.74935044  1
  Ru4+  Ru162  1  0.25025579  0.25231374  -0.00636783  1
  Ru4+  Ru163  1  0.74998255  0.63836148  0.75060215  1
  Ru4+  Ru164  1  0.74987365  0.71455784  0.24637532  1
  Ru4+  Ru165  1  0.25019242  0.08576070  0.49591272  1
  Ru4+  Ru166  1  0.25010632  0.42067217  0.26057767  1
  Ru4+  Ru167  1  0.24987802  0.42680546  0.74892308  1
  Ru4+  Ru168  1  0.74980106  0.27724473  0.25736252  1
  Ru4+  Ru169  1  0.75009058  0.91167754  -0.00616219  1
  Ru4+  Ru170  1  0.74982514  0.37340798  0.74275492  1
  Ru4+  Ru171  1  0.25020747  0.62227193  -0.00092133  1
  Ru4+  Ru172  1  0.74974789  0.91270799  0.50497500  1
  Ru4+  Ru173  1  0.25014257  0.93845742  0.49014916  1
  Ru4+  Ru174  1  0.74978729  0.58621930  0.26588091  1
  Ru4+  Ru175  1  0.25029941  0.62559837  0.49845165  1
  Ru4+  Ru176  1  0.25012254  0.38311191  -0.01262917  1
  Ru4+  Ru177  1  0.25014217  0.75221380  0.25054423  1
  Ru4+  Ru178  1  0.74981278  0.24881972  0.75357886  1
  Ru4+  Ru179  1  0.74973660  0.90692982  0.75264984  1
  O2-  O180  1  0.16406581  0.07970842  0.00025033  1
  O2-  O181  1  0.16672482  0.07951909  0.25096618  1
  O2-  O182  1  0.16874904  0.08105068  0.49831970  1
  O2-  O183  1  0.16820814  0.08092709  0.74801244  1
  O2-  O184  1  0.16668051  0.41197991  -0.00029956  1
  O2-  O185  1  0.16603464  0.41418009  0.25013474  1
  O2-  O186  1  0.16640064  0.41284717  0.49862522  1
  O2-  O187  1  0.17000266  0.41425730  0.75040558  1
  O2-  O188  1  0.16764754  0.74729087  -0.00038808  1
  O2-  O189  1  0.16671123  0.74827068  0.24976693  1
  O2-  O190  1  0.16602765  0.74680716  0.49938494  1
  O2-  O191  1  0.16966416  0.74772991  0.75134488  1
  O2-  O192  1  0.66702040  0.08197434  -0.00004212  1
  O2-  O193  1  0.66688925  0.07956111  0.25048412  1
  O2-  O194  1  0.66965395  0.08204175  0.50012815  1
  O2-  O195  1  0.66617439  0.08012860  0.75028188  1
  O2-  O196  1  0.66632508  0.41449823  -0.00003719  1
  O2-  O197  1  0.66360760  0.41276792  0.25019638  1
  O2-  O198  1  0.66355339  0.41664507  0.49960041  1
  O2-  O199  1  0.66521398  0.41197761  0.75177039  1
  O2-  O200  1  0.66692474  0.74829093  0.00148994  1
  O2-  O201  1  0.66532827  0.74434301  0.25105282  1
  O2-  O202  1  0.66709601  0.74813742  0.49801511  1
  O2-  O203  1  0.66798754  0.74787956  0.74888440  1
  O2-  O204  1  0.33479246  0.25255224  -0.00056284  1
  O2-  O205  1  0.33304453  0.25040848  0.25046360  1
  O2-  O206  1  0.33384357  0.25212824  0.49992001  1
  O2-  O207  1  0.32899297  0.25268485  0.74975016  1
  O2-  O208  1  0.33463870  0.58753134  -0.00000828  1
  O2-  O209  1  0.33272742  0.58533415  0.25174577  1
  O2-  O210  1  0.33539899  0.58772845  0.49956974  1
  O2-  O211  1  0.33100272  0.58677389  0.75002576  1
  O2-  O212  1  0.33221425  0.91800540  0.00047238  1
  O2-  O213  1  0.33384543  0.91943337  0.25209299  1
  O2-  O214  1  0.33305842  0.92156195  0.49956262  1
  O2-  O215  1  0.33270920  0.91987934  0.74758273  1
  O2-  O216  1  0.83179618  0.25216601  0.00123976  1
  O2-  O217  1  0.83209475  0.25367732  0.25087214  1
  O2-  O218  1  0.83393199  0.25148274  0.49884776  1
  O2-  O219  1  0.83293905  0.25266195  0.75044456  1
  O2-  O220  1  0.82997413  0.58516635  0.00193225  1
  O2-  O221  1  0.83212793  0.58710489  0.24888205  1
  O2-  O222  1  0.83219100  0.58495273  0.49818740  1
  O2-  O223  1  0.83303081  0.58845982  0.75022161  1
  O2-  O224  1  0.83365014  0.91904521  0.00096621  1
  O2-  O225  1  0.83458428  0.92200029  0.25008973  1
  O2-  O226  1  0.83427896  0.91956188  0.50009332  1
  O2-  O227  1  0.83315485  0.91892985  0.74896915  1
  O2-  O228  1  0.16713511  0.25303918  -0.00003601  1
  O2-  O229  1  0.16650565  0.25103913  0.24999445  1
  O2-  O230  1  0.16760576  0.25139455  0.49841890  1
  O2-  O231  1  0.16990681  0.25324706  0.75027809  1
  O2-  O232  1  0.16526003  0.58802993  0.00022804  1
  O2-  O233  1  0.16707198  0.58511507  0.25007645  1
  O2-  O234  1  0.16656197  0.58726192  0.49850565  1
  O2-  O235  1  0.16789845  0.58459052  0.75060743  1
  O2-  O236  1  0.16683608  0.91862085  -0.00089489  1
  O2-  O237  1  0.16650739  0.91916407  0.25065787  1
  O2-  O238  1  0.16600893  0.91988255  0.49906684  1
  O2-  O239  1  0.16810612  0.91757593  0.74896842  1
  O2-  O240  1  0.66539694  0.25310265  -0.00012034  1
  O2-  O241  1  0.66715166  0.25262868  0.25005327  1
  O2-  O242  1  0.66574752  0.25055172  0.49943474  1
  O2-  O243  1  0.66671980  0.25298366  0.75056636  1
  O2-  O244  1  0.66979505  0.58485985  0.00161704  1
  O2-  O245  1  0.66690927  0.58727630  0.25139543  1
  O2-  O246  1  0.66722096  0.58646679  0.49760101  1
  O2-  O247  1  0.66779529  0.58678962  0.75028731  1
  O2-  O248  1  0.66608806  0.91782120  -0.00032197  1
  O2-  O249  1  0.66564867  0.92044093  0.24990201  1
  O2-  O250  1  0.66736171  0.91940331  0.49924380  1
  O2-  O251  1  0.66577431  0.92004291  0.74910003  1
  O2-  O252  1  0.33398066  0.08006268  -0.00134265  1
  O2-  O253  1  0.33369074  0.08114201  0.25101762  1
  O2-  O254  1  0.33207698  0.08024079  0.49968925  1
  O2-  O255  1  0.33245369  0.08210483  0.74704277  1
  O2-  O256  1  0.33452169  0.41231869  -0.00047334  1
  O2-  O257  1  0.33434642  0.41452140  0.25076505  1
  O2-  O258  1  0.33324909  0.41158085  0.49903414  1
  O2-  O259  1  0.33143353  0.41475692  0.75044489  1
  O2-  O260  1  0.33144590  0.74650403  0.00103850  1
  O2-  O261  1  0.33333210  0.74672367  0.25057182  1
  O2-  O262  1  0.33479123  0.74689000  0.49913955  1
  O2-  O263  1  0.32985437  0.74621130  0.75037878  1
  O2-  O264  1  0.83489738  0.08136896  0.00106432  1
  O2-  O265  1  0.83439335  0.07920153  0.25016350  1
  O2-  O266  1  0.83247610  0.07838348  0.49982256  1
  O2-  O267  1  0.83370741  0.08075279  0.74975208  1
  O2-  O268  1  0.83323341  0.41659262  -0.00003945  1
  O2-  O269  1  0.83512472  0.41166045  0.25062491  1
  O2-  O270  1  0.83700209  0.41696826  0.49933205  1
  O2-  O271  1  0.83104957  0.41241068  0.75029483  1
  O2-  O272  1  0.83386741  0.74778961  0.00135641  1
  O2-  O273  1  0.83481952  0.74584158  0.25070177  1
  O2-  O274  1  0.83422154  0.74845965  0.49981942  1
  O2-  O275  1  0.83203001  0.74846956  0.75033501  1
  O2-  O276  1  0.95150783  0.90123681  0.23398118  1
  O2-  O277  1  0.53758753  0.55369468  0.28633029  1
  O2-  O278  1  0.45876958  0.77098087  0.76053513  1
  O2-  O279  1  0.96813286  0.45905809  0.75493119  1
  O2-  O280  1  0.54626827  0.90064090  0.74709924  1
  O2-  O281  1  0.53466688  0.11157681  0.50506180  1
  O2-  O282  1  0.95305350  0.09443682  0.73581339  1
  O2-  O283  1  0.45564182  0.43272470  0.98534409  1
  O2-  O284  1  0.04789119  0.90220475  0.26425856  1
  O2-  O285  1  0.54045668  0.77095011  0.02963842  1
  O2-  O286  1  0.54364636  0.55976905  0.47050031  1
  O2-  O287  1  0.54484132  0.23597919  0.98892670  1
  O2-  O288  1  0.54480583  0.76414317  0.26514500  1
  O2-  O289  1  0.95494848  0.76725032  0.98549715  1
  O2-  O290  1  0.96158962  0.56198173  0.24323042  1
  O2-  O291  1  0.96084726  0.55475420  0.02746520  1
  O2-  O292  1  0.45025156  0.09394926  0.95785854  1
  O2-  O293  1  0.95419076  0.09580348  0.26434616  1
  O2-  O294  1  0.54514163  0.09721496  0.76340094  1
  O2-  O295  1  0.04737688  0.56458242  0.22194572  1
  O2-  O296  1  0.95579347  0.54759641  0.24205526  1
  O2-  O297  1  0.03846288  0.78395154  0.74247130  1
  O2-  O298  1  0.46191161  0.22192837  0.28407217  1
  O2-  O299  1  0.04679897  0.76712292  0.51388412  1
  O2-  O300  1  0.54637986  0.24151968  0.51220863  1
  O2-  O301  1  0.55349367  0.90533989  0.98392922  1
  O2-  O302  1  0.45878707  0.77114920  0.76043361  1
  O2-  O303  1  0.04627646  0.43144519  0.25483659  1
  O2-  O304  1  0.54512728  0.43025557  0.76437096  1
  O2-  O305  1  0.46083540  0.22163251  0.72448405  1
  O2-  O306  1  0.45775546  0.89371875  0.00806612  1
  O2-  O307  1  0.95338996  0.23756869  0.73687752  1
  O2-  O308  1  0.54598105  0.90230458  0.75631639  1
  O2-  O309  1  0.45406183  0.56754253  0.73482589  1
  O2-  O310  1  0.45784757  0.89360494  1.00801886  1
  O2-  O311  1  0.03484489  0.55172351  0.50586956  1
  O2-  O312  1  0.95149052  0.09798065  0.99049997  1
  O2-  O313  1  0.96885975  0.45479408  0.74260403  1
  O2-  O314  1  0.53758296  0.11161069  0.27951812  1
  O2-  O315  1  0.96239574  0.89093513  0.71395158  1
  O2-  O316  1  0.45227113  0.90287545  0.51569653  1
  O2-  O317  1  0.95486753  0.90344340  0.01335572  1
  O2-  O318  1  0.95448907  0.77404194  0.78115296  1
  O2-  O319  1  0.04624290  0.43126292  0.24533760  1
  O2-  O320  1  0.04831449  0.09731708  0.99031547  1
  O2-  O321  1  0.45104467  0.57071502  0.51532622  1
  O2-  O322  1  0.54217355  0.88858022  0.47072719  1
  O2-  O323  1  0.54101614  0.10413417  0.51890178  1
  O2-  O324  1  0.91871662  0.38822135  0.81394040  1
  O2-  O325  1  0.06359064  0.93061403  0.03424889  1
  O2-  O326  1  0.43634278  0.40322533  0.44550978  1
  O2-  O327  1  0.06477779  0.26138935  0.96653495  1
  O2-  O328  1  0.92615549  0.72919748  0.70552359  1
  O2-  O329  1  0.43327188  0.40896534  0.54552026  1
  O2-  O330  1  0.06692685  0.92807878  0.72285004  1
  O2-  O331  1  0.06542623  0.74035047  0.02695738  1
  O2-  O332  1  0.06536750  0.40252225  0.69159799  1
  O2-  O333  1  0.92437646  0.60366631  0.95616942  1
  O2-  O334  1  0.56681564  0.73894706  0.77725056  1
  O2-  O335  1  0.93337528  0.59329818  0.52603096  1
  O2-  O336  1  0.56453231  0.07100955  0.93575344  1
  O2-  O337  1  0.06498850  0.40429452  0.53273670  1
  O2-  O338  1  0.06261829  0.40561240  0.96748958  1
  O2-  O339  1  0.56710157  0.60037797  0.54441339  1
  O2-  O340  1  0.93723065  0.26313042  0.06324711  1
  O2-  O341  1  0.57064418  0.60914446  0.19638011  1
  O2-  O342  1  0.93875032  0.07357649  0.28391570  1
  O2-  O343  1  0.56474305  0.59089632  0.97474270  1
  O2-  O344  1  0.57405815  0.06314215  0.20532169  1
  O2-  O345  1  0.92374577  0.93449064  0.79496749  1
  O2-  O346  1  0.56216628  0.73918734  0.53240317  1
  O2-  O347  1  0.42587259  0.94377724  0.95386687  1
  O2-  O348  1  0.43552391  0.59323206  0.22228953  1
  O2-  O349  1  0.58337064  0.04842306  0.44865473  1
  O2-  O350  1  0.06455547  0.25913351  0.22123526  1
  O2-  O351  1  0.42935164  0.27964469  0.80691730  1
  O2-  O352  1  0.07335703  0.71803299  0.70908577  1
  O2-  O353  1  0.42777818  0.72220523  0.70358308  1
  O2-  O354  1  0.57467611  0.93467166  0.54813924  1
  O2-  O355  1  0.06629645  0.07378724  0.52576259  1
  O2-  O356  1  0.56388873  0.59523900  0.71552513  1
  O2-  O357  1  0.56673864  0.26223807  0.27635866  1
  O2-  O358  1  0.93156811  0.25789113  0.94493269  1
  O2-  O359  1  0.56516421  0.07702487  0.05661525  1
  O2-  O360  1  0.42942867  0.06021934  0.08297001  1
  O2-  O361  1  0.07271626  0.61162710  0.54070692  1
  O2-  O362  1  0.43545692  0.73292468  0.96725438  1
  O2-  O363  1  0.57056872  0.73378412  0.95973164  1
  O2-  O364  1  0.42591990  0.27218856  0.20167307  1
  O2-  O365  1  0.44552898  0.08560597  0.95042596  1
  O2-  O366  1  0.91988344  0.61633935  0.29496364  1
  O2-  O367  1  0.06496847  0.40381602  0.80927054  1
  O2-  O368  1  0.07217962  0.60179251  0.29080716  1
  O2-  O369  1  0.92104842  0.38779045  0.68622741  1
  O2-  O370  1  0.93667242  0.26224767  0.21743961  1
  O2-  O371  1  0.06375621  0.26051175  0.53376080  1
  O2-  O372  1  0.25032080  0.33045524  0.60245679  1
  O2-  O373  1  0.75018864  -0.00264027  0.82861203  1
  O2-  O374  1  0.25030472  0.00374200  0.59933619  1
  O2-  O375  1  0.74972870  0.33257864  0.60705067  1
  O2-  O376  1  0.25009126  0.67368045  0.39348944  1
  O2-  O377  1  0.75012108  0.02427523  0.15753146  1
  O2-  O378  1  0.24967905  0.68866740  0.09430968  1
  O2-  O379  1  0.75005974  0.00176824  0.06762918  1
  O2-  O380  1  0.75019410  0.00320670  0.92598842  1
  O2-  O381  1  0.25022711  0.33659825  0.34733062  1
  O2-  O382  1  0.75021292  0.66242811  0.90636459  1
  O2-  O383  1  0.74968337  0.33612849  0.15114675  1
  O2-  O384  1  0.25016406  0.67194252  0.89075737  1
  O2-  O385  1  0.25013100  0.32972803  0.18508288  1
  O2-  O386  1  0.75018001  0.66086333  0.13829071  1
  O2-  O387  1  0.25010490  0.32832830  0.09462926  1
  O2-  O388  1  0.74982598  0.01459937  0.33715239  1
  O2-  O389  1  0.25014171  0.00576906  0.84606704  1
  O2-  O390  1  0.75000502  0.32517319  0.39572711  1
  O2-  O391  1  0.75024732  -0.00017536  0.65457276  1
  O2-  O392  1  0.25023425  0.67343991  0.60754667  1
  O2-  O393  1  0.25000896  0.66128374  0.17974489  1
  O2-  O394  1  0.24962332  0.00175528  0.09873326  1
  O2-  O395  1  0.75017521  0.00432921  0.43030804  1
  O2-  O396  1  0.25015395  0.83254856  0.88824152  1
  O2-  O397  1  0.74999784  0.83678736  0.15459708  1
  O2-  O398  1  0.74998719  0.50835116  0.35702523  1
  O2-  O399  1  0.75003875  0.16530661  0.83458297  1
  O2-  O400  1  0.74978898  0.16555517  0.59277525  1
  O2-  O401  1  0.74994501  0.16721858  0.91776761  1
  O2-  O402  1  0.25008281  0.15843746  0.34181767  1
  O2-  O403  1  0.74989414  0.50177096  0.60144703  1
  O2-  O404  1  0.25005992  0.83884938  0.31682405  1
  O2-  O405  1  0.25005043  0.17057515  0.09517164  1
  O2-  O406  1  0.75012768  0.83371015  0.42464365  1
  O2-  O407  1  0.74990279  0.17156733  0.15021781  1
  O2-  O408  1  0.75027617  0.16577558  0.67832039  1
  O2-  O409  1  0.75016570  0.83804153  0.84135220  1
  O2-  O410  1  0.25036434  0.49784355  0.36633902  1
  O2-  O411  1  0.25010498  0.17234180  0.18266661  1
  O2-  O412  1  0.25009130  0.50397166  0.18371069  1
  O2-  O413  1  0.74994876  0.16595577  0.06818735  1
  O2-  O414  1  0.25013532  0.50109404  0.09444434  1
  O2-  O415  1  0.25019789  0.50206539  0.63745456  1
  O2-  O416  1  0.75035645  0.83079853  0.66855969  1
  O2-  O417  1  0.25003617  0.84100485  0.40501504  1
  O2-  O418  1  0.75011756  0.82745854  0.06704444  1
  O2-  O419  1  0.75018056  0.82993849  0.58067389  1
  O2-  O420  1  0.02277993  0.00081076  0.62530180  1
  O2-  O421  1  0.52282754  -0.00597706  0.36782900  1
  O2-  O422  1  0.54271754  0.33507030  0.62605023  1
  O2-  O423  1  0.96063001  0.67207788  0.12558863  1
  O2-  O424  1  0.52326824  0.00604826  0.62948146  1
  O2-  O425  1  0.02884607  0.67196827  0.37866657  1
  O2-  O426  1  0.46160870  0.32872960  0.63129263  1
  O2-  O427  1  0.96286609  0.66972001  0.86503357  1
  O2-  O428  1  0.97161790  0.67378976  0.38053115  1
  O2-  O429  1  0.97568999  0.32589974  0.61399606  1
  O2-  O430  1  0.52128023  0.65880063  0.87152165  1
  O2-  O431  1  0.04273669  -0.00188932  0.87231017  1
  O2-  O432  1  0.52592994  0.33756031  0.37893170  1
  O2-  O433  1  0.03655762  0.66412710  0.12881768  1
  O2-  O434  1  0.47414403  0.67093820  0.11880722  1
  O2-  O435  1  0.98050840  0.33269087  0.87555803  1
  O2-  O436  1  0.95822338  0.33228821  0.37608968  1
  O2-  O437  1  0.52159391  -0.01319313  0.13005814  1
  O2-  O438  1  0.97787866  0.66459634  0.62385320  1
  O2-  O439  1  0.96118741  0.00525246  0.88133961  1
  O2-  O440  1  0.04262655  0.66532415  0.87530035  1
  O2-  O441  1  0.04113175  0.32830029  0.37798560  1
  O2-  O442  1  0.47645851  0.33912582  0.12007106  1
  O2-  O443  1  0.02601864  0.33559157  0.12037827  1
