# generated using pymatgen
data_La7(Ru4O11)2
_symmetry_space_group_name_H-M   'P 1'
_cell_length_a   23.99229160
_cell_length_b   16.83250361
_cell_length_c   15.42977357
_cell_angle_alpha   89.99959829
_cell_angle_beta   90.00052130
_cell_angle_gamma   90.00233541
_symmetry_Int_Tables_number   1
_chemical_formula_structural   La7(Ru4O11)2
_chemical_formula_sum   'La84 Ru96 O264'
_cell_volume   6231.31921664
_cell_formula_units_Z   12
loop_
 _symmetry_equiv_pos_site_id
 _symmetry_equiv_pos_as_xyz
  1  'x, y, z'
loop_
 _atom_type_symbol
 _atom_type_oxidation_number
  La3+  3.0
  Ru4+  4.0
  O2-  -2.0
loop_
 _atom_site_type_symbol
 _atom_site_label
 _atom_site_symmetry_multiplicity
 _atom_site_fract_x
 _atom_site_fract_y
 _atom_site_fract_z
 _atom_site_occupancy
  La3+  La0  1  0.14092746  -0.00353975  0.12321762  1
  La3+  La1  1  0.13990816  -0.00231758  0.38334071  1
  La3+  La2  1  0.13819049  -0.00322122  0.62327338  1
  La3+  La3  1  0.14120806  -0.00418528  0.87398512  1
  La3+  La4  1  0.13532897  0.33524283  0.12769680  1
  La3+  La5  1  0.14265262  0.33178492  0.37962275  1
  La3+  La6  1  0.13724683  0.33251843  0.62234926  1
  La3+  La7  1  0.13726776  0.33680359  0.87571332  1
  La3+  La8  1  0.14584443  0.66552752  0.12438008  1
  La3+  La9  1  0.15075369  0.66707024  0.37697638  1
  La3+  La10  1  0.14805281  0.66849693  0.62156504  1
  La3+  La11  1  0.14491560  0.66634452  0.87410893  1
  La3+  La12  1  0.63648338  -0.00074160  0.12327556  1
  La3+  La13  1  0.63941121  -0.00098763  0.37594868  1
  La3+  La14  1  0.63983963  0.00333193  0.62621951  1
  La3+  La15  1  0.63464151  0.00021552  0.87162974  1
  La3+  La16  1  0.63707924  0.33709691  0.12920768  1
  La3+  La17  1  0.63894516  0.33419420  0.37620566  1
  La3+  La18  1  0.63845308  0.33204637  0.62249169  1
  La3+  La19  1  0.63712794  0.33489638  0.87416401  1
  La3+  La20  1  0.63650371  0.66746607  0.12613959  1
  La3+  La21  1  0.63621472  0.66898159  0.37231243  1
  La3+  La22  1  0.64189254  0.66514880  0.62606261  1
  La3+  La23  1  0.63274394  0.66285239  0.87610406  1
  La3+  La24  1  0.36005921  -0.00488689  0.12221280  1
  La3+  La25  1  0.36074110  -0.00411972  0.38019622  1
  La3+  La26  1  0.35768478  0.00125645  0.62074135  1
  La3+  La27  1  0.36154950  -0.00284101  0.86824397  1
  La3+  La28  1  0.36572004  0.33517422  0.12704709  1
  La3+  La29  1  0.37118976  0.32344341  0.38990446  1
  La3+  La30  1  0.36661603  0.32565938  0.61641825  1
  La3+  La31  1  0.36390018  0.33687154  0.87545329  1
  La3+  La32  1  0.35614329  0.66682790  0.12460164  1
  La3+  La33  1  0.35098487  0.66585409  0.37716869  1
  La3+  La34  1  0.35561426  0.66985842  0.62486203  1
  La3+  La35  1  0.35586507  0.66871719  0.87616423  1
  La3+  La36  1  0.86382892  0.00090381  0.12654029  1
  La3+  La37  1  0.85759435  0.00291290  0.37873294  1
  La3+  La38  1  0.85890937  0.00262819  0.62417931  1
  La3+  La39  1  0.86205131  0.00097183  0.87238633  1
  La3+  La40  1  0.86337052  0.33894778  0.12872626  1
  La3+  La41  1  0.86240698  0.33394165  0.37467684  1
  La3+  La42  1  0.86264212  0.32933942  0.62333119  1
  La3+  La43  1  0.86235341  0.33384374  0.87498395  1
  La3+  La44  1  0.86231129  0.66889235  0.12532893  1
  La3+  La45  1  0.86204663  0.66689276  0.37247450  1
  La3+  La46  1  0.86013484  0.66480146  0.63217512  1
  La3+  La47  1  0.86178415  0.67115239  0.87630276  1
  La3+  La48  1  0.49234368  0.17343849  0.39388873  1
  La3+  La49  1  0.00797354  0.82590655  0.12074918  1
  La3+  La50  1  -0.00277304  0.83321755  0.63906064  1
  La3+  La51  1  -0.00102657  0.84269767  0.36544177  1
  La3+  La52  1  0.49987191  0.16719341  0.13587566  1
  La3+  La53  1  -0.00228564  0.16063717  0.88183020  1
  La3+  La54  1  0.50447675  0.50302150  0.11427580  1
  La3+  La55  1  0.49667262  0.16732067  0.61662203  1
  La3+  La56  1  0.49929256  0.50105092  0.63463183  1
  La3+  La57  1  -0.00467633  0.50110585  0.12049497  1
  La3+  La58  1  -0.00296764  0.17095012  0.86271425  1
  La3+  La59  1  0.49512797  0.16767647  0.88287316  1
  La3+  La60  1  -0.00197388  0.83266251  0.38496363  1
  La3+  La61  1  0.49947942  0.50398492  0.88211788  1
  La3+  La62  1  -0.00024829  0.82493037  0.10233081  1
  La3+  La63  1  -0.00209321  0.50240732  0.87846150  1
  La3+  La64  1  0.49997865  0.83696281  0.88804335  1
  La3+  La65  1  0.00089338  0.16567787  0.13510668  1
  La3+  La66  1  0.00245979  0.48991630  0.36394954  1
  La3+  La67  1  0.00025906  0.83250123  0.61735524  1
  La3+  La68  1  0.50568787  0.82953611  0.14174880  1
  La3+  La69  1  0.50254747  0.16727377  0.86354970  1
  La3+  La70  1  -0.00311812  0.83670086  0.87087495  1
  La3+  La71  1  0.00212014  0.49431632  0.61699547  1
  La3+  La72  1  0.25060556  0.14865822  0.52805387  1
  La3+  La73  1  0.24872502  0.23721313  0.77660221  1
  La3+  La74  1  0.74894864  0.83722209  -0.03131531  1
  La3+  La75  1  0.74951433  0.15884962  0.25991668  1
  La3+  La76  1  0.74990386  0.12078339  -0.03034484  1
  La3+  La77  1  0.25002405  0.55397273  0.72912025  1
  La3+  La78  1  0.74922138  0.53495032  0.75802316  1
  La3+  La79  1  0.25074842  0.23147308  -0.03523757  1
  La3+  La80  1  0.25068688  0.14520853  0.21427178  1
  La3+  La81  1  0.74989503  0.44703395  0.49431874  1
  La3+  La82  1  0.75093066  0.79447561  0.74434125  1
  La3+  La83  1  0.74984640  0.87186002  0.52528125  1
  Ru4+  Ru84  1  0.00045384  0.00557397  -0.00505620  1
  Ru4+  Ru85  1  0.00123093  0.00456555  0.25415804  1
  Ru4+  Ru86  1  0.00147475  0.00670854  0.49939101  1
  Ru4+  Ru87  1  -0.00169495  -0.00378932  0.75877135  1
  Ru4+  Ru88  1  -0.00082726  0.33281336  0.00464575  1
  Ru4+  Ru89  1  0.00015785  0.33032867  0.24256156  1
  Ru4+  Ru90  1  -0.00203287  0.32776804  0.50580315  1
  Ru4+  Ru91  1  -0.00204046  0.33788971  0.74474733  1
  Ru4+  Ru92  1  0.00177839  0.65823516  -0.00022221  1
  Ru4+  Ru93  1  0.00173419  0.66017370  0.25260414  1
  Ru4+  Ru94  1  -0.00211200  0.66186787  0.50230449  1
  Ru4+  Ru95  1  -0.00590457  0.65740885  0.74552177  1
  Ru4+  Ru96  1  0.49832124  -0.00578710  0.00342664  1
  Ru4+  Ru97  1  0.49789897  -0.00287832  0.25926421  1
  Ru4+  Ru98  1  0.50030225  0.00549576  0.48580695  1
  Ru4+  Ru99  1  0.50405268  -0.00700140  0.74374354  1
  Ru4+  Ru100  1  0.49916296  0.33126956  0.00071851  1
  Ru4+  Ru101  1  0.50459090  0.33184508  0.24034187  1
  Ru4+  Ru102  1  0.49620258  0.33512342  0.49634122  1
  Ru4+  Ru103  1  0.50227061  0.33186697  0.74883673  1
  Ru4+  Ru104  1  0.49401544  0.67237015  0.00232166  1
  Ru4+  Ru105  1  0.49850049  0.66292774  0.24542461  1
  Ru4+  Ru106  1  0.50037990  0.67372538  0.50527385  1
  Ru4+  Ru107  1  0.49709638  0.66944149  0.74606961  1
  Ru4+  Ru108  1  0.11031691  0.16184945  -0.00026030  1
  Ru4+  Ru109  1  0.10927174  0.16706628  0.24836635  1
  Ru4+  Ru110  1  0.10959550  0.16216351  0.49925652  1
  Ru4+  Ru111  1  0.10962987  0.16828635  0.75073830  1
  Ru4+  Ru112  1  0.11464008  0.50162070  0.00045507  1
  Ru4+  Ru113  1  0.11460022  0.50160458  0.25096368  1
  Ru4+  Ru114  1  0.11363980  0.50279221  0.49909763  1
  Ru4+  Ru115  1  0.11271479  0.49793296  0.75130479  1
  Ru4+  Ru116  1  0.11787795  0.83279284  -0.00187962  1
  Ru4+  Ru117  1  0.11675750  0.83298059  0.25030233  1
  Ru4+  Ru118  1  0.11629925  0.83254090  0.50105346  1
  Ru4+  Ru119  1  0.11613417  0.83500322  0.74918369  1
  Ru4+  Ru120  1  0.60979843  0.17157251  0.00161080  1
  Ru4+  Ru121  1  0.60689910  0.16671557  0.24828969  1
  Ru4+  Ru122  1  0.61414351  0.17047334  0.50135633  1
  Ru4+  Ru123  1  0.61510830  0.16427583  0.74983019  1
  Ru4+  Ru124  1  0.61586147  0.49428236  -0.00030963  1
  Ru4+  Ru125  1  0.61261009  0.49515453  0.24798911  1
  Ru4+  Ru126  1  0.60957723  0.49931583  0.50063291  1
  Ru4+  Ru127  1  0.61144115  0.49861372  0.74918871  1
  Ru4+  Ru128  1  0.60978738  0.83327645  -0.00049087  1
  Ru4+  Ru129  1  0.61420969  0.82901044  0.24848860  1
  Ru4+  Ru130  1  0.60800121  0.83396726  0.50011153  1
  Ru4+  Ru131  1  0.60858721  0.83018712  0.74773092  1
  Ru4+  Ru132  1  0.39266412  0.16704397  0.00073641  1
  Ru4+  Ru133  1  0.39008885  0.16878117  0.25079503  1
  Ru4+  Ru134  1  0.38788302  0.16475658  0.50323970  1
  Ru4+  Ru135  1  0.38519880  0.17086470  0.74485486  1
  Ru4+  Ru136  1  0.38501787  0.50408569  0.00066987  1
  Ru4+  Ru137  1  0.38819155  0.50293752  0.25071234  1
  Ru4+  Ru138  1  0.38573192  0.49915974  0.49947024  1
  Ru4+  Ru139  1  0.38896103  0.50176644  0.75076705  1
  Ru4+  Ru140  1  0.38543295  0.83549754  0.00205996  1
  Ru4+  Ru141  1  0.38577779  0.83256232  0.25167124  1
  Ru4+  Ru142  1  0.38645291  0.82847902  0.49863001  1
  Ru4+  Ru143  1  0.38488001  0.83147899  0.74753390  1
  Ru4+  Ru144  1  0.89021732  0.16249980  0.00055365  1
  Ru4+  Ru145  1  0.89131278  0.16483365  0.24814711  1
  Ru4+  Ru146  1  0.88954473  0.17112831  0.50372263  1
  Ru4+  Ru147  1  0.88775143  0.16448027  0.75085512  1
  Ru4+  Ru148  1  0.88809029  0.49954873  0.00275671  1
  Ru4+  Ru149  1  0.88430743  0.49782494  0.24995720  1
  Ru4+  Ru150  1  0.88995352  0.50242052  0.50021670  1
  Ru4+  Ru151  1  0.89061738  0.49695591  0.75071065  1
  Ru4+  Ru152  1  0.88387580  0.83740661  -0.00248993  1
  Ru4+  Ru153  1  0.88256641  0.83431715  0.25210523  1
  Ru4+  Ru154  1  0.89036098  0.83141203  0.50191398  1
  Ru4+  Ru155  1  0.89377193  0.83406557  0.74836947  1
  Ru4+  Ru156  1  0.74948098  0.59279404  0.48359935  1
  Ru4+  Ru157  1  0.25016358  0.88779884  0.26478188  1
  Ru4+  Ru158  1  0.74987233  0.57633420  0.25773390  1
  Ru4+  Ru159  1  0.25010685  0.42081106  0.00923493  1
  Ru4+  Ru160  1  0.25031637  0.42376318  0.50528300  1
  Ru4+  Ru161  1  0.74942255  0.89345817  0.24311588  1
  Ru4+  Ru162  1  0.75035648  0.24027931  0.74605587  1
  Ru4+  Ru163  1  0.74994189  0.70482977  0.01015520  1
  Ru4+  Ru164  1  0.24999487  0.02936611  0.29087125  1
  Ru4+  Ru165  1  0.74980351  0.96743163  0.01180517  1
  Ru4+  Ru166  1  0.24995226  0.05091473  0.74789356  1
  Ru4+  Ru167  1  0.75041712  0.25340100  -0.00307447  1
  Ru4+  Ru168  1  0.75035925  0.73800312  0.47696167  1
  Ru4+  Ru169  1  0.25102574  0.06226652  -0.01624573  1
  Ru4+  Ru170  1  0.25057339  0.39895166  0.75457734  1
  Ru4+  Ru171  1  0.25040353  0.29354842  0.21933411  1
  Ru4+  Ru172  1  0.25068653  0.43564514  0.24179483  1
  Ru4+  Ru173  1  0.74983000  0.57243347  0.00595411  1
  Ru4+  Ru174  1  0.74984892  0.29654997  0.26553302  1
  Ru4+  Ru175  1  0.75005209  0.09358698  0.49617734  1
  Ru4+  Ru176  1  0.75016495  0.94000900  0.76229374  1
  Ru4+  Ru177  1  0.75010055  0.42933632  -0.00479461  1
  Ru4+  Ru178  1  0.75034123  0.38409144  0.74555506  1
  Ru4+  Ru179  1  0.74929045  0.02484314  0.22568748  1
  O2-  O180  1  0.16562683  0.07875631  0.00011855  1
  O2-  O181  1  0.16306921  0.07730378  0.25090748  1
  O2-  O182  1  0.16666148  0.08154458  0.50312631  1
  O2-  O183  1  0.16588115  0.07750757  0.74900036  1
  O2-  O184  1  0.16584853  0.41211045  -0.00029400  1
  O2-  O185  1  0.17006678  0.41618266  0.24603830  1
  O2-  O186  1  0.16563506  0.41399183  0.50278749  1
  O2-  O187  1  0.16788244  0.41311006  0.75131440  1
  O2-  O188  1  0.16595991  0.74772040  0.00060802  1
  O2-  O189  1  0.16519272  0.74712563  0.25030021  1
  O2-  O190  1  0.16582625  0.74936055  0.50024632  1
  O2-  O191  1  0.16505310  0.74870831  0.74963210  1
  O2-  O192  1  0.66263391  0.07590298  0.00298283  1
  O2-  O193  1  0.66475041  0.07733326  0.24789544  1
  O2-  O194  1  0.66741287  0.08177910  0.49974322  1
  O2-  O195  1  0.66696524  0.08105181  0.74964726  1
  O2-  O196  1  0.66693240  0.41247398  0.00103903  1
  O2-  O197  1  0.66798268  0.41694974  0.24984267  1
  O2-  O198  1  0.65975293  0.40961029  0.50114942  1
  O2-  O199  1  0.67057005  0.41280179  0.75166739  1
  O2-  O200  1  0.66526847  0.74388896  0.00047723  1
  O2-  O201  1  0.66842130  0.74674443  0.25001262  1
  O2-  O202  1  0.66613086  0.74648602  0.49832198  1
  O2-  O203  1  0.66558244  0.74739136  0.75621920  1
  O2-  O204  1  0.34020400  0.25779477  0.00398858  1
  O2-  O205  1  0.33270999  0.25468971  0.24786539  1
  O2-  O206  1  0.33046955  0.24954854  0.49954157  1
  O2-  O207  1  0.33751995  0.25767366  0.74989838  1
  O2-  O208  1  0.33285803  0.58334214  -0.00105449  1
  O2-  O209  1  0.33555798  0.58346355  0.24970719  1
  O2-  O210  1  0.33413249  0.58162535  0.49929905  1
  O2-  O211  1  0.33734162  0.58893737  0.74945415  1
  O2-  O212  1  0.33286204  0.91558457  0.00341592  1
  O2-  O213  1  0.33260477  0.91626152  0.25050333  1
  O2-  O214  1  0.33742616  0.91799490  0.50158011  1
  O2-  O215  1  0.33244812  0.91344724  0.75040941  1
  O2-  O216  1  0.83406823  0.25493138  0.00008781  1
  O2-  O217  1  0.83491828  0.25533975  0.25137537  1
  O2-  O218  1  0.83549273  0.25173916  0.49885121  1
  O2-  O219  1  0.83375677  0.25361126  0.75049498  1
  O2-  O220  1  0.83423119  0.58546737  0.00199917  1
  O2-  O221  1  0.83083059  0.58559280  0.24978640  1
  O2-  O222  1  0.83065355  0.58554212  0.49541518  1
  O2-  O223  1  0.83642057  0.58530327  0.75329783  1
  O2-  O224  1  0.83226891  0.92328855  0.00068595  1
  O2-  O225  1  0.82825153  0.91699903  0.24520694  1
  O2-  O226  1  0.83393233  0.92327219  0.49926459  1
  O2-  O227  1  0.83228255  0.92077268  0.75189322  1
  O2-  O228  1  0.16098639  0.25855598  0.00385738  1
  O2-  O229  1  0.16775527  0.25480129  0.24833116  1
  O2-  O230  1  0.16768748  0.24915086  0.50469231  1
  O2-  O231  1  0.15846440  0.25650650  0.74881186  1
  O2-  O232  1  0.16404366  0.58461490  -0.00058737  1
  O2-  O233  1  0.16552460  0.58459684  0.24996017  1
  O2-  O234  1  0.16432332  0.58318702  0.49985706  1
  O2-  O235  1  0.16236807  0.58958387  0.75020876  1
  O2-  O236  1  0.16469808  0.91913200  0.00130736  1
  O2-  O237  1  0.16663843  0.92050275  0.25094134  1
  O2-  O238  1  0.16680851  0.92015086  0.50397709  1
  O2-  O239  1  0.16789865  0.91893239  0.74726973  1
  O2-  O240  1  0.66563262  0.25394188  -0.00014068  1
  O2-  O241  1  0.66577885  0.25635868  0.24906100  1
  O2-  O242  1  0.66895775  0.25220178  0.49998718  1
  O2-  O243  1  0.66594986  0.25354227  0.75062919  1
  O2-  O244  1  0.66833940  0.58553033  0.00129173  1
  O2-  O245  1  0.66805526  0.58487352  0.25061547  1
  O2-  O246  1  0.66574315  0.58586175  0.49671039  1
  O2-  O247  1  0.66147962  0.58869073  0.75449593  1
  O2-  O248  1  0.66936285  0.92316110  0.00132072  1
  O2-  O249  1  0.66590935  0.91765200  0.24897875  1
  O2-  O250  1  0.66260181  0.92264891  0.49980430  1
  O2-  O251  1  0.66852021  0.91721648  0.75041038  1
  O2-  O252  1  0.33480014  0.07765863  -0.00016328  1
  O2-  O253  1  0.33703650  0.07690087  0.25072233  1
  O2-  O254  1  0.33392579  0.08280036  0.49782123  1
  O2-  O255  1  0.33346917  0.08065922  0.75019225  1
  O2-  O256  1  0.33533167  0.41178086  -0.00076559  1
  O2-  O257  1  0.33172117  0.41561757  0.24708828  1
  O2-  O258  1  0.33400585  0.41526137  0.50201295  1
  O2-  O259  1  0.33421950  0.41198628  0.75103550  1
  O2-  O260  1  0.33331446  0.75191123  0.00136431  1
  O2-  O261  1  0.33202723  0.75081787  0.24919018  1
  O2-  O262  1  0.33514254  0.75063893  0.50105312  1
  O2-  O263  1  0.33194325  0.75157180  0.75108080  1
  O2-  O264  1  0.83759033  0.07672295  0.00146280  1
  O2-  O265  1  0.83273672  0.07929212  0.24872285  1
  O2-  O266  1  0.83210975  0.08350711  0.50192653  1
  O2-  O267  1  0.83667628  0.08091461  0.75182749  1
  O2-  O268  1  0.83178276  0.41499922  -0.00078064  1
  O2-  O269  1  0.83191096  0.41631547  0.25138166  1
  O2-  O270  1  0.84074904  0.40990622  0.50095299  1
  O2-  O271  1  0.83058936  0.41212716  0.74933347  1
  O2-  O272  1  0.83301979  0.74579627  0.00380426  1
  O2-  O273  1  0.83307838  0.74506489  0.24913198  1
  O2-  O274  1  0.83472603  0.74572298  0.49686838  1
  O2-  O275  1  0.83610538  0.74675140  0.75413860  1
  O2-  O276  1  0.05180232  0.75983041  0.26767840  1
  O2-  O277  1  0.04567420  0.42836131  0.48693091  1
  O2-  O278  1  0.94839187  0.23854191  0.51593584  1
  O2-  O279  1  0.46135868  0.55671964  0.47632201  1
  O2-  O280  1  0.96636318  0.90278173  0.21010974  1
  O2-  O281  1  0.03684722  0.44045540  0.23863132  1
  O2-  O282  1  0.95236975  0.76051695  0.25639076  1
  O2-  O283  1  0.04975117  0.23867336  0.98585000  1
  O2-  O284  1  0.44886764  0.23305067  0.48096190  1
  O2-  O285  1  0.45486138  0.57038730  0.23739787  1
  O2-  O286  1  0.05197045  0.57638143  0.77389032  1
  O2-  O287  1  0.04472117  0.22292703  0.52858364  1
  O2-  O288  1  0.54578450  0.57339256  0.99020329  1
  O2-  O289  1  0.45975042  0.09771241  0.72915810  1
  O2-  O290  1  0.45696656  0.10278081  0.26185072  1
  O2-  O291  1  0.94707786  0.57533267  0.26341348  1
  O2-  O292  1  0.46969440  0.88429833  0.74851542  1
  O2-  O293  1  0.05033885  0.57538678  0.23754602  1
  O2-  O294  1  0.54766381  0.76141909  0.49753157  1
  O2-  O295  1  0.04662356  0.57080446  0.00666725  1
  O2-  O296  1  0.95190557  0.23656978  0.23573871  1
  O2-  O297  1  0.45722181  0.43302194  0.21962616  1
  O2-  O298  1  0.46586690  0.88710153  0.04106390  1
  O2-  O299  1  0.04818004  0.09363582  0.23876296  1
  O2-  O300  1  0.95904424  0.55472623  0.45651286  1
  O2-  O301  1  0.44697517  0.77200867  0.48532601  1
  O2-  O302  1  0.45536209  0.22746528  0.50686979  1
  O2-  O303  1  0.94889115  0.90674506  0.98890642  1
  O2-  O304  1  0.05161580  0.57554751  0.51591245  1
  O2-  O305  1  0.53906594  0.77984727  0.78142612  1
  O2-  O306  1  0.55371267  0.42171217  0.22523675  1
  O2-  O307  1  0.54852380  0.76256121  0.50655004  1
  O2-  O308  1  0.94081660  0.57320151  0.69575448  1
  O2-  O309  1  0.46496015  0.78235049  0.26255214  1
  O2-  O310  1  0.94799309  0.76280837  0.98248551  1
  O2-  O311  1  0.45625831  0.88194628  0.78107290  1
  O2-  O312  1  0.54499749  0.56676666  0.76267817  1
  O2-  O313  1  0.45505239  0.43279191  0.76491027  1
  O2-  O314  1  0.04694140  0.42587504  0.01141225  1
  O2-  O315  1  0.04544176  0.09907767  0.75772779  1
  O2-  O316  1  0.04964546  0.90350849  0.98828960  1
  O2-  O317  1  0.94511438  0.41764673  0.22876144  1
  O2-  O318  1  0.04840776  0.75969390  0.97891093  1
  O2-  O319  1  0.95145647  0.23486860  0.01579944  1
  O2-  O320  1  0.04523637  0.76361374  0.76276208  1
  O2-  O321  1  0.54480611  0.09799263  0.99595316  1
  O2-  O322  1  0.94949051  0.75873466  0.24598632  1
  O2-  O323  1  0.44972923  0.10027862  0.76482042  1
  O2-  O324  1  0.06391377  0.07320748  0.46651350  1
  O2-  O325  1  0.43662179  0.59097073  0.77639088  1
  O2-  O326  1  0.56653620  0.92365622  0.97759650  1
  O2-  O327  1  0.93232514  0.41875186  0.81647019  1
  O2-  O328  1  0.56422154  0.73512106  0.21572305  1
  O2-  O329  1  0.08387954  0.39208882  0.28859284  1
  O2-  O330  1  0.43026708  0.59726835  0.53873821  1
  O2-  O331  1  0.07359358  0.26416034  0.46037850  1
  O2-  O332  1  0.42480055  0.97180221  0.68855551  1
  O2-  O333  1  0.43529692  0.58854567  0.02730363  1
  O2-  O334  1  0.43373052  0.74342748  0.72423294  1
  O2-  O335  1  0.06465091  0.26100839  0.21295342  1
  O2-  O336  1  0.42868692  0.26255987  0.52748664  1
  O2-  O337  1  0.92177004  0.61005563  0.54810498  1
  O2-  O338  1  0.93744491  0.73218939  0.97000369  1
  O2-  O339  1  0.93538195  0.07058004  0.21212907  1
  O2-  O340  1  0.93999183  0.40947027  0.22244121  1
  O2-  O341  1  0.56240193  0.07681768  0.77342562  1
  O2-  O342  1  0.42189175  0.93601744  0.94942196  1
  O2-  O343  1  0.06093558  0.92597855  0.46803326  1
  O2-  O344  1  0.42269818  0.72446157  0.27843454  1
  O2-  O345  1  0.42337195  0.40372208  0.29221642  1
  O2-  O346  1  0.94925167  0.56870493  0.71056627  1
  O2-  O347  1  0.06523787  0.40825086  0.72734999  1
  O2-  O348  1  0.93557952  0.40459531  0.03133815  1
  O2-  O349  1  0.93374489  0.07596541  0.45669116  1
  O2-  O350  1  0.93974820  0.92597930  0.53566335  1
  O2-  O351  1  0.06236887  0.93042812  0.71116915  1
  O2-  O352  1  0.57055977  0.24819127  0.43147241  1
  O2-  O353  1  0.43667677  0.26067375  0.72750237  1
  O2-  O354  1  0.93642375  0.07435105  0.55370609  1
  O2-  O355  1  0.43813212  0.26215619  0.21425788  1
  O2-  O356  1  0.57235842  0.71906899  0.68990616  1
  O2-  O357  1  0.56212328  0.07203652  0.53615170  1
  O2-  O358  1  0.55652063  0.41522319  0.22005510  1
  O2-  O359  1  0.56676048  0.59013576  0.97848907  1
  O2-  O360  1  0.56711644  0.40707113  0.72801901  1
  O2-  O361  1  0.43608123  0.74556269  0.97335794  1
  O2-  O362  1  0.56993163  0.24786190  0.56792983  1
  O2-  O363  1  0.56748582  0.92553612  0.77499558  1
  O2-  O364  1  0.43374288  0.92763328  0.26918940  1
  O2-  O365  1  0.06185481  0.73925209  0.53248831  1
  O2-  O366  1  0.91726268  0.93152856  0.30946311  1
  O2-  O367  1  0.43875884  0.06947217  0.53785222  1
  O2-  O368  1  0.93536239  0.40260690  0.67547344  1
  O2-  O369  1  0.93617900  0.60952051  0.84541394  1
  O2-  O370  1  0.05835168  0.59084446  0.78246945  1
  O2-  O371  1  0.43373580  0.40884132  0.47357923  1
  O2-  O372  1  0.75038234  0.34513835  0.37191668  1
  O2-  O373  1  0.25008586  0.33056865  0.45113616  1
  O2-  O374  1  0.24997972  0.66650650  0.82884418  1
  O2-  O375  1  0.24985287  -0.01718647  0.06314284  1
  O2-  O376  1  0.75006994  0.00989235  0.66722557  1
  O2-  O377  1  0.25002635  -0.00640877  0.17844256  1
  O2-  O378  1  0.24991142  0.34554804  0.89517810  1
  O2-  O379  1  0.74991893  0.36204261  0.17880894  1
  O2-  O380  1  0.24921705  0.66864836  0.40142515  1
  O2-  O381  1  0.74996331  0.66862344  0.57384366  1
  O2-  O382  1  0.74955809  0.34144614  0.06356624  1
  O2-  O383  1  0.74978507  0.66954487  0.69307587  1
  O2-  O384  1  0.24998455  0.33523328  0.65089231  1
  O2-  O385  1  0.24881004  0.66399436  0.60496452  1
  O2-  O386  1  0.24986194  0.34746919  0.32444265  1
  O2-  O387  1  0.24996429  -0.02979623  0.91840603  1
  O2-  O388  1  0.25030547  -0.02400037  0.82952987  1
  O2-  O389  1  0.74968856  -0.00674810  0.35703274  1
  O2-  O390  1  0.74984501  0.00223720  0.57597070  1
  O2-  O391  1  0.25006849  0.66578769  0.91812476  1
  O2-  O392  1  0.25017796  0.66644661  0.08278016  1
  O2-  O393  1  0.24979848  0.66603441  0.16915942  1
  O2-  O394  1  0.74992526  0.33968329  0.89795578  1
  O2-  O395  1  0.24931320  0.00250166  0.40301495  1
  O2-  O396  1  0.24947419  0.83808035  0.16551098  1
  O2-  O397  1  0.24940744  0.13807953  0.06399997  1
  O2-  O398  1  0.25012072  0.50428454  0.33121708  1
  O2-  O399  1  0.24921304  0.16737676  0.41052456  1
  O2-  O400  1  0.24966739  0.83995499  0.38561133  1
  O2-  O401  1  0.25034806  0.48482224  0.85475104  1
  O2-  O402  1  0.25002054  0.21155357  0.63790577  1
  O2-  O403  1  0.24996742  0.49054450  0.09995234  1
  O2-  O404  1  0.24935132  0.22045948  0.11034786  1
  O2-  O405  1  0.74992432  0.17496817  0.65760546  1
  O2-  O406  1  0.24964429  0.12953743  0.86943677  1
  O2-  O407  1  0.74994015  0.16326773  0.41123724  1
  O2-  O408  1  0.24971634  0.48285090  0.60800847  1
  O2-  O409  1  0.24971946  0.18040120  0.33271504  1
  O2-  O410  1  0.75013459  0.50270530  0.90186679  1
  O2-  O411  1  0.74987153  0.17257608  0.83895385  1
  O2-  O412  1  0.25036785  0.50684850  0.93959632  1
  O2-  O413  1  0.74989362  0.84158232  0.12272893  1
  O2-  O414  1  0.74999625  0.50428845  0.62061984  1
  O2-  O415  1  0.74995915  0.82488057  0.38837773  1
  O2-  O416  1  0.24981456  0.13661478  0.67879221  1
  O2-  O417  1  0.25007319  0.49854713  0.42257324  1
  O2-  O418  1  0.75005907  0.52121419  0.36863369  1
  O2-  O419  1  0.74998052  0.17592707  0.10709917  1
  O2-  O420  1  0.48140554  0.66450175  0.62616757  1
  O2-  O421  1  0.96347003  0.33714785  0.37932964  1
  O2-  O422  1  0.46683028  0.35169504  0.62436326  1
  O2-  O423  1  0.47712067  0.67608691  0.12669091  1
  O2-  O424  1  0.52795743  0.34064959  0.62518392  1
  O2-  O425  1  0.52807783  0.33212751  0.87442146  1
  O2-  O426  1  0.53286494  0.66218216  0.37132456  1
  O2-  O427  1  0.95312981  0.00641684  0.86784577  1
  O2-  O428  1  0.47272101  0.32503573  0.37540577  1
  O2-  O429  1  0.97821178  0.32131616  0.87817729  1
  O2-  O430  1  0.47198832  0.66565515  0.87505071  1
  O2-  O431  1  0.53007408  0.00378465  0.88281723  1
  O2-  O432  1  0.02805697  0.67314471  0.12512245  1
  O2-  O433  1  0.02160071  0.33361685  0.37388867  1
  O2-  O434  1  0.53125280  0.34486180  0.36670101  1
  O2-  O435  1  0.47577056  0.66326572  0.37698556  1
  O2-  O436  1  0.45708841  0.00620164  0.38852475  1
  O2-  O437  1  0.04607597  0.00079251  0.87500398  1
  O2-  O438  1  0.02452422  0.32931582  0.62187851  1
  O2-  O439  1  0.98417824  -0.00160772  0.37326113  1
  O2-  O440  1  0.97928734  0.69436487  0.62633762  1
  O2-  O441  1  0.46505353  0.01313760  0.86672722  1
  O2-  O442  1  0.53191687  0.67243837  0.87466755  1
  O2-  O443  1  0.54689296  -0.00023390  0.37257053  1
