# generated using pymatgen
data_La7(Ru4O11)2
_symmetry_space_group_name_H-M   'P 1'
_cell_length_a   23.99611355
_cell_length_b   16.83611550
_cell_length_c   15.43266191
_cell_angle_alpha   89.99945345
_cell_angle_beta   90.00085341
_cell_angle_gamma   90.00315594
_symmetry_Int_Tables_number   1
_chemical_formula_structural   La7(Ru4O11)2
_chemical_formula_sum   'La84 Ru96 O264'
_cell_volume   6234.81607005
_cell_formula_units_Z   12
loop_
 _symmetry_equiv_pos_site_id
 _symmetry_equiv_pos_as_xyz
  1  'x, y, z'
loop_
 _atom_type_symbol
 _atom_type_oxidation_number
  La3+  3.0
  Ru4+  4.0
  O2-  -2.0
loop_
 _atom_site_type_symbol
 _atom_site_label
 _atom_site_symmetry_multiplicity
 _atom_site_fract_x
 _atom_site_fract_y
 _atom_site_fract_z
 _atom_site_occupancy
  La3+  La0  1  0.14015858  -0.00568787  0.12727244  1
  La3+  La1  1  0.14052613  -0.00283147  0.36953400  1
  La3+  La2  1  0.14107337  -0.00479645  0.62238551  1
  La3+  La3  1  0.13114340  -0.00190605  0.86572690  1
  La3+  La4  1  0.13244830  0.33497818  0.12308987  1
  La3+  La5  1  0.13810788  0.33337827  0.37661677  1
  La3+  La6  1  0.14849972  0.33528781  0.62860241  1
  La3+  La7  1  0.14181876  0.33202990  0.87476666  1
  La3+  La8  1  0.13976514  0.67069874  0.12687243  1
  La3+  La9  1  0.14685352  0.66758296  0.37527993  1
  La3+  La10  1  0.13258964  0.66295320  0.62823102  1
  La3+  La11  1  0.13975381  0.67209472  0.87110282  1
  La3+  La12  1  0.63916592  0.00004538  0.13038048  1
  La3+  La13  1  0.63101576  0.00190590  0.36953852  1
  La3+  La14  1  0.63557060  -0.00044982  0.62527871  1
  La3+  La15  1  0.64380417  0.00644043  0.87427452  1
  La3+  La16  1  0.65310584  0.32943000  0.12842315  1
  La3+  La17  1  0.63218080  0.32942636  0.37677503  1
  La3+  La18  1  0.64923351  0.33905450  0.62853897  1
  La3+  La19  1  0.64260119  0.32904464  0.87405292  1
  La3+  La20  1  0.64775817  0.66109655  0.12502256  1
  La3+  La21  1  0.63400756  0.66876023  0.38023348  1
  La3+  La22  1  0.63707942  0.66330281  0.62418374  1
  La3+  La23  1  0.66025315  0.66212277  0.87277007  1
  La3+  La24  1  0.36527140  -0.00810311  0.13628906  1
  La3+  La25  1  0.36628649  -0.00407000  0.37192244  1
  La3+  La26  1  0.35927849  0.00007395  0.62397760  1
  La3+  La27  1  0.36669031  0.00042315  0.87940922  1
  La3+  La28  1  0.35581491  0.33792851  0.13478694  1
  La3+  La29  1  0.36096023  0.33352040  0.37677886  1
  La3+  La30  1  0.35168854  0.34096693  0.62448411  1
  La3+  La31  1  0.35564173  0.33401635  0.87298069  1
  La3+  La32  1  0.35508195  0.67504901  0.13097432  1
  La3+  La33  1  0.35233050  0.67225864  0.37686771  1
  La3+  La34  1  0.35378036  0.65967007  0.62251330  1
  La3+  La35  1  0.35617173  0.66811509  0.87425035  1
  La3+  La36  1  0.85292052  0.00232913  0.12863906  1
  La3+  La37  1  0.85527135  0.00721330  0.37212717  1
  La3+  La38  1  0.87155000  0.00537988  0.62824583  1
  La3+  La39  1  0.86302532  0.00744368  0.87194975  1
  La3+  La40  1  0.85162895  0.33400666  0.12222992  1
  La3+  La41  1  0.87067413  0.33049566  0.37641435  1
  La3+  La42  1  0.85697751  0.33835627  0.62734798  1
  La3+  La43  1  0.85690211  0.33180519  0.87083654  1
  La3+  La44  1  0.85564848  0.66563560  0.12405882  1
  La3+  La45  1  0.85939087  0.66325793  0.37287809  1
  La3+  La46  1  0.86040036  0.65393008  0.62713281  1
  La3+  La47  1  0.84143695  0.66291212  0.87654422  1
  La3+  La48  1  0.00093428  0.49002476  0.87859039  1
  La3+  La49  1  0.52439162  0.48750620  0.61604150  1
  La3+  La50  1  0.50180090  0.83403531  0.86554517  1
  La3+  La51  1  0.49693043  0.81890495  0.62371604  1
  La3+  La52  1  0.00259695  0.83548376  0.87156046  1
  La3+  La53  1  0.49868869  0.50444881  0.12779186  1
  La3+  La54  1  0.50305124  0.15556019  0.86008529  1
  La3+  La55  1  -0.00166909  0.83572032  0.63800709  1
  La3+  La56  1  0.51033815  0.15768398  0.87924869  1
  La3+  La57  1  0.50402949  0.49279462  0.87767663  1
  La3+  La58  1  0.50336779  0.83643469  0.36564542  1
  La3+  La59  1  0.50048964  0.17246541  0.61938038  1
  La3+  La60  1  0.50380317  0.84547495  0.11732034  1
  La3+  La61  1  0.00371138  0.17935847  0.38608676  1
  La3+  La62  1  0.50227127  0.83449282  0.13603138  1
  La3+  La63  1  0.00217179  0.83566928  0.36867352  1
  La3+  La64  1  -0.00257764  0.48848566  0.13511824  1
  La3+  La65  1  0.50354865  0.84655752  0.38527025  1
  La3+  La66  1  0.49732002  0.49445422  0.14738755  1
  La3+  La67  1  0.00778351  0.84787859  0.62756271  1
  La3+  La68  1  -0.00378569  0.17144457  0.13010751  1
  La3+  La69  1  -0.00382794  0.49191221  0.85721599  1
  La3+  La70  1  0.50030850  0.49472776  0.85630337  1
  La3+  La71  1  -0.00134947  0.83683222  0.11996252  1
  La3+  La72  1  0.75019853  0.77945161  0.02721626  1
  La3+  La73  1  0.75176026  0.18447969  0.23934238  1
  La3+  La74  1  0.75008045  0.13690969  0.58172845  1
  La3+  La75  1  0.74912889  0.78896581  0.69948814  1
  La3+  La76  1  0.25086269  0.55340507  0.24735084  1
  La3+  La77  1  0.24643926  0.78129534  0.51311832  1
  La3+  La78  1  0.25022035  0.50497833  0.51074139  1
  La3+  La79  1  0.74930313  0.50190147  0.52272719  1
  La3+  La80  1  0.75189660  0.82773802  0.27341474  1
  La3+  La81  1  0.74964563  0.43667630  0.27389776  1
  La3+  La82  1  0.75207617  0.85517543  0.49387970  1
  La3+  La83  1  0.24693737  0.16126791  0.01986250  1
  Ru4+  Ru84  1  0.00602885  0.00865876  -0.00661481  1
  Ru4+  Ru85  1  -0.00167239  -0.00223090  0.26847653  1
  Ru4+  Ru86  1  -0.00635205  0.00620003  0.48180962  1
  Ru4+  Ru87  1  0.00320192  0.02043657  0.74993454  1
  Ru4+  Ru88  1  0.00217547  0.32761569  0.01857868  1
  Ru4+  Ru89  1  0.00005609  0.33171460  0.25289377  1
  Ru4+  Ru90  1  -0.00180495  0.33848768  0.52060142  1
  Ru4+  Ru91  1  0.00037680  0.31461736  0.75539000  1
  Ru4+  Ru92  1  0.00964533  0.66298352  -0.01147161  1
  Ru4+  Ru93  1  0.00428135  0.66764378  0.26112271  1
  Ru4+  Ru94  1  -0.00944459  0.67501762  0.49527908  1
  Ru4+  Ru95  1  -0.00309867  0.65723422  0.74019986  1
  Ru4+  Ru96  1  0.49998663  0.00157203  0.00074839  1
  Ru4+  Ru97  1  0.49701962  0.01449086  0.24337399  1
  Ru4+  Ru98  1  0.49691499  0.01044819  0.51406539  1
  Ru4+  Ru99  1  0.50171515  -0.01229934  0.74346048  1
  Ru4+  Ru100  1  0.49670565  0.31793469  0.01136615  1
  Ru4+  Ru101  1  0.50132238  0.32291446  0.25468859  1
  Ru4+  Ru102  1  0.51143244  0.32258896  0.48402510  1
  Ru4+  Ru103  1  0.48655928  0.33646732  0.75189144  1
  Ru4+  Ru104  1  0.50390307  0.66709694  -0.00396725  1
  Ru4+  Ru105  1  0.49743052  0.66018734  0.25620287  1
  Ru4+  Ru106  1  0.49054877  0.65890888  0.51481222  1
  Ru4+  Ru107  1  0.49284341  0.65385475  0.73286114  1
  Ru4+  Ru108  1  0.10507696  0.15255374  -0.00219185  1
  Ru4+  Ru109  1  0.11132658  0.16554440  0.25203184  1
  Ru4+  Ru110  1  0.11133288  0.16981195  0.50387667  1
  Ru4+  Ru111  1  0.10172870  0.15949084  0.74130434  1
  Ru4+  Ru112  1  0.11012625  0.50955936  0.00431560  1
  Ru4+  Ru113  1  0.10497793  0.50114544  0.25442489  1
  Ru4+  Ru114  1  0.10323253  0.48881665  0.50506599  1
  Ru4+  Ru115  1  0.11333857  0.49699898  0.74357864  1
  Ru4+  Ru116  1  0.11250919  0.83038970  0.00396559  1
  Ru4+  Ru117  1  0.11092789  0.83799200  0.24656596  1
  Ru4+  Ru118  1  0.11178098  0.84062327  0.48850338  1
  Ru4+  Ru119  1  0.12404171  0.83555070  0.75407797  1
  Ru4+  Ru120  1  0.61637713  0.16645619  0.00282555  1
  Ru4+  Ru121  1  0.60741668  0.16932726  0.24778023  1
  Ru4+  Ru122  1  0.60559229  0.17286138  0.50042110  1
  Ru4+  Ru123  1  0.61768699  0.16315652  0.74888696  1
  Ru4+  Ru124  1  0.62073639  0.49616529  0.00341572  1
  Ru4+  Ru125  1  0.60649887  0.49765159  0.25120874  1
  Ru4+  Ru126  1  0.60870342  0.49846016  0.49586110  1
  Ru4+  Ru127  1  0.62208386  0.50004918  0.74367479  1
  Ru4+  Ru128  1  0.60981152  0.83107368  -0.00504881  1
  Ru4+  Ru129  1  0.62077609  0.82964015  0.24851077  1
  Ru4+  Ru130  1  0.61423502  0.83944392  0.50885251  1
  Ru4+  Ru131  1  0.60721132  0.83236608  0.75606119  1
  Ru4+  Ru132  1  0.38699081  0.16627323  0.00808110  1
  Ru4+  Ru133  1  0.39294397  0.16413556  0.24331243  1
  Ru4+  Ru134  1  0.39317504  0.16086128  0.49770859  1
  Ru4+  Ru135  1  0.38631104  0.17100657  0.74671434  1
  Ru4+  Ru136  1  0.38715997  0.50383542  0.00416316  1
  Ru4+  Ru137  1  0.39471476  0.50163765  0.25318265  1
  Ru4+  Ru138  1  0.39861560  0.50738582  0.49125428  1
  Ru4+  Ru139  1  0.38655027  0.50057253  0.74565941  1
  Ru4+  Ru140  1  0.38606423  0.83264555  -0.00524762  1
  Ru4+  Ru141  1  0.37756421  0.82537548  0.25328390  1
  Ru4+  Ru142  1  0.38699880  0.83367025  0.50513787  1
  Ru4+  Ru143  1  0.38940816  0.83656469  0.75428485  1
  Ru4+  Ru144  1  0.88895622  0.16380081  -0.00664872  1
  Ru4+  Ru145  1  0.88970550  0.16019772  0.24636016  1
  Ru4+  Ru146  1  0.88778685  0.17016248  0.50448694  1
  Ru4+  Ru147  1  0.88945347  0.16525242  0.75630940  1
  Ru4+  Ru148  1  0.87866281  0.49284039  0.00030670  1
  Ru4+  Ru149  1  0.89302124  0.50304847  0.25304181  1
  Ru4+  Ru150  1  0.89286617  0.49861051  0.49962439  1
  Ru4+  Ru151  1  0.88554810  0.49943776  0.74589003  1
  Ru4+  Ru152  1  0.89325090  0.83726591  -0.00032019  1
  Ru4+  Ru153  1  0.89458343  0.83551380  0.24797643  1
  Ru4+  Ru154  1  0.89226216  0.82397222  0.49239427  1
  Ru4+  Ru155  1  0.88455570  0.83360337  0.75648970  1
  Ru4+  Ru156  1  0.74916734  0.94081155  0.75094651  1
  Ru4+  Ru157  1  0.25030130  0.08058015  0.51185053  1
  Ru4+  Ru158  1  0.74982616  0.70447746  0.50929977  1
  Ru4+  Ru159  1  0.25361793  0.90786540  0.75407401  1
  Ru4+  Ru160  1  0.24880593  0.57097554  0.74640878  1
  Ru4+  Ru161  1  0.24988656  0.75528502  0.01756265  1
  Ru4+  Ru162  1  0.75057762  0.23863150  -0.02993557  1
  Ru4+  Ru163  1  0.24918801  0.57920468  0.01428660  1
  Ru4+  Ru164  1  0.74967614  0.58991177  0.24338129  1
  Ru4+  Ru165  1  0.74967852  0.94285677  0.00365569  1
  Ru4+  Ru166  1  0.25018760  0.93814086  0.48386098  1
  Ru4+  Ru167  1  0.24966273  0.43879610  -0.00621094  1
  Ru4+  Ru168  1  0.25189156  0.76257659  0.74318372  1
  Ru4+  Ru169  1  0.25039938  0.06948359  0.24276661  1
  Ru4+  Ru170  1  0.24902457  0.30499046  0.00450223  1
  Ru4+  Ru171  1  0.25109442  0.25422245  0.51135767  1
  Ru4+  Ru172  1  0.24868082  0.89944393  0.01271386  1
  Ru4+  Ru173  1  0.25028971  0.24780913  0.24030157  1
  Ru4+  Ru174  1  0.75067895  0.99963535  0.49896063  1
  Ru4+  Ru175  1  0.25099754  0.02796079  -0.02953538  1
  Ru4+  Ru176  1  0.74972770  0.28047197  0.51168521  1
  Ru4+  Ru177  1  0.25027700  0.09456679  0.75592152  1
  Ru4+  Ru178  1  0.24835756  0.23525840  0.75304642  1
  Ru4+  Ru179  1  0.24786112  0.40732367  0.22904197  1
  O2-  O180  1  0.16849707  0.07234471  -0.00492524  1
  O2-  O181  1  0.16494140  0.07719256  0.24628881  1
  O2-  O182  1  0.17048628  0.08366827  0.50294976  1
  O2-  O183  1  0.17079235  0.08445376  0.75375159  1
  O2-  O184  1  0.16479867  0.42266077  0.00065816  1
  O2-  O185  1  0.16519461  0.41577589  0.24932746  1
  O2-  O186  1  0.16690003  0.42091213  0.49639529  1
  O2-  O187  1  0.16280763  0.41286006  0.75431154  1
  O2-  O188  1  0.16861127  0.74867190  0.00205153  1
  O2-  O189  1  0.15918001  0.74892038  0.25047628  1
  O2-  O190  1  0.15418249  0.73962430  0.50495184  1
  O2-  O191  1  0.16947298  0.74609309  0.74608941  1
  O2-  O192  1  0.66438521  0.08026722  -0.00305747  1
  O2-  O193  1  0.66337097  0.08233714  0.24840615  1
  O2-  O194  1  0.67141095  0.08272870  0.51105033  1
  O2-  O195  1  0.67449648  0.08032550  0.74091281  1
  O2-  O196  1  0.66273356  0.40601975  -0.00295887  1
  O2-  O197  1  0.65776024  0.41062659  0.25205534  1
  O2-  O198  1  0.66553662  0.41454271  0.49316532  1
  O2-  O199  1  0.66326525  0.40862556  0.75754873  1
  O2-  O200  1  0.65645757  0.74284870  0.00297885  1
  O2-  O201  1  0.66745660  0.74142839  0.25373360  1
  O2-  O202  1  0.66925773  0.74506939  0.49837207  1
  O2-  O203  1  0.66627672  0.74579388  0.74462477  1
  O2-  O204  1  0.33098323  0.25382428  0.00263522  1
  O2-  O205  1  0.33572991  0.25079334  0.25245003  1
  O2-  O206  1  0.33776258  0.25124389  0.50149020  1
  O2-  O207  1  0.33137840  0.25071318  0.75376659  1
  O2-  O208  1  0.33081289  0.58837994  0.00153037  1
  O2-  O209  1  0.34295846  0.58922200  0.24940239  1
  O2-  O210  1  0.33544507  0.57976617  0.50137348  1
  O2-  O211  1  0.33170191  0.58174161  0.74813445  1
  O2-  O212  1  0.33147030  0.91771441  0.00352835  1
  O2-  O213  1  0.33478001  0.91875330  0.24770122  1
  O2-  O214  1  0.33104642  0.91880753  0.50246340  1
  O2-  O215  1  0.33508159  0.92101351  0.75289875  1
  O2-  O216  1  0.82830299  0.24936234  -0.00099279  1
  O2-  O217  1  0.83799731  0.25334142  0.25879976  1
  O2-  O218  1  0.83110086  0.25583969  0.50206575  1
  O2-  O219  1  0.83685622  0.25230044  0.74477237  1
  O2-  O220  1  0.84154000  0.58731328  0.00391969  1
  O2-  O221  1  0.83543148  0.58396366  0.24828264  1
  O2-  O222  1  0.83810138  0.58301567  0.49795923  1
  O2-  O223  1  0.83987029  0.58718707  0.75069630  1
  O2-  O224  1  0.83405799  0.92129226  -0.00154052  1
  O2-  O225  1  0.83455997  0.92027938  0.25792868  1
  O2-  O226  1  0.83867682  0.91805943  0.50220797  1
  O2-  O227  1  0.83149677  0.92274744  0.74414194  1
  O2-  O228  1  0.16440661  0.25119298  0.00158673  1
  O2-  O229  1  0.16692252  0.25205600  0.24583901  1
  O2-  O230  1  0.16505591  0.25345919  0.50104075  1
  O2-  O231  1  0.16409387  0.24347624  0.75404071  1
  O2-  O232  1  0.16630372  0.58968750  0.00015912  1
  O2-  O233  1  0.15867606  0.58800218  0.24883511  1
  O2-  O234  1  0.15717793  0.57987542  0.50218801  1
  O2-  O235  1  0.16746814  0.58595401  0.75143303  1
  O2-  O236  1  0.16702267  0.91623440  -0.00080383  1
  O2-  O237  1  0.16609581  0.91637470  0.25067962  1
  O2-  O238  1  0.16797584  0.92019743  0.49576314  1
  O2-  O239  1  0.17316486  0.92222424  0.75095555  1
  O2-  O240  1  0.67127947  0.25165273  -0.00236679  1
  O2-  O241  1  0.66826162  0.25179629  0.26205859  1
  O2-  O242  1  0.66661602  0.25527850  0.50313986  1
  O2-  O243  1  0.66436630  0.25088701  0.74881400  1
  O2-  O244  1  0.66178621  0.58639547  0.00235033  1
  O2-  O245  1  0.66462973  0.58580470  0.25660854  1
  O2-  O246  1  0.66136513  0.58699458  0.49568696  1
  O2-  O247  1  0.66568818  0.58863759  0.74498023  1
  O2-  O248  1  0.66618494  0.92341984  0.00108742  1
  O2-  O249  1  0.67160517  0.92074294  0.25452675  1
  O2-  O250  1  0.67004514  0.92663623  0.49813578  1
  O2-  O251  1  0.66463156  0.91858808  0.74769940  1
  O2-  O252  1  0.33067149  0.07698988  0.00173770  1
  O2-  O253  1  0.33452937  0.07725511  0.24986809  1
  O2-  O254  1  0.33316375  0.07853771  0.49898979  1
  O2-  O255  1  0.33208203  0.07878311  0.75341704  1
  O2-  O256  1  0.33599001  0.41834870  0.00032218  1
  O2-  O257  1  0.32973245  0.41970046  0.25525793  1
  O2-  O258  1  0.33632952  0.42688281  0.50417338  1
  O2-  O259  1  0.33343019  0.41761489  0.74970679  1
  O2-  O260  1  0.33318931  0.74959011  0.00449939  1
  O2-  O261  1  0.32565685  0.74667024  0.24770041  1
  O2-  O262  1  0.33765254  0.74406200  0.50678555  1
  O2-  O263  1  0.33228443  0.75162080  0.74588179  1
  O2-  O264  1  0.83944847  0.08162807  -0.00272497  1
  O2-  O265  1  0.82756244  0.08233442  0.24897769  1
  O2-  O266  1  0.82787046  0.07822550  0.50724421  1
  O2-  O267  1  0.83092069  0.08396264  0.73808027  1
  O2-  O268  1  0.82912422  0.41043559  -0.00543575  1
  O2-  O269  1  0.83971283  0.40830983  0.25677301  1
  O2-  O270  1  0.83203957  0.41510646  0.49149677  1
  O2-  O271  1  0.83921100  0.41320275  0.75172139  1
  O2-  O272  1  0.84298062  0.74808651  0.00285865  1
  O2-  O273  1  0.83920764  0.74879078  0.25219484  1
  O2-  O274  1  0.82922450  0.74216543  0.50016624  1
  O2-  O275  1  0.83327651  0.74581153  0.74493051  1
  O2-  O276  1  0.55092524  0.75281819  0.47120572  1
  O2-  O277  1  0.54556235  0.24115026  0.75735256  1
  O2-  O278  1  0.95475605  0.75365013  0.01594342  1
  O2-  O279  1  0.05466480  0.23377227  0.01588619  1
  O2-  O280  1  0.45071094  0.23784817  0.24690042  1
  O2-  O281  1  0.04540525  0.09851940  0.25020300  1
  O2-  O282  1  0.04271784  0.77576630  0.49488726  1
  O2-  O283  1  0.94836432  0.91237118  0.77675244  1
  O2-  O284  1  0.45613659  0.21504869  0.97691050  1
  O2-  O285  1  0.44624005  0.89092766  0.23895998  1
  O2-  O286  1  0.44606295  0.91118717  0.99504308  1
  O2-  O287  1  0.95051215  0.08599263  0.99099302  1
  O2-  O288  1  0.46328947  0.55799835  0.54495039  1
  O2-  O289  1  0.95378958  0.43733642  0.00569087  1
  O2-  O290  1  0.03803001  0.09996866  0.51839926  1
  O2-  O291  1  0.45482913  0.75967129  0.98224115  1
  O2-  O292  1  0.55275724  0.91124167  0.98115300  1
  O2-  O293  1  0.54312404  0.77287184  0.50157208  1
  O2-  O294  1  0.94927888  0.42945491  0.51405977  1
  O2-  O295  1  0.05934865  0.25142318  0.72743199  1
  O2-  O296  1  0.94322184  0.09604305  0.51040962  1
  O2-  O297  1  0.04739096  0.91110670  0.74575089  1
  O2-  O298  1  0.05275868  0.42332924  0.24427575  1
  O2-  O299  1  0.45233653  0.09856479  0.73745150  1
  O2-  O300  1  0.04467976  0.46787953  0.44534572  1
  O2-  O301  1  0.05164495  0.90755809  0.01093425  1
  O2-  O302  1  0.94989910  0.43008756  0.26247215  1
  O2-  O303  1  0.04035483  0.76926172  0.23913136  1
  O2-  O304  1  0.04528350  0.57862697  0.24361667  1
  O2-  O305  1  0.01967494  0.12665199  0.75715252  1
  O2-  O306  1  0.54464500  0.90355908  0.25474521  1
  O2-  O307  1  0.44983787  0.58765308  0.95965250  1
  O2-  O308  1  0.46044792  0.54115919  0.70008011  1
  O2-  O309  1  0.55540046  0.57586871  0.76669903  1
  O2-  O310  1  0.96427493  0.22393276  0.98884132  1
  O2-  O311  1  0.04752334  0.24114359  0.50896077  1
  O2-  O312  1  0.45042999  0.24283987  0.51664368  1
  O2-  O313  1  0.95368738  0.22929523  0.26545571  1
  O2-  O314  1  0.46258179  0.41282157  0.52557804  1
  O2-  O315  1  0.94809615  0.75435345  0.74849164  1
  O2-  O316  1  0.04979702  0.57321273  0.73790286  1
  O2-  O317  1  0.94979505  0.92132918  0.97949818  1
  O2-  O318  1  0.05274267  0.76007707  0.72974384  1
  O2-  O319  1  0.54503696  0.57079162  0.26495626  1
  O2-  O320  1  0.45046769  0.23839648  0.23745034  1
  O2-  O321  1  0.05434949  0.76571623  0.76830732  1
  O2-  O322  1  0.94767084  0.23085030  0.76275430  1
  O2-  O323  1  0.55216618  0.57118308  1.00206209  1
  O2-  O324  1  0.42691326  0.40602457  0.45214899  1
  O2-  O325  1  0.06043126  0.07177134  0.92437691  1
  O2-  O326  1  0.93728463  0.74062581  0.41723920  1
  O2-  O327  1  0.56766092  0.06197285  0.78188122  1
  O2-  O328  1  0.56420249  0.25164524  0.42704636  1
  O2-  O329  1  0.56532666  0.92168326  0.26472942  1
  O2-  O330  1  0.56051878  0.07142956  0.57711171  1
  O2-  O331  1  0.43335274  0.07886202  0.57204830  1
  O2-  O332  1  0.06588269  0.59022904  0.92226877  1
  O2-  O333  1  0.05981773  0.07091507  0.07444475  1
  O2-  O334  1  0.05689952  0.93173817  0.20676094  1
  O2-  O335  1  0.44337181  0.75636890  0.78261637  1
  O2-  O336  1  0.42938912  0.61188825  0.80527936  1
  O2-  O337  1  0.44352294  0.75039052  0.46715529  1
  O2-  O338  1  0.93271955  0.26645204  0.51742693  1
  O2-  O339  1  0.43761033  0.92594099  0.48021344  1
  O2-  O340  1  0.42595497  0.42099000  0.82145856  1
  O2-  O341  1  0.56367542  0.27384597  0.57759742  1
  O2-  O342  1  0.05283062  0.57194882  0.74716562  1
  O2-  O343  1  0.06310277  0.74075612  0.03987084  1
  O2-  O344  1  0.57778137  0.10759221  0.42138680  1
  O2-  O345  1  0.06584673  0.91258203  0.71929882  1
  O2-  O346  1  0.08139302  0.04816732  0.70870321  1
  O2-  O347  1  0.93402635  0.73915517  0.57191464  1
  O2-  O348  1  0.55564472  0.74217907  0.78371127  1
  O2-  O349  1  0.56548973  0.26053009  0.23100181  1
  O2-  O350  1  0.93875015  0.06073309  0.20924491  1
  O2-  O351  1  0.43609499  0.73803415  0.28001830  1
  O2-  O352  1  0.44589426  0.57997407  0.95797525  1
  O2-  O353  1  0.94626072  0.42303202  0.01129124  1
  O2-  O354  1  0.06585696  0.25624055  0.27770851  1
  O2-  O355  1  0.06031553  0.41790545  0.02593992  1
  O2-  O356  1  0.43057422  0.31049744  0.06902812  1
  O2-  O357  1  0.42924406  0.60029102  0.41971779  1
  O2-  O358  1  0.44556918  0.38930123  0.66982116  1
  O2-  O359  1  0.41481603  0.56637209  0.11261618  1
  O2-  O360  1  0.06978298  0.38890545  0.56783470  1
  O2-  O361  1  0.43746591  0.07628253  0.20264403  1
  O2-  O362  1  0.08240433  0.05732964  0.47991215  1
  O2-  O363  1  0.55820437  0.08260947  0.00871304  1
  O2-  O364  1  0.92108208  0.27827472  0.97713686  1
  O2-  O365  1  0.93140284  0.06299055  0.78395404  1
  O2-  O366  1  0.44256716  0.91549153  0.21099021  1
  O2-  O367  1  0.43077358  0.10133206  0.42081336  1
  O2-  O368  1  0.05822149  0.58830377  0.07341874  1
  O2-  O369  1  0.43520099  0.07308198  0.98250622  1
  O2-  O370  1  0.56791163  0.26410052  0.96513952  1
  O2-  O371  1  0.44040715  0.40825227  0.26239146  1
  O2-  O372  1  0.25078804  -0.00186978  0.13476024  1
  O2-  O373  1  0.24863548  0.66425249  0.33166262  1
  O2-  O374  1  0.24837575  0.65504193  0.42427996  1
  O2-  O375  1  0.75112038  0.32105107  0.62496081  1
  O2-  O376  1  0.24977063  -0.00079826  0.60765944  1
  O2-  O377  1  0.24976466  0.32514166  0.68366433  1
  O2-  O378  1  0.75158319  0.68076935  0.32611710  1
  O2-  O379  1  0.24954019  0.66627643  0.66887641  1
  O2-  O380  1  0.75004874  0.68009923  0.89052900  1
  O2-  O381  1  0.74981269  0.65208238  0.08175439  1
  O2-  O382  1  0.24925540  0.32012751  0.13362409  1
  O2-  O383  1  0.24799721  0.65351842  0.57551997  1
  O2-  O384  1  0.74798540  0.33138628  0.15771922  1
  O2-  O385  1  0.25160385  0.34715036  0.45146684  1
  O2-  O386  1  0.74817665  0.63916930  0.40663038  1
  O2-  O387  1  0.24885234  0.66250701  0.11881218  1
  O2-  O388  1  0.25120258  0.34056897  0.88334411  1
  O2-  O389  1  0.24901992  0.66820147  0.94365038  1
  O2-  O390  1  0.75157764  0.68656069  0.16677709  1
  O2-  O391  1  0.75181105  0.66391805  0.62665319  1
  O2-  O392  1  0.24965423  0.34832690  0.59312598  1
  O2-  O393  1  0.25192861  0.66851491  0.81221699  1
  O2-  O394  1  0.24878724  0.33137887  0.32294233  1
  O2-  O395  1  0.74992593  0.00490996  0.10001662  1
  O2-  O396  1  0.24874993  0.50210847  0.65439898  1
  O2-  O397  1  0.24927535  0.15874869  0.31181211  1
  O2-  O398  1  0.24910161  0.83700653  0.30717281  1
  O2-  O399  1  0.75061510  0.14031752  0.01926877  1
  O2-  O400  1  0.75000264  0.84974595  0.82538989  1
  O2-  O401  1  0.75141431  0.85404956  0.14218790  1
  O2-  O402  1  0.25082660  0.83181815  0.91082348  1
  O2-  O403  1  0.74900781  0.49472986  0.64634533  1
  O2-  O404  1  0.74916538  0.18993035  0.44336017  1
  O2-  O405  1  0.25108893  0.16739033  0.60322303  1
  O2-  O406  1  0.25086785  0.16275053  0.85901039  1
  O2-  O407  1  0.74948428  0.86298661  0.91292246  1
  O2-  O408  1  0.74907915  0.50157803  0.90246734  1
  O2-  O409  1  0.75133751  0.13656535  0.37339480  1
  O2-  O410  1  0.74932109  0.51106966  0.15591667  1
  O2-  O411  1  0.24992430  0.48826443  0.11068781  1
  O2-  O412  1  0.25102961  0.86087446  0.39176970  1
  O2-  O413  1  0.25076247  0.16799076  0.43906479  1
  O2-  O414  1  0.25058508  0.15843649  0.16203247  1
  O2-  O415  1  0.25005135  0.51030994  0.90082818  1
  O2-  O416  1  0.75039158  0.16503925  0.10186472  1
  O2-  O417  1  0.74954688  0.49834638  0.06791783  1
  O2-  O418  1  0.25112868  0.84408752  0.64704052  1
  O2-  O419  1  0.74884121  0.19343647  0.86887464  1
  O2-  O420  1  0.94693067  0.36884169  0.83730060  1
  O2-  O421  1  0.04352246  -0.02723026  0.37202472  1
  O2-  O422  1  0.44809580  0.69586499  0.63073026  1
  O2-  O423  1  0.02606501  0.33218128  0.38036463  1
  O2-  O424  1  0.47796051  -0.00769418  0.86620208  1
  O2-  O425  1  0.48330116  0.32096005  0.88090204  1
  O2-  O426  1  0.52833342  -0.00929839  0.12809342  1
  O2-  O427  1  0.02967433  0.66281937  0.38716121  1
  O2-  O428  1  0.48269100  0.32220952  0.37342744  1
  O2-  O429  1  0.54051331  -0.02257843  0.41322804  1
  O2-  O430  1  0.96791102  0.32844577  0.38353070  1
  O2-  O431  1  0.97791906  0.34044088  0.64060773  1
  O2-  O432  1  0.48567005  0.68317458  0.12798418  1
  O2-  O433  1  0.04441656  0.34482620  0.87379409  1
  O2-  O434  1  0.04202600  0.32355130  0.13856252  1
  O2-  O435  1  0.97009197  0.64974758  0.87303075  1
  O2-  O436  1  0.47908642  -0.03690055  0.63027011  1
  O2-  O437  1  0.02447603  0.66693190  0.61061426  1
  O2-  O438  1  0.54249219  0.65805485  0.61993126  1
  O2-  O439  1  0.95184239  0.31614180  0.12986703  1
  O2-  O440  1  0.94887991  -0.00263326  0.37341370  1
  O2-  O441  1  0.45666176  -0.00807676  0.33887969  1
  O2-  O442  1  0.97123861  -0.00985201  0.61790802  1
  O2-  O443  1  0.52720706  0.35719651  0.12223810  1
