# generated using pymatgen
data_La7(Ru4O11)2
_symmetry_space_group_name_H-M   'P 1'
_cell_length_a   23.98940132
_cell_length_b   16.82913090
_cell_length_c   15.42617205
_cell_angle_alpha   90.00019423
_cell_angle_beta   89.99954945
_cell_angle_gamma   89.99986802
_symmetry_Int_Tables_number   1
_chemical_formula_structural   La7(Ru4O11)2
_chemical_formula_sum   'La84 Ru96 O264'
_cell_volume   6227.86613295
_cell_formula_units_Z   12
loop_
 _symmetry_equiv_pos_site_id
 _symmetry_equiv_pos_as_xyz
  1  'x, y, z'
loop_
 _atom_type_symbol
 _atom_type_oxidation_number
  La3+  3.0
  Ru4+  4.0
  O2-  -2.0
loop_
 _atom_site_type_symbol
 _atom_site_label
 _atom_site_symmetry_multiplicity
 _atom_site_fract_x
 _atom_site_fract_y
 _atom_site_fract_z
 _atom_site_occupancy
  La3+  La0  1  0.14107364  0.00002132  0.12506726  1
  La3+  La1  1  0.13902052  -0.00002722  0.37484095  1
  La3+  La2  1  0.13809911  -0.00075824  0.62394249  1
  La3+  La3  1  0.13922446  -0.00020662  0.87650274  1
  La3+  La4  1  0.13919705  0.33361679  0.12624302  1
  La3+  La5  1  0.14054422  0.33325682  0.37473484  1
  La3+  La6  1  0.13928081  0.33387504  0.62645873  1
  La3+  La7  1  0.14031179  0.33292070  0.87520809  1
  La3+  La8  1  0.13749195  0.66669818  0.12589129  1
  La3+  La9  1  0.13867293  0.66730183  0.37506294  1
  La3+  La10  1  0.13643556  0.66560486  0.62908907  1
  La3+  La11  1  0.13684914  0.66505808  0.87060087  1
  La3+  La12  1  0.63962201  0.00144283  0.12229413  1
  La3+  La13  1  0.63810764  0.00102494  0.37561500  1
  La3+  La14  1  0.63858962  0.00118050  0.62301051  1
  La3+  La15  1  0.63986454  0.00235217  0.87887345  1
  La3+  La16  1  0.63794664  0.33356288  0.12208685  1
  La3+  La17  1  0.63959709  0.33487373  0.37603432  1
  La3+  La18  1  0.64084452  0.33526976  0.62582845  1
  La3+  La19  1  0.63953149  0.33434426  0.87637102  1
  La3+  La20  1  0.63758580  0.66597144  0.12407738  1
  La3+  La21  1  0.63833943  0.66560898  0.37542939  1
  La3+  La22  1  0.63749073  0.66548837  0.62470491  1
  La3+  La23  1  0.63764358  0.66522251  0.87579962  1
  La3+  La24  1  0.35930933  0.00002945  0.12414081  1
  La3+  La25  1  0.36126696  -0.00001392  0.37469337  1
  La3+  La26  1  0.36115955  -0.00093673  0.62378616  1
  La3+  La27  1  0.36037721  0.00038502  0.87594981  1
  La3+  La28  1  0.36196772  0.33348528  0.12754443  1
  La3+  La29  1  0.36116963  0.33357519  0.37260435  1
  La3+  La30  1  0.36133207  0.33378451  0.62647571  1
  La3+  La31  1  0.36124624  0.33246342  0.87372019  1
  La3+  La32  1  0.36167001  0.66725687  0.12678477  1
  La3+  La33  1  0.36169750  0.66773832  0.37376468  1
  La3+  La34  1  0.36093096  0.66750397  0.62735075  1
  La3+  La35  1  0.36048592  0.66611773  0.87166837  1
  La3+  La36  1  0.85893985  0.00153006  0.12290911  1
  La3+  La37  1  0.86154343  0.00079791  0.37650629  1
  La3+  La38  1  0.86281463  0.00005115  0.62376621  1
  La3+  La39  1  0.86072839  0.00157816  0.87808178  1
  La3+  La40  1  0.86407994  0.32972425  0.11969688  1
  La3+  La41  1  0.86030076  0.33355743  0.37620056  1
  La3+  La42  1  0.85780190  0.33463326  0.62572830  1
  La3+  La43  1  0.86188850  0.33079955  0.87944049  1
  La3+  La44  1  0.86326961  0.66593114  0.12340876  1
  La3+  La45  1  0.86191164  0.66668011  0.37543924  1
  La3+  La46  1  0.86370876  0.66354289  0.62737915  1
  La3+  La47  1  0.86474758  0.66292688  0.87294138  1
  La3+  La48  1  0.49776511  0.83531860  0.36798977  1
  La3+  La49  1  0.00013298  0.16598024  0.11453027  1
  La3+  La50  1  -0.00093716  0.83392171  0.85993957  1
  La3+  La51  1  0.49954866  0.16718836  0.61583092  1
  La3+  La52  1  0.49930820  0.83330517  0.86621240  1
  La3+  La53  1  -0.00063038  0.16561964  0.87601911  1
  La3+  La54  1  -0.00045590  0.49971528  0.11466125  1
  La3+  La55  1  0.00026393  0.50835203  0.88165976  1
  La3+  La56  1  0.49881568  0.50142401  0.61683198  1
  La3+  La57  1  0.50349101  0.83288687  0.13535683  1
  La3+  La58  1  -0.00238607  0.17137940  0.13571014  1
  La3+  La59  1  0.49845874  0.16955474  0.88242079  1
  La3+  La60  1  0.00427285  0.82951814  0.88021836  1
  La3+  La61  1  -0.00097791  0.49620792  0.86325062  1
  La3+  La62  1  -0.00025452  0.16663389  0.36821382  1
  La3+  La63  1  -0.00198991  0.50108655  0.63165820  1
  La3+  La64  1  0.50095597  0.83248277  0.38969905  1
  La3+  La65  1  -0.00025535  0.16753129  0.63367015  1
  La3+  La66  1  0.49949123  0.83171431  0.88293085  1
  La3+  La67  1  0.49907126  0.16759314  0.12122477  1
  La3+  La68  1  0.00066354  0.50492524  0.61576663  1
  La3+  La69  1  0.50177335  0.83299695  0.11893616  1
  La3+  La70  1  0.50002709  0.49917469  0.11568031  1
  La3+  La71  1  -0.00280118  0.83706848  0.13166329  1
  La3+  La72  1  0.24963708  0.86842686  0.03406215  1
  La3+  La73  1  0.25010301  0.16567927  0.02279968  1
  La3+  La74  1  0.25021930  0.13275572  0.52418958  1
  La3+  La75  1  0.25001203  0.20452036  0.76982954  1
  La3+  La76  1  0.74978616  0.20245003  0.75225633  1
  La3+  La77  1  0.75033878  0.83233416  0.81008428  1
  La3+  La78  1  0.24988153  0.47034947  0.49254464  1
  La3+  La79  1  0.74990208  0.88049269  0.49460840  1
  La3+  La80  1  0.25015691  0.49947224  0.73911969  1
  La3+  La81  1  0.75013187  0.20463175  0.25045334  1
  La3+  La82  1  0.74970098  0.86766483  0.00464929  1
  La3+  La83  1  0.74956974  0.46585046  0.22649860  1
  Ru4+  Ru84  1  0.00076583  0.00265373  -0.00307446  1
  Ru4+  Ru85  1  -0.00086020  -0.00084825  0.25265307  1
  Ru4+  Ru86  1  -0.00082284  -0.00207887  0.49880128  1
  Ru4+  Ru87  1  0.00184138  0.00421029  0.74943810  1
  Ru4+  Ru88  1  -0.00059139  0.32796010  0.00015834  1
  Ru4+  Ru89  1  0.00074050  0.32795692  0.24963677  1
  Ru4+  Ru90  1  0.00068686  0.33173195  0.49745866  1
  Ru4+  Ru91  1  -0.00030739  0.33347445  0.75078314  1
  Ru4+  Ru92  1  0.00336647  0.67053260  0.00316072  1
  Ru4+  Ru93  1  -0.00111239  0.66638271  0.25139549  1
  Ru4+  Ru94  1  0.00145954  0.66718213  0.49760951  1
  Ru4+  Ru95  1  0.00036287  0.66545238  0.74430426  1
  Ru4+  Ru96  1  0.50010208  -0.00172119  0.00019408  1
  Ru4+  Ru97  1  0.50226104  0.00512737  0.25199932  1
  Ru4+  Ru98  1  0.50048491  0.00222972  0.49776440  1
  Ru4+  Ru99  1  0.50095176  0.00129593  0.75142800  1
  Ru4+  Ru100  1  0.49831260  0.33116659  -0.00161235  1
  Ru4+  Ru101  1  0.49759914  0.33312875  0.24883754  1
  Ru4+  Ru102  1  0.49653616  0.32999022  0.50270889  1
  Ru4+  Ru103  1  0.50275343  0.33537354  0.74947384  1
  Ru4+  Ru104  1  0.50261758  0.66472164  -0.00143215  1
  Ru4+  Ru105  1  0.49990614  0.66304899  0.25102495  1
  Ru4+  Ru106  1  0.50093689  0.66803460  0.49888138  1
  Ru4+  Ru107  1  0.49871234  0.66632901  0.75050493  1
  Ru4+  Ru108  1  0.11235103  0.16799317  -0.00033030  1
  Ru4+  Ru109  1  0.11336842  0.16802317  0.25021685  1
  Ru4+  Ru110  1  0.11169717  0.16576628  0.49915268  1
  Ru4+  Ru111  1  0.11173248  0.16766831  0.74991484  1
  Ru4+  Ru112  1  0.11396685  0.49939649  -0.00038749  1
  Ru4+  Ru113  1  0.11560271  0.49911169  0.25099490  1
  Ru4+  Ru114  1  0.11140641  0.49965021  0.50109630  1
  Ru4+  Ru115  1  0.11370289  0.50259738  0.74932145  1
  Ru4+  Ru116  1  0.11175117  0.83407328  -0.00013128  1
  Ru4+  Ru117  1  0.11584189  0.83427260  0.25133510  1
  Ru4+  Ru118  1  0.11337892  0.83339868  0.50002823  1
  Ru4+  Ru119  1  0.11339101  0.83190226  0.74942669  1
  Ru4+  Ru120  1  0.61698479  0.16887381  0.00006052  1
  Ru4+  Ru121  1  0.61084796  0.16614796  0.25041415  1
  Ru4+  Ru122  1  0.61416527  0.16395196  0.50014629  1
  Ru4+  Ru123  1  0.61172323  0.16746623  0.74971876  1
  Ru4+  Ru124  1  0.61537867  0.50165963  0.00016994  1
  Ru4+  Ru125  1  0.61190329  0.49952876  0.24997880  1
  Ru4+  Ru126  1  0.61539101  0.50211454  0.49954475  1
  Ru4+  Ru127  1  0.61311575  0.49831167  0.74989082  1
  Ru4+  Ru128  1  0.61131998  0.83465277  -0.00033980  1
  Ru4+  Ru129  1  0.61363903  0.83506344  0.25001420  1
  Ru4+  Ru130  1  0.61097558  0.83309067  0.50060573  1
  Ru4+  Ru131  1  0.61159687  0.83312251  0.74926338  1
  Ru4+  Ru132  1  0.38712167  0.16711887  0.00065484  1
  Ru4+  Ru133  1  0.38820153  0.16886531  0.25149135  1
  Ru4+  Ru134  1  0.38855809  0.16607969  0.50012311  1
  Ru4+  Ru135  1  0.38486162  0.16565002  0.74900567  1
  Ru4+  Ru136  1  0.38641226  0.49888534  0.00016521  1
  Ru4+  Ru137  1  0.38698218  0.49748900  0.24944326  1
  Ru4+  Ru138  1  0.38700660  0.49796899  0.50041121  1
  Ru4+  Ru139  1  0.38795085  0.50135254  0.74961213  1
  Ru4+  Ru140  1  0.38556112  0.83376328  0.00000028  1
  Ru4+  Ru141  1  0.38477146  0.83207417  0.24946128  1
  Ru4+  Ru142  1  0.38645515  0.83301239  0.49977547  1
  Ru4+  Ru143  1  0.38646230  0.83152528  0.74987390  1
  Ru4+  Ru144  1  0.88814690  0.16956710  -0.00024692  1
  Ru4+  Ru145  1  0.88824833  0.16773829  0.24888913  1
  Ru4+  Ru146  1  0.88648041  0.16473538  0.49943760  1
  Ru4+  Ru147  1  0.88747846  0.16620256  0.75080214  1
  Ru4+  Ru148  1  0.88387350  0.49653741  -0.00055234  1
  Ru4+  Ru149  1  0.88364217  0.50427953  0.25130776  1
  Ru4+  Ru150  1  0.88600961  0.49915331  0.50053522  1
  Ru4+  Ru151  1  0.88725631  0.49948893  0.74897329  1
  Ru4+  Ru152  1  0.88622151  0.83339551  0.00119637  1
  Ru4+  Ru153  1  0.88832799  0.83357000  0.25016312  1
  Ru4+  Ru154  1  0.88923229  0.83578939  0.49949044  1
  Ru4+  Ru155  1  0.88668857  0.82942154  0.74970236  1
  Ru4+  Ru156  1  0.24983333  0.60589289  0.49619109  1
  Ru4+  Ru157  1  0.25015180  0.91191598  0.74922942  1
  Ru4+  Ru158  1  0.74999125  0.58124377  0.49855297  1
  Ru4+  Ru159  1  0.24965358  0.08351208  0.24719302  1
  Ru4+  Ru160  1  0.74982069  0.25104841  0.49769079  1
  Ru4+  Ru161  1  0.25010620  0.26526769  0.49322442  1
  Ru4+  Ru162  1  0.75000505  0.57410203  -0.00579028  1
  Ru4+  Ru163  1  0.24991325  0.75268726  0.49954838  1
  Ru4+  Ru164  1  0.25006216  0.07039564  0.75389307  1
  Ru4+  Ru165  1  0.24973144  0.73141355  0.00661727  1
  Ru4+  Ru166  1  0.75003827  0.57505297  0.75209904  1
  Ru4+  Ru167  1  0.75022380  0.06258414  0.24128053  1
  Ru4+  Ru168  1  0.25013296  0.58707760  0.00713565  1
  Ru4+  Ru169  1  0.25009265  0.40946298  0.00247751  1
  Ru4+  Ru170  1  0.75001083  0.94726142  0.75125972  1
  Ru4+  Ru171  1  0.74987518  0.07406045  0.75910595  1
  Ru4+  Ru172  1  0.74984795  0.59440910  0.25941148  1
  Ru4+  Ru173  1  0.74988491  0.73177458  -0.01041368  1
  Ru4+  Ru174  1  0.74996389  0.74942529  0.24754888  1
  Ru4+  Ru175  1  0.24998355  0.91214707  0.49780299  1
  Ru4+  Ru176  1  0.75011478  0.92183881  0.24111428  1
  Ru4+  Ru177  1  0.74998809  0.71883916  0.74393379  1
  Ru4+  Ru178  1  0.25003104  0.57826097  0.25217103  1
  Ru4+  Ru179  1  0.74996565  0.72514491  0.49909129  1
  O2-  O180  1  0.16705200  0.08023799  -0.00127177  1
  O2-  O181  1  0.16900439  0.08006321  0.24992247  1
  O2-  O182  1  0.16673994  0.07908267  0.50013021  1
  O2-  O183  1  0.16637695  0.07949947  0.74963586  1
  O2-  O184  1  0.16801888  0.41434073  0.00072632  1
  O2-  O185  1  0.16739296  0.41540067  0.24876788  1
  O2-  O186  1  0.16578872  0.41292936  0.50051792  1
  O2-  O187  1  0.16750738  0.41405066  0.75002193  1
  O2-  O188  1  0.16776250  0.74561670  0.00073524  1
  O2-  O189  1  0.16759750  0.74859238  0.24886119  1
  O2-  O190  1  0.16713509  0.74761045  0.49990332  1
  O2-  O191  1  0.16679452  0.74785744  0.74951356  1
  O2-  O192  1  0.66540897  0.08235726  0.00023294  1
  O2-  O193  1  0.66673251  0.07961210  0.24976235  1
  O2-  O194  1  0.66660773  0.08164826  0.50033396  1
  O2-  O195  1  0.66638848  0.07945636  0.74994202  1
  O2-  O196  1  0.66670138  0.41505880  0.00081106  1
  O2-  O197  1  0.66627397  0.41213319  0.24943805  1
  O2-  O198  1  0.66724488  0.41498225  0.50020400  1
  O2-  O199  1  0.66574581  0.41632384  0.75056728  1
  O2-  O200  1  0.66774139  0.74546235  -0.00021168  1
  O2-  O201  1  0.66692402  0.74683619  0.25015086  1
  O2-  O202  1  0.66756377  0.74627950  0.49971788  1
  O2-  O203  1  0.66550918  0.74580740  0.74987336  1
  O2-  O204  1  0.33301051  0.25287237  0.00056283  1
  O2-  O205  1  0.33193825  0.25155965  0.24888086  1
  O2-  O206  1  0.33349952  0.25367727  0.50018021  1
  O2-  O207  1  0.33514904  0.25319557  0.75027945  1
  O2-  O208  1  0.33204541  0.58599656  0.00022497  1
  O2-  O209  1  0.33285303  0.58603567  0.25001740  1
  O2-  O210  1  0.33299445  0.58693122  0.49924302  1
  O2-  O211  1  0.33206551  0.58560032  0.74936060  1
  O2-  O212  1  0.33300679  0.91965430  -0.00047567  1
  O2-  O213  1  0.33299171  0.91940664  0.25033274  1
  O2-  O214  1  0.33256973  0.91941254  0.49973621  1
  O2-  O215  1  0.33279611  0.91961954  0.74943104  1
  O2-  O216  1  0.83217241  0.25252764  0.00095119  1
  O2-  O217  1  0.83509042  0.25529855  0.24954751  1
  O2-  O218  1  0.83227574  0.25137461  0.50069345  1
  O2-  O219  1  0.83353839  0.25257436  0.75131684  1
  O2-  O220  1  0.83259340  0.58606795  0.00039517  1
  O2-  O221  1  0.83344090  0.58795601  0.24959487  1
  O2-  O222  1  0.83196884  0.58564388  0.49968449  1
  O2-  O223  1  0.83129410  0.58626544  0.75036254  1
  O2-  O224  1  0.83318781  0.91842888  -0.00122761  1
  O2-  O225  1  0.83251584  0.91905761  0.25041305  1
  O2-  O226  1  0.83521054  0.92070376  0.50048728  1
  O2-  O227  1  0.83389724  0.92085429  0.74976503  1
  O2-  O228  1  0.16710864  0.25266836  0.00154973  1
  O2-  O229  1  0.16678042  0.25223458  0.24925066  1
  O2-  O230  1  0.16616995  0.25315049  0.50080818  1
  O2-  O231  1  0.16543434  0.25345395  0.74985466  1
  O2-  O232  1  0.16705877  0.58610014  0.00041115  1
  O2-  O233  1  0.16778859  0.58605248  0.24913756  1
  O2-  O234  1  0.16682593  0.58709438  0.49998834  1
  O2-  O235  1  0.16825093  0.58576598  0.74953104  1
  O2-  O236  1  0.16598110  0.92011948  -0.00141470  1
  O2-  O237  1  0.16777626  0.91791188  0.25007103  1
  O2-  O238  1  0.16675406  0.91958099  0.50019604  1
  O2-  O239  1  0.16671926  0.91930232  0.74980348  1
  O2-  O240  1  0.66619703  0.25201628  0.00122620  1
  O2-  O241  1  0.66483601  0.25488697  0.24941688  1
  O2-  O242  1  0.66885910  0.25226285  0.50048441  1
  O2-  O243  1  0.66531058  0.25297554  0.75042859  1
  O2-  O244  1  0.66749545  0.58553810  -0.00018891  1
  O2-  O245  1  0.66629618  0.58759276  0.24992539  1
  O2-  O246  1  0.66791820  0.58485593  0.49997890  1
  O2-  O247  1  0.66756368  0.58603965  0.74974825  1
  O2-  O248  1  0.66547377  0.91942258  0.00018387  1
  O2-  O249  1  0.66824420  0.91909368  0.24973016  1
  O2-  O250  1  0.66553340  0.92189061  0.50039962  1
  O2-  O251  1  0.66667975  0.92043881  0.75044664  1
  O2-  O252  1  0.33277427  0.08062941  -0.00006985  1
  O2-  O253  1  0.33252432  0.08068438  0.24932563  1
  O2-  O254  1  0.33403226  0.07880201  0.49920106  1
  O2-  O255  1  0.33331405  0.08027450  0.74916017  1
  O2-  O256  1  0.33330279  0.41488471  0.00008716  1
  O2-  O257  1  0.33234881  0.41512303  0.25001799  1
  O2-  O258  1  0.33378047  0.41395342  0.50027483  1
  O2-  O259  1  0.33382249  0.41375904  0.75087339  1
  O2-  O260  1  0.33275715  0.74648798  0.00055055  1
  O2-  O261  1  0.33172151  0.74777517  0.25026981  1
  O2-  O262  1  0.33216280  0.74754517  0.49985575  1
  O2-  O263  1  0.33346485  0.74903980  0.74912275  1
  O2-  O264  1  0.83628985  0.08212781  -0.00037694  1
  O2-  O265  1  0.83219008  0.07936420  0.25057508  1
  O2-  O266  1  0.83226894  0.08151252  0.50071626  1
  O2-  O267  1  0.83401659  0.07998069  0.74981660  1
  O2-  O268  1  0.83354980  0.41403028  0.00111736  1
  O2-  O269  1  0.83223442  0.41184711  0.24914484  1
  O2-  O270  1  0.83266108  0.41589943  0.49939325  1
  O2-  O271  1  0.83455065  0.41559907  0.75093756  1
  O2-  O272  1  0.83336925  0.74617871  -0.00039120  1
  O2-  O273  1  0.83301844  0.74716990  0.25014418  1
  O2-  O274  1  0.83198497  0.74636721  0.49951385  1
  O2-  O275  1  0.83444384  0.74634634  0.75051728  1
  O2-  O276  1  0.95032817  0.23949500  0.98673413  1
  O2-  O277  1  0.54597373  0.56635487  0.73539791  1
  O2-  O278  1  0.54575023  0.89932071  0.51569176  1
  O2-  O279  1  0.54460384  0.76607666  0.73750155  1
  O2-  O280  1  0.45445707  0.89832630  0.76442789  1
  O2-  O281  1  0.95806478  0.22865405  0.00947007  1
  O2-  O282  1  0.04486564  0.76679231  0.73579920  1
  O2-  O283  1  0.45224127  0.90660510  0.03984791  1
  O2-  O284  1  0.95488794  0.76411227  0.01609987  1
  O2-  O285  1  0.54606865  0.76385788  0.26266528  1
  O2-  O286  1  0.95518276  0.23330264  0.51492209  1
  O2-  O287  1  0.54788131  0.09628671  0.01801034  1
  O2-  O288  1  0.95964154  0.76976504  0.47452559  1
  O2-  O289  1  0.94977528  0.56925779  0.01447399  1
  O2-  O290  1  0.04284811  0.56221210  0.73904034  1
  O2-  O291  1  0.04770667  0.23542782  0.76537956  1
  O2-  O292  1  0.04114660  0.77329173  0.22655800  1
  O2-  O293  1  0.95466243  0.90134632  0.26479946  1
  O2-  O294  1  0.04707952  0.56848819  0.01285926  1
  O2-  O295  1  0.95420343  0.43059890  0.98647754  1
  O2-  O296  1  0.54509035  0.23632431  0.01442548  1
  O2-  O297  1  0.45445535  0.90260115  0.23565113  1
  O2-  O298  1  0.54923516  0.43092472  0.01568744  1
  O2-  O299  1  0.95697743  0.56012819  0.73946643  1
  O2-  O300  1  0.04056821  0.56327816  0.22362997  1
  O2-  O301  1  0.54516735  0.43500042  0.48008084  1
  O2-  O302  1  0.95977678  0.89534287  0.97459735  1
  O2-  O303  1  0.95001664  0.57209336  0.76229429  1
  O2-  O304  1  0.54728473  0.09585924  0.97874534  1
  O2-  O305  1  0.04630771  0.09652980  0.00996310  1
  O2-  O306  1  0.45213832  0.09777284  0.26410193  1
  O2-  O307  1  0.04023640  0.43614296  0.72108159  1
  O2-  O308  1  0.95779723  0.22581048  0.77914196  1
  O2-  O309  1  0.45203517  0.76074618  0.03941671  1
  O2-  O310  1  0.04884586  0.57090973  0.76419543  1
  O2-  O311  1  0.04538529  0.09520970  0.73662408  1
  O2-  O312  1  0.45128087  0.09927452  0.01497926  1
  O2-  O313  1  0.95513742  0.90556360  0.48580873  1
  O2-  O314  1  0.45523928  0.56814127  0.23370013  1
  O2-  O315  1  0.95792293  0.43883405  0.24267300  1
  O2-  O316  1  0.54690384  0.43148591  0.51901804  1
  O2-  O317  1  0.95261315  0.90289747  0.73278715  1
  O2-  O318  1  0.95418303  0.57022562  0.51433841  1
  O2-  O319  1  0.54788747  0.10089428  0.26330966  1
  O2-  O320  1  0.96095528  0.44117797  0.47261879  1
  O2-  O321  1  0.95783858  0.43870723  0.24260729  1
  O2-  O322  1  0.45231459  0.23593398  0.76662417  1
  O2-  O323  1  0.04263491  0.44568627  0.25844130  1
  O2-  O324  1  0.06353686  0.40024535  0.96787517  1
  O2-  O325  1  0.93504937  0.07144287  0.22232689  1
  O2-  O326  1  0.43383510  0.07361009  0.70334104  1
  O2-  O327  1  0.56530844  0.92841493  0.27883598  1
  O2-  O328  1  0.43488928  0.59418268  0.72015586  1
  O2-  O329  1  0.43628247  0.40162194  0.53298067  1
  O2-  O330  1  0.93212497  0.60156153  0.71542456  1
  O2-  O331  1  0.43446717  0.59238804  0.45396134  1
  O2-  O332  1  0.93329744  0.26812944  0.03280284  1
  O2-  O333  1  0.43589547  0.73581654  0.21643622  1
  O2-  O334  1  0.44412749  0.74887990  0.04634244  1
  O2-  O335  1  0.43446731  0.26053504  0.27871531  1
  O2-  O336  1  0.06898255  0.60084820  0.71761472  1
  O2-  O337  1  0.43558059  0.59651599  0.05053814  1
  O2-  O338  1  0.92984071  0.27564330  0.70029576  1
  O2-  O339  1  0.56599371  0.92685354  0.70053233  1
  O2-  O340  1  0.06265080  0.06875523  0.46734857  1
  O2-  O341  1  0.43476363  0.59296564  0.95533397  1
  O2-  O342  1  0.42677932  0.73239939  0.93187783  1
  O2-  O343  1  0.06589072  0.73831287  0.97138578  1
  O2-  O344  1  0.06428631  0.07316531  0.22106808  1
  O2-  O345  1  0.44420005  0.91778020  0.04712712  1
  O2-  O346  1  0.56585941  0.26023517  0.45424811  1
  O2-  O347  1  0.07344300  0.38492133  0.29138113  1
  O2-  O348  1  0.06604128  0.92615733  0.20510173  1
  O2-  O349  1  0.43447622  0.73984312  0.47058616  1
  O2-  O350  1  0.56581181  0.26053308  0.54671873  1
  O2-  O351  1  0.93144192  0.72939046  0.54339513  1
  O2-  O352  1  0.43881067  0.26300611  0.78232914  1
  O2-  O353  1  0.07032838  0.39095675  0.79922628  1
  O2-  O354  1  0.92323913  0.38871516  0.29266126  1
  O2-  O355  1  0.43493323  0.40634849  0.21988271  1
  O2-  O356  1  0.56441055  0.93100555  0.80574106  1
  O2-  O357  1  0.93751818  0.92958182  0.71993653  1
  O2-  O358  1  0.93766519  0.59648766  0.03232076  1
  O2-  O359  1  0.93678281  0.06940147  0.46675342  1
  O2-  O360  1  0.56387796  0.59653582  0.03343045  1
  O2-  O361  1  0.07072696  0.59971827  0.29042377  1
  O2-  O362  1  0.43310166  0.59280093  0.54598663  1
  O2-  O363  1  0.43503591  0.93115623  0.46647414  1
  O2-  O364  1  0.43377990  0.07350323  0.79645751  1
  O2-  O365  1  0.93090973  0.39461952  0.54691472  1
  O2-  O366  1  0.42639473  0.93493865  0.93146502  1
  O2-  O367  1  0.92702507  0.93648373  0.04345563  1
  O2-  O368  1  0.56170310  0.40386941  0.03339969  1
  O2-  O369  1  0.56373285  0.73662216  0.96637605  1
  O2-  O370  1  0.06424118  0.93072241  0.30022904  1
  O2-  O371  1  0.07078350  0.73319689  0.29101812  1
  O2-  O372  1  0.74987946  0.33030247  0.40905308  1
  O2-  O373  1  0.75007750  0.33239776  0.83131323  1
  O2-  O374  1  0.75003107  0.00183372  0.64350500  1
  O2-  O375  1  0.24993434  0.33699656  0.40320285  1
  O2-  O376  1  0.74982743  -0.00381741  0.90066885  1
  O2-  O377  1  0.75013851  0.66186356  0.85052888  1
  O2-  O378  1  0.25005934  -0.00548968  0.66578189  1
  O2-  O379  1  0.24981445  0.66572225  0.82526470  1
  O2-  O380  1  0.75003257  0.65907692  0.64448707  1
  O2-  O381  1  0.24974925  0.66160886  0.91463519  1
  O2-  O382  1  0.75023441  0.33299083  0.91821482  1
  O2-  O383  1  0.74996059  0.32855190  0.65223741  1
  O2-  O384  1  0.75008894  0.67243074  0.34973800  1
  O2-  O385  1  0.75007904  0.67055658  0.16896233  1
  O2-  O386  1  0.74982707  -0.00259765  0.10083029  1
  O2-  O387  1  0.75005855  0.65930267  0.07791660  1
  O2-  O388  1  0.25025042  0.00146077  0.09612369  1
  O2-  O389  1  0.25015269  0.00160423  0.57265065  1
  O2-  O390  1  0.25014782  0.33490390  0.90745825  1
  O2-  O391  1  0.75011737  -0.00305101  0.34727235  1
  O2-  O392  1  0.24995546  0.66913244  0.59692222  1
  O2-  O393  1  0.25000063  0.33286846  0.67336857  1
  O2-  O394  1  0.24993135  0.34044489  0.58243833  1
  O2-  O395  1  0.24978942  -0.00368496  0.84865580  1
  O2-  O396  1  0.25009191  0.83331359  0.40901563  1
  O2-  O397  1  0.74997201  0.81902021  0.59596029  1
  O2-  O398  1  0.74995219  0.83706164  0.31208485  1
  O2-  O399  1  0.24992277  0.17076244  0.40235553  1
  O2-  O400  1  0.75001869  0.50407833  0.91040659  1
  O2-  O401  1  0.24999391  0.16936643  0.31679057  1
  O2-  O402  1  0.25004831  0.49932869  0.93718896  1
  O2-  O403  1  0.74996157  0.15993937  0.13164399  1
  O2-  O404  1  0.24987825  0.50005162  0.85682878  1
  O2-  O405  1  0.74994359  0.16246843  0.37368391  1
  O2-  O406  1  0.25018850  0.83053632  0.90566608  1
  O2-  O407  1  0.25002788  0.83417137  0.59211710  1
  O2-  O408  1  0.24990329  0.82813453  0.81855833  1
  O2-  O409  1  0.74997867  0.16578461  0.90289224  1
  O2-  O410  1  0.24996340  0.16338499  0.64654794  1
  O2-  O411  1  0.24998189  0.50322806  0.33986536  1
  O2-  O412  1  0.75005818  0.82131648  0.39171824  1
  O2-  O413  1  0.74980509  0.83375270  0.67726840  1
  O2-  O414  1  0.24997469  0.49914727  0.08205163  1
  O2-  O415  1  0.75000161  0.83362503  0.15726271  1
  O2-  O416  1  0.24990813  0.16298529  0.89550905  1
  O2-  O417  1  0.24995460  0.49920264  0.17011866  1
  O2-  O418  1  0.25004840  0.50167170  0.62179941  1
  O2-  O419  1  0.75003546  0.50586476  0.35972602  1
  O2-  O420  1  0.47603446  0.66865730  0.36845110  1
  O2-  O421  1  0.97214574  0.00177254  0.87521550  1
  O2-  O422  1  0.47867687  0.00183683  0.87481651  1
  O2-  O423  1  0.02715123  0.66819027  0.12483400  1
  O2-  O424  1  0.02659175  0.66783871  0.61942970  1
  O2-  O425  1  0.02861938  0.33275027  0.62297096  1
  O2-  O426  1  0.47717514  0.66699308  0.86350267  1
  O2-  O427  1  0.97458716  0.32707093  0.37828288  1
  O2-  O428  1  0.52784023  -0.00106884  0.12543942  1
  O2-  O429  1  0.52912062  0.33655401  0.36699135  1
  O2-  O430  1  0.02328022  0.66575423  0.38360064  1
  O2-  O431  1  0.03049308  0.00007341  0.11639273  1
  O2-  O432  1  0.47391874  0.32969506  0.12112744  1
  O2-  O433  1  0.52745167  0.33288067  0.87437725  1
  O2-  O434  1  0.03576442  0.66564254  0.87312782  1
  O2-  O435  1  0.53171275  0.66672478  0.62195626  1
  O2-  O436  1  0.47056571  0.33636751  0.37909657  1
  O2-  O437  1  0.52944353  0.00657088  0.62003991  1
  O2-  O438  1  0.97048791  0.00160472  0.12715908  1
  O2-  O439  1  0.47324629  0.67323259  0.62677301  1
  O2-  O440  1  0.47067577  -0.00383286  0.61889175  1
  O2-  O441  1  0.52518570  0.33573862  0.63074423  1
  O2-  O442  1  0.96200762  0.66818664  0.87744806  1
  O2-  O443  1  0.52552103  0.00124713  0.38004113  1
