# generated using pymatgen
data_La7(Ru4O11)2
_symmetry_space_group_name_H-M   'P 1'
_cell_length_a   23.99466967
_cell_length_b   16.83512652
_cell_length_c   15.42961825
_cell_angle_alpha   90.00481340
_cell_angle_beta   89.99948324
_cell_angle_gamma   90.00016877
_symmetry_Int_Tables_number   1
_chemical_formula_structural   La7(Ru4O11)2
_chemical_formula_sum   'La84 Ru96 O264'
_cell_volume   6232.84518256
_cell_formula_units_Z   12
loop_
 _symmetry_equiv_pos_site_id
 _symmetry_equiv_pos_as_xyz
  1  'x, y, z'
loop_
 _atom_type_symbol
 _atom_type_oxidation_number
  La3+  3.0
  Ru4+  4.0
  O2-  -2.0
loop_
 _atom_site_type_symbol
 _atom_site_label
 _atom_site_symmetry_multiplicity
 _atom_site_fract_x
 _atom_site_fract_y
 _atom_site_fract_z
 _atom_site_occupancy
  La3+  La0  1  0.13298888  -0.00243367  0.12504374  1
  La3+  La1  1  0.13888512  -0.00221048  0.37109336  1
  La3+  La2  1  0.14342228  -0.00639410  0.62522455  1
  La3+  La3  1  0.12728280  -0.00076819  0.87785640  1
  La3+  La4  1  0.14382434  0.33268864  0.12561014  1
  La3+  La5  1  0.14412516  0.33702565  0.37376860  1
  La3+  La6  1  0.14482504  0.33509715  0.62463052  1
  La3+  La7  1  0.13600565  0.33418892  0.87017792  1
  La3+  La8  1  0.13316717  0.66035807  0.13067310  1
  La3+  La9  1  0.13877932  0.65515505  0.37481664  1
  La3+  La10  1  0.13569009  0.65699089  0.62036308  1
  La3+  La11  1  0.14131998  0.66717623  0.87279942  1
  La3+  La12  1  0.65033248  -0.00427946  0.12569972  1
  La3+  La13  1  0.64470604  0.00397909  0.37378667  1
  La3+  La14  1  0.63736382  0.00630658  0.62181568  1
  La3+  La15  1  0.64609333  -0.00019753  0.87632235  1
  La3+  La16  1  0.63552024  0.33182594  0.12607979  1
  La3+  La17  1  0.64163816  0.33239405  0.37175100  1
  La3+  La18  1  0.63979255  0.33068974  0.62208124  1
  La3+  La19  1  0.63051320  0.33467014  0.87873979  1
  La3+  La20  1  0.63903788  0.66904910  0.12504173  1
  La3+  La21  1  0.63534914  0.66174579  0.37059091  1
  La3+  La22  1  0.64807004  0.66552397  0.62373950  1
  La3+  La23  1  0.64363486  0.66622293  0.87444696  1
  La3+  La24  1  0.36048103  0.00014181  0.12381814  1
  La3+  La25  1  0.35865216  -0.00191874  0.37375967  1
  La3+  La26  1  0.36603589  0.00570774  0.62364339  1
  La3+  La27  1  0.35931424  0.00561016  0.87267191  1
  La3+  La28  1  0.35579282  0.33129907  0.12839675  1
  La3+  La29  1  0.35512425  0.33706884  0.37443290  1
  La3+  La30  1  0.35638031  0.33458676  0.61867631  1
  La3+  La31  1  0.36271302  0.32578217  0.86731313  1
  La3+  La32  1  0.36515466  0.66987984  0.13030451  1
  La3+  La33  1  0.35112752  0.65810757  0.37647061  1
  La3+  La34  1  0.36638549  0.65872735  0.62926666  1
  La3+  La35  1  0.36299233  0.65375369  0.87641239  1
  La3+  La36  1  0.85023771  -0.00351245  0.12885271  1
  La3+  La37  1  0.84803654  -0.00089111  0.36971890  1
  La3+  La38  1  0.86425776  0.00395510  0.62161976  1
  La3+  La39  1  0.85396128  -0.00157089  0.87811484  1
  La3+  La40  1  0.85949356  0.33058613  0.11920751  1
  La3+  La41  1  0.85453524  0.32884041  0.37665580  1
  La3+  La42  1  0.86209339  0.33413802  0.62368993  1
  La3+  La43  1  0.85604550  0.33727442  0.87075941  1
  La3+  La44  1  0.86446164  0.66532139  0.12233911  1
  La3+  La45  1  0.85261905  0.67151193  0.36763555  1
  La3+  La46  1  0.86097806  0.65610445  0.62286148  1
  La3+  La47  1  0.85492743  0.66685223  0.87465331  1
  La3+  La48  1  0.49347009  0.83187718  0.88468972  1
  La3+  La49  1  0.49907263  0.16013977  0.11726677  1
  La3+  La50  1  0.50559478  0.15627149  0.87041121  1
  La3+  La51  1  -0.00237546  0.83848472  0.63071006  1
  La3+  La52  1  -0.00890001  0.84647949  0.10724217  1
  La3+  La53  1  0.00750475  0.16252566  0.64721653  1
  La3+  La54  1  -0.00747352  0.17934730  0.88634592  1
  La3+  La55  1  0.50090792  0.16220545  0.39087001  1
  La3+  La56  1  0.50704912  0.83525655  0.60004794  1
  La3+  La57  1  0.50346110  0.50316291  0.14030494  1
  La3+  La58  1  0.50703784  0.84450781  0.62012312  1
  La3+  La59  1  -0.00173312  0.81796435  0.35901384  1
  La3+  La60  1  0.00712211  0.16867387  0.63225912  1
  La3+  La61  1  0.49994440  0.50326049  0.63391663  1
  La3+  La62  1  -0.00817629  0.49162062  0.12321241  1
  La3+  La63  1  0.48864474  0.48706792  0.87996677  1
  La3+  La64  1  -0.00042826  0.16871073  0.36399923  1
  La3+  La65  1  -0.00339303  0.16788958  0.38586371  1
  La3+  La66  1  -0.00132129  0.50244724  0.38145147  1
  La3+  La67  1  0.50431615  0.49217770  0.37421627  1
  La3+  La68  1  0.00051119  0.83060310  0.61074456  1
  La3+  La69  1  0.51352030  0.50369793  0.12383413  1
  La3+  La70  1  0.51971581  0.83111715  0.12554924  1
  La3+  La71  1  0.00746932  0.15976231  0.13287644  1
  La3+  La72  1  0.75114790  0.90192972  0.74957717  1
  La3+  La73  1  0.24993315  0.78809576  -0.01234917  1
  La3+  La74  1  0.24720161  0.51066260  0.02034404  1
  La3+  La75  1  0.75018170  0.53209627  0.25613770  1
  La3+  La76  1  0.24903999  0.12030797  -0.03311209  1
  La3+  La77  1  0.24946882  0.80433425  0.51032796  1
  La3+  La78  1  0.25017796  0.43413978  0.72618397  1
  La3+  La79  1  0.74980355  0.16011624  0.26402463  1
  La3+  La80  1  0.75018599  0.78260892  0.50348204  1
  La3+  La81  1  0.25051567  0.77546467  0.24151152  1
  La3+  La82  1  0.25007166  0.25021572  0.49522907  1
  La3+  La83  1  0.24953627  0.83222997  0.79817286  1
  Ru4+  Ru84  1  -0.00797390  0.00065602  -0.01566509  1
  Ru4+  Ru85  1  -0.00621328  0.00282607  0.23856440  1
  Ru4+  Ru86  1  -0.00365486  0.00237981  0.49611248  1
  Ru4+  Ru87  1  0.00517229  0.00416514  0.76646116  1
  Ru4+  Ru88  1  -0.00028773  0.33046709  0.01470375  1
  Ru4+  Ru89  1  -0.00063017  0.32962317  0.24206842  1
  Ru4+  Ru90  1  0.00008297  0.34171539  0.50115392  1
  Ru4+  Ru91  1  0.00609283  0.35225157  0.75180777  1
  Ru4+  Ru92  1  0.00847005  0.65265109  -0.00929455  1
  Ru4+  Ru93  1  -0.00515448  0.67361231  0.23802703  1
  Ru4+  Ru94  1  0.00246206  0.65943060  0.51026479  1
  Ru4+  Ru95  1  -0.00539594  0.64747836  0.75212999  1
  Ru4+  Ru96  1  0.49737855  -0.00787729  0.01002864  1
  Ru4+  Ru97  1  0.49949995  0.00377232  0.24165382  1
  Ru4+  Ru98  1  0.50280373  0.01103540  0.49942561  1
  Ru4+  Ru99  1  0.49873210  0.00611261  0.75459601  1
  Ru4+  Ru100  1  0.49562675  0.32202755  -0.00787256  1
  Ru4+  Ru101  1  0.49766811  0.31923085  0.26833048  1
  Ru4+  Ru102  1  0.49668218  0.32790532  0.49648380  1
  Ru4+  Ru103  1  0.50033498  0.31315032  0.73757819  1
  Ru4+  Ru104  1  0.49858207  0.66792341  0.00362435  1
  Ru4+  Ru105  1  0.49695431  0.67218347  0.25792657  1
  Ru4+  Ru106  1  0.49970219  0.66502078  0.49432793  1
  Ru4+  Ru107  1  0.51076319  0.66314027  0.75286292  1
  Ru4+  Ru108  1  0.10992404  0.16653994  0.00000834  1
  Ru4+  Ru109  1  0.11110687  0.16788252  0.24971168  1
  Ru4+  Ru110  1  0.10761171  0.16557205  0.49493643  1
  Ru4+  Ru111  1  0.11551727  0.16673130  0.74967523  1
  Ru4+  Ru112  1  0.10085048  0.51112437  -0.00703113  1
  Ru4+  Ru113  1  0.11467227  0.49847760  0.25187062  1
  Ru4+  Ru114  1  0.11515925  0.50074570  0.50182199  1
  Ru4+  Ru115  1  0.10215156  0.49381695  0.74841754  1
  Ru4+  Ru116  1  0.11143798  0.82547252  -0.00154856  1
  Ru4+  Ru117  1  0.10979284  0.82332782  0.25160306  1
  Ru4+  Ru118  1  0.10724234  0.83113461  0.50536243  1
  Ru4+  Ru119  1  0.10861592  0.82823884  0.74678000  1
  Ru4+  Ru120  1  0.61302905  0.16943312  -0.00061423  1
  Ru4+  Ru121  1  0.61176525  0.16509522  0.24821253  1
  Ru4+  Ru122  1  0.61255617  0.16608246  0.50388019  1
  Ru4+  Ru123  1  0.61480416  0.17658328  0.74614352  1
  Ru4+  Ru124  1  0.61799921  0.50646177  -0.00282193  1
  Ru4+  Ru125  1  0.61914719  0.50077109  0.25355867  1
  Ru4+  Ru126  1  0.61012564  0.50003338  0.50117767  1
  Ru4+  Ru127  1  0.61367834  0.50922816  0.74782584  1
  Ru4+  Ru128  1  0.61737273  0.83506097  -0.00298664  1
  Ru4+  Ru129  1  0.61516794  0.83542202  0.25118214  1
  Ru4+  Ru130  1  0.61141658  0.83548615  0.48950838  1
  Ru4+  Ru131  1  0.61012968  0.83349792  0.75094384  1
  Ru4+  Ru132  1  0.39472390  0.16854300  0.00194055  1
  Ru4+  Ru133  1  0.38919190  0.16916670  0.24854097  1
  Ru4+  Ru134  1  0.39874363  0.16433054  0.50528120  1
  Ru4+  Ru135  1  0.39127145  0.17537252  0.74166793  1
  Ru4+  Ru136  1  0.38651317  0.50038660  0.00283022  1
  Ru4+  Ru137  1  0.38827766  0.50165266  0.24996420  1
  Ru4+  Ru138  1  0.38690471  0.49762845  0.49958451  1
  Ru4+  Ru139  1  0.38657405  0.49334151  0.74784819  1
  Ru4+  Ru140  1  0.39317799  0.83744710  -0.00607305  1
  Ru4+  Ru141  1  0.39367462  0.84060239  0.25378695  1
  Ru4+  Ru142  1  0.39067394  0.82843485  0.50067804  1
  Ru4+  Ru143  1  0.39049421  0.82889101  0.75454443  1
  Ru4+  Ru144  1  0.88463903  0.17568891  -0.00052991  1
  Ru4+  Ru145  1  0.88557463  0.16757380  0.24850835  1
  Ru4+  Ru146  1  0.88496488  0.16326594  0.49809177  1
  Ru4+  Ru147  1  0.88261949  0.16662802  0.74989258  1
  Ru4+  Ru148  1  0.88707454  0.50122886  0.00092460  1
  Ru4+  Ru149  1  0.88944922  0.50145931  0.24658237  1
  Ru4+  Ru150  1  0.88896169  0.50331193  0.50192741  1
  Ru4+  Ru151  1  0.89333454  0.50636278  0.75248892  1
  Ru4+  Ru152  1  0.88290519  0.83775957  -0.00172316  1
  Ru4+  Ru153  1  0.88350988  0.83683083  0.24829656  1
  Ru4+  Ru154  1  0.89016055  0.83194192  0.49872864  1
  Ru4+  Ru155  1  0.89175016  0.83314463  0.75034724  1
  Ru4+  Ru156  1  0.25143952  0.25091660  0.00678791  1
  Ru4+  Ru157  1  0.24956148  0.91860681  0.25220470  1
  Ru4+  Ru158  1  0.25073537  0.97054237  0.75681708  1
  Ru4+  Ru159  1  0.24981969  0.38603507  -0.04381121  1
  Ru4+  Ru160  1  0.74901053  0.42812341  0.50317144  1
  Ru4+  Ru161  1  0.25127250  0.65176633  0.02220249  1
  Ru4+  Ru162  1  0.24918051  0.08785538  0.50651427  1
  Ru4+  Ru163  1  0.24977450  0.10841853  0.23015989  1
  Ru4+  Ru164  1  0.74948390  0.42630962  0.73971815  1
  Ru4+  Ru165  1  0.74883295  0.75501912  0.23759396  1
  Ru4+  Ru166  1  0.24903821  0.92487800  -0.00062449  1
  Ru4+  Ru167  1  0.25103636  0.94590315  0.53044197  1
  Ru4+  Ru168  1  0.74987389  0.94514459  0.47656287  1
  Ru4+  Ru169  1  0.75017899  0.08149400  -0.00988777  1
  Ru4+  Ru170  1  0.75186710  0.38572393  0.23068579  1
  Ru4+  Ru171  1  0.74910359  0.42346477  0.00477633  1
  Ru4+  Ru172  1  0.75039226  0.73559101  0.75760329  1
  Ru4+  Ru173  1  0.25080032  0.10697070  0.77421654  1
  Ru4+  Ru174  1  0.74835285  0.56741786  0.49938348  1
  Ru4+  Ru175  1  0.75043299  0.57361175  -0.00564821  1
  Ru4+  Ru176  1  0.24829608  0.66327125  0.49352281  1
  Ru4+  Ru177  1  0.24919389  0.58042090  0.74372195  1
  Ru4+  Ru178  1  0.25052606  0.43108505  0.26605704  1
  Ru4+  Ru179  1  0.24849200  0.71653272  0.71156674  1
  O2-  O180  1  0.15836060  0.07599371  0.00055321  1
  O2-  O181  1  0.16761248  0.08298440  0.24577904  1
  O2-  O182  1  0.16173665  0.08040302  0.49888848  1
  O2-  O183  1  0.16938953  0.08007710  0.75748723  1
  O2-  O184  1  0.16229458  0.41661499  -0.00452206  1
  O2-  O185  1  0.16644293  0.41789439  0.25112911  1
  O2-  O186  1  0.16269901  0.41529108  0.49816451  1
  O2-  O187  1  0.15975690  0.41098948  0.74997009  1
  O2-  O188  1  0.16226676  0.74097840  0.00545196  1
  O2-  O189  1  0.16304488  0.74066289  0.24744229  1
  O2-  O190  1  0.16332196  0.74117731  0.49993598  1
  O2-  O191  1  0.16696384  0.74525058  0.74479589  1
  O2-  O192  1  0.66752615  0.08140302  0.00135828  1
  O2-  O193  1  0.66690662  0.08323773  0.25026780  1
  O2-  O194  1  0.66653853  0.08218804  0.50080059  1
  O2-  O195  1  0.66047757  0.08286603  0.74813070  1
  O2-  O196  1  0.66830792  0.41352401  -0.00303920  1
  O2-  O197  1  0.66946646  0.41190863  0.24488370  1
  O2-  O198  1  0.66766344  0.41656838  0.50180589  1
  O2-  O199  1  0.66532528  0.41550324  0.75377829  1
  O2-  O200  1  0.66373627  0.74507922  0.00041616  1
  O2-  O201  1  0.66375603  0.74559584  0.25079437  1
  O2-  O202  1  0.65700378  0.74139194  0.49554244  1
  O2-  O203  1  0.66512914  0.74722821  0.75274018  1
  O2-  O204  1  0.33604604  0.25203081  -0.00076642  1
  O2-  O205  1  0.34102580  0.25187830  0.24855319  1
  O2-  O206  1  0.34275023  0.25208247  0.49342938  1
  O2-  O207  1  0.33332664  0.24899886  0.75470928  1
  O2-  O208  1  0.33081284  0.58814052  0.00683996  1
  O2-  O209  1  0.33710376  0.58397940  0.25021673  1
  O2-  O210  1  0.33489035  0.58796169  0.50620128  1
  O2-  O211  1  0.33293106  0.58116953  0.74772231  1
  O2-  O212  1  0.33310936  0.91762843  -0.00134224  1
  O2-  O213  1  0.33404484  0.91516976  0.24907106  1
  O2-  O214  1  0.33513366  0.92340715  0.50749543  1
  O2-  O215  1  0.33513340  0.92096902  0.74956530  1
  O2-  O216  1  0.82749834  0.24783906  0.00552678  1
  O2-  O217  1  0.83094937  0.25269911  0.24705375  1
  O2-  O218  1  0.83786488  0.25380014  0.50376687  1
  O2-  O219  1  0.83369531  0.25555523  0.74940493  1
  O2-  O220  1  0.83087935  0.58486993  -0.00107884  1
  O2-  O221  1  0.83361391  0.58776154  0.24399757  1
  O2-  O222  1  0.82693935  0.57556524  0.50463587  1
  O2-  O223  1  0.83587879  0.58114618  0.74688056  1
  O2-  O224  1  0.83059669  0.91782673  0.00323361  1
  O2-  O225  1  0.83186213  0.91667667  0.24960197  1
  O2-  O226  1  0.82876688  0.92058635  0.50179065  1
  O2-  O227  1  0.84550006  0.92515774  0.74684753  1
  O2-  O228  1  0.16772753  0.25005727  -0.00212060  1
  O2-  O229  1  0.15829673  0.25258486  0.25150392  1
  O2-  O230  1  0.15714011  0.25629210  0.49815906  1
  O2-  O231  1  0.16391307  0.25077091  0.75079765  1
  O2-  O232  1  0.16590944  0.58803463  0.00227130  1
  O2-  O233  1  0.16622488  0.58410525  0.25102939  1
  O2-  O234  1  0.17418779  0.58762128  0.50520617  1
  O2-  O235  1  0.16508179  0.58073071  0.74772125  1
  O2-  O236  1  0.16503782  0.91560044  -0.00209872  1
  O2-  O237  1  0.16380508  0.91606914  0.24966326  1
  O2-  O238  1  0.16803579  0.92073378  0.49756322  1
  O2-  O239  1  0.16608735  0.92209014  0.75739648  1
  O2-  O240  1  0.66177847  0.25458335  -0.00023298  1
  O2-  O241  1  0.66768856  0.25185519  0.24406629  1
  O2-  O242  1  0.66194690  0.25430704  0.50065986  1
  O2-  O243  1  0.67286344  0.25037909  0.75660908  1
  O2-  O244  1  0.66941314  0.58837897  0.00028486  1
  O2-  O245  1  0.66678293  0.59217088  0.24585551  1
  O2-  O246  1  0.66527469  0.58396625  0.49712306  1
  O2-  O247  1  0.66998600  0.58059312  0.75686237  1
  O2-  O248  1  0.66946279  0.91763178  -0.00211705  1
  O2-  O249  1  0.66240041  0.91826544  0.25189724  1
  O2-  O250  1  0.67184628  0.91963738  0.50296144  1
  O2-  O251  1  0.65903546  0.92418703  0.75029350  1
  O2-  O252  1  0.34261228  0.08030850  0.00015196  1
  O2-  O253  1  0.33491025  0.08432821  0.24575275  1
  O2-  O254  1  0.33263091  0.08389407  0.50629466  1
  O2-  O255  1  0.33562121  0.08520780  0.74862231  1
  O2-  O256  1  0.33448319  0.41121052  -0.00328909  1
  O2-  O257  1  0.33488207  0.41551845  0.24977095  1
  O2-  O258  1  0.33398501  0.41849751  0.49493827  1
  O2-  O259  1  0.34078781  0.40533712  0.75236794  1
  O2-  O260  1  0.33815131  0.74772979  0.00049668  1
  O2-  O261  1  0.34225525  0.74844112  0.25007354  1
  O2-  O262  1  0.33568668  0.74220425  0.50453655  1
  O2-  O263  1  0.32806195  0.74352507  0.74254399  1
  O2-  O264  1  0.83430712  0.08179969  0.00204007  1
  O2-  O265  1  0.83231319  0.08128944  0.24876410  1
  O2-  O266  1  0.83304526  0.08100976  0.50597566  1
  O2-  O267  1  0.83671975  0.07985416  0.74644495  1
  O2-  O268  1  0.83025013  0.41624350  -0.00375305  1
  O2-  O269  1  0.83473638  0.41328652  0.24978070  1
  O2-  O270  1  0.83234474  0.42005983  0.50210716  1
  O2-  O271  1  0.83085511  0.42007810  0.74792907  1
  O2-  O272  1  0.83890864  0.74577542  0.00327774  1
  O2-  O273  1  0.83153127  0.74779682  0.24195142  1
  O2-  O274  1  0.84280522  0.74249084  0.50256862  1
  O2-  O275  1  0.83434292  0.74620796  0.74687218  1
  O2-  O276  1  0.95599784  0.75780046  0.73955592  1
  O2-  O277  1  0.54587121  0.22791662  0.50565652  1
  O2-  O278  1  0.04561313  0.75334307  0.01398123  1
  O2-  O279  1  0.45521420  0.77463957  0.21495868  1
  O2-  O280  1  0.05079239  0.57692373  0.06447262  1
  O2-  O281  1  0.04981592  0.56954472  0.26659729  1
  O2-  O282  1  0.96170529  0.55728966  0.69813419  1
  O2-  O283  1  0.45018276  0.91415657  0.25527789  1
  O2-  O284  1  0.04456602  0.09002817  0.01225158  1
  O2-  O285  1  0.53206557  0.19859053  0.73645024  1
  O2-  O286  1  0.54888199  0.76498300  0.99127216  1
  O2-  O287  1  0.05503313  0.24303986  0.01055196  1
  O2-  O288  1  0.45728852  0.42602890  0.74212629  1
  O2-  O289  1  0.54397517  0.54904723  0.79751772  1
  O2-  O290  1  0.95048600  0.23958262  0.73653772  1
  O2-  O291  1  0.47349063  0.77744843  0.24169765  1
  O2-  O292  1  0.44965910  0.91088152  0.50835696  1
  O2-  O293  1  0.04446189  0.57782585  0.22921547  1
  O2-  O294  1  0.54117784  0.42616328  0.25200676  1
  O2-  O295  1  0.96821798  0.55773162  0.54448970  1
  O2-  O296  1  0.44343785  0.23403120  0.81398291  1
  O2-  O297  1  0.54374535  0.10158384  0.99939202  1
  O2-  O298  1  0.04765005  0.90463968  0.73687460  1
  O2-  O299  1  0.04921026  0.43037704  0.48200425  1
  O2-  O300  1  0.95412254  0.24116178  0.51318635  1
  O2-  O301  1  0.05218023  0.90634558  0.26643818  1
  O2-  O302  1  0.45622735  0.56785439  0.48973492  1
  O2-  O303  1  0.54658626  0.56655297  0.26281931  1
  O2-  O304  1  0.03363317  0.77145697  0.19824132  1
  O2-  O305  1  0.45280775  0.09131799  0.73522921  1
  O2-  O306  1  0.04736953  0.91455729  0.22875032  1
  O2-  O307  1  0.05056556  0.91896025  0.02431408  1
  O2-  O308  1  0.96540698  0.53909543  0.51164101  1
  O2-  O309  1  0.46336219  0.88301669  0.03540490  1
  O2-  O310  1  0.54481982  0.76048363  0.47536034  1
  O2-  O311  1  0.95910319  0.10398332  0.53319551  1
  O2-  O312  1  0.95774822  0.21252965  0.03824880  1
  O2-  O313  1  0.44669443  0.56863912  0.75916588  1
  O2-  O314  1  0.54645975  0.43087175  0.99167465  1
  O2-  O315  1  0.05388098  0.25152930  0.73810282  1
  O2-  O316  1  0.46737397  0.11207148  0.55168660  1
  O2-  O317  1  0.04817972  0.10323433  0.79172241  1
  O2-  O318  1  0.45319471  0.90684756  0.76327070  1
  O2-  O319  1  0.46755149  0.76368109  0.71276224  1
  O2-  O320  1  0.54773600  0.24115539  0.22542720  1
  O2-  O321  1  0.44979144  0.42493852  0.02004838  1
  O2-  O322  1  0.04460465  0.42892797  0.99106008  1
  O2-  O323  1  0.05167953  0.89857427  0.99214154  1
  O2-  O324  1  0.06230515  0.42113624  0.81564549  1
  O2-  O325  1  0.93308000  0.05328536  0.41267194  1
  O2-  O326  1  0.93966639  0.91996972  0.23125431  1
  O2-  O327  1  0.90906119  0.62192450  0.45789712  1
  O2-  O328  1  0.06803096  0.06165265  0.64145621  1
  O2-  O329  1  0.43869397  0.58492516  0.97397413  1
  O2-  O330  1  0.05896533  0.58839863  0.06814019  1
  O2-  O331  1  0.06255049  0.06948749  0.22203860  1
  O2-  O332  1  0.56574394  0.07052303  0.53628285  1
  O2-  O333  1  0.07754918  0.73892240  0.31487021  1
  O2-  O334  1  0.93539407  0.75022379  0.27023310  1
  O2-  O335  1  0.43111103  0.28102408  0.68368424  1
  O2-  O336  1  0.41469255  0.74590411  0.82324444  1
  O2-  O337  1  0.05963271  0.40712308  0.67091998  1
  O2-  O338  1  0.43784461  0.26110200  0.52879655  1
  O2-  O339  1  0.94064404  0.08462947  0.23064241  1
  O2-  O340  1  0.05913242  0.26173501  0.45862344  1
  O2-  O341  1  0.43134380  0.95453108  0.93298875  1
  O2-  O342  1  0.44229754  0.41474287  0.53360267  1
  O2-  O343  1  0.56008079  0.08297734  0.27498981  1
  O2-  O344  1  0.93482239  0.41299159  0.02063727  1
  O2-  O345  1  0.91438489  0.26316377  0.93160289  1
  O2-  O346  1  0.43179445  0.67965715  0.32338524  1
  O2-  O347  1  0.56398856  0.41888502  0.26677837  1
  O2-  O348  1  0.93790096  0.25186594  0.28198228  1
  O2-  O349  1  0.06308994  0.59749562  0.76354794  1
  O2-  O350  1  0.06030083  0.92920916  0.53232994  1
  O2-  O351  1  0.93330388  0.40222454  0.53425385  1
  O2-  O352  1  0.56620058  0.92223304  0.02130483  1
  O2-  O353  1  0.06385435  0.60638750  0.91654769  1
  O2-  O354  1  0.05738095  0.09453254  0.80305223  1
  O2-  O355  1  0.41970715  0.07055137  0.44312321  1
  O2-  O356  1  0.57832362  0.61021638  0.69081512  1
  O2-  O357  1  0.56159497  0.93256412  0.71346560  1
  O2-  O358  1  0.93917920  0.59193103  0.21515473  1
  O2-  O359  1  0.93126472  0.61359445  0.81810266  1
  O2-  O360  1  0.55512519  0.25294907  0.21542540  1
  O2-  O361  1  0.56596814  0.40977878  0.98177338  1
  O2-  O362  1  0.43611902  0.74462242  0.02622523  1
  O2-  O363  1  0.06873265  0.59030086  0.48391560  1
  O2-  O364  1  0.93516500  0.92242227  0.97485958  1
  O2-  O365  1  0.58437095  0.29411414  0.72623746  1
  O2-  O366  1  0.56366843  0.92535666  0.48161399  1
  O2-  O367  1  0.55730235  0.59674574  0.27567408  1
  O2-  O368  1  0.43620237  0.59968269  0.77070912  1
  O2-  O369  1  0.93815834  0.59916512  0.02960943  1
  O2-  O370  1  0.93370157  0.40748944  0.76949781  1
  O2-  O371  1  0.93657357  0.92184683  0.52480147  1
  O2-  O372  1  0.25048683  0.67245976  0.88910159  1
  O2-  O373  1  0.25052482  0.33573377  0.20653026  1
  O2-  O374  1  0.74980926  0.33837916  0.42625977  1
  O2-  O375  1  0.74905262  0.66039989  0.42388064  1
  O2-  O376  1  0.74841923  0.34099378  0.10280500  1
  O2-  O377  1  0.74928417  0.65924368  0.85819615  1
  O2-  O378  1  0.24830349  0.33600255  0.60979769  1
  O2-  O379  1  0.74782108  0.00008037  0.37021786  1
  O2-  O380  1  0.25041092  0.01933995  0.30917342  1
  O2-  O381  1  0.75090676  0.66220806  0.57813243  1
  O2-  O382  1  0.25288811  0.00038277  0.63866918  1
  O2-  O383  1  0.24935609  0.66778080  0.14506959  1
  O2-  O384  1  0.24920425  0.00384708  0.17350419  1
  O2-  O385  1  0.24832312  0.33858014  0.35486296  1
  O2-  O386  1  0.75108093  0.02141621  0.12761646  1
  O2-  O387  1  0.25072022  0.32784254  0.85239969  1
  O2-  O388  1  0.24988757  -0.00351410  0.88597137  1
  O2-  O389  1  0.75031712  0.65428533  0.67123722  1
  O2-  O390  1  0.24976220  0.02005982  0.05179008  1
  O2-  O391  1  0.74910592  0.00323280  0.86436575  1
  O2-  O392  1  0.25090996  0.34334962  0.07726378  1
  O2-  O393  1  0.74848974  0.66463499  0.32331205  1
  O2-  O394  1  0.24990842  -0.00056443  0.42717957  1
  O2-  O395  1  0.75069234  0.32379826  0.33557989  1
  O2-  O396  1  0.24935827  0.83643863  0.65480342  1
  O2-  O397  1  0.25027528  0.52573704  0.62410562  1
  O2-  O398  1  0.75015135  0.16054628  0.91947691  1
  O2-  O399  1  0.24987779  0.85436382  0.11660756  1
  O2-  O400  1  0.75112129  0.16556174  0.39038862  1
  O2-  O401  1  0.75009156  0.81301805  0.85464827  1
  O2-  O402  1  0.74998295  0.85358777  0.38747892  1
  O2-  O403  1  0.25017916  0.16663911  0.12001470  1
  O2-  O404  1  0.25060499  0.84556296  0.36826466  1
  O2-  O405  1  0.74875109  0.49025144  0.64942590  1
  O2-  O406  1  0.74983335  0.16642458  0.58411122  1
  O2-  O407  1  0.25033930  0.50236609  0.86266187  1
  O2-  O408  1  0.74920929  0.83948125  0.62820473  1
  O2-  O409  1  0.74941297  0.84958853  0.29905528  1
  O2-  O410  1  0.24905428  0.18151931  0.68836948  1
  O2-  O411  1  0.25025895  0.48600455  0.36609239  1
  O2-  O412  1  0.75044591  0.83078567  0.93840569  1
  O2-  O413  1  0.75045033  0.50787455  0.10062500  1
  O2-  O414  1  0.25055571  0.48674436  0.16238668  1
  O2-  O415  1  0.74870492  0.82261012  0.15298943  1
  O2-  O416  1  0.24999765  0.19131226  0.29687795  1
  O2-  O417  1  0.24945434  0.15498387  0.60546229  1
  O2-  O418  1  0.25023704  0.13919763  0.40876025  1
  O2-  O419  1  0.74998322  0.16571543  0.66412708  1
  O2-  O420  1  0.54611625  0.00684476  0.13711426  1
  O2-  O421  1  0.49247503  0.67493808  0.88010704  1
  O2-  O422  1  0.52947048  -0.00427923  0.87413410  1
  O2-  O423  1  0.97836657  0.34389883  0.37307584  1
  O2-  O424  1  0.03206523  0.31042531  0.89323078  1
  O2-  O425  1  0.95507261  0.32869835  0.13901657  1
  O2-  O426  1  0.03743484  -0.02181163  0.88328567  1
  O2-  O427  1  0.52382348  0.32908208  0.86658433  1
  O2-  O428  1  0.95187893  0.02381182  0.86063380  1
  O2-  O429  1  0.02653825  0.66192368  0.39182359  1
  O2-  O430  1  0.54812097  0.66502220  0.11908859  1
  O2-  O431  1  0.97091538  0.00113367  0.64438894  1
  O2-  O432  1  0.97898679  0.33809391  0.87045813  1
  O2-  O433  1  0.51772619  0.67703439  0.61343190  1
  O2-  O434  1  0.45086642  0.33446768  0.36978571  1
  O2-  O435  1  0.97554386  0.00242637  0.10673704  1
  O2-  O436  1  0.54584342  0.33220532  0.39250765  1
  O2-  O437  1  0.45308826  0.01522376  0.12652834  1
  O2-  O438  1  0.97105918  0.66662665  0.36158245  1
  O2-  O439  1  0.52810820  -0.00147931  0.36986534  1
  O2-  O440  1  0.47112016  -0.00306421  0.36634199  1
  O2-  O441  1  0.04818829  0.33937175  0.13789998  1
  O2-  O442  1  0.45605298  0.63693942  0.13466630  1
  O2-  O443  1  0.52573194  0.35128891  0.61562984  1
