# generated using pymatgen
data_La7(Ru4O11)2
_symmetry_space_group_name_H-M   'P 1'
_cell_length_a   23.99076929
_cell_length_b   16.83046624
_cell_length_c   15.42745468
_cell_angle_alpha   90.00021922
_cell_angle_beta   89.99889515
_cell_angle_gamma   89.99972865
_symmetry_Int_Tables_number   1
_chemical_formula_structural   La7(Ru4O11)2
_chemical_formula_sum   'La84 Ru96 O264'
_cell_volume   6229.23335894
_cell_formula_units_Z   12
loop_
 _symmetry_equiv_pos_site_id
 _symmetry_equiv_pos_as_xyz
  1  'x, y, z'
loop_
 _atom_type_symbol
 _atom_type_oxidation_number
  La3+  3.0
  Ru4+  4.0
  O2-  -2.0
loop_
 _atom_site_type_symbol
 _atom_site_label
 _atom_site_symmetry_multiplicity
 _atom_site_fract_x
 _atom_site_fract_y
 _atom_site_fract_z
 _atom_site_occupancy
  La3+  La0  1  0.13543032  0.00073678  0.12713333  1
  La3+  La1  1  0.14146287  -0.00034161  0.37744814  1
  La3+  La2  1  0.14032139  0.00085775  0.62147590  1
  La3+  La3  1  0.13546877  -0.00115455  0.87665159  1
  La3+  La4  1  0.13856110  0.33254608  0.12456080  1
  La3+  La5  1  0.13795078  0.33158793  0.37295689  1
  La3+  La6  1  0.13424314  0.33227378  0.62605021  1
  La3+  La7  1  0.13597910  0.33501487  0.87527010  1
  La3+  La8  1  0.13838452  0.66809167  0.12365713  1
  La3+  La9  1  0.13827731  0.66760367  0.37183705  1
  La3+  La10  1  0.14138231  0.66616322  0.62825116  1
  La3+  La11  1  0.14450177  0.66484481  0.87556182  1
  La3+  La12  1  0.64288024  -0.00013274  0.12322331  1
  La3+  La13  1  0.64017598  0.00095038  0.37615229  1
  La3+  La14  1  0.63839541  0.00140803  0.62346092  1
  La3+  La15  1  0.64245264  0.00357447  0.87646990  1
  La3+  La16  1  0.63828412  0.33555783  0.12671350  1
  La3+  La17  1  0.64169700  0.33169165  0.37636482  1
  La3+  La18  1  0.63860086  0.33056383  0.62494400  1
  La3+  La19  1  0.63833055  0.33008676  0.87326459  1
  La3+  La20  1  0.63858010  0.66557106  0.12632186  1
  La3+  La21  1  0.63839274  0.66723707  0.37885599  1
  La3+  La22  1  0.63841473  0.66850268  0.62109075  1
  La3+  La23  1  0.63676483  0.66723646  0.87353786  1
  La3+  La24  1  0.36250492  -0.00140342  0.12657285  1
  La3+  La25  1  0.36267920  -0.00091551  0.37838953  1
  La3+  La26  1  0.36340824  -0.00137673  0.62002268  1
  La3+  La27  1  0.36350584  -0.00083552  0.87463725  1
  La3+  La28  1  0.36046478  0.33491202  0.12729078  1
  La3+  La29  1  0.36083619  0.33146224  0.37196068  1
  La3+  La30  1  0.36302638  0.33409934  0.62460557  1
  La3+  La31  1  0.36314586  0.33591198  0.87661034  1
  La3+  La32  1  0.35886256  0.66600758  0.12387406  1
  La3+  La33  1  0.36154918  0.66741951  0.37337844  1
  La3+  La34  1  0.36090888  0.66577376  0.62661686  1
  La3+  La35  1  0.35738807  0.66543741  0.87437533  1
  La3+  La36  1  0.85607030  0.00218712  0.12334311  1
  La3+  La37  1  0.86015882  0.00035913  0.37480559  1
  La3+  La38  1  0.85972883  0.00329789  0.62640934  1
  La3+  La39  1  0.85968165  0.00280314  0.87544889  1
  La3+  La40  1  0.86243210  0.33359244  0.12267580  1
  La3+  La41  1  0.86049269  0.33306926  0.37839931  1
  La3+  La42  1  0.86639737  0.32744177  0.62819758  1
  La3+  La43  1  0.86627780  0.32597447  0.87177934  1
  La3+  La44  1  0.86235579  0.66693448  0.12691397  1
  La3+  La45  1  0.86098441  0.66688024  0.37507115  1
  La3+  La46  1  0.85988223  0.66618177  0.62365365  1
  La3+  La47  1  0.85968861  0.66630397  0.87494043  1
  La3+  La48  1  0.49893293  0.49764982  0.88234246  1
  La3+  La49  1  0.49712534  0.82971292  0.13164532  1
  La3+  La50  1  -0.00135653  0.82663294  0.12035824  1
  La3+  La51  1  -0.00002317  0.49935089  0.61848432  1
  La3+  La52  1  -0.00135108  0.84225666  0.62107878  1
  La3+  La53  1  0.50157091  0.17029624  0.62162282  1
  La3+  La54  1  0.00010082  0.49806035  0.86692828  1
  La3+  La55  1  -0.00078953  0.50842086  0.38447537  1
  La3+  La56  1  0.50061913  0.83612267  0.62775018  1
  La3+  La57  1  -0.00172588  0.16517083  0.12915338  1
  La3+  La58  1  0.00276618  0.49631827  0.12637265  1
  La3+  La59  1  0.50033137  0.83385050  0.86606165  1
  La3+  La60  1  0.50008782  0.50156685  0.36677656  1
  La3+  La61  1  -0.00150579  0.83329544  0.36070372  1
  La3+  La62  1  -0.00234120  0.83060186  0.86247014  1
  La3+  La63  1  0.50129266  0.83385629  0.61025655  1
  La3+  La64  1  -0.00174212  0.17580211  0.87858271  1
  La3+  La65  1  0.50061412  0.16657487  0.13362270  1
  La3+  La66  1  0.50275158  0.16782029  0.37112263  1
  La3+  La67  1  -0.00210569  0.16541444  0.86019724  1
  La3+  La68  1  -0.00392369  0.49929257  0.36502634  1
  La3+  La69  1  0.49870455  0.16552679  0.11136012  1
  La3+  La70  1  -0.00045079  0.84223709  0.60439900  1
  La3+  La71  1  -0.00047107  0.16856383  0.36853497  1
  La3+  La72  1  0.25033163  0.49863386  0.26445911  1
  La3+  La73  1  0.75003524  0.49863417  0.25396253  1
  La3+  La74  1  0.24995576  0.17284043  0.80536809  1
  La3+  La75  1  0.24996393  0.45370187  0.51173080  1
  La3+  La76  1  0.74948174  0.90193390  0.22973463  1
  La3+  La77  1  0.74995027  0.46437609  -0.02856176  1
  La3+  La78  1  0.74965867  0.82917928  0.50289451  1
  La3+  La79  1  0.74996832  0.78955019  0.81338072  1
  La3+  La80  1  0.25042763  0.78766376  0.78283912  1
  La3+  La81  1  0.25092216  0.16966635  0.00599259  1
  La3+  La82  1  0.25011101  0.87124769  0.25177267  1
  La3+  La83  1  0.75028288  0.53967326  0.74381312  1
  Ru4+  Ru84  1  -0.00800622  -0.00251719  0.00410805  1
  Ru4+  Ru85  1  0.00033857  -0.00019443  0.24816509  1
  Ru4+  Ru86  1  0.00145007  0.00176072  0.50277032  1
  Ru4+  Ru87  1  -0.00175659  0.00015363  0.75300415  1
  Ru4+  Ru88  1  -0.00051872  0.34318272  0.00087631  1
  Ru4+  Ru89  1  -0.00130427  0.33106046  0.25363317  1
  Ru4+  Ru90  1  0.00245787  0.32326721  0.50171930  1
  Ru4+  Ru91  1  -0.00570751  0.33868983  0.74668356  1
  Ru4+  Ru92  1  -0.00163884  0.66405547  0.00261836  1
  Ru4+  Ru93  1  0.00468377  0.66277188  0.24651222  1
  Ru4+  Ru94  1  -0.00278116  0.66570838  0.50312054  1
  Ru4+  Ru95  1  0.00034453  0.66629525  0.75123434  1
  Ru4+  Ru96  1  0.50222956  -0.00118946  -0.00428988  1
  Ru4+  Ru97  1  0.50002666  -0.00144663  0.25601852  1
  Ru4+  Ru98  1  0.50048034  0.00297907  0.49675308  1
  Ru4+  Ru99  1  0.49960375  -0.00097422  0.74856601  1
  Ru4+  Ru100  1  0.50037776  0.33231389  -0.00782399  1
  Ru4+  Ru101  1  0.50030995  0.33885832  0.24789422  1
  Ru4+  Ru102  1  0.49825324  0.33546739  0.50318566  1
  Ru4+  Ru103  1  0.50226245  0.33228308  0.74977676  1
  Ru4+  Ru104  1  0.49972900  0.66788192  -0.00267651  1
  Ru4+  Ru105  1  0.49939864  0.66777405  0.24675337  1
  Ru4+  Ru106  1  0.49745893  0.66088130  0.50533197  1
  Ru4+  Ru107  1  0.50127714  0.66578967  0.74657728  1
  Ru4+  Ru108  1  0.11726603  0.16698541  0.00146855  1
  Ru4+  Ru109  1  0.11379155  0.16619198  0.25052829  1
  Ru4+  Ru110  1  0.11161540  0.16495975  0.50085619  1
  Ru4+  Ru111  1  0.11542370  0.15940511  0.74722781  1
  Ru4+  Ru112  1  0.11379714  0.49893912  -0.00044669  1
  Ru4+  Ru113  1  0.11364965  0.50172947  0.24880181  1
  Ru4+  Ru114  1  0.11208030  0.50324416  0.50120793  1
  Ru4+  Ru115  1  0.11372714  0.50115754  0.74980606  1
  Ru4+  Ru116  1  0.11520042  0.82828305  0.00122857  1
  Ru4+  Ru117  1  0.11137216  0.83471311  0.25114414  1
  Ru4+  Ru118  1  0.11383629  0.83692171  0.49998549  1
  Ru4+  Ru119  1  0.11302220  0.83265999  0.75343005  1
  Ru4+  Ru120  1  0.61433517  0.16551052  -0.00185599  1
  Ru4+  Ru121  1  0.61239437  0.16441718  0.24980789  1
  Ru4+  Ru122  1  0.61497306  0.17069486  0.49853341  1
  Ru4+  Ru123  1  0.61497708  0.16849691  0.75057467  1
  Ru4+  Ru124  1  0.60981517  0.49762662  -0.00097983  1
  Ru4+  Ru125  1  0.61089948  0.49836083  0.24878425  1
  Ru4+  Ru126  1  0.61208825  0.50168160  0.49945808  1
  Ru4+  Ru127  1  0.60719994  0.50070568  0.74896822  1
  Ru4+  Ru128  1  0.61277684  0.83749028  -0.00274848  1
  Ru4+  Ru129  1  0.61273763  0.82917339  0.25375392  1
  Ru4+  Ru130  1  0.61638923  0.83408891  0.49897314  1
  Ru4+  Ru131  1  0.61009055  0.83220205  0.75275985  1
  Ru4+  Ru132  1  0.39105578  0.16612161  0.00172537  1
  Ru4+  Ru133  1  0.38443170  0.17022304  0.24862644  1
  Ru4+  Ru134  1  0.38382814  0.17391319  0.50015239  1
  Ru4+  Ru135  1  0.39121370  0.16711115  0.75088068  1
  Ru4+  Ru136  1  0.38683533  0.49951015  -0.00164160  1
  Ru4+  Ru137  1  0.39131320  0.49813691  0.24943111  1
  Ru4+  Ru138  1  0.38990882  0.49823848  0.49971289  1
  Ru4+  Ru139  1  0.38627732  0.50296133  0.75029284  1
  Ru4+  Ru140  1  0.38670931  0.83156436  -0.00134492  1
  Ru4+  Ru141  1  0.39083119  0.83135013  0.25136764  1
  Ru4+  Ru142  1  0.38468762  0.83613051  0.49941790  1
  Ru4+  Ru143  1  0.39121970  0.83284607  0.75021915  1
  Ru4+  Ru144  1  0.88255231  0.16132076  -0.00034109  1
  Ru4+  Ru145  1  0.88601905  0.16455267  0.24991529  1
  Ru4+  Ru146  1  0.88683119  0.17057268  0.50057431  1
  Ru4+  Ru147  1  0.88384969  0.16731739  0.74969969  1
  Ru4+  Ru148  1  0.88959415  0.49971354  -0.00098807  1
  Ru4+  Ru149  1  0.88769404  0.49909760  0.24925829  1
  Ru4+  Ru150  1  0.88246825  0.50545382  0.50268543  1
  Ru4+  Ru151  1  0.89061920  0.49898622  0.75051469  1
  Ru4+  Ru152  1  0.88651215  0.83468110  -0.00127030  1
  Ru4+  Ru153  1  0.88544192  0.83907068  0.25058799  1
  Ru4+  Ru154  1  0.88814123  0.83302566  0.49882934  1
  Ru4+  Ru155  1  0.88685768  0.83233988  0.75275437  1
  Ru4+  Ru156  1  0.74986941  0.72023343  0.24469316  1
  Ru4+  Ru157  1  0.25008272  0.89807940  0.01166151  1
  Ru4+  Ru158  1  0.75001383  0.74929387  -0.00515239  1
  Ru4+  Ru159  1  0.25031593  0.30551230  0.00192101  1
  Ru4+  Ru160  1  0.25031106  0.03844221  0.03563317  1
  Ru4+  Ru161  1  0.74966167  0.58649945  0.50010135  1
  Ru4+  Ru162  1  0.25024082  0.58805245  -0.00200674  1
  Ru4+  Ru163  1  0.75001156  0.42247547  0.50005414  1
  Ru4+  Ru164  1  0.75055510  0.40312997  0.74853632  1
  Ru4+  Ru165  1  0.25033752  0.72603109  0.25132777  1
  Ru4+  Ru166  1  0.25020212  0.43487914  0.74778376  1
  Ru4+  Ru167  1  0.75005655  0.08380284  0.49266346  1
  Ru4+  Ru168  1  0.25009574  0.08504814  0.25253248  1
  Ru4+  Ru169  1  0.74989706  0.24678595  0.25277052  1
  Ru4+  Ru170  1  0.75025010  0.24360830  0.00037565  1
  Ru4+  Ru171  1  0.25044990  0.91944714  0.72738430  1
  Ru4+  Ru172  1  0.74987480  0.59948033  0.00767878  1
  Ru4+  Ru173  1  0.25008325  0.07762339  0.49239564  1
  Ru4+  Ru174  1  0.74968915  0.94163341  0.74775117  1
  Ru4+  Ru175  1  0.25018504  0.06057010  0.71442862  1
  Ru4+  Ru176  1  0.25027806  0.75558121  0.49611292  1
  Ru4+  Ru177  1  0.24983278  0.25321126  0.49374486  1
  Ru4+  Ru178  1  0.25009872  0.60722103  0.49222325  1
  Ru4+  Ru179  1  0.25018020  0.29767692  0.73936391  1
  O2-  O180  1  0.16547115  0.07792560  -0.00108778  1
  O2-  O181  1  0.16944089  0.08239098  0.24999783  1
  O2-  O182  1  0.16796158  0.08225063  0.50022752  1
  O2-  O183  1  0.16738913  0.07837184  0.75099651  1
  O2-  O184  1  0.16508519  0.41393918  -0.00072411  1
  O2-  O185  1  0.16684059  0.41201516  0.25114375  1
  O2-  O186  1  0.16272720  0.40767234  0.49962047  1
  O2-  O187  1  0.16796377  0.41381272  0.74903474  1
  O2-  O188  1  0.16776007  0.74997934  -0.00217378  1
  O2-  O189  1  0.16869169  0.74715062  0.25144969  1
  O2-  O190  1  0.16683858  0.74843353  0.49865353  1
  O2-  O191  1  0.16543383  0.74597540  0.74470190  1
  O2-  O192  1  0.66797254  0.08417225  0.00056719  1
  O2-  O193  1  0.66564261  0.08170838  0.25017695  1
  O2-  O194  1  0.66730089  0.08089452  0.50285598  1
  O2-  O195  1  0.66393987  0.08285944  0.74795429  1
  O2-  O196  1  0.66441779  0.41206349  0.00199669  1
  O2-  O197  1  0.66915333  0.41345560  0.24862573  1
  O2-  O198  1  0.66645881  0.41464888  0.50101851  1
  O2-  O199  1  0.66546970  0.41372898  0.75067011  1
  O2-  O200  1  0.66502113  0.74737976  0.00031448  1
  O2-  O201  1  0.66607617  0.74650577  0.24937085  1
  O2-  O202  1  0.66554534  0.74777676  0.50046281  1
  O2-  O203  1  0.66842060  0.74473605  0.74872960  1
  O2-  O204  1  0.33266953  0.25515823  -0.00091419  1
  O2-  O205  1  0.33136311  0.25124034  0.25028176  1
  O2-  O206  1  0.33204199  0.25409289  0.50175239  1
  O2-  O207  1  0.33312481  0.25548444  0.74966834  1
  O2-  O208  1  0.33184104  0.58542151  -0.00148894  1
  O2-  O209  1  0.33358880  0.58549401  0.25038828  1
  O2-  O210  1  0.33152110  0.58658022  0.50106425  1
  O2-  O211  1  0.33639307  0.58482778  0.74807563  1
  O2-  O212  1  0.33323619  0.91768940  0.00047106  1
  O2-  O213  1  0.33798211  0.92322139  0.25025431  1
  O2-  O214  1  0.33324749  0.91735662  0.49861697  1
  O2-  O215  1  0.33413633  0.92115845  0.75080775  1
  O2-  O216  1  0.83228403  0.25319264  0.00196642  1
  O2-  O217  1  0.83405690  0.25264874  0.24912152  1
  O2-  O218  1  0.83265300  0.25003522  0.50128644  1
  O2-  O219  1  0.83219610  0.25087962  0.74804778  1
  O2-  O220  1  0.83318919  0.58623186  0.00195478  1
  O2-  O221  1  0.83018108  0.58745578  0.24780624  1
  O2-  O222  1  0.83124125  0.58594860  0.49938386  1
  O2-  O223  1  0.83456915  0.58829907  0.74992302  1
  O2-  O224  1  0.83663119  0.91616101  -0.00009781  1
  O2-  O225  1  0.83648241  0.92316777  0.25165587  1
  O2-  O226  1  0.83234554  0.91876204  0.50240160  1
  O2-  O227  1  0.83294193  0.91963852  0.74930402  1
  O2-  O228  1  0.16632222  0.25527609  0.00001982  1
  O2-  O229  1  0.16645145  0.25256274  0.24958451  1
  O2-  O230  1  0.16626948  0.25326347  0.49981271  1
  O2-  O231  1  0.16704701  0.25592095  0.75056289  1
  O2-  O232  1  0.16743652  0.58497504  -0.00106455  1
  O2-  O233  1  0.16900684  0.58680320  0.25243099  1
  O2-  O234  1  0.16680905  0.58782371  0.49907292  1
  O2-  O235  1  0.16380590  0.58444078  0.74668291  1
  O2-  O236  1  0.16885349  0.91782856  -0.00120352  1
  O2-  O237  1  0.16560078  0.92298804  0.24743413  1
  O2-  O238  1  0.16671072  0.91630653  0.49854650  1
  O2-  O239  1  0.16690352  0.91923451  0.75065179  1
  O2-  O240  1  0.66608552  0.25245632  0.00137815  1
  O2-  O241  1  0.66703292  0.25363114  0.24816142  1
  O2-  O242  1  0.66714942  0.25069748  0.50115614  1
  O2-  O243  1  0.66717704  0.25077963  0.75018290  1
  O2-  O244  1  0.66525303  0.58796402  0.00010111  1
  O2-  O245  1  0.66677097  0.58683255  0.24982827  1
  O2-  O246  1  0.66683890  0.58430465  0.50074868  1
  O2-  O247  1  0.66477108  0.58850550  0.75108567  1
  O2-  O248  1  0.66769250  0.91364022  0.00096764  1
  O2-  O249  1  0.66290902  0.92007421  0.25245253  1
  O2-  O250  1  0.66682744  0.91904487  0.50120176  1
  O2-  O251  1  0.66571189  0.91991543  0.74855629  1
  O2-  O252  1  0.33558801  0.07791464  -0.00162794  1
  O2-  O253  1  0.33109418  0.08040246  0.25051625  1
  O2-  O254  1  0.33344300  0.08029984  0.49968694  1
  O2-  O255  1  0.33444654  0.07999793  0.75036015  1
  O2-  O256  1  0.33600514  0.41523514  -0.00039037  1
  O2-  O257  1  0.33140060  0.41428685  0.25029190  1
  O2-  O258  1  0.33832704  0.41017045  0.50045006  1
  O2-  O259  1  0.33378310  0.41307377  0.74834615  1
  O2-  O260  1  0.33438904  0.74878908  -0.00095824  1
  O2-  O261  1  0.33028303  0.74663932  0.24871704  1
  O2-  O262  1  0.33208458  0.74790586  0.49931267  1
  O2-  O263  1  0.33671096  0.74445378  0.74752328  1
  O2-  O264  1  0.83419708  0.08147726  0.00109497  1
  O2-  O265  1  0.83244199  0.08191277  0.25033477  1
  O2-  O266  1  0.83374047  0.08069346  0.50238547  1
  O2-  O267  1  0.83433078  0.08276018  0.74780396  1
  O2-  O268  1  0.83430898  0.41285881  0.00165079  1
  O2-  O269  1  0.83342724  0.41307161  0.24720224  1
  O2-  O270  1  0.83424705  0.41404616  0.49992462  1
  O2-  O271  1  0.83444448  0.41236425  0.75011959  1
  O2-  O272  1  0.83237593  0.74671108  0.00160776  1
  O2-  O273  1  0.83336742  0.74537068  0.24789510  1
  O2-  O274  1  0.83292381  0.74834932  0.50044392  1
  O2-  O275  1  0.83101092  0.74693434  0.74695964  1
  O2-  O276  1  0.04511498  0.10085296  0.97428767  1
  O2-  O277  1  0.54464161  0.44276862  0.52665467  1
  O2-  O278  1  0.04034767  0.89319164  0.99072536  1
  O2-  O279  1  0.46199861  0.55692002  0.53038192  1
  O2-  O280  1  0.04342105  0.09923803  0.01343968  1
  O2-  O281  1  0.54514697  0.57116733  0.73742025  1
  O2-  O282  1  0.55038369  0.09970569  0.51037295  1
  O2-  O283  1  0.04580227  0.77976262  0.71242577  1
  O2-  O284  1  0.04691070  0.42850126  0.01213744  1
  O2-  O285  1  0.45168855  0.76535338  0.98625365  1
  O2-  O286  1  0.04471747  0.56749921  0.73771978  1
  O2-  O287  1  0.45515711  0.57412340  0.23604881  1
  O2-  O288  1  0.45233596  0.76530015  0.51497253  1
  O2-  O289  1  0.95724412  0.55621060  0.03777996  1
  O2-  O290  1  0.55059831  0.75432159  0.98426423  1
  O2-  O291  1  0.03779790  0.88834637  0.46348292  1
  O2-  O292  1  0.45086192  0.89904094  0.26163234  1
  O2-  O293  1  0.95134233  0.76318290  0.22999898  1
  O2-  O294  1  0.05024188  0.23737668  0.01526610  1
  O2-  O295  1  0.95011530  0.43370000  0.51830562  1
  O2-  O296  1  0.95089184  0.43052580  0.47934170  1
  O2-  O297  1  0.03628466  0.88676753  0.21727741  1
  O2-  O298  1  0.55110267  0.89992911  0.48364353  1
  O2-  O299  1  0.52502106  0.88201044  1.00319849  1
  O2-  O300  1  0.04471096  0.23373686  0.23635889  1
  O2-  O301  1  0.95191834  0.23607404  0.99046609  1
  O2-  O302  1  0.95071521  0.22441638  0.76960970  1
  O2-  O303  1  0.04925909  0.22869022  0.73249949  1
  O2-  O304  1  0.55138622  0.76444831  0.51775090  1
  O2-  O305  1  0.54713215  0.90200272  0.21588846  1
  O2-  O306  1  0.45015410  0.10161719  0.48046502  1
  O2-  O307  1  0.95517945  0.78113226  0.71701974  1
  O2-  O308  1  0.95179922  0.75979232  0.26913037  1
  O2-  O309  1  0.45131399  0.09478296  0.51918618  1
  O2-  O310  1  0.46446516  0.44125009  0.20876063  1
  O2-  O311  1  0.95749443  0.23522457  0.74620266  1
  O2-  O312  1  0.54450159  0.43129008  0.73951005  1
  O2-  O313  1  0.45445647  0.10081389  0.26034049  1
  O2-  O314  1  0.45435937  0.23257020  0.76047333  1
  O2-  O315  1  0.54644780  0.57038916  0.98658604  1
  O2-  O316  1  0.45104389  0.42461944  0.48127817  1
  O2-  O317  1  0.04980540  0.43162339  0.49003371  1
  O2-  O318  1  0.04040707  0.89308431  -0.00978933  1
  O2-  O319  1  0.04671795  0.75838146  0.51368617  1
  O2-  O320  1  0.05117106  0.57158582  0.00799756  1
  O2-  O321  1  0.04681547  0.43024625  0.25783710  1
  O2-  O322  1  0.05051285  0.24148208  0.76915025  1
  O2-  O323  1  0.54712538  0.76286956  0.26082032  1
  O2-  O324  1  0.42821214  0.38962013  0.31129575  1
  O2-  O325  1  0.56952064  0.08234002  0.05842225  1
  O2-  O326  1  0.06317408  0.93107556  0.78422732  1
  O2-  O327  1  0.56831425  0.94469154  0.33303005  1
  O2-  O328  1  0.56011260  0.93231527  0.47401219  1
  O2-  O329  1  0.56097308  0.26017921  0.46587159  1
  O2-  O330  1  0.07941166  0.93754998  0.04219432  1
  O2-  O331  1  0.93558776  0.92385446  0.77661954  1
  O2-  O332  1  0.06350821  0.73917283  0.02546759  1
  O2-  O333  1  0.56016813  0.73591568  0.53708483  1
  O2-  O334  1  0.06371083  0.58994515  0.22527762  1
  O2-  O335  1  0.43620088  0.92405230  0.52838005  1
  O2-  O336  1  0.93550603  0.59350788  0.27322287  1
  O2-  O337  1  0.43704773  0.26372459  0.03464478  1
  O2-  O338  1  0.56247378  0.73601154  0.78446092  1
  O2-  O339  1  0.56589236  0.25838666  0.72154127  1
  O2-  O340  1  0.93231000  0.74720263  0.56419862  1
  O2-  O341  1  0.07757970  0.94055723  0.30167778  1
  O2-  O342  1  0.56536481  0.91386373  0.19284126  1
  O2-  O343  1  0.06262528  0.07629160  0.53096885  1
  O2-  O344  1  0.42968146  0.74598413  0.30832025  1
  O2-  O345  1  0.43613071  0.73524665  0.18048027  1
  O2-  O346  1  0.07106904  0.94080128  0.56310564  1
  O2-  O347  1  0.06168759  0.26583810  0.03137439  1
  O2-  O348  1  0.93486193  0.92704597  0.47450244  1
  O2-  O349  1  0.43668564  0.59656825  0.96633783  1
  O2-  O350  1  0.06277520  0.40377809  0.78355948  1
  O2-  O351  1  0.93478520  0.92516055  0.27938990  1
  O2-  O352  1  0.92846901  0.60705347  0.93688525  1
  O2-  O353  1  0.93943693  0.74429294  0.97036310  1
  O2-  O354  1  0.06588243  0.74080167  0.22390001  1
  O2-  O355  1  0.93513751  0.40234573  0.03345705  1
  O2-  O356  1  0.56812953  0.40202028  0.45298929  1
  O2-  O357  1  0.93643196  0.25558808  0.47314207  1
  O2-  O358  1  0.56548714  0.59268600  0.47183949  1
  O2-  O359  1  0.56445403  0.39998060  0.21866565  1
  O2-  O360  1  0.42656949  0.60070833  0.45989703  1
  O2-  O361  1  0.92983590  0.71783145  0.80923834  1
  O2-  O362  1  0.93543403  0.59110639  0.52643090  1
  O2-  O363  1  0.92903070  0.27062903  0.78311704  1
  O2-  O364  1  0.56363844  0.08253798  0.93929007  1
  O2-  O365  1  0.93551353  0.07498070  0.77583144  1
  O2-  O366  1  0.43815793  0.26226606  0.21600550  1
  O2-  O367  1  0.07060039  0.71707281  0.81559976  1
  O2-  O368  1  0.93254940  0.74720722  0.43689030  1
  O2-  O369  1  0.93870702  0.07200756  0.21590522  1
  O2-  O370  1  0.58224257  0.94639669  0.96115810  1
  O2-  O371  1  0.93599113  0.25634902  0.96928374  1
  O2-  O372  1  0.74955725  0.66380227  0.59457620  1
  O2-  O373  1  0.74994693  0.33039583  0.41828665  1
  O2-  O374  1  0.75006097  0.01359791  0.83577645  1
  O2-  O375  1  0.25008956  0.00227007  0.40023239  1
  O2-  O376  1  0.24957411  0.33875090  0.88504477  1
  O2-  O377  1  0.75055445  -0.00194574  0.10262717  1
  O2-  O378  1  0.25033586  0.66236818  0.09172571  1
  O2-  O379  1  0.75020971  0.33694053  0.32707233  1
  O2-  O380  1  0.75043250  0.00150452  0.40843148  1
  O2-  O381  1  0.24962205  0.33788677  0.11357581  1
  O2-  O382  1  0.25036818  0.66823065  0.85321876  1
  O2-  O383  1  0.75016043  0.00343400  0.64573836  1
  O2-  O384  1  0.75032146  -0.00292741  0.92294788  1
  O2-  O385  1  0.74935252  0.66871594  0.89348181  1
  O2-  O386  1  0.74947601  0.33458289  0.92597080  1
  O2-  O387  1  0.74966516  0.66540311  0.40456091  1
  O2-  O388  1  0.24989086  -0.01742490  0.93262271  1
  O2-  O389  1  0.25011277  0.00459151  0.59551253  1
  O2-  O390  1  0.75004253  0.31947734  0.83565377  1
  O2-  O391  1  0.24951714  0.67219304  0.59922167  1
  O2-  O392  1  0.24982451  0.00357055  0.81697077  1
  O2-  O393  1  0.75016728  0.33078035  0.57595825  1
  O2-  O394  1  0.75016460  0.67326139  0.10551238  1
  O2-  O395  1  0.75016336  0.32115817  0.66389997  1
  O2-  O396  1  0.25007395  0.51681765  0.39442234  1
  O2-  O397  1  0.25003615  0.16581606  0.65892687  1
  O2-  O398  1  0.75005401  0.50013704  0.40749947  1
  O2-  O399  1  0.24997435  0.16669302  0.56674109  1
  O2-  O400  1  0.75027426  0.84287625  0.69934452  1
  O2-  O401  1  0.74980775  0.50552727  0.10965317  1
  O2-  O402  1  0.75042216  0.85311092  0.38622015  1
  O2-  O403  1  0.74992091  0.79923036  0.32030280  1
  O2-  O404  1  0.25024808  0.83236636  0.11433109  1
  O2-  O405  1  0.24997819  0.50221199  0.14305322  1
  O2-  O406  1  0.75011377  0.84607274  0.05056637  1
  O2-  O407  1  0.25005565  0.50233489  0.63878053  1
  O2-  O408  1  0.25005283  0.81759433  0.38413867  1
  O2-  O409  1  0.74993699  0.16282963  0.91861583  1
  O2-  O410  1  0.74992938  0.17055854  0.41960856  1
  O2-  O411  1  0.74999644  0.16207698  0.33098478  1
  O2-  O412  1  0.25007169  0.49520022  0.05681721  1
  O2-  O413  1  0.75005385  0.50034694  0.59480443  1
  O2-  O414  1  0.24996972  0.83784640  0.64029031  1
  O2-  O415  1  0.74986699  0.81256185  0.13314248  1
  O2-  O416  1  0.25010318  0.49449788  0.83851232  1
  O2-  O417  1  0.24991970  0.16732073  0.40732775  1
  O2-  O418  1  0.75015984  0.82489505  0.62131245  1
  O2-  O419  1  0.74990170  0.16964923  0.83453688  1
  O2-  O420  1  0.53263365  0.66639770  0.37251966  1
  O2-  O421  1  0.52189749  0.33028156  0.62291406  1
  O2-  O422  1  0.51855264  -0.00314388  0.86226389  1
  O2-  O423  1  0.98336235  0.66055556  0.37396935  1
  O2-  O424  1  0.95810393  0.33782503  0.36269823  1
  O2-  O425  1  0.01874221  0.66418937  0.12429457  1
  O2-  O426  1  0.45796079  0.00379407  0.64093188  1
  O2-  O427  1  0.95812550  0.33394033  0.62498884  1
  O2-  O428  1  0.47556909  0.66403760  0.37619379  1
  O2-  O429  1  0.97561234  0.34527203  0.87365246  1
  O2-  O430  1  0.45669947  0.33881232  0.87538671  1
  O2-  O431  1  0.47136948  0.00197496  0.37549424  1
  O2-  O432  1  0.45282154  0.00117660  0.11884057  1
  O2-  O433  1  0.02429593  0.00848713  0.13140413  1
  O2-  O434  1  0.02893190  0.01372450  0.37948869  1
  O2-  O435  1  0.04481885  0.32741727  0.37917750  1
  O2-  O436  1  0.97048356  0.01172858  0.37420967  1
  O2-  O437  1  0.53291926  0.00568835  0.12603932  1
  O2-  O438  1  0.97917172  0.65981490  0.63367792  1
  O2-  O439  1  0.04296329  0.33574269  0.62200602  1
  O2-  O440  1  0.54351332  0.33368695  0.87782770  1
  O2-  O441  1  0.97566190  -0.00027132  0.88544284  1
  O2-  O442  1  0.54373950  -0.00374394  0.62665865  1
  O2-  O443  1  0.47177272  0.66865418  0.62883509  1
