# generated using pymatgen
data_La7(Ru4O11)2
_symmetry_space_group_name_H-M   'P 1'
_cell_length_a   23.99005359
_cell_length_b   16.82970181
_cell_length_c   15.42632488
_cell_angle_alpha   89.99947669
_cell_angle_beta   90.00025149
_cell_angle_gamma   90.00151416
_symmetry_Int_Tables_number   1
_chemical_formula_structural   La7(Ru4O11)2
_chemical_formula_sum   'La84 Ru96 O264'
_cell_volume   6228.30845060
_cell_formula_units_Z   12
loop_
 _symmetry_equiv_pos_site_id
 _symmetry_equiv_pos_as_xyz
  1  'x, y, z'
loop_
 _atom_type_symbol
 _atom_type_oxidation_number
  La3+  3.0
  Ru4+  4.0
  O2-  -2.0
loop_
 _atom_site_type_symbol
 _atom_site_label
 _atom_site_symmetry_multiplicity
 _atom_site_fract_x
 _atom_site_fract_y
 _atom_site_fract_z
 _atom_site_occupancy
  La3+  La0  1  0.13825947  -0.00168815  0.12785814  1
  La3+  La1  1  0.13638280  -0.00351224  0.37231524  1
  La3+  La2  1  0.13828108  -0.00000841  0.62525556  1
  La3+  La3  1  0.13994638  0.00003681  0.87269724  1
  La3+  La4  1  0.13775550  0.33386970  0.12273720  1
  La3+  La5  1  0.13626914  0.33416964  0.37614710  1
  La3+  La6  1  0.13829953  0.33387781  0.62528641  1
  La3+  La7  1  0.13991684  0.33459315  0.87531573  1
  La3+  La8  1  0.14057507  0.66821441  0.12318072  1
  La3+  La9  1  0.14277550  0.66637460  0.37819358  1
  La3+  La10  1  0.14211998  0.66742863  0.62312306  1
  La3+  La11  1  0.13999190  0.66844253  0.87484887  1
  La3+  La12  1  0.63774045  -0.00150780  0.12400600  1
  La3+  La13  1  0.63734629  -0.00109943  0.37277177  1
  La3+  La14  1  0.63731408  -0.00127199  0.62687105  1
  La3+  La15  1  0.63687844  -0.00212690  0.87713518  1
  La3+  La16  1  0.64099089  0.33533562  0.12304150  1
  La3+  La17  1  0.63875984  0.33408536  0.37467173  1
  La3+  La18  1  0.63707799  0.33682486  0.62557133  1
  La3+  La19  1  0.64107560  0.33543553  0.87625916  1
  La3+  La20  1  0.63897871  0.66651889  0.12518534  1
  La3+  La21  1  0.64033301  0.66580912  0.37483847  1
  La3+  La22  1  0.63806677  0.66620280  0.62360948  1
  La3+  La23  1  0.63903491  0.66375541  0.87497664  1
  La3+  La24  1  0.36010768  -0.00029524  0.12667148  1
  La3+  La25  1  0.36196234  -0.00253911  0.37576952  1
  La3+  La26  1  0.36071712  -0.00126254  0.62570744  1
  La3+  La27  1  0.35880026  0.00108276  0.87312577  1
  La3+  La28  1  0.36299586  0.33358830  0.12328834  1
  La3+  La29  1  0.36324488  0.33375465  0.37421775  1
  La3+  La30  1  0.36352449  0.33409202  0.62647809  1
  La3+  La31  1  0.35895263  0.33573012  0.87741630  1
  La3+  La32  1  0.35913407  0.66893659  0.12569614  1
  La3+  La33  1  0.35876482  0.66690366  0.37711252  1
  La3+  La34  1  0.35848309  0.66725639  0.62314649  1
  La3+  La35  1  0.36014863  0.66777481  0.87512050  1
  La3+  La36  1  0.86291543  0.00259774  0.12258652  1
  La3+  La37  1  0.86322693  -0.00044976  0.37411130  1
  La3+  La38  1  0.86413413  -0.00059379  0.62542021  1
  La3+  La39  1  0.86189589  0.00372122  0.87728711  1
  La3+  La40  1  0.86162255  0.33935628  0.12816424  1
  La3+  La41  1  0.86404917  0.33785341  0.37017916  1
  La3+  La42  1  0.86279272  0.33513877  0.62485401  1
  La3+  La43  1  0.85732001  0.33531981  0.87682942  1
  La3+  La44  1  0.86095757  0.66644795  0.12455310  1
  La3+  La45  1  0.86185442  0.66705771  0.37481922  1
  La3+  La46  1  0.85996979  0.66466008  0.62488274  1
  La3+  La47  1  0.86023892  0.66487546  0.87542345  1
  La3+  La48  1  -0.00243266  0.16381563  0.11925370  1
  La3+  La49  1  0.50157542  0.16676067  0.37065753  1
  La3+  La50  1  0.49923808  0.83935731  0.13380539  1
  La3+  La51  1  0.50044791  0.49965143  0.11537217  1
  La3+  La52  1  0.00153002  0.83381704  0.11561564  1
  La3+  La53  1  -0.00087480  0.49218110  0.12315366  1
  La3+  La54  1  -0.00070881  0.49992358  0.86633365  1
  La3+  La55  1  0.50013933  0.49859017  0.38666521  1
  La3+  La56  1  0.50121925  0.16896280  0.86654130  1
  La3+  La57  1  0.00190591  0.16465104  0.87373856  1
  La3+  La58  1  0.50120195  0.16667514  0.11815255  1
  La3+  La59  1  -0.00258478  0.49479638  0.38466988  1
  La3+  La60  1  0.00164550  0.49746349  0.62708583  1
  La3+  La61  1  0.00052006  0.82925982  0.60948165  1
  La3+  La62  1  -0.00214023  0.16081921  0.13582979  1
  La3+  La63  1  0.00105210  0.16359438  0.87399338  1
  La3+  La64  1  -0.00265529  0.83149105  0.35901940  1
  La3+  La65  1  -0.00237436  0.82703884  0.63166996  1
  La3+  La66  1  0.00113949  0.83712479  0.37965737  1
  La3+  La67  1  0.49836635  0.83358490  0.11216894  1
  La3+  La68  1  -0.00094609  0.50337085  0.14203710  1
  La3+  La69  1  0.50133519  0.83419622  0.86769584  1
  La3+  La70  1  0.49839837  0.83441922  0.63491199  1
  La3+  La71  1  0.50021732  0.16900951  0.88332230  1
  La3+  La72  1  0.74998779  0.20983420  0.04198831  1
  La3+  La73  1  0.75009338  0.20345099  0.22043209  1
  La3+  La74  1  0.74969742  0.46847832  0.28307563  1
  La3+  La75  1  0.25024901  0.53679898  0.22817440  1
  La3+  La76  1  0.75040460  0.22686342  0.75069565  1
  La3+  La77  1  0.25003935  0.13146496  0.27274314  1
  La3+  La78  1  0.74962107  0.86144302  0.75173516  1
  La3+  La79  1  0.75018638  0.78884203  0.48263667  1
  La3+  La80  1  0.75022528  0.83331524  0.23241349  1
  La3+  La81  1  0.75007449  0.86196216  -0.02663373  1
  La3+  La82  1  0.75013478  0.18353850  0.45310397  1
  La3+  La83  1  0.24997107  0.13140305  0.50229306  1
  Ru4+  Ru84  1  -0.00225520  -0.00253152  0.00009159  1
  Ru4+  Ru85  1  -0.00288369  0.00520509  0.24663814  1
  Ru4+  Ru86  1  -0.00390305  0.00789627  0.50164194  1
  Ru4+  Ru87  1  -0.00103613  0.00525253  0.75173223  1
  Ru4+  Ru88  1  0.00039497  0.33651077  -0.00168381  1
  Ru4+  Ru89  1  0.00157942  0.33692023  0.25335565  1
  Ru4+  Ru90  1  -0.00039362  0.33289813  0.49827047  1
  Ru4+  Ru91  1  -0.00044150  0.33189588  0.75130217  1
  Ru4+  Ru92  1  0.00003508  0.66831829  -0.00172625  1
  Ru4+  Ru93  1  -0.00221400  0.66739749  0.24928942  1
  Ru4+  Ru94  1  0.00043142  0.66197697  0.49993576  1
  Ru4+  Ru95  1  0.00170703  0.66746147  0.75103597  1
  Ru4+  Ru96  1  0.49819046  0.00641763  -0.00291752  1
  Ru4+  Ru97  1  0.49978338  -0.00094469  0.25299573  1
  Ru4+  Ru98  1  0.49709534  -0.00413723  0.50163457  1
  Ru4+  Ru99  1  0.50349196  -0.00615584  0.74543805  1
  Ru4+  Ru100  1  0.49986521  0.33432711  -0.00262091  1
  Ru4+  Ru101  1  0.50317268  0.33665990  0.25167727  1
  Ru4+  Ru102  1  0.49972485  0.33495213  0.50208650  1
  Ru4+  Ru103  1  0.50074590  0.33407610  0.74699587  1
  Ru4+  Ru104  1  0.49958712  0.66372936  -0.00271306  1
  Ru4+  Ru105  1  0.49849544  0.66292285  0.25427303  1
  Ru4+  Ru106  1  0.49843267  0.66242858  0.49990167  1
  Ru4+  Ru107  1  0.49971542  0.66594746  0.74968224  1
  Ru4+  Ru108  1  0.11644318  0.16787943  -0.00042751  1
  Ru4+  Ru109  1  0.11097253  0.16592360  0.24924770  1
  Ru4+  Ru110  1  0.11130776  0.16577543  0.49995993  1
  Ru4+  Ru111  1  0.11374404  0.16584541  0.75046335  1
  Ru4+  Ru112  1  0.11467429  0.49907497  -0.00072628  1
  Ru4+  Ru113  1  0.11221248  0.49936513  0.25069490  1
  Ru4+  Ru114  1  0.11320994  0.50153806  0.49955927  1
  Ru4+  Ru115  1  0.11281411  0.50056576  0.74983804  1
  Ru4+  Ru116  1  0.11413089  0.83123319  0.00030874  1
  Ru4+  Ru117  1  0.11725717  0.83113389  0.24774679  1
  Ru4+  Ru118  1  0.11796157  0.82808771  0.49937287  1
  Ru4+  Ru119  1  0.11631951  0.82938239  0.75031258  1
  Ru4+  Ru120  1  0.61132577  0.16810990  0.00003889  1
  Ru4+  Ru121  1  0.61168208  0.16662685  0.25039122  1
  Ru4+  Ru122  1  0.61128521  0.16715507  0.50044922  1
  Ru4+  Ru123  1  0.61135030  0.16883118  0.75027121  1
  Ru4+  Ru124  1  0.61369465  0.49953747  0.00013329  1
  Ru4+  Ru125  1  0.61224780  0.50149851  0.25040156  1
  Ru4+  Ru126  1  0.61326441  0.49728093  0.50081819  1
  Ru4+  Ru127  1  0.61524729  0.50011603  0.74981225  1
  Ru4+  Ru128  1  0.61523352  0.83069243  -0.00067970  1
  Ru4+  Ru129  1  0.61504766  0.83591985  0.25224210  1
  Ru4+  Ru130  1  0.61397837  0.83465002  0.49964650  1
  Ru4+  Ru131  1  0.61047287  0.83367186  0.74974092  1
  Ru4+  Ru132  1  0.38715753  0.16813443  -0.00026269  1
  Ru4+  Ru133  1  0.38476022  0.16254893  0.25088433  1
  Ru4+  Ru134  1  0.38870004  0.16619243  0.50099459  1
  Ru4+  Ru135  1  0.38356877  0.16839989  0.74783282  1
  Ru4+  Ru136  1  0.38513836  0.49715415  0.00132269  1
  Ru4+  Ru137  1  0.38902033  0.50084921  0.25022373  1
  Ru4+  Ru138  1  0.38715833  0.50219470  0.50041756  1
  Ru4+  Ru139  1  0.38672135  0.50007055  0.74990677  1
  Ru4+  Ru140  1  0.38455240  0.83080456  -0.00093515  1
  Ru4+  Ru141  1  0.38555449  0.83403361  0.25098764  1
  Ru4+  Ru142  1  0.38605794  0.83233301  0.50050378  1
  Ru4+  Ru143  1  0.38598527  0.83193846  0.75003554  1
  Ru4+  Ru144  1  0.88697993  0.16541923  0.00028266  1
  Ru4+  Ru145  1  0.88768710  0.16625492  0.24821665  1
  Ru4+  Ru146  1  0.89013902  0.16781724  0.50004321  1
  Ru4+  Ru147  1  0.88889460  0.16841244  0.75149551  1
  Ru4+  Ru148  1  0.88406059  0.49940707  -0.00026670  1
  Ru4+  Ru149  1  0.89017415  0.49810018  0.25256077  1
  Ru4+  Ru150  1  0.88736642  0.49849827  0.49907600  1
  Ru4+  Ru151  1  0.88521195  0.49973356  0.75026038  1
  Ru4+  Ru152  1  0.88937554  0.83685019  -0.00054329  1
  Ru4+  Ru153  1  0.88849502  0.83324926  0.24971629  1
  Ru4+  Ru154  1  0.88665883  0.83431082  0.50055983  1
  Ru4+  Ru155  1  0.88599543  0.83113422  0.75124049  1
  Ru4+  Ru156  1  0.74979017  0.92041015  0.49637271  1
  Ru4+  Ru157  1  0.25033894  0.58214900  -0.00113648  1
  Ru4+  Ru158  1  0.24976480  0.26124662  0.50844794  1
  Ru4+  Ru159  1  0.75007780  0.06494733  0.25969850  1
  Ru4+  Ru160  1  0.25009530  0.91523820  -0.00169663  1
  Ru4+  Ru161  1  0.25010353  0.75625885  0.25948053  1
  Ru4+  Ru162  1  0.25033696  0.91307551  0.50118896  1
  Ru4+  Ru163  1  0.25009859  0.24591477  0.00135388  1
  Ru4+  Ru164  1  0.75006999  0.29410766  0.52495309  1
  Ru4+  Ru165  1  0.25018288  0.41938287  0.74963540  1
  Ru4+  Ru166  1  0.75004949  0.57682172  0.50813892  1
  Ru4+  Ru167  1  0.25028315  0.90589032  0.75319218  1
  Ru4+  Ru168  1  0.75008158  0.06149924  0.49825983  1
  Ru4+  Ru169  1  0.25009582  0.58485632  0.74860489  1
  Ru4+  Ru170  1  0.74996479  0.72473924  0.74617446  1
  Ru4+  Ru171  1  0.75004954  0.72555973  0.00151179  1
  Ru4+  Ru172  1  0.74982727  0.60606694  0.25106075  1
  Ru4+  Ru173  1  0.25042521  0.08571812  0.00078705  1
  Ru4+  Ru174  1  0.75020901  0.06851735  0.76219735  1
  Ru4+  Ru175  1  0.24994684  0.42708536  0.50128640  1
  Ru4+  Ru176  1  0.25020225  0.40473240  0.24042523  1
  Ru4+  Ru177  1  0.24981391  0.24811050  0.75069274  1
  Ru4+  Ru178  1  0.24983737  0.26193649  0.23382187  1
  Ru4+  Ru179  1  0.74953949  0.06871121  -0.00448665  1
  O2-  O180  1  0.16727466  0.08048659  -0.00003202  1
  O2-  O181  1  0.16738823  0.07818893  0.25095072  1
  O2-  O182  1  0.16638196  0.07880389  0.49933613  1
  O2-  O183  1  0.16746427  0.08109547  0.74824590  1
  O2-  O184  1  0.16731687  0.41423640  0.00063482  1
  O2-  O185  1  0.16603719  0.41298844  0.24939782  1
  O2-  O186  1  0.16873682  0.41400692  0.50012946  1
  O2-  O187  1  0.16706652  0.41387651  0.74918134  1
  O2-  O188  1  0.16755511  0.74876546  -0.00155694  1
  O2-  O189  1  0.16739070  0.74716139  0.25006190  1
  O2-  O190  1  0.16743932  0.74877475  0.50085391  1
  O2-  O191  1  0.16571976  0.74735237  0.74995226  1
  O2-  O192  1  0.66723797  0.07932435  0.00029900  1
  O2-  O193  1  0.66745686  0.07996366  0.24996836  1
  O2-  O194  1  0.66699247  0.07848713  0.50034637  1
  O2-  O195  1  0.66680572  0.07959796  0.74987544  1
  O2-  O196  1  0.66567658  0.41678331  -0.00024489  1
  O2-  O197  1  0.66722715  0.41313017  0.24863881  1
  O2-  O198  1  0.66761224  0.41488292  0.49998028  1
  O2-  O199  1  0.66599962  0.41449646  0.74866699  1
  O2-  O200  1  0.66715782  0.74688775  -0.00013601  1
  O2-  O201  1  0.66823112  0.74686502  0.24977898  1
  O2-  O202  1  0.66599367  0.74577537  0.50145056  1
  O2-  O203  1  0.66686175  0.74598987  0.74948482  1
  O2-  O204  1  0.33192671  0.25247323  0.00052343  1
  O2-  O205  1  0.33380617  0.25305002  0.24995684  1
  O2-  O206  1  0.33428844  0.25366754  0.49920262  1
  O2-  O207  1  0.33132517  0.25269597  0.74769946  1
  O2-  O208  1  0.33119346  0.58445264  -0.00177451  1
  O2-  O209  1  0.33476561  0.58742371  0.25112702  1
  O2-  O210  1  0.33518757  0.58309134  0.49982934  1
  O2-  O211  1  0.33307495  0.58572667  0.74970357  1
  O2-  O212  1  0.33202224  0.91949566  -0.00108021  1
  O2-  O213  1  0.33358104  0.91883731  0.25023120  1
  O2-  O214  1  0.32958941  0.91885878  0.49952073  1
  O2-  O215  1  0.33319975  0.91891766  0.74962642  1
  O2-  O216  1  0.83410008  0.25220346  -0.00127785  1
  O2-  O217  1  0.83369778  0.25364278  0.25168934  1
  O2-  O218  1  0.83317005  0.25416288  0.50064436  1
  O2-  O219  1  0.83682931  0.25505693  0.74926296  1
  O2-  O220  1  0.83308558  0.58620790  0.00009836  1
  O2-  O221  1  0.83440048  0.58638874  0.25058669  1
  O2-  O222  1  0.83168777  0.58657128  0.49824022  1
  O2-  O223  1  0.83216832  0.58510026  0.74839315  1
  O2-  O224  1  0.83239100  0.91947015  0.00093259  1
  O2-  O225  1  0.83332222  0.92086939  0.25064960  1
  O2-  O226  1  0.83279223  0.92047979  0.49996045  1
  O2-  O227  1  0.83273158  0.92025895  0.74911040  1
  O2-  O228  1  0.16922562  0.25258470  0.00100628  1
  O2-  O229  1  0.16606994  0.25371286  0.25030039  1
  O2-  O230  1  0.16646599  0.25445701  0.49978975  1
  O2-  O231  1  0.16700602  0.25274624  0.74847180  1
  O2-  O232  1  0.16791306  0.58475606  -0.00093483  1
  O2-  O233  1  0.16672250  0.58696476  0.25113022  1
  O2-  O234  1  0.16482038  0.58348627  0.50080454  1
  O2-  O235  1  0.16713914  0.58558412  0.74977533  1
  O2-  O236  1  0.16673073  0.91949886  -0.00106663  1
  O2-  O237  1  0.16656977  0.91919796  0.25029789  1
  O2-  O238  1  0.16854787  0.91993507  0.50030634  1
  O2-  O239  1  0.16780688  0.91926555  0.74996926  1
  O2-  O240  1  0.66446993  0.25223372  -0.00033581  1
  O2-  O241  1  0.66577417  0.25331247  0.24956199  1
  O2-  O242  1  0.66555451  0.25398755  0.50136865  1
  O2-  O243  1  0.66452753  0.25475016  0.74849831  1
  O2-  O244  1  0.66670433  0.58627912  -0.00055393  1
  O2-  O245  1  0.66629861  0.58548210  0.25003199  1
  O2-  O246  1  0.66687350  0.58538727  0.49928097  1
  O2-  O247  1  0.66574027  0.58531468  0.74942697  1
  O2-  O248  1  0.66569263  0.91989308  0.00017381  1
  O2-  O249  1  0.66643116  0.91947133  0.25040000  1
  O2-  O250  1  0.66566299  0.92007252  0.50065151  1
  O2-  O251  1  0.66588642  0.92109446  0.75060606  1
  O2-  O252  1  0.33226080  0.08021135  0.00006497  1
  O2-  O253  1  0.33215791  0.08007099  0.24953735  1
  O2-  O254  1  0.33114694  0.07938353  0.49902272  1
  O2-  O255  1  0.33236607  0.08201674  0.74946499  1
  O2-  O256  1  0.33233004  0.41571485  0.00067334  1
  O2-  O257  1  0.33369798  0.41178161  0.24955451  1
  O2-  O258  1  0.33246481  0.41376656  0.49953294  1
  O2-  O259  1  0.33317373  0.41392258  0.74931784  1
  O2-  O260  1  0.33245878  0.74891838  -0.00130377  1
  O2-  O261  1  0.33230270  0.74775038  0.25106243  1
  O2-  O262  1  0.33536067  0.75017308  0.50003008  1
  O2-  O263  1  0.33482392  0.74842853  0.74981067  1
  O2-  O264  1  0.83230339  0.08093888  0.00079079  1
  O2-  O265  1  0.83316368  0.08078376  0.25158494  1
  O2-  O266  1  0.83369305  0.07942262  0.50021329  1
  O2-  O267  1  0.83269763  0.07997012  0.74933490  1
  O2-  O268  1  0.83462996  0.41592428  -0.00058464  1
  O2-  O269  1  0.83209745  0.41311254  0.25018758  1
  O2-  O270  1  0.83409466  0.41428059  0.49947091  1
  O2-  O271  1  0.83403997  0.41457781  0.74926209  1
  O2-  O272  1  0.83331963  0.74734381  0.00015158  1
  O2-  O273  1  0.83331728  0.74542560  0.25107955  1
  O2-  O274  1  0.83635913  0.74439596  0.49896788  1
  O2-  O275  1  0.83338343  0.74704290  0.74927762  1
  O2-  O276  1  0.54722321  0.76135538  0.00750934  1
  O2-  O277  1  0.95259277  0.57108366  0.01150002  1
  O2-  O278  1  0.45130038  0.24103671  0.26846843  1
  O2-  O279  1  0.45464319  0.09883351  0.01311712  1
  O2-  O280  1  0.53216747  0.78445731  0.49255471  1
  O2-  O281  1  0.95647877  0.10592641  0.99488431  1
  O2-  O282  1  0.97602083  0.87042989  0.97933504  1
  O2-  O283  1  0.45218990  0.23948248  0.22923229  1
  O2-  O284  1  0.95279961  0.89567239  0.72626241  1
  O2-  O285  1  0.04766383  0.90387614  0.26419423  1
  O2-  O286  1  0.95828334  0.43918615  0.25692660  1
  O2-  O287  1  0.04716857  0.75884873  0.73819750  1
  O2-  O288  1  0.45231361  0.90355340  0.23990415  1
  O2-  O289  1  0.04830379  0.57037517  0.01422901  1
  O2-  O290  1  0.95306852  0.76288822  0.48578774  1
  O2-  O291  1  0.95022322  0.42697760  0.23536832  1
  O2-  O292  1  0.04559372  0.43102441  0.73646527  1
  O2-  O293  1  0.04202810  0.22919904  0.03113268  1
  O2-  O294  1  0.55533720  0.75416440  0.21244552  1
  O2-  O295  1  0.04809924  0.90501931  0.52012348  1
  O2-  O296  1  0.95292217  0.09969032  0.76042691  1
  O2-  O297  1  0.45481890  0.76724040  0.76192713  1
  O2-  O298  1  0.46509583  0.11759362  0.50701609  1
  O2-  O299  1  0.04309103  0.89834568  0.76177422  1
  O2-  O300  1  0.04931217  0.09564729  0.99285264  1
  O2-  O301  1  0.46202769  0.22323405  0.74043314  1
  O2-  O302  1  0.44626801  0.08378534  0.78839027  1
  O2-  O303  1  0.46243810  0.22292844  0.74081544  1
  O2-  O304  1  0.95159731  0.42810144  0.01123923  1
  O2-  O305  1  0.04809209  0.90489863  0.48092944  1
  O2-  O306  1  0.04784959  0.09704740  0.00368727  1
  O2-  O307  1  0.45425608  0.43455017  0.51128048  1
  O2-  O308  1  0.54012374  0.77854373  0.52885457  1
  O2-  O309  1  0.54968785  0.56864912  0.98344373  1
  O2-  O310  1  0.04893098  0.56884097  0.76430079  1
  O2-  O311  1  0.96235688  0.22227792  0.28225023  1
  O2-  O312  1  0.94844787  0.09432504  0.01690511  1
  O2-  O313  1  0.53792573  0.44181978  0.21987201  1
  O2-  O314  1  0.54813372  0.90173197  0.98321444  1
  O2-  O315  1  0.54944407  0.23419838  0.26180955  1
  O2-  O316  1  0.04301044  0.89825433  0.76170156  1
  O2-  O317  1  0.04715136  0.43115200  0.98464054  1
  O2-  O318  1  0.95896581  0.55630413  0.71645716  1
  O2-  O319  1  0.54723821  0.09781995  0.76493691  1
  O2-  O320  1  0.95845929  0.23132426  0.96473942  1
  O2-  O321  1  0.46143529  0.55293172  -0.00099822  1
  O2-  O322  1  0.03861144  0.55714941  0.28745346  1
  O2-  O323  1  0.46893105  0.11059477  0.24881867  1
  O2-  O324  1  0.56441850  0.06869166  0.28341280  1
  O2-  O325  1  0.07300920  0.27151124  0.95362494  1
  O2-  O326  1  0.06140370  0.92730765  0.28489997  1
  O2-  O327  1  0.43329170  0.73910687  0.22139732  1
  O2-  O328  1  0.06408632  0.73458196  0.46679273  1
  O2-  O329  1  0.93420518  0.26084460  0.52620839  1
  O2-  O330  1  0.56416255  0.06939800  0.45040460  1
  O2-  O331  1  0.56449136  0.40234741  0.53277895  1
  O2-  O332  1  0.06372440  0.74101499  0.19191777  1
  O2-  O333  1  0.06495061  0.40633151  0.47207468  1
  O2-  O334  1  0.93388216  0.92738137  0.52846257  1
  O2-  O335  1  0.43262219  0.92714163  0.05019858  1
  O2-  O336  1  0.55175777  0.75690906  0.20664523  1
  O2-  O337  1  0.42917954  0.06925494  0.69844815  1
  O2-  O338  1  0.06461959  0.07369245  0.22146266  1
  O2-  O339  1  0.93644650  0.06921488  0.21752399  1
  O2-  O340  1  0.92979970  0.27124279  0.19822674  1
  O2-  O341  1  0.92235374  0.93792328  0.94083593  1
  O2-  O342  1  0.42403280  0.06032629  0.53482337  1
  O2-  O343  1  0.44616485  0.08365337  0.78813652  1
  O2-  O344  1  0.06374850  0.07118686  0.78461057  1
  O2-  O345  1  0.56365583  0.07033524  0.96668584  1
  O2-  O346  1  0.06457694  0.73376098  0.30810039  1
  O2-  O347  1  0.42278785  0.60711499  0.03534715  1
  O2-  O348  1  0.93619309  0.07071308  0.46707167  1
  O2-  O349  1  0.92805682  0.93697682  0.79111494  1
  O2-  O350  1  0.56442415  0.06913232  0.54971118  1
  O2-  O351  1  0.93027822  0.93897287  0.07114809  1
  O2-  O352  1  0.57882918  0.70564136  0.44723196  1
  O2-  O353  1  0.56940925  0.72549383  0.32260185  1
  O2-  O354  1  0.93602968  0.59751150  0.53241291  1
  O2-  O355  1  0.43591069  0.93058564  0.94121779  1
  O2-  O356  1  0.93011161  0.07001178  0.96741670  1
  O2-  O357  1  0.43655568  0.40183378  0.03347267  1
  O2-  O358  1  0.93371821  0.40180318  0.28534821  1
  O2-  O359  1  0.56352463  0.40159932  0.03361853  1
  O2-  O360  1  0.43564043  0.74119777  0.02840186  1
  O2-  O361  1  0.07372819  0.94467275  0.70167829  1
  O2-  O362  1  0.42088555  0.05271611  0.28748940  1
  O2-  O363  1  0.56613623  0.26203465  0.77918313  1
  O2-  O364  1  0.43562453  0.92389744  0.52852649  1
  O2-  O365  1  0.42245574  0.28721850  0.80203638  1
  O2-  O366  1  0.92954240  0.27700461  0.05378001  1
  O2-  O367  1  0.57207424  0.39619744  0.29499721  1
  O2-  O368  1  0.92904803  0.61221351  0.80489673  1
  O2-  O369  1  0.56161791  0.92900070  0.96800037  1
  O2-  O370  1  0.07153752  0.60638475  0.19748706  1
  O2-  O371  1  0.06285504  0.73603071  0.03321123  1
  O2-  O372  1  0.74985907  0.32881786  0.09837511  1
  O2-  O373  1  0.25001995  0.33365808  0.84350163  1
  O2-  O374  1  0.24989057  0.34015882  0.60019440  1
  O2-  O375  1  0.74984179  -0.00814212  0.17180887  1
  O2-  O376  1  0.25000517  0.33069189  0.33170467  1
  O2-  O377  1  0.74987450  -0.01183653  0.68226668  1
  O2-  O378  1  0.75037662  0.32975706  0.90325522  1
  O2-  O379  1  0.24984760  0.66938086  0.39777323  1
  O2-  O380  1  0.75000986  0.66627552  0.59139555  1
  O2-  O381  1  0.74982342  -0.00470802  0.89801022  1
  O2-  O382  1  0.25004163  0.00027043  0.09349240  1
  O2-  O383  1  0.75001343  -0.00254632  0.39312866  1
  O2-  O384  1  0.24982971  -0.00222775  0.84448840  1
  O2-  O385  1  0.25014781  0.66293855  0.84277660  1
  O2-  O386  1  0.25017163  0.34201810  0.42388798  1
  O2-  O387  1  0.74988261  0.66930547  0.15341872  1
  O2-  O388  1  0.74992356  -0.00963428  0.07927239  1
  O2-  O389  1  0.24983675  0.66355411  0.60120505  1
  O2-  O390  1  0.74989822  0.66651819  0.84829456  1
  O2-  O391  1  0.75026428  0.34342472  0.41605652  1
  O2-  O392  1  0.25012465  0.66501232  0.16987367  1
  O2-  O393  1  0.74990492  -0.00581769  0.59190118  1
  O2-  O394  1  0.24998335  0.66707567  0.07800605  1
  O2-  O395  1  0.75016857  0.33097199  0.32386900  1
  O2-  O396  1  0.75023449  0.16336567  0.92603155  1
  O2-  O397  1  0.24995116  0.50049694  0.84062681  1
  O2-  O398  1  0.25005490  0.83981584  0.66008840  1
  O2-  O399  1  0.25012109  0.82930052  0.08121803  1
  O2-  O400  1  0.75004264  0.49994849  0.91444230  1
  O2-  O401  1  0.75000966  0.50300952  0.58532671  1
  O2-  O402  1  0.24993107  0.49404895  0.36296055  1
  O2-  O403  1  0.74992793  0.14390350  0.65772643  1
  O2-  O404  1  0.74996730  0.49997531  0.83484801  1
  O2-  O405  1  0.24987668  0.16732621  0.91929582  1
  O2-  O406  1  0.25004000  0.16510705  0.82913407  1
  O2-  O407  1  0.24999834  0.49907133  0.65856403  1
  O2-  O408  1  0.75006512  0.50336477  0.15232523  1
  O2-  O409  1  0.25004935  0.83062025  0.33854009  1
  O2-  O410  1  0.75002180  0.16905564  0.57779220  1
  O2-  O411  1  0.74994713  0.83722830  0.35987852  1
  O2-  O412  1  0.75004251  0.50016556  0.06946870  1
  O2-  O413  1  0.25000797  0.83701525  0.16802875  1
  O2-  O414  1  0.74989319  0.15776233  0.33638441  1
  O2-  O415  1  0.74998122  0.82821635  0.10205299  1
  O2-  O416  1  0.75001648  0.83887763  0.61225328  1
  O2-  O417  1  0.25006457  0.83851477  0.83846840  1
  O2-  O418  1  0.74955387  0.14802087  0.84544022  1
  O2-  O419  1  0.24995912  0.17153968  0.13822749  1
  O2-  O420  1  0.47218001  0.66461842  0.37670898  1
  O2-  O421  1  0.52575354  0.33546903  0.87827710  1
  O2-  O422  1  0.97106358  0.66804583  0.12578110  1
  O2-  O423  1  0.02860603  0.33286906  0.12755489  1
  O2-  O424  1  0.97362450  0.00352096  0.62825716  1
  O2-  O425  1  0.02564236  0.32983889  0.37171076  1
  O2-  O426  1  0.02745845  0.66536383  0.62463688  1
  O2-  O427  1  0.48055709  -0.00754783  0.62814822  1
  O2-  O428  1  0.47516919  -0.00308520  0.37999287  1
  O2-  O429  1  0.54029591  0.00056765  0.12621755  1
  O2-  O430  1  0.47288278  0.66633094  0.87481231  1
  O2-  O431  1  0.53961077  0.66497344  0.62791482  1
  O2-  O432  1  0.02399203  0.33583469  0.86690403  1
  O2-  O433  1  0.52430329  0.33039488  0.38357638  1
  O2-  O434  1  0.03227471  0.33226306  0.62293898  1
  O2-  O435  1  0.02718270  -0.00490512  0.12060714  1
  O2-  O436  1  0.46005410  0.66670704  0.62428320  1
  O2-  O437  1  0.47266041  0.33402014  0.62578784  1
  O2-  O438  1  0.98110624  0.00651681  0.87217760  1
  O2-  O439  1  0.97012739  0.33828289  0.63002985  1
  O2-  O440  1  0.46364501  0.00580425  0.13376901  1
  O2-  O441  1  0.47237287  0.66282336  0.13123210  1
  O2-  O442  1  0.02666865  0.66659080  0.87686473  1
  O2-  O443  1  0.53250150  0.65783539  0.12036745  1
