# generated using pymatgen
data_La7(Ru4O11)2
_symmetry_space_group_name_H-M   'P 1'
_cell_length_a   23.98956521
_cell_length_b   16.82958357
_cell_length_c   15.42648013
_cell_angle_alpha   89.99867269
_cell_angle_beta   90.00135794
_cell_angle_gamma   90.00032546
_symmetry_Int_Tables_number   1
_chemical_formula_structural   La7(Ru4O11)2
_chemical_formula_sum   'La84 Ru96 O264'
_cell_volume   6228.20058022
_cell_formula_units_Z   12
loop_
 _symmetry_equiv_pos_site_id
 _symmetry_equiv_pos_as_xyz
  1  'x, y, z'
loop_
 _atom_type_symbol
 _atom_type_oxidation_number
  La3+  3.0
  Ru4+  4.0
  O2-  -2.0
loop_
 _atom_site_type_symbol
 _atom_site_label
 _atom_site_symmetry_multiplicity
 _atom_site_fract_x
 _atom_site_fract_y
 _atom_site_fract_z
 _atom_site_occupancy
  La3+  La0  1  0.13743868  -0.00088219  0.13467557  1
  La3+  La1  1  0.13460122  -0.00560839  0.36222504  1
  La3+  La2  1  0.13039288  0.00790049  0.63637144  1
  La3+  La3  1  0.13553190  0.00593471  0.86783667  1
  La3+  La4  1  0.14176434  0.33307158  0.12211094  1
  La3+  La5  1  0.13754017  0.33341175  0.36974415  1
  La3+  La6  1  0.13758911  0.33446013  0.63095260  1
  La3+  La7  1  0.14315728  0.33279208  0.87882412  1
  La3+  La8  1  0.13897994  0.66442938  0.12136258  1
  La3+  La9  1  0.14201681  0.66919125  0.37278036  1
  La3+  La10  1  0.13470643  0.66843554  0.62563480  1
  La3+  La11  1  0.13993746  0.66831250  0.87566587  1
  La3+  La12  1  0.63908567  0.00252583  0.12699062  1
  La3+  La13  1  0.63673534  0.00233093  0.37313011  1
  La3+  La14  1  0.64023123  0.00163150  0.62654387  1
  La3+  La15  1  0.63829601  0.00246327  0.87581521  1
  La3+  La16  1  0.63920154  0.33347103  0.12544534  1
  La3+  La17  1  0.63825013  0.33327448  0.37540159  1
  La3+  La18  1  0.64230831  0.33236932  0.62748645  1
  La3+  La19  1  0.64253605  0.33289249  0.87255614  1
  La3+  La20  1  0.63811445  0.66416980  0.12791834  1
  La3+  La21  1  0.64434536  0.66414814  0.37701763  1
  La3+  La22  1  0.63800522  0.66328626  0.62546174  1
  La3+  La23  1  0.63598670  0.66540728  0.86967526  1
  La3+  La24  1  0.35857636  0.00084772  0.12803844  1
  La3+  La25  1  0.36071330  -0.00143542  0.36804781  1
  La3+  La26  1  0.36245569  0.00042146  0.62847539  1
  La3+  La27  1  0.36260230  0.00299731  0.87599927  1
  La3+  La28  1  0.35571556  0.33342164  0.12444667  1
  La3+  La29  1  0.36133031  0.33547002  0.37037078  1
  La3+  La30  1  0.36480064  0.33209543  0.62940301  1
  La3+  La31  1  0.35672109  0.33202205  0.87828580  1
  La3+  La32  1  0.36606293  0.66671599  0.12661644  1
  La3+  La33  1  0.36287932  0.67167715  0.37779862  1
  La3+  La34  1  0.36533478  0.66843652  0.62252912  1
  La3+  La35  1  0.35859585  0.66611487  0.87690114  1
  La3+  La36  1  0.85793684  0.00166475  0.12519142  1
  La3+  La37  1  0.86169812  0.00120502  0.37309216  1
  La3+  La38  1  0.85881657  0.00112570  0.62741454  1
  La3+  La39  1  0.86240936  0.00298749  0.87534947  1
  La3+  La40  1  0.85872888  0.33496281  0.12648229  1
  La3+  La41  1  0.85949089  0.33425947  0.37514514  1
  La3+  La42  1  0.85830719  0.33392297  0.62930504  1
  La3+  La43  1  0.85726998  0.33335728  0.86956448  1
  La3+  La44  1  0.86093245  0.66504147  0.12960589  1
  La3+  La45  1  0.86857040  0.66597733  0.38671060  1
  La3+  La46  1  0.87328641  0.66511203  0.61016128  1
  La3+  La47  1  0.86139185  0.66585814  0.87197680  1
  La3+  La48  1  0.50111801  0.83619490  0.61754638  1
  La3+  La49  1  0.00373369  0.16519751  0.64324027  1
  La3+  La50  1  0.49792905  0.83329749  0.13795550  1
  La3+  La51  1  0.49806462  0.82931966  0.12064701  1
  La3+  La52  1  0.50048281  0.17095965  0.61831414  1
  La3+  La53  1  -0.00275363  0.50455747  0.37200167  1
  La3+  La54  1  -0.00094749  0.16235347  0.35614716  1
  La3+  La55  1  0.00023231  0.83548521  0.38653258  1
  La3+  La56  1  0.50009397  0.83397771  0.88370113  1
  La3+  La57  1  -0.00034963  0.83157623  0.13556352  1
  La3+  La58  1  -0.00304709  0.17265497  0.12230589  1
  La3+  La59  1  -0.00137400  0.83544632  0.86697144  1
  La3+  La60  1  -0.00081427  0.82693476  0.62695840  1
  La3+  La61  1  0.49956230  0.83035184  0.37617725  1
  La3+  La62  1  0.00165857  0.16518774  0.62581605  1
  La3+  La63  1  0.49952424  0.82870039  0.63822959  1
  La3+  La64  1  0.00422594  0.83997074  0.11637253  1
  La3+  La65  1  0.49848614  0.50033508  0.63021666  1
  La3+  La66  1  -0.00500067  0.50178843  0.63249448  1
  La3+  La67  1  -0.00029494  0.83037891  0.37035476  1
  La3+  La68  1  0.49904085  0.50305449  0.38310941  1
  La3+  La69  1  -0.00498773  0.49677054  0.61616627  1
  La3+  La70  1  0.50078828  0.16676636  0.36191570  1
  La3+  La71  1  -0.00081044  0.50208105  0.88653180  1
  La3+  La72  1  0.25010149  0.51709207  0.54583163  1
  La3+  La73  1  0.75004068  0.17082107  0.75116366  1
  La3+  La74  1  0.25017661  0.16921836  0.74200195  1
  La3+  La75  1  0.74970492  0.78443671  0.47957570  1
  La3+  La76  1  0.25026759  0.49409851  0.02001608  1
  La3+  La77  1  0.74998662  0.83303285  0.24036728  1
  La3+  La78  1  0.75050343  0.50126447  0.26908400  1
  La3+  La79  1  0.25017885  0.79816928  0.02157467  1
  La3+  La80  1  0.25008610  0.79411825  0.74309968  1
  La3+  La81  1  0.24985909  0.16384569  0.24247412  1
  La3+  La82  1  0.74973977  0.49298543  0.76366704  1
  La3+  La83  1  0.24986479  0.16788869  0.46572663  1
  Ru4+  Ru84  1  0.00003563  0.00074402  -0.00668575  1
  Ru4+  Ru85  1  -0.00486772  -0.00592738  0.25144607  1
  Ru4+  Ru86  1  0.00007709  -0.00269052  0.49910208  1
  Ru4+  Ru87  1  -0.00269749  0.00147681  0.75329810  1
  Ru4+  Ru88  1  0.00379322  0.33455694  0.00584846  1
  Ru4+  Ru89  1  0.00218027  0.33608834  0.25044140  1
  Ru4+  Ru90  1  -0.00220912  0.33355433  0.49679754  1
  Ru4+  Ru91  1  0.00009206  0.32173738  0.75332537  1
  Ru4+  Ru92  1  0.00125525  0.66422367  -0.00422923  1
  Ru4+  Ru93  1  -0.00279639  0.66456617  0.24975034  1
  Ru4+  Ru94  1  0.00068454  0.66506987  0.49874636  1
  Ru4+  Ru95  1  -0.00394551  0.66067712  0.74804507  1
  Ru4+  Ru96  1  0.49857342  0.00460699  0.00293938  1
  Ru4+  Ru97  1  0.49688775  -0.00153352  0.23781713  1
  Ru4+  Ru98  1  0.50270295  0.00026904  0.50141074  1
  Ru4+  Ru99  1  0.50065029  0.00048017  0.75590612  1
  Ru4+  Ru100  1  0.49841190  0.33812696  0.00484158  1
  Ru4+  Ru101  1  0.50137939  0.33031969  0.24602409  1
  Ru4+  Ru102  1  0.50026557  0.33545499  0.50197712  1
  Ru4+  Ru103  1  0.49734847  0.33089750  0.74625446  1
  Ru4+  Ru104  1  0.50070976  0.65840935  0.00018340  1
  Ru4+  Ru105  1  0.50305789  0.65954717  0.24831053  1
  Ru4+  Ru106  1  0.50443158  0.65956316  0.49409293  1
  Ru4+  Ru107  1  0.49621655  0.67003480  0.75717650  1
  Ru4+  Ru108  1  0.11290891  0.16645856  -0.00391946  1
  Ru4+  Ru109  1  0.11432769  0.17139711  0.25130312  1
  Ru4+  Ru110  1  0.10931131  0.16563034  0.50277539  1
  Ru4+  Ru111  1  0.11095231  0.16594125  0.75195250  1
  Ru4+  Ru112  1  0.11020357  0.49953767  0.00178556  1
  Ru4+  Ru113  1  0.11445734  0.49841709  0.24851713  1
  Ru4+  Ru114  1  0.11103135  0.50045847  0.49666244  1
  Ru4+  Ru115  1  0.11701222  0.50553806  0.75066692  1
  Ru4+  Ru116  1  0.11160783  0.83662729  0.00241991  1
  Ru4+  Ru117  1  0.11277833  0.83515002  0.25216977  1
  Ru4+  Ru118  1  0.11100341  0.83219255  0.49764137  1
  Ru4+  Ru119  1  0.11338821  0.83757102  0.74972175  1
  Ru4+  Ru120  1  0.61136898  0.16154641  0.00069571  1
  Ru4+  Ru121  1  0.61278889  0.17130657  0.24972840  1
  Ru4+  Ru122  1  0.61312307  0.16670050  0.50058572  1
  Ru4+  Ru123  1  0.61138867  0.16606804  0.75087519  1
  Ru4+  Ru124  1  0.60717027  0.49962465  0.00002330  1
  Ru4+  Ru125  1  0.61103048  0.49951056  0.24883986  1
  Ru4+  Ru126  1  0.61475451  0.50277082  0.50007578  1
  Ru4+  Ru127  1  0.61453147  0.49469222  0.75026379  1
  Ru4+  Ru128  1  0.61263264  0.82996788  0.00032730  1
  Ru4+  Ru129  1  0.61070805  0.83276116  0.24748710  1
  Ru4+  Ru130  1  0.61135835  0.83380933  0.49673902  1
  Ru4+  Ru131  1  0.61293477  0.83170456  0.75194789  1
  Ru4+  Ru132  1  0.39106281  0.16860750  -0.00137537  1
  Ru4+  Ru133  1  0.39000732  0.16677185  0.25005035  1
  Ru4+  Ru134  1  0.39023366  0.16812594  0.50041589  1
  Ru4+  Ru135  1  0.38885793  0.16827894  0.74961820  1
  Ru4+  Ru136  1  0.39380011  0.49958845  -0.00061094  1
  Ru4+  Ru137  1  0.38365130  0.49698435  0.25185897  1
  Ru4+  Ru138  1  0.39006938  0.50159116  0.50021088  1
  Ru4+  Ru139  1  0.38744265  0.49922913  0.74925198  1
  Ru4+  Ru140  1  0.38884865  0.83016299  -0.00026646  1
  Ru4+  Ru141  1  0.38383460  0.83920565  0.25013834  1
  Ru4+  Ru142  1  0.38288255  0.83787024  0.49903409  1
  Ru4+  Ru143  1  0.38841463  0.83234333  0.75144270  1
  Ru4+  Ru144  1  0.88593495  0.16487914  0.00085887  1
  Ru4+  Ru145  1  0.88735908  0.16665693  0.25028542  1
  Ru4+  Ru146  1  0.88804558  0.16846275  0.49850120  1
  Ru4+  Ru147  1  0.88849890  0.16549853  0.75098686  1
  Ru4+  Ru148  1  0.88737171  0.50015607  -0.00109867  1
  Ru4+  Ru149  1  0.89001010  0.50091103  0.25036642  1
  Ru4+  Ru150  1  0.88664965  0.50246943  0.49869261  1
  Ru4+  Ru151  1  0.88351595  0.50770123  0.75106831  1
  Ru4+  Ru152  1  0.88578940  0.83548123  -0.00164296  1
  Ru4+  Ru153  1  0.88819119  0.83400659  0.25254383  1
  Ru4+  Ru154  1  0.88880919  0.83423673  0.50118747  1
  Ru4+  Ru155  1  0.88627060  0.83219440  0.74705490  1
  Ru4+  Ru156  1  0.74994744  0.94144235  0.50629375  1
  Ru4+  Ru157  1  0.24979735  0.94292585  -0.00027291  1
  Ru4+  Ru158  1  0.74993633  0.41395372  0.49812964  1
  Ru4+  Ru159  1  0.25013285  0.40537487  0.74923797  1
  Ru4+  Ru160  1  0.24910204  0.89660959  0.49709270  1
  Ru4+  Ru161  1  0.24950000  0.64965296  0.52250484  1
  Ru4+  Ru162  1  0.74929964  0.90347116  0.00191286  1
  Ru4+  Ru163  1  0.75007766  0.24496689  -0.01456371  1
  Ru4+  Ru164  1  0.74982161  0.75975128  0.00189780  1
  Ru4+  Ru165  1  0.25073631  0.76433069  0.25285749  1
  Ru4+  Ru166  1  0.24981477  0.04286665  0.50130222  1
  Ru4+  Ru167  1  0.74993311  0.42539604  -0.00428433  1
  Ru4+  Ru168  1  0.25018511  0.57238225  0.24586679  1
  Ru4+  Ru169  1  0.24981048  0.28239178  0.53326125  1
  Ru4+  Ru170  1  0.75022268  0.25177008  0.51029095  1
  Ru4+  Ru171  1  0.74996464  0.24896164  0.24936561  1
  Ru4+  Ru172  1  0.25035678  0.58821888  0.74073211  1
  Ru4+  Ru173  1  0.74999707  0.08513831  0.50582594  1
  Ru4+  Ru174  1  0.25015320  0.40363991  0.47721796  1
  Ru4+  Ru175  1  0.74957507  0.91823907  0.75072074  1
  Ru4+  Ru176  1  0.25005587  0.92965544  0.76667004  1
  Ru4+  Ru177  1  0.24980582  0.08287464  0.01215733  1
  Ru4+  Ru178  1  0.74999501  0.57226171  0.00403558  1
  Ru4+  Ru179  1  0.74988059  0.08224579  0.24406030  1
  O2-  O180  1  0.16801632  0.08075099  0.00139698  1
  O2-  O181  1  0.16679784  0.08319249  0.24968172  1
  O2-  O182  1  0.16367737  0.07708657  0.50065132  1
  O2-  O183  1  0.16873260  0.08015135  0.74771508  1
  O2-  O184  1  0.16614725  0.41528066  -0.00069698  1
  O2-  O185  1  0.16402774  0.41646112  0.25127690  1
  O2-  O186  1  0.16399627  0.41318278  0.49966163  1
  O2-  O187  1  0.16728962  0.41404379  0.75094245  1
  O2-  O188  1  0.16406336  0.74503511  -0.00025616  1
  O2-  O189  1  0.16650628  0.74816155  0.24760074  1
  O2-  O190  1  0.16610778  0.74777683  0.50231381  1
  O2-  O191  1  0.16369920  0.74644747  0.75036327  1
  O2-  O192  1  0.66620931  0.08105937  -0.00079373  1
  O2-  O193  1  0.66624191  0.08197034  0.25040381  1
  O2-  O194  1  0.66822771  0.08140273  0.50036327  1
  O2-  O195  1  0.66560704  0.07974470  0.75224445  1
  O2-  O196  1  0.66636317  0.41556816  -0.00029187  1
  O2-  O197  1  0.66517368  0.41416058  0.25121160  1
  O2-  O198  1  0.66631865  0.41219530  0.49980091  1
  O2-  O199  1  0.66498768  0.41363985  0.75149962  1
  O2-  O200  1  0.66832644  0.74732420  -0.00045696  1
  O2-  O201  1  0.66583023  0.74510637  0.24764659  1
  O2-  O202  1  0.66333629  0.74609221  0.50291162  1
  O2-  O203  1  0.66572009  0.74723818  0.75226734  1
  O2-  O204  1  0.33712412  0.24950082  0.00123741  1
  O2-  O205  1  0.33199701  0.25145592  0.25101323  1
  O2-  O206  1  0.33373089  0.25377151  0.49997465  1
  O2-  O207  1  0.33215481  0.25297807  0.75155030  1
  O2-  O208  1  0.33466067  0.58567434  0.00208315  1
  O2-  O209  1  0.33137091  0.58526767  0.24743337  1
  O2-  O210  1  0.33245602  0.58889987  0.50072254  1
  O2-  O211  1  0.33451412  0.58571492  0.74960645  1
  O2-  O212  1  0.33226416  0.92142529  0.00032025  1
  O2-  O213  1  0.33544531  0.91999897  0.25068293  1
  O2-  O214  1  0.33141891  0.91877983  0.50028319  1
  O2-  O215  1  0.33328545  0.92029159  0.74904681  1
  O2-  O216  1  0.83278651  0.25247618  -0.00063208  1
  O2-  O217  1  0.83453954  0.25243802  0.24964513  1
  O2-  O218  1  0.83134174  0.25278111  0.50028499  1
  O2-  O219  1  0.83440077  0.25146456  0.75109282  1
  O2-  O220  1  0.83011865  0.58661061  0.00025751  1
  O2-  O221  1  0.83153823  0.58567055  0.24931830  1
  O2-  O222  1  0.83222094  0.58601354  0.50338586  1
  O2-  O223  1  0.83031680  0.58810100  0.74895918  1
  O2-  O224  1  0.82997351  0.91888272  0.00018255  1
  O2-  O225  1  0.83511758  0.92066703  0.25079170  1
  O2-  O226  1  0.83231085  0.92040036  0.49990088  1
  O2-  O227  1  0.83316846  0.91912545  0.75246655  1
  O2-  O228  1  0.16584671  0.24944442  0.00015139  1
  O2-  O229  1  0.17025417  0.25069671  0.25192075  1
  O2-  O230  1  0.16735966  0.25443023  0.49856113  1
  O2-  O231  1  0.16377705  0.25195101  0.75012593  1
  O2-  O232  1  0.16756161  0.58559208  0.00012918  1
  O2-  O233  1  0.16979053  0.58447079  0.24888146  1
  O2-  O234  1  0.16777657  0.58864976  0.50271810  1
  O2-  O235  1  0.16718767  0.58728159  0.74932109  1
  O2-  O236  1  0.16721375  0.92074227  0.00110633  1
  O2-  O237  1  0.16566136  0.91712445  0.24887521  1
  O2-  O238  1  0.16743733  0.91909837  0.50077910  1
  O2-  O239  1  0.16561578  0.92029293  0.74764744  1
  O2-  O240  1  0.66654319  0.25099907  -0.00072295  1
  O2-  O241  1  0.66615225  0.25219140  0.25018320  1
  O2-  O242  1  0.66743204  0.25192237  0.50048112  1
  O2-  O243  1  0.66514026  0.25273807  0.75023339  1
  O2-  O244  1  0.66735756  0.58572675  0.00027180  1
  O2-  O245  1  0.66862223  0.58742690  0.24788085  1
  O2-  O246  1  0.66640942  0.58362834  0.50110516  1
  O2-  O247  1  0.66896197  0.58706470  0.75261026  1
  O2-  O248  1  0.66948060  0.91986757  -0.00028651  1
  O2-  O249  1  0.66485769  0.92034134  0.25045056  1
  O2-  O250  1  0.66806405  0.92057400  0.49969146  1
  O2-  O251  1  0.66697156  0.92032986  0.75190433  1
  O2-  O252  1  0.33162828  0.08143038  0.00145101  1
  O2-  O253  1  0.33189337  0.08440754  0.25035983  1
  O2-  O254  1  0.33580456  0.07699854  0.49913241  1
  O2-  O255  1  0.33574220  0.08051583  0.74935378  1
  O2-  O256  1  0.33594707  0.41534392  0.00091541  1
  O2-  O257  1  0.33349556  0.41593669  0.24969421  1
  O2-  O258  1  0.33526572  0.41236722  0.49958563  1
  O2-  O259  1  0.33139231  0.41393961  0.75050647  1
  O2-  O260  1  0.33652729  0.74502350  0.00094194  1
  O2-  O261  1  0.33297287  0.74658117  0.24881188  1
  O2-  O262  1  0.33213873  0.74748610  0.50192298  1
  O2-  O263  1  0.33582018  0.74539026  0.75047288  1
  O2-  O264  1  0.83464804  0.08016432  0.00003651  1
  O2-  O265  1  0.83149244  0.08049931  0.24934008  1
  O2-  O266  1  0.83392273  0.08191372  0.50067311  1
  O2-  O267  1  0.83217822  0.08044911  0.75171460  1
  O2-  O268  1  0.83425265  0.41478001  0.00018396  1
  O2-  O269  1  0.83463085  0.41404615  0.24993234  1
  O2-  O270  1  0.83519596  0.41425369  0.50058681  1
  O2-  O271  1  0.83525309  0.41533367  0.75064973  1
  O2-  O272  1  0.83190614  0.74712065  0.00086587  1
  O2-  O273  1  0.83197088  0.74597660  0.24921445  1
  O2-  O274  1  0.83690418  0.74477995  0.50469865  1
  O2-  O275  1  0.83401997  0.74707984  0.74989960  1
  O2-  O276  1  0.03982769  0.89154271  0.24743762  1
  O2-  O277  1  0.03611603  0.10198197  0.03578316  1
  O2-  O278  1  0.54789009  0.10190869  0.01158180  1
  O2-  O279  1  0.55014267  0.23676544  0.23612222  1
  O2-  O280  1  0.04781377  0.43133216  0.76919214  1
  O2-  O281  1  0.54512506  0.23542959  0.74989847  1
  O2-  O282  1  0.95267837  0.76519751  0.73707882  1
  O2-  O283  1  0.54928635  0.56973847  0.73657503  1
  O2-  O284  1  0.96028341  0.77145853  0.50229762  1
  O2-  O285  1  0.03449234  0.21399415  0.46557571  1
  O2-  O286  1  0.45150061  0.76546575  0.52177831  1
  O2-  O287  1  0.45045917  0.23472918  0.23701505  1
  O2-  O288  1  0.95100958  0.76356233  0.01005510  1
  O2-  O289  1  0.94980793  0.56956887  0.52169306  1
  O2-  O290  1  0.04848638  0.43418343  0.73021407  1
  O2-  O291  1  0.04891274  0.90411799  0.26754969  1
  O2-  O292  1  0.45754243  0.54963622  0.25093084  1
  O2-  O293  1  0.04939290  0.09529664  0.72483869  1
  O2-  O294  1  0.45005472  0.42397440  0.98425309  1
  O2-  O295  1  0.45429414  0.09661748  0.48597712  1
  O2-  O296  1  0.44764790  0.57912370  0.52172252  1
  O2-  O297  1  0.55092492  0.57108138  0.26047219  1
  O2-  O298  1  0.45000001  0.42593910  0.48474049  1
  O2-  O299  1  0.45497503  0.24074970  0.98699676  1
  O2-  O300  1  0.55266861  0.09536839  0.26604953  1
  O2-  O301  1  0.54836616  0.89917455  0.01260542  1
  O2-  O302  1  0.95454658  0.43016598  0.23748142  1
  O2-  O303  1  0.04447152  0.90564198  0.73676059  1
  O2-  O304  1  0.05124852  0.24498509  0.01712064  1
  O2-  O305  1  0.44873028  0.57156653  0.01088328  1
  O2-  O306  1  0.55215698  0.57350113  0.01680709  1
  O2-  O307  1  0.95153592  0.43369563  0.77007197  1
  O2-  O308  1  0.04859372  0.09962703  0.23294897  1
  O2-  O309  1  0.94993575  0.43215693  0.73107106  1
  O2-  O310  1  0.95662234  0.55875416  0.49830496  1
  O2-  O311  1  0.04732812  0.76505342  0.98239489  1
  O2-  O312  1  0.45591849  0.76377630  0.23984932  1
  O2-  O313  1  0.55016964  0.56974251  0.24010942  1
  O2-  O314  1  0.54505354  0.23440419  0.74636057  1
  O2-  O315  1  0.04308604  0.10471300  0.74952143  1
  O2-  O316  1  0.54993679  0.43113068  0.49099629  1
  O2-  O317  1  0.55076426  0.42485253  0.98241267  1
  O2-  O318  1  0.45289652  0.76618358  0.48269608  1
  O2-  O319  1  0.45299613  0.89958225  0.01091239  1
  O2-  O320  1  0.03544960  0.55003474  0.24177128  1
  O2-  O321  1  0.05178719  0.76256374  0.76351302  1
  O2-  O322  1  0.05213775  0.57027155  0.53977094  1
  O2-  O323  1  0.94944629  0.76022591  0.48285979  1
  O2-  O324  1  0.43648850  0.06794871  0.28650678  1
  O2-  O325  1  0.93578210  0.92587831  0.97648626  1
  O2-  O326  1  0.56989841  0.75108367  0.56126905  1
  O2-  O327  1  0.93375116  0.07526170  0.27128562  1
  O2-  O328  1  0.06105150  0.73338645  0.78176870  1
  O2-  O329  1  0.06380081  0.41119738  0.02392447  1
  O2-  O330  1  0.43816360  0.73795689  0.78527202  1
  O2-  O331  1  0.93214070  0.59387851  0.46996986  1
  O2-  O332  1  0.56470224  0.59561785  0.72358696  1
  O2-  O333  1  0.42075535  0.60773963  0.28270806  1
  O2-  O334  1  0.93043533  0.91660695  0.44075847  1
  O2-  O335  1  0.93698406  0.59447096  0.96665790  1
  O2-  O336  1  0.05761168  0.25090357  0.02293117  1
  O2-  O337  1  0.93628568  0.74196842  0.22479451  1
  O2-  O338  1  0.06387020  0.92869535  0.21490326  1
  O2-  O339  1  0.93469182  0.24540768  0.56252535  1
  O2-  O340  1  0.56303984  0.26097424  0.53313877  1
  O2-  O341  1  0.56369837  0.73671472  0.42974985  1
  O2-  O342  1  0.06223732  0.07200871  0.21917194  1
  O2-  O343  1  0.43337498  0.25657035  0.72288716  1
  O2-  O344  1  0.06697776  0.06884641  0.77746519  1
  O2-  O345  1  0.56808302  0.92300143  0.56204531  1
  O2-  O346  1  0.56217117  0.06584903  0.28332201  1
  O2-  O347  1  0.93706280  0.73667147  0.53501342  1
  O2-  O348  1  0.93915844  0.93409723  0.57241944  1
  O2-  O349  1  0.06364144  0.25849845  0.27766569  1
  O2-  O350  1  0.93673135  0.59657029  0.78234616  1
  O2-  O351  1  0.93530347  0.07301834  0.77386834  1
  O2-  O352  1  0.06703908  0.61027162  0.41477795  1
  O2-  O353  1  0.43605904  0.25890579  0.52488672  1
  O2-  O354  1  0.56489161  0.58987184  0.52792964  1
  O2-  O355  1  0.43559783  0.93019817  0.71553991  1
  O2-  O356  1  0.93547296  0.26474901  0.42996250  1
  O2-  O357  1  0.06344666  0.73966024  0.28451058  1
  O2-  O358  1  0.43772737  0.75088298  0.21665467  1
  O2-  O359  1  0.07260116  0.05429455  0.94571758  1
  O2-  O360  1  0.56428147  0.07513463  0.46896477  1
  O2-  O361  1  0.56185336  0.92475979  0.42808483  1
  O2-  O362  1  0.44328492  0.58532479  0.52435609  1
  O2-  O363  1  0.05868308  0.57944652  0.55177174  1
  O2-  O364  1  0.07816752  0.26821558  0.55063280  1
  O2-  O365  1  0.93359561  0.59189375  0.27753310  1
  O2-  O366  1  0.43247808  0.07422991  0.97466541  1
  O2-  O367  1  0.43554993  0.41144009  0.72459112  1
  O2-  O368  1  0.93723049  0.25675339  0.72444016  1
  O2-  O369  1  0.06356181  0.59270457  0.02380176  1
  O2-  O370  1  0.43854573  0.40176845  0.28347411  1
  O2-  O371  1  0.07727054  0.60651384  0.21983560  1
  O2-  O372  1  0.24992114  0.00715803  0.31808485  1
  O2-  O373  1  0.24967919  0.00645862  0.85192951  1
  O2-  O374  1  0.25015324  0.66882230  0.65077136  1
  O2-  O375  1  0.25014993  0.33429140  0.08050137  1
  O2-  O376  1  0.75007713  0.33009650  0.40327996  1
  O2-  O377  1  0.74996298  -0.00254659  0.65396822  1
  O2-  O378  1  0.74962298  0.67035530  0.40215363  1
  O2-  O379  1  0.75025250  0.33312941  0.06130718  1
  O2-  O380  1  0.25049268  0.68367943  0.41698647  1
  O2-  O381  1  0.74954042  0.33344637  0.63847840  1
  O2-  O382  1  0.24979650  0.33908925  0.89144100  1
  O2-  O383  1  0.24926590  0.00569560  0.13724590  1
  O2-  O384  1  0.24975562  0.33247091  0.65431253  1
  O2-  O385  1  0.24978985  0.66581335  0.91985297  1
  O2-  O386  1  0.75049739  0.00085300  0.15717980  1
  O2-  O387  1  0.25008606  0.66269350  0.30976619  1
  O2-  O388  1  0.74996706  0.33660648  0.18633462  1
  O2-  O389  1  0.24924229  -0.02604106  0.40227503  1
  O2-  O390  1  0.25009104  0.32694705  0.38585780  1
  O2-  O391  1  0.24978453  0.01484915  0.67894528  1
  O2-  O392  1  0.25028176  0.33032545  0.17008078  1
  O2-  O393  1  0.25016019  0.67023978  0.82822938  1
  O2-  O394  1  0.75009951  0.33492025  0.85888633  1
  O2-  O395  1  0.24943125  -0.02987861  0.59660795  1
  O2-  O396  1  0.25013066  0.16507754  0.60970286  1
  O2-  O397  1  0.24984962  0.17330952  0.95007815  1
  O2-  O398  1  0.75036943  0.16730351  0.42711168  1
  O2-  O399  1  0.74991351  0.82761854  0.68745428  1
  O2-  O400  1  0.24989706  0.50101513  0.39156802  1
  O2-  O401  1  0.75012375  0.16785899  0.15818743  1
  O2-  O402  1  0.75004319  0.50986167  0.55422443  1
  O2-  O403  1  0.24988819  0.16397580  0.86601665  1
  O2-  O404  1  0.75008258  0.50358402  0.12347434  1
  O2-  O405  1  0.25003271  0.84379099  0.88401696  1
  O2-  O406  1  0.75011735  0.16395591  0.32962141  1
  O2-  O407  1  0.75011146  0.50425966  0.89867278  1
  O2-  O408  1  0.75006111  0.16996541  0.89007327  1
  O2-  O409  1  0.24993557  0.82869718  0.34021702  1
  O2-  O410  1  0.24983879  0.50735467  0.15027899  1
  O2-  O411  1  0.74998478  0.84458813  0.60257387  1
  O2-  O412  1  0.74993638  0.49319859  0.41303611  1
  O2-  O413  1  0.25015880  0.50122069  0.89276572  1
  O2-  O414  1  0.74995853  0.16524689  0.60806126  1
  O2-  O415  1  0.25001822  0.83155782  0.16221282  1
  O2-  O416  1  0.74993298  0.84959820  0.36815277  1
  O2-  O417  1  0.75004972  0.83177302  0.10401125  1
  O2-  O418  1  0.75006742  0.50084867  0.63936183  1
  O2-  O419  1  0.24983202  0.49937121  0.80741085  1
  O2-  O420  1  0.45553030  -0.00132313  0.12661136  1
  O2-  O421  1  0.47657640  0.66709179  0.37675957  1
  O2-  O422  1  0.97657224  -0.00379874  0.87390179  1
  O2-  O423  1  0.47669038  0.66732027  0.12020207  1
  O2-  O424  1  0.02736404  0.67905351  0.63543262  1
  O2-  O425  1  0.46013681  0.67051169  0.63858950  1
  O2-  O426  1  0.46052987  -0.00789722  0.86788234  1
  O2-  O427  1  0.96820551  0.65955861  0.12352676  1
  O2-  O428  1  0.04600994  0.00362799  0.38293990  1
  O2-  O429  1  0.52802623  0.66873350  0.62920487  1
  O2-  O430  1  0.52676508  0.33075072  0.37263321  1
  O2-  O431  1  0.54364387  -0.00500240  0.12906151  1
  O2-  O432  1  0.96501455  0.35038703  0.62002551  1
  O2-  O433  1  0.02490384  0.34498964  0.37864649  1
  O2-  O434  1  0.97677839  0.67627047  0.37021241  1
  O2-  O435  1  0.52558747  0.33387539  0.12329569  1
  O2-  O436  1  0.03734893  0.33921336  0.63367837  1
  O2-  O437  1  0.96438490  0.00351529  0.37203966  1
  O2-  O438  1  0.52322098  0.00985579  0.63557712  1
  O2-  O439  1  0.02856997  0.68100603  0.12536879  1
  O2-  O440  1  0.02092710  0.33465909  0.13660927  1
  O2-  O441  1  0.54420632  -0.00075580  0.87430618  1
  O2-  O442  1  0.52764226  0.67055072  0.87573089  1
  O2-  O443  1  0.48129583  0.33901726  0.62147244  1
