# generated using pymatgen
data_La7(Ru4O11)2
_symmetry_space_group_name_H-M   'P 1'
_cell_length_a   23.99668230
_cell_length_b   16.83597849
_cell_length_c   15.43136963
_cell_angle_alpha   89.99800711
_cell_angle_beta   89.99829878
_cell_angle_gamma   89.99951223
_symmetry_Int_Tables_number   1
_chemical_formula_structural   La7(Ru4O11)2
_chemical_formula_sum   'La84 Ru96 O264'
_cell_volume   6234.39101849
_cell_formula_units_Z   12
loop_
 _symmetry_equiv_pos_site_id
 _symmetry_equiv_pos_as_xyz
  1  'x, y, z'
loop_
 _atom_type_symbol
 _atom_type_oxidation_number
  La3+  3.0
  Ru4+  4.0
  O2-  -2.0
loop_
 _atom_site_type_symbol
 _atom_site_label
 _atom_site_symmetry_multiplicity
 _atom_site_fract_x
 _atom_site_fract_y
 _atom_site_fract_z
 _atom_site_occupancy
  La3+  La0  1  0.14990883  0.00154378  0.12892638  1
  La3+  La1  1  0.14568680  0.00404640  0.37456351  1
  La3+  La2  1  0.13420368  -0.00411655  0.62598437  1
  La3+  La3  1  0.14403828  0.00921025  0.87484811  1
  La3+  La4  1  0.14065008  0.34051530  0.11943403  1
  La3+  La5  1  0.14267911  0.33330213  0.37230378  1
  La3+  La6  1  0.15057266  0.33167910  0.63354921  1
  La3+  La7  1  0.15222116  0.34429355  0.87637863  1
  La3+  La8  1  0.14053643  0.66536465  0.12325857  1
  La3+  La9  1  0.13967368  0.65737589  0.37516842  1
  La3+  La10  1  0.13799883  0.65676183  0.62343415  1
  La3+  La11  1  0.14627464  0.65104096  0.87655358  1
  La3+  La12  1  0.63308681  0.00557129  0.12687274  1
  La3+  La13  1  0.63915622  -0.00134751  0.37686847  1
  La3+  La14  1  0.64100766  -0.00231970  0.62004466  1
  La3+  La15  1  0.64346228  0.00304694  0.87200493  1
  La3+  La16  1  0.62753740  0.32211746  0.12040335  1
  La3+  La17  1  0.63318734  0.33066889  0.37320217  1
  La3+  La18  1  0.63899428  0.32632030  0.62792632  1
  La3+  La19  1  0.64448095  0.31915152  0.88448942  1
  La3+  La20  1  0.64090088  0.66960457  0.12011592  1
  La3+  La21  1  0.63119084  0.66606490  0.37114223  1
  La3+  La22  1  0.64447658  0.66620060  0.62220769  1
  La3+  La23  1  0.64106092  0.67200954  0.87602323  1
  La3+  La24  1  0.35028047  -0.00137282  0.12765592  1
  La3+  La25  1  0.36429660  0.00201172  0.37624491  1
  La3+  La26  1  0.37168190  -0.00508665  0.62164916  1
  La3+  La27  1  0.36036280  0.00370738  0.87595839  1
  La3+  La28  1  0.35782862  0.33517057  0.11806958  1
  La3+  La29  1  0.35717956  0.33820103  0.37330099  1
  La3+  La30  1  0.35342696  0.33522958  0.63126389  1
  La3+  La31  1  0.35579469  0.33315158  0.87914377  1
  La3+  La32  1  0.35346019  0.66348311  0.12686577  1
  La3+  La33  1  0.34956522  0.66513320  0.37019599  1
  La3+  La34  1  0.35949345  0.65635904  0.63111406  1
  La3+  La35  1  0.34778961  0.65781238  0.87991441  1
  La3+  La36  1  0.86574603  0.00698834  0.12727374  1
  La3+  La37  1  0.86069722  -0.00667116  0.38007434  1
  La3+  La38  1  0.85079963  -0.00858256  0.62257562  1
  La3+  La39  1  0.85982808  0.00139424  0.87197137  1
  La3+  La40  1  0.87122773  0.32550124  0.11951745  1
  La3+  La41  1  0.86340675  0.32775956  0.37095479  1
  La3+  La42  1  0.86081445  0.32955889  0.62804223  1
  La3+  La43  1  0.85864703  0.32766939  0.88189964  1
  La3+  La44  1  0.86399372  0.66240026  0.12672152  1
  La3+  La45  1  0.86859918  0.66871835  0.37359524  1
  La3+  La46  1  0.85104271  0.66299685  0.62342973  1
  La3+  La47  1  0.87160920  0.66819618  0.87095953  1
  La3+  La48  1  0.49741427  0.17336589  0.11312312  1
  La3+  La49  1  0.49844248  0.49009332  0.60038183  1
  La3+  La50  1  0.50008555  0.82505839  0.39054892  1
  La3+  La51  1  0.49630469  0.82667984  0.88355845  1
  La3+  La52  1  -0.00827577  0.16875457  0.35543993  1
  La3+  La53  1  0.49940262  0.83564886  0.62824133  1
  La3+  La54  1  0.00945096  0.50232035  0.62122318  1
  La3+  La55  1  0.50195641  0.16973040  0.38606348  1
  La3+  La56  1  -0.00008247  0.50650330  0.37650641  1
  La3+  La57  1  0.00871980  0.84267490  0.87010056  1
  La3+  La58  1  0.51060873  0.84941261  0.13621673  1
  La3+  La59  1  0.00182497  0.84199537  0.36847777  1
  La3+  La60  1  0.49799588  0.50425515  0.88478965  1
  La3+  La61  1  0.50495264  0.49580477  0.86701125  1
  La3+  La62  1  0.49569358  0.82913711  0.86120290  1
  La3+  La63  1  -0.01416195  0.82996133  0.12341799  1
  La3+  La64  1  0.00227613  0.16975017  0.88545588  1
  La3+  La65  1  0.50750129  0.16624626  0.36569931  1
  La3+  La66  1  -0.01299940  0.83486037  0.60164945  1
  La3+  La67  1  -0.01170603  0.83720724  0.10280779  1
  La3+  La68  1  0.00523931  0.51109774  0.35617580  1
  La3+  La69  1  0.49865519  0.83382766  0.37078895  1
  La3+  La70  1  0.50476026  0.17023470  0.88418889  1
  La3+  La71  1  0.00110297  0.49686845  0.63871298  1
  La3+  La72  1  0.25445824  0.10718514  0.50336433  1
  La3+  La73  1  0.74982148  0.89968913  0.02149885  1
  La3+  La74  1  0.75356570  0.19698657  0.53038348  1
  La3+  La75  1  0.74725003  0.43987974  0.00888515  1
  La3+  La76  1  0.75122197  0.49445859  0.21810391  1
  La3+  La77  1  0.25082804  0.87011211  0.82269869  1
  La3+  La78  1  0.25010108  0.20795923  0.76600900  1
  La3+  La79  1  0.25113893  0.84950561  0.24217932  1
  La3+  La80  1  0.74913383  0.49530630  0.51051927  1
  La3+  La81  1  0.74870380  0.43492679  0.77405429  1
  La3+  La82  1  0.75121333  0.79212190  0.76580850  1
  La3+  La83  1  0.24897504  0.75406675  0.51287382  1
  Ru4+  Ru84  1  -0.00456724  0.00714214  -0.00802317  1
  Ru4+  Ru85  1  -0.00033349  0.01349479  0.23846040  1
  Ru4+  Ru86  1  -0.00536223  0.00873077  0.51152970  1
  Ru4+  Ru87  1  0.00454427  -0.00095636  0.76231798  1
  Ru4+  Ru88  1  0.00211937  0.33222615  0.00351877  1
  Ru4+  Ru89  1  0.00222987  0.32879580  0.24259421  1
  Ru4+  Ru90  1  0.00649870  0.33807126  0.49109828  1
  Ru4+  Ru91  1  0.00810954  0.32101305  0.76223753  1
  Ru4+  Ru92  1  0.00142656  0.65829610  0.00011592  1
  Ru4+  Ru93  1  0.00099152  0.66447635  0.24167838  1
  Ru4+  Ru94  1  -0.00642877  0.67515408  0.50477500  1
  Ru4+  Ru95  1  -0.00200967  0.66838739  0.76853155  1
  Ru4+  Ru96  1  0.49970187  -0.00283266  -0.00795653  1
  Ru4+  Ru97  1  0.50776882  -0.00807012  0.24833028  1
  Ru4+  Ru98  1  0.51056424  0.00109697  0.50316250  1
  Ru4+  Ru99  1  0.49173672  0.01180852  0.73930264  1
  Ru4+  Ru100  1  0.50056829  0.34980743  -0.00162389  1
  Ru4+  Ru101  1  0.50088979  0.34354694  0.24976194  1
  Ru4+  Ru102  1  0.49018598  0.34021117  0.49718397  1
  Ru4+  Ru103  1  0.50131291  0.33346894  0.73920088  1
  Ru4+  Ru104  1  0.48800891  0.67569163  0.01430429  1
  Ru4+  Ru105  1  0.50379084  0.66372943  0.25533315  1
  Ru4+  Ru106  1  0.50327543  0.66125059  0.51357218  1
  Ru4+  Ru107  1  0.49423308  0.65477972  0.73210306  1
  Ru4+  Ru108  1  0.11251881  0.16809360  0.00325553  1
  Ru4+  Ru109  1  0.11389915  0.16173154  0.24355210  1
  Ru4+  Ru110  1  0.10730600  0.16266682  0.51064481  1
  Ru4+  Ru111  1  0.09681545  0.17455612  0.74894256  1
  Ru4+  Ru112  1  0.10443858  0.49803829  0.00108269  1
  Ru4+  Ru113  1  0.11545817  0.49636417  0.24328770  1
  Ru4+  Ru114  1  0.12011178  0.49599261  0.49608749  1
  Ru4+  Ru115  1  0.11210972  0.50037908  0.75686792  1
  Ru4+  Ru116  1  0.11373306  0.82734000  -0.01762930  1
  Ru4+  Ru117  1  0.11116524  0.83794772  0.25362542  1
  Ru4+  Ru118  1  0.11190862  0.83159192  0.49949395  1
  Ru4+  Ru119  1  0.11309341  0.83938068  0.75256373  1
  Ru4+  Ru120  1  0.61618598  0.16331026  0.00538941  1
  Ru4+  Ru121  1  0.61182226  0.16761574  0.24678648  1
  Ru4+  Ru122  1  0.61312708  0.17049097  0.50375982  1
  Ru4+  Ru123  1  0.60968507  0.17101597  0.74437409  1
  Ru4+  Ru124  1  0.60241047  0.49775735  -0.00030927  1
  Ru4+  Ru125  1  0.61145662  0.49511152  0.24480476  1
  Ru4+  Ru126  1  0.60657198  0.49786478  0.49462090  1
  Ru4+  Ru127  1  0.61315447  0.49958010  0.76537277  1
  Ru4+  Ru128  1  0.61260463  0.83136891  0.00406038  1
  Ru4+  Ru129  1  0.61204266  0.84088786  0.25090626  1
  Ru4+  Ru130  1  0.61468308  0.83492848  0.50159860  1
  Ru4+  Ru131  1  0.61145037  0.83319399  0.74710162  1
  Ru4+  Ru132  1  0.38552081  0.16405330  -0.00157518  1
  Ru4+  Ru133  1  0.38527942  0.16708846  0.24418831  1
  Ru4+  Ru134  1  0.38952460  0.17654936  0.50158298  1
  Ru4+  Ru135  1  0.39256321  0.16327727  0.74279347  1
  Ru4+  Ru136  1  0.38389878  0.50205406  0.00130312  1
  Ru4+  Ru137  1  0.38236790  0.49401657  0.25052892  1
  Ru4+  Ru138  1  0.39135866  0.49400295  0.49255094  1
  Ru4+  Ru139  1  0.38364563  0.49606485  0.74906321  1
  Ru4+  Ru140  1  0.38587819  0.84063846  0.01580012  1
  Ru4+  Ru141  1  0.38746520  0.83498211  0.24644791  1
  Ru4+  Ru142  1  0.38344190  0.82926798  0.50172341  1
  Ru4+  Ru143  1  0.38535162  0.83165206  0.74353998  1
  Ru4+  Ru144  1  0.88569654  0.16723875  0.00369095  1
  Ru4+  Ru145  1  0.88569313  0.17259926  0.24378922  1
  Ru4+  Ru146  1  0.89817943  0.15554390  0.50705213  1
  Ru4+  Ru147  1  0.88718374  0.16968707  0.75119534  1
  Ru4+  Ru148  1  0.89311390  0.50085615  0.00028922  1
  Ru4+  Ru149  1  0.88849365  0.49634794  0.24530661  1
  Ru4+  Ru150  1  0.89052362  0.49181631  0.50013886  1
  Ru4+  Ru151  1  0.89051840  0.49432604  0.75429640  1
  Ru4+  Ru152  1  0.88704449  0.83640069  -0.00714055  1
  Ru4+  Ru153  1  0.88404124  0.84001117  0.25540713  1
  Ru4+  Ru154  1  0.88359949  0.83525816  0.49750607  1
  Ru4+  Ru155  1  0.89438368  0.82987407  0.74451571  1
  Ru4+  Ru156  1  0.24808341  0.25901470  0.49311116  1
  Ru4+  Ru157  1  0.74912820  0.92673535  0.25059549  1
  Ru4+  Ru158  1  0.75302725  0.73905907  -0.00501308  1
  Ru4+  Ru159  1  0.74936032  0.94634213  0.72901435  1
  Ru4+  Ru160  1  0.24973129  0.09305405  0.02110393  1
  Ru4+  Ru161  1  0.74871509  0.35275041  0.47752103  1
  Ru4+  Ru162  1  0.75082047  0.35049699  0.25842339  1
  Ru4+  Ru163  1  0.74986116  0.62712183  0.28283236  1
  Ru4+  Ru164  1  0.75053347  0.59870577  -0.01428698  1
  Ru4+  Ru165  1  0.24877132  0.72430214  0.74254226  1
  Ru4+  Ru166  1  0.74943879  0.08775885  0.75347323  1
  Ru4+  Ru167  1  0.25014517  0.74995459  0.00085211  1
  Ru4+  Ru168  1  0.24983108  0.23998589  0.01217860  1
  Ru4+  Ru169  1  0.24908088  0.05290835  0.73111662  1
  Ru4+  Ru170  1  0.24922539  0.57200149  0.23467707  1
  Ru4+  Ru171  1  0.75033384  0.63989709  0.44996884  1
  Ru4+  Ru172  1  0.75032754  0.07671072  0.26611991  1
  Ru4+  Ru173  1  0.75036210  0.09642258  -0.00580628  1
  Ru4+  Ru174  1  0.24912797  0.24685349  0.22780250  1
  Ru4+  Ru175  1  0.75022856  0.76932343  0.25167402  1
  Ru4+  Ru176  1  0.25075846  0.94287798  0.49545330  1
  Ru4+  Ru177  1  0.25081905  0.43456253  0.49012920  1
  Ru4+  Ru178  1  0.74749314  0.05759431  0.47819511  1
  Ru4+  Ru179  1  0.75106100  0.58822956  0.76115015  1
  O2-  O180  1  0.16719777  0.08345270  0.00574498  1
  O2-  O181  1  0.16728951  0.08666692  0.25131923  1
  O2-  O182  1  0.16248591  0.07890618  0.49979612  1
  O2-  O183  1  0.16932630  0.08502115  0.74707789  1
  O2-  O184  1  0.16319620  0.41718133  0.00426654  1
  O2-  O185  1  0.16363332  0.41099654  0.25059375  1
  O2-  O186  1  0.16982362  0.41153628  0.50157107  1
  O2-  O187  1  0.16325473  0.41832187  0.74870568  1
  O2-  O188  1  0.16829370  0.74481194  -0.00038877  1
  O2-  O189  1  0.16269420  0.75143224  0.25067932  1
  O2-  O190  1  0.15584605  0.73959700  0.49783180  1
  O2-  O191  1  0.16245162  0.74466890  0.74963097  1
  O2-  O192  1  0.66895145  0.07999911  0.00493031  1
  O2-  O193  1  0.66988745  0.08111582  0.25114699  1
  O2-  O194  1  0.66669007  0.08104455  0.49916662  1
  O2-  O195  1  0.66482174  0.08296326  0.74876651  1
  O2-  O196  1  0.65559935  0.40755185  0.00647959  1
  O2-  O197  1  0.66769109  0.41251360  0.24752067  1
  O2-  O198  1  0.66333496  0.41206177  0.49847514  1
  O2-  O199  1  0.65663554  0.40520893  0.74719358  1
  O2-  O200  1  0.67084430  0.75106992  0.00157320  1
  O2-  O201  1  0.67015965  0.74916002  0.25148020  1
  O2-  O202  1  0.65905816  0.74664919  0.49072772  1
  O2-  O203  1  0.66024134  0.74416100  0.74694771  1
  O2-  O204  1  0.33314934  0.24874191  0.00288814  1
  O2-  O205  1  0.33222595  0.25431776  0.24490403  1
  O2-  O206  1  0.33092593  0.25436929  0.49943007  1
  O2-  O207  1  0.34546159  0.25329556  0.75416207  1
  O2-  O208  1  0.33302413  0.58203439  0.00823233  1
  O2-  O209  1  0.33021013  0.58101737  0.24660927  1
  O2-  O210  1  0.34162911  0.58108324  0.50134903  1
  O2-  O211  1  0.33208487  0.58010153  0.74621071  1
  O2-  O212  1  0.33353865  0.91990188  -0.00047721  1
  O2-  O213  1  0.33360266  0.92071519  0.25269492  1
  O2-  O214  1  0.33717463  0.92428719  0.49578193  1
  O2-  O215  1  0.33092951  0.92017590  0.75209008  1
  O2-  O216  1  0.83045192  0.25212960  0.00796873  1
  O2-  O217  1  0.82650497  0.25524287  0.25162657  1
  O2-  O218  1  0.84609829  0.24744468  0.49783239  1
  O2-  O219  1  0.83746987  0.25268764  0.74979387  1
  O2-  O220  1  0.83431121  0.58297023  -0.00096053  1
  O2-  O221  1  0.82928853  0.59156699  0.25159862  1
  O2-  O222  1  0.83226042  0.58715962  0.48911458  1
  O2-  O223  1  0.83479156  0.58203021  0.75622675  1
  O2-  O224  1  0.84236018  0.92937161  0.00370472  1
  O2-  O225  1  0.83076880  0.92258453  0.24493740  1
  O2-  O226  1  0.82933025  0.91573756  0.49616467  1
  O2-  O227  1  0.83296074  0.91594640  0.75576895  1
  O2-  O228  1  0.16838581  0.25121246  0.00332400  1
  O2-  O229  1  0.16393284  0.25346301  0.24695644  1
  O2-  O230  1  0.16244975  0.25152754  0.49934383  1
  O2-  O231  1  0.15990288  0.24966292  0.74931752  1
  O2-  O232  1  0.15981279  0.58275748  0.00612764  1
  O2-  O233  1  0.16997234  0.58187317  0.25100337  1
  O2-  O234  1  0.16687806  0.58548067  0.50416694  1
  O2-  O235  1  0.16477206  0.58281044  0.74182982  1
  O2-  O236  1  0.15660911  0.92009290  -0.00376297  1
  O2-  O237  1  0.17092682  0.92110671  0.24389339  1
  O2-  O238  1  0.16440305  0.91929955  0.50002471  1
  O2-  O239  1  0.17312162  0.91601981  0.75000181  1
  O2-  O240  1  0.66791154  0.25108392  0.00962224  1
  O2-  O241  1  0.66711032  0.25660137  0.24940047  1
  O2-  O242  1  0.66858057  0.25625621  0.49558794  1
  O2-  O243  1  0.66734593  0.24950099  0.75219349  1
  O2-  O244  1  0.66565640  0.58551961  -0.00012273  1
  O2-  O245  1  0.67281380  0.58633006  0.25268407  1
  O2-  O246  1  0.66530308  0.58619815  0.49404706  1
  O2-  O247  1  0.66812210  0.58567160  0.75283491  1
  O2-  O248  1  0.65748898  0.92788803  0.00251660  1
  O2-  O249  1  0.66652921  0.92331727  0.24784359  1
  O2-  O250  1  0.66785179  0.92094030  0.49070944  1
  O2-  O251  1  0.66599873  0.92128660  0.74483972  1
  O2-  O252  1  0.33294015  0.08294650  0.00410641  1
  O2-  O253  1  0.33721164  0.08356503  0.25339164  1
  O2-  O254  1  0.34698970  0.07910402  0.50225026  1
  O2-  O255  1  0.32932986  0.07867999  0.74471621  1
  O2-  O256  1  0.33917775  0.41147416  0.00120209  1
  O2-  O257  1  0.33367520  0.41114743  0.24480448  1
  O2-  O258  1  0.33083255  0.41623138  0.49886729  1
  O2-  O259  1  0.33167487  0.41806278  0.75629330  1
  O2-  O260  1  0.33552153  0.74900119  0.00656608  1
  O2-  O261  1  0.33426280  0.74902068  0.24621686  1
  O2-  O262  1  0.34306582  0.73445967  0.50202467  1
  O2-  O263  1  0.33475360  0.74435750  0.75173104  1
  O2-  O264  1  0.83178766  0.08108698  0.00488358  1
  O2-  O265  1  0.83186563  0.08371278  0.25096468  1
  O2-  O266  1  0.82581334  0.08234491  0.49797654  1
  O2-  O267  1  0.83420057  0.08246582  0.75174817  1
  O2-  O268  1  0.83775847  0.41150837  0.01091496  1
  O2-  O269  1  0.83314151  0.41029475  0.24963649  1
  O2-  O270  1  0.83264402  0.40700846  0.49466874  1
  O2-  O271  1  0.83681174  0.40724281  0.74510883  1
  O2-  O272  1  0.83508174  0.74417439  0.00031426  1
  O2-  O273  1  0.83073455  0.74850393  0.25021315  1
  O2-  O274  1  0.83952540  0.74594239  0.49189061  1
  O2-  O275  1  0.84003933  0.74361509  0.75062049  1
  O2-  O276  1  0.04517986  0.42745248  0.76150765  1
  O2-  O277  1  0.54595925  0.56420094  0.48742014  1
  O2-  O278  1  0.45518283  0.09308590  0.24891230  1
  O2-  O279  1  0.94467169  0.57608894  0.99067510  1
  O2-  O280  1  0.94633840  0.91356033  0.76484429  1
  O2-  O281  1  0.05550770  0.24096406  0.00421046  1
  O2-  O282  1  0.04734301  0.56724302  0.48997950  1
  O2-  O283  1  0.05428122  0.41902020  -0.00564347  1
  O2-  O284  1  0.45554293  0.24367994  0.24597158  1
  O2-  O285  1  0.44576010  0.08988877  0.48643001  1
  O2-  O286  1  0.45623401  0.54930541  0.73030182  1
  O2-  O287  1  0.45667145  0.09873662  1.00096326  1
  O2-  O288  1  0.05360323  0.58096457  0.98292744  1
  O2-  O289  1  0.05065751  0.58279607  0.75407125  1
  O2-  O290  1  0.54838425  0.23574497  0.00794110  1
  O2-  O291  1  0.05736126  0.12972618  0.43327562  1
  O2-  O292  1  0.04940258  0.75893422  0.25215904  1
  O2-  O293  1  0.94968945  0.23298512  1.01245525  1
  O2-  O294  1  0.95029890  0.75893383  0.79146572  1
  O2-  O295  1  0.04311739  0.76286684  0.48411964  1
  O2-  O296  1  0.04501815  0.85501315  0.70295467  1
  O2-  O297  1  0.55150629  0.42025743  0.22706240  1
  O2-  O298  1  0.05249450  0.90533616  0.51727386  1
  O2-  O299  1  0.45873951  0.88904688  0.50270798  1
  O2-  O300  1  0.54652664  0.09930220  0.74280652  1
  O2-  O301  1  0.54639577  0.91032061  0.74872516  1
  O2-  O302  1  0.94883098  0.42138571  0.04667245  1
  O2-  O303  1  0.05082522  0.41638068  0.99698074  1
  O2-  O304  1  0.45048192  0.91141349  0.47466878  1
  O2-  O305  1  0.06149096  0.76496131  0.04711820  1
  O2-  O306  1  0.97101962  0.17818246  0.52320641  1
  O2-  O307  1  0.44797321  0.24374418  0.98710039  1
  O2-  O308  1  0.94457250  0.57791215  0.73219770  1
  O2-  O309  1  0.45159837  0.54097526  0.25301333  1
  O2-  O310  1  0.94645424  0.23553879  0.00001601  1
  O2-  O311  1  0.54496267  0.89710939  0.99808892  1
  O2-  O312  1  0.95022782  0.76467758  0.97740347  1
  O2-  O313  1  0.46218916  0.54494304  0.73210187  1
  O2-  O314  1  0.94370878  0.75829857  0.25147464  1
  O2-  O315  1  0.04440979  0.91524747  0.48183753  1
  O2-  O316  1  0.54134834  0.55568643  0.24870375  1
  O2-  O317  1  0.94636141  0.57902707  0.51865684  1
  O2-  O318  1  0.02783098  0.22639490  0.70241062  1
  O2-  O319  1  0.56322198  0.54026163  0.68929465  1
  O2-  O320  1  0.55161066  0.09600045  0.49730926  1
  O2-  O321  1  0.94844927  0.57061799  0.23519559  1
  O2-  O322  1  0.45863594  0.78215622  0.05237230  1
  O2-  O323  1  0.03739400  0.90594747  0.21052594  1
  O2-  O324  1  0.06562464  0.58840590  0.24773595  1
  O2-  O325  1  0.92200975  0.09031809  0.40670849  1
  O2-  O326  1  0.07835360  0.93160637  0.81041013  1
  O2-  O327  1  0.58189703  0.61171488  0.22543321  1
  O2-  O328  1  0.56367760  0.60021029  0.83329379  1
  O2-  O329  1  0.55981057  0.26089052  0.02948612  1
  O2-  O330  1  0.94198141  0.75636990  0.80572898  1
  O2-  O331  1  0.41960319  0.89707976  0.92343758  1
  O2-  O332  1  0.42487413  0.41084846  0.56602278  1
  O2-  O333  1  0.43769457  0.41953399  0.42035393  1
  O2-  O334  1  0.56472777  0.92464580  0.53894869  1
  O2-  O335  1  0.44072772  0.92588394  0.23294425  1
  O2-  O336  1  0.05990518  0.39161092  0.58250158  1
  O2-  O337  1  0.05964735  0.58677617  0.46296995  1
  O2-  O338  1  0.06429498  0.07666503  0.73357620  1
  O2-  O339  1  0.43482226  0.39883630  0.74127037  1
  O2-  O340  1  0.43418138  0.65797617  0.81052509  1
  O2-  O341  1  0.44104493  0.07024050  0.45426713  1
  O2-  O342  1  0.43958937  0.93534303  0.06923812  1
  O2-  O343  1  0.43374209  0.73054892  0.92648268  1
  O2-  O344  1  0.44453609  0.75080684  0.28650525  1
  O2-  O345  1  0.94115807  0.91849121  0.47750613  1
  O2-  O346  1  0.43068660  0.61304709  0.28780934  1
  O2-  O347  1  0.43851526  0.91750434  0.72401938  1
  O2-  O348  1  0.91981992  0.06215050  0.56344935  1
  O2-  O349  1  0.94103035  0.58070376  0.23451873  1
  O2-  O350  1  0.42707007  0.10661858  0.82994490  1
  O2-  O351  1  0.56534804  0.73573403  0.01535337  1
  O2-  O352  1  0.56085138  0.75106634  0.27291652  1
  O2-  O353  1  0.42860104  0.23772612  0.57456827  1
  O2-  O354  1  0.55407027  0.74532775  0.78057479  1
  O2-  O355  1  0.07020379  0.42041646  0.42799939  1
  O2-  O356  1  0.06969849  0.06730397  0.55737108  1
  O2-  O357  1  0.56411013  0.26477714  0.72863188  1
  O2-  O358  1  0.08534167  0.91393846  0.33192225  1
  O2-  O359  1  0.93580979  0.72272569  0.62941449  1
  O2-  O360  1  0.43158869  0.25880470  0.42206121  1
  O2-  O361  1  0.07377656  0.27081829  0.82254744  1
  O2-  O362  1  0.93124779  0.40449858  0.95744413  1
  O2-  O363  1  0.44365174  0.58628946  0.97366342  1
  O2-  O364  1  0.43438765  0.08831999  0.67972472  1
  O2-  O365  1  0.06187428  0.07699840  0.21115771  1
  O2-  O366  1  0.43405710  0.26930822  0.96994198  1
  O2-  O367  1  0.56063517  0.26151288  0.48510985  1
  O2-  O368  1  0.93806212  0.40090745  0.76092156  1
  O2-  O369  1  0.06240297  0.75672056  0.05163633  1
  O2-  O370  1  0.93658497  0.26089386  0.22456736  1
  O2-  O371  1  0.07322456  0.73959674  0.88553112  1
  O2-  O372  1  0.24999071  0.34463795  0.57135782  1
  O2-  O373  1  0.24796424  0.65951861  0.92337349  1
  O2-  O374  1  0.74903196  0.68279656  0.55465714  1
  O2-  O375  1  0.25085593  0.66061879  0.08104891  1
  O2-  O376  1  0.25008649  0.33101819  0.69278337  1
  O2-  O377  1  0.25220803  0.00129444  0.37946154  1
  O2-  O378  1  0.24938945  0.34114813  0.39661167  1
  O2-  O379  1  0.24918394  0.00856712  0.12213810  1
  O2-  O380  1  0.24947676  0.01333843  0.61634510  1
  O2-  O381  1  0.75010280  0.65833791  0.10167385  1
  O2-  O382  1  0.25270587  0.33011080  0.92970980  1
  O2-  O383  1  0.25076514  0.00416448  0.85138839  1
  O2-  O384  1  0.25203272  0.32958921  0.83588345  1
  O2-  O385  1  0.25040711  0.67525295  0.17220812  1
  O2-  O386  1  0.75107369  0.33258325  0.60893825  1
  O2-  O387  1  0.75034563  0.67609400  0.68866342  1
  O2-  O388  1  0.74780784  0.35021453  0.89616814  1
  O2-  O389  1  0.74967026  0.66855499  0.86345061  1
  O2-  O390  1  0.75014710  0.00199770  0.85115928  1
  O2-  O391  1  0.74680518  0.00213373  0.60129754  1
  O2-  O392  1  0.24733839  0.66012678  0.63529882  1
  O2-  O393  1  0.24848371  0.64635489  0.83202762  1
  O2-  O394  1  0.25077221  0.32185275  0.10944874  1
  O2-  O395  1  0.24975168  0.65127229  0.34528334  1
  O2-  O396  1  0.24951479  0.17181620  0.14049779  1
  O2-  O397  1  0.74949718  0.52260282  0.88720636  1
  O2-  O398  1  0.74987490  0.15994681  0.90659537  1
  O2-  O399  1  0.75025026  0.15846453  0.66708576  1
  O2-  O400  1  0.75015202  0.82512456  0.14237574  1
  O2-  O401  1  0.75041663  0.85753407  0.63948898  1
  O2-  O402  1  0.75057145  0.51888344  0.65415860  1
  O2-  O403  1  0.25003730  0.16306459  0.30534558  1
  O2-  O404  1  0.24994246  0.16028238  0.91660260  1
  O2-  O405  1  0.24834618  0.19077347  0.39019978  1
  O2-  O406  1  0.24896669  0.86487739  0.41006655  1
  O2-  O407  1  0.24911164  0.82177219  0.09828235  1
  O2-  O408  1  0.25070468  0.51829073  0.13633609  1
  O2-  O409  1  0.24931765  0.18121568  0.62131271  1
  O2-  O410  1  0.25039730  0.81674846  0.68696074  1
  O2-  O411  1  0.25072929  0.49919875  0.90759244  1
  O2-  O412  1  0.74992695  0.83483893  0.55805804  1
  O2-  O413  1  0.24966315  0.50121023  0.40521058  1
  O2-  O414  1  0.25119283  0.78486064  0.36844384  1
  O2-  O415  1  0.74891591  0.13477676  0.37783517  1
  O2-  O416  1  0.75031209  0.82374453  0.90716954  1
  O2-  O417  1  0.25081181  0.87399311  0.58210817  1
  O2-  O418  1  0.24829487  0.86030560  0.01583604  1
  O2-  O419  1  0.75008228  0.50903169  0.36010471  1
  O2-  O420  1  0.55590474  0.02114183  0.90102573  1
  O2-  O421  1  0.54748844  0.67807668  0.62200838  1
  O2-  O422  1  0.97047195  0.66805234  0.37728819  1
  O2-  O423  1  0.98028043  0.31763415  0.87428865  1
  O2-  O424  1  0.53324311  0.01221209  0.11940839  1
  O2-  O425  1  0.48392396  -0.00977123  0.61822773  1
  O2-  O426  1  0.46873824  -0.01030847  0.86559848  1
  O2-  O427  1  0.52080760  0.67284776  0.38724287  1
  O2-  O428  1  0.02708833  -0.01600295  0.63775068  1
  O2-  O429  1  0.52618067  0.33729698  0.37099328  1
  O2-  O430  1  0.49732733  0.33140318  0.62012921  1
  O2-  O431  1  0.01874607  0.01596774  0.38176740  1
  O2-  O432  1  0.95277391  0.00968238  0.88244410  1
  O2-  O433  1  0.03315051  0.64648140  0.13024860  1
  O2-  O434  1  0.45224157  0.67710348  0.61485242  1
  O2-  O435  1  0.97737588  0.64118910  0.88125412  1
  O2-  O436  1  0.02685716  0.33318903  0.13171570  1
  O2-  O437  1  0.51314076  0.66443138  0.12696282  1
  O2-  O438  1  0.96916196  -0.02027120  0.63983374  1
  O2-  O439  1  0.04517136  0.02717764  0.89932342  1
  O2-  O440  1  0.97018013  -0.02092738  0.34382876  1
  O2-  O441  1  0.96918279  0.00266321  0.11682471  1
  O2-  O442  1  0.95257732  0.68886640  0.10113692  1
  O2-  O443  1  0.01573680  0.31210745  0.36534378  1
