# generated using pymatgen
data_La7(Ru4O11)2
_symmetry_space_group_name_H-M   'P 1'
_cell_length_a   23.99384643
_cell_length_b   16.83524951
_cell_length_c   15.43004756
_cell_angle_alpha   89.99753694
_cell_angle_beta   89.99999127
_cell_angle_gamma   90.00451820
_symmetry_Int_Tables_number   1
_chemical_formula_structural   La7(Ru4O11)2
_chemical_formula_sum   'La84 Ru96 O264'
_cell_volume   6232.85028365
_cell_formula_units_Z   12
loop_
 _symmetry_equiv_pos_site_id
 _symmetry_equiv_pos_as_xyz
  1  'x, y, z'
loop_
 _atom_type_symbol
 _atom_type_oxidation_number
  La3+  3.0
  Ru4+  4.0
  O2-  -2.0
loop_
 _atom_site_type_symbol
 _atom_site_label
 _atom_site_symmetry_multiplicity
 _atom_site_fract_x
 _atom_site_fract_y
 _atom_site_fract_z
 _atom_site_occupancy
  La3+  La0  1  0.13699054  0.00147747  0.12657686  1
  La3+  La1  1  0.14061532  0.00172967  0.37740600  1
  La3+  La2  1  0.13908524  -0.00255954  0.62196751  1
  La3+  La3  1  0.14093070  -0.00253998  0.87070179  1
  La3+  La4  1  0.13894910  0.32840241  0.12973145  1
  La3+  La5  1  0.14284213  0.33064528  0.37686926  1
  La3+  La6  1  0.14546360  0.32239094  0.63268415  1
  La3+  La7  1  0.14092939  0.32269501  0.87025925  1
  La3+  La8  1  0.13027036  0.66715432  0.11871478  1
  La3+  La9  1  0.15004579  0.66511211  0.37671223  1
  La3+  La10  1  0.14469078  0.67300327  0.62895101  1
  La3+  La11  1  0.14552076  0.67648565  0.86226015  1
  La3+  La12  1  0.63819771  -0.00470663  0.12936069  1
  La3+  La13  1  0.64288996  -0.00379665  0.37681567  1
  La3+  La14  1  0.63936673  -0.00441683  0.62289286  1
  La3+  La15  1  0.63730145  -0.00006075  0.87223894  1
  La3+  La16  1  0.63209871  0.33038124  0.12323648  1
  La3+  La17  1  0.63085418  0.33411406  0.37519122  1
  La3+  La18  1  0.63521619  0.33497566  0.62131464  1
  La3+  La19  1  0.63497583  0.33071025  0.87790283  1
  La3+  La20  1  0.64579844  0.66822183  0.12306038  1
  La3+  La21  1  0.62833907  0.66872875  0.37736844  1
  La3+  La22  1  0.64256571  0.66778022  0.62163053  1
  La3+  La23  1  0.64123026  0.66541078  0.87982740  1
  La3+  La24  1  0.35828451  0.00456723  0.12911684  1
  La3+  La25  1  0.35959938  0.00047136  0.37872759  1
  La3+  La26  1  0.36104933  0.00022201  0.62261481  1
  La3+  La27  1  0.36308090  -0.00261205  0.87097885  1
  La3+  La28  1  0.36158333  0.32953327  0.12970658  1
  La3+  La29  1  0.36657341  0.34173972  0.38036301  1
  La3+  La30  1  0.37246857  0.34424818  0.60825506  1
  La3+  La31  1  0.36408769  0.32957499  0.86913698  1
  La3+  La32  1  0.36741976  0.66851441  0.12441565  1
  La3+  La33  1  0.35251258  0.66956161  0.37681383  1
  La3+  La34  1  0.36385776  0.67177786  0.62638359  1
  La3+  La35  1  0.36073958  0.67284410  0.87225546  1
  La3+  La36  1  0.86244802  -0.00161085  0.12357483  1
  La3+  La37  1  0.85269497  -0.00222978  0.37791893  1
  La3+  La38  1  0.85735740  0.00334037  0.62594737  1
  La3+  La39  1  0.86026297  0.00193775  0.87205623  1
  La3+  La40  1  0.86861707  0.33057640  0.12323508  1
  La3+  La41  1  0.86355129  0.33186607  0.37288230  1
  La3+  La42  1  0.86355651  0.33507355  0.62737185  1
  La3+  La43  1  0.86608922  0.33150856  0.87579482  1
  La3+  La44  1  0.85147298  0.66549543  0.12196402  1
  La3+  La45  1  0.86715172  0.67206869  0.37752587  1
  La3+  La46  1  0.85741648  0.66905457  0.61879980  1
  La3+  La47  1  0.85851954  0.66320455  0.88227404  1
  La3+  La48  1  0.50250756  0.84003507  0.38310890  1
  La3+  La49  1  0.49600525  0.48685621  0.38415215  1
  La3+  La50  1  -0.00434700  0.50174815  0.61793206  1
  La3+  La51  1  0.50392189  0.82175749  0.87256974  1
  La3+  La52  1  -0.00056167  0.83490787  0.13270801  1
  La3+  La53  1  0.49836996  0.83466295  0.62842954  1
  La3+  La54  1  0.49732897  0.16395496  0.13488310  1
  La3+  La55  1  0.49608721  0.83401955  0.12710962  1
  La3+  La56  1  0.49602944  0.16815374  0.88219500  1
  La3+  La57  1  0.49991305  0.49552788  0.60446331  1
  La3+  La58  1  0.00124804  0.50446104  0.35709155  1
  La3+  La59  1  -0.00942371  0.84439785  0.62222359  1
  La3+  La60  1  0.50432993  0.16838696  0.61541739  1
  La3+  La61  1  0.49917689  0.49651599  0.12248157  1
  La3+  La62  1  0.00290848  0.49543292  0.88186699  1
  La3+  La63  1  0.00297938  0.17416950  0.87287778  1
  La3+  La64  1  0.50065451  0.49255212  0.62126894  1
  La3+  La65  1  0.00200982  0.16660232  0.62754421  1
  La3+  La66  1  0.50301665  0.49061044  0.87641274  1
  La3+  La67  1  -0.00090277  0.83353752  0.89770638  1
  La3+  La68  1  0.00481621  0.17162042  0.60770002  1
  La3+  La69  1  -0.00166243  0.84710618  0.64082048  1
  La3+  La70  1  0.00282184  0.82689884  0.87726842  1
  La3+  La71  1  0.01294704  0.83661475  0.38443831  1
  La3+  La72  1  0.74943125  0.53987806  0.23383769  1
  La3+  La73  1  0.25135682  0.50061232  -0.07133755  1
  La3+  La74  1  0.74944962  0.15745046  -0.01074255  1
  La3+  La75  1  0.74935063  0.56763233  0.47924769  1
  La3+  La76  1  0.74930457  0.11531981  0.53192015  1
  La3+  La77  1  0.24869200  0.88952630  0.26643103  1
  La3+  La78  1  0.25171830  0.55703093  0.51702137  1
  La3+  La79  1  0.75005243  0.88357280  0.72256980  1
  La3+  La80  1  0.74780530  0.44198887  0.75208424  1
  La3+  La81  1  0.74976416  0.82430214  -0.03545574  1
  La3+  La82  1  0.25127722  0.85675303  0.03203346  1
  La3+  La83  1  0.24977589  0.12304342  0.01001022  1
  Ru4+  Ru84  1  -0.00629073  0.00491014  -0.00134926  1
  Ru4+  Ru85  1  -0.00270202  0.00323165  0.25476057  1
  Ru4+  Ru86  1  0.00731260  -0.00439399  0.49844909  1
  Ru4+  Ru87  1  0.00443057  0.00710711  0.75206985  1
  Ru4+  Ru88  1  0.00512590  0.34059697  -0.00110759  1
  Ru4+  Ru89  1  0.00316852  0.33302316  0.27111963  1
  Ru4+  Ru90  1  0.00385159  0.33932234  0.48894592  1
  Ru4+  Ru91  1  -0.00382183  0.34251414  0.74855490  1
  Ru4+  Ru92  1  0.00011823  0.65165455  0.00279902  1
  Ru4+  Ru93  1  -0.00740021  0.67720557  0.24915102  1
  Ru4+  Ru94  1  0.00243605  0.66804430  0.50638918  1
  Ru4+  Ru95  1  0.00300829  0.65817039  0.74660143  1
  Ru4+  Ru96  1  0.50210246  0.00066137  -0.00215018  1
  Ru4+  Ru97  1  0.50246215  0.00818211  0.25784748  1
  Ru4+  Ru98  1  0.50676774  0.00599194  0.50310489  1
  Ru4+  Ru99  1  0.49030324  -0.00862278  0.75259071  1
  Ru4+  Ru100  1  0.49675645  0.33585912  -0.00657628  1
  Ru4+  Ru101  1  0.50457122  0.33002166  0.25454250  1
  Ru4+  Ru102  1  0.49304730  0.32466023  0.49909886  1
  Ru4+  Ru103  1  0.50338352  0.32964610  0.76153333  1
  Ru4+  Ru104  1  0.50564517  0.66233710  0.00844368  1
  Ru4+  Ru105  1  0.50040234  0.66904073  0.25073284  1
  Ru4+  Ru106  1  0.49406592  0.66996611  0.49797793  1
  Ru4+  Ru107  1  0.50080329  0.67049671  0.74383409  1
  Ru4+  Ru108  1  0.10967657  0.16752946  0.00074190  1
  Ru4+  Ru109  1  0.11064104  0.17342232  0.25245738  1
  Ru4+  Ru110  1  0.11689270  0.16803495  0.49078555  1
  Ru4+  Ru111  1  0.11751205  0.16052196  0.75717362  1
  Ru4+  Ru112  1  0.10797150  0.50950605  -0.00139687  1
  Ru4+  Ru113  1  0.11383226  0.50213843  0.25054728  1
  Ru4+  Ru114  1  0.10557859  0.50190622  0.50675183  1
  Ru4+  Ru115  1  0.11098219  0.49455993  0.75416858  1
  Ru4+  Ru116  1  0.11664712  0.83940801  0.00318127  1
  Ru4+  Ru117  1  0.10956847  0.82918807  0.24953048  1
  Ru4+  Ru118  1  0.11703704  0.82716823  0.49149117  1
  Ru4+  Ru119  1  0.11647823  0.83263399  0.75042629  1
  Ru4+  Ru120  1  0.61011414  0.15364747  -0.00172597  1
  Ru4+  Ru121  1  0.61023316  0.16482748  0.25461973  1
  Ru4+  Ru122  1  0.60919555  0.16746203  0.49763364  1
  Ru4+  Ru123  1  0.61060822  0.16886691  0.74824233  1
  Ru4+  Ru124  1  0.61102069  0.50202336  0.00051600  1
  Ru4+  Ru125  1  0.60721611  0.49473334  0.24448996  1
  Ru4+  Ru126  1  0.61942223  0.49990883  0.50123904  1
  Ru4+  Ru127  1  0.60720283  0.49817074  0.75056665  1
  Ru4+  Ru128  1  0.61111684  0.83757167  0.00254097  1
  Ru4+  Ru129  1  0.61388982  0.83693565  0.24770749  1
  Ru4+  Ru130  1  0.61826221  0.82853770  0.50049655  1
  Ru4+  Ru131  1  0.60980305  0.83280949  0.75631941  1
  Ru4+  Ru132  1  0.39197613  0.16872521  0.00216751  1
  Ru4+  Ru133  1  0.38744632  0.16829721  0.25025994  1
  Ru4+  Ru134  1  0.38685478  0.17634038  0.49876761  1
  Ru4+  Ru135  1  0.38611289  0.17120838  0.75079162  1
  Ru4+  Ru136  1  0.38975734  0.49969857  -0.00038761  1
  Ru4+  Ru137  1  0.38440428  0.50743536  0.25560453  1
  Ru4+  Ru138  1  0.38940365  0.50346776  0.50059201  1
  Ru4+  Ru139  1  0.38790703  0.50125272  0.74523945  1
  Ru4+  Ru140  1  0.39161119  0.84231084  0.00163694  1
  Ru4+  Ru141  1  0.39136403  0.83413435  0.25358752  1
  Ru4+  Ru142  1  0.38304970  0.83122219  0.49962931  1
  Ru4+  Ru143  1  0.38710834  0.84253924  0.74479643  1
  Ru4+  Ru144  1  0.88999060  0.15862197  -0.00061683  1
  Ru4+  Ru145  1  0.88890771  0.16289807  0.24910892  1
  Ru4+  Ru146  1  0.88721040  0.17274153  0.49430596  1
  Ru4+  Ru147  1  0.88580658  0.16780952  0.75325896  1
  Ru4+  Ru148  1  0.88594958  0.50341368  0.00037995  1
  Ru4+  Ru149  1  0.89242672  0.50027113  0.24989748  1
  Ru4+  Ru150  1  0.89158445  0.50358537  0.49748710  1
  Ru4+  Ru151  1  0.88821183  0.50053825  0.75359842  1
  Ru4+  Ru152  1  0.88421036  0.83507567  0.00198853  1
  Ru4+  Ru153  1  0.88761287  0.83268409  0.24772287  1
  Ru4+  Ru154  1  0.88232467  0.83250577  0.49417643  1
  Ru4+  Ru155  1  0.88826678  0.83799373  0.75367246  1
  Ru4+  Ru156  1  0.25094508  0.60122095  0.04170319  1
  Ru4+  Ru157  1  0.75040607  0.74078409  0.77567719  1
  Ru4+  Ru158  1  0.75177061  0.40571703  0.47615873  1
  Ru4+  Ru159  1  0.74932178  0.28971549  0.04720738  1
  Ru4+  Ru160  1  0.75048287  0.38809389  0.25247151  1
  Ru4+  Ru161  1  0.24945597  0.09913524  0.24152585  1
  Ru4+  Ru162  1  0.24946838  0.38809511  0.02008088  1
  Ru4+  Ru163  1  0.25154096  0.98477876  -0.01634617  1
  Ru4+  Ru164  1  0.24983064  0.25744574  -0.02424271  1
  Ru4+  Ru165  1  0.74971242  0.23308231  0.74754317  1
  Ru4+  Ru166  1  0.75012669  0.08934605  0.25220090  1
  Ru4+  Ru167  1  0.74948741  0.59781626  0.76700621  1
  Ru4+  Ru168  1  0.74982023  0.42936940  0.01375416  1
  Ru4+  Ru169  1  0.74931346  0.25714372  0.46833637  1
  Ru4+  Ru170  1  0.25242708  0.09513650  0.76408952  1
  Ru4+  Ru171  1  0.74976913  0.24320875  0.25703422  1
  Ru4+  Ru172  1  0.25030669  0.73626439  0.25064592  1
  Ru4+  Ru173  1  0.25113114  0.10100992  0.49745211  1
  Ru4+  Ru174  1  0.75093431  0.00920919  -0.00036839  1
  Ru4+  Ru175  1  0.24815853  0.40128362  0.50746958  1
  Ru4+  Ru176  1  0.25063032  0.73106766  -0.02419835  1
  Ru4+  Ru177  1  0.74892769  0.75753693  0.25499043  1
  Ru4+  Ru178  1  0.25120604  0.41555223  0.72863510  1
  Ru4+  Ru179  1  0.25020121  0.41209385  0.24345079  1
  O2-  O180  1  0.15693142  0.07683737  -0.00119617  1
  O2-  O181  1  0.16969298  0.08395038  0.25024649  1
  O2-  O182  1  0.16913036  0.08001399  0.50067811  1
  O2-  O183  1  0.17339466  0.07994879  0.75219614  1
  O2-  O184  1  0.16356692  0.41256951  -0.00039565  1
  O2-  O185  1  0.16337823  0.41256112  0.24698128  1
  O2-  O186  1  0.16655854  0.41940928  0.49746540  1
  O2-  O187  1  0.16931813  0.41279562  0.74811957  1
  O2-  O188  1  0.16585336  0.74542100  0.00079357  1
  O2-  O189  1  0.16458378  0.74575600  0.24494732  1
  O2-  O190  1  0.16900753  0.75036657  0.50730088  1
  O2-  O191  1  0.16965215  0.75396147  0.74617750  1
  O2-  O192  1  0.67078349  0.07510905  0.00090174  1
  O2-  O193  1  0.66814798  0.08222987  0.24924839  1
  O2-  O194  1  0.66044343  0.07817961  0.50228351  1
  O2-  O195  1  0.66068951  0.08362085  0.75222510  1
  O2-  O196  1  0.66688202  0.41610520  0.00346059  1
  O2-  O197  1  0.67060449  0.41098055  0.24751456  1
  O2-  O198  1  0.66869033  0.41280553  0.49345733  1
  O2-  O199  1  0.65459621  0.40771999  0.74846918  1
  O2-  O200  1  0.66709239  0.74711485  -0.00061671  1
  O2-  O201  1  0.66307325  0.74578993  0.25416476  1
  O2-  O202  1  0.66449644  0.74511312  0.49519602  1
  O2-  O203  1  0.66677602  0.74979155  0.74933501  1
  O2-  O204  1  0.33158759  0.25177743  -0.00327187  1
  O2-  O205  1  0.33879942  0.25121636  0.24954251  1
  O2-  O206  1  0.33761196  0.25548439  0.50139603  1
  O2-  O207  1  0.33767702  0.25419054  0.74677151  1
  O2-  O208  1  0.33450664  0.58730305  0.00234931  1
  O2-  O209  1  0.33662711  0.58760528  0.24646849  1
  O2-  O210  1  0.34344405  0.59495389  0.50373776  1
  O2-  O211  1  0.34038968  0.58598930  0.74674461  1
  O2-  O212  1  0.33538555  0.92408913  -0.00171563  1
  O2-  O213  1  0.33996952  0.92442622  0.24951347  1
  O2-  O214  1  0.33537394  0.92153963  0.50238484  1
  O2-  O215  1  0.33032931  0.92093984  0.74479881  1
  O2-  O216  1  0.83439660  0.25259177  0.00450898  1
  O2-  O217  1  0.83567749  0.25097503  0.24907939  1
  O2-  O218  1  0.83234266  0.25200279  0.49642091  1
  O2-  O219  1  0.83149725  0.24925912  0.75132034  1
  O2-  O220  1  0.83362030  0.58414793  -0.00031050  1
  O2-  O221  1  0.83999424  0.58725955  0.25580863  1
  O2-  O222  1  0.83759281  0.59101556  0.49814846  1
  O2-  O223  1  0.83463358  0.58916921  0.75543636  1
  O2-  O224  1  0.82382577  0.92322103  -0.00469111  1
  O2-  O225  1  0.83930412  0.91789275  0.24809625  1
  O2-  O226  1  0.83457775  0.91930709  0.50137001  1
  O2-  O227  1  0.83648375  0.92263934  0.75364393  1
  O2-  O228  1  0.16511999  0.25124455  0.00137114  1
  O2-  O229  1  0.16744691  0.24862931  0.24692341  1
  O2-  O230  1  0.16315934  0.25162977  0.49887361  1
  O2-  O231  1  0.16730545  0.24703254  0.75474463  1
  O2-  O232  1  0.17263196  0.58378858  0.00897249  1
  O2-  O233  1  0.16108964  0.58456583  0.24362996  1
  O2-  O234  1  0.16278998  0.58408713  0.49719910  1
  O2-  O235  1  0.16091958  0.57976115  0.74680333  1
  O2-  O236  1  0.16822878  0.92555336  -0.00038697  1
  O2-  O237  1  0.15738622  0.92725389  0.24994611  1
  O2-  O238  1  0.16739780  0.91552516  0.49885364  1
  O2-  O239  1  0.16488706  0.92184955  0.74811983  1
  O2-  O240  1  0.66370431  0.24896668  0.00067139  1
  O2-  O241  1  0.66644263  0.25210616  0.25126040  1
  O2-  O242  1  0.66569670  0.25115732  0.49991225  1
  O2-  O243  1  0.66795976  0.24941221  0.74811695  1
  O2-  O244  1  0.66045082  0.58652648  0.00128374  1
  O2-  O245  1  0.65711966  0.58729457  0.25566198  1
  O2-  O246  1  0.65804122  0.59525121  0.49949984  1
  O2-  O247  1  0.66305277  0.58900804  0.75278729  1
  O2-  O248  1  0.66952444  0.91993854  -0.00310846  1
  O2-  O249  1  0.66560129  0.91798083  0.25123634  1
  O2-  O250  1  0.66632698  0.91676882  0.50232666  1
  O2-  O251  1  0.66308047  0.92006679  0.75076395  1
  O2-  O252  1  0.34381011  0.07843442  -0.00364628  1
  O2-  O253  1  0.33193601  0.08348979  0.25292020  1
  O2-  O254  1  0.33436494  0.08295520  0.50078131  1
  O2-  O255  1  0.33272546  0.08187387  0.74984878  1
  O2-  O256  1  0.33423238  0.41136732  -0.00018456  1
  O2-  O257  1  0.33530128  0.41262339  0.24878418  1
  O2-  O258  1  0.33006811  0.41550911  0.50257294  1
  O2-  O259  1  0.33175553  0.41024705  0.74463191  1
  O2-  O260  1  0.33729975  0.74964726  0.00058253  1
  O2-  O261  1  0.33691338  0.74657701  0.24695459  1
  O2-  O262  1  0.33195013  0.74913289  0.50499822  1
  O2-  O263  1  0.34126133  0.75110618  0.74752526  1
  O2-  O264  1  0.82630944  0.07917949  0.00359410  1
  O2-  O265  1  0.83014964  0.08070473  0.25036725  1
  O2-  O266  1  0.83735924  0.08035873  0.49982868  1
  O2-  O267  1  0.83139139  0.08597961  0.75597590  1
  O2-  O268  1  0.83596869  0.41354223  0.00651251  1
  O2-  O269  1  0.83286897  0.41124954  0.24658400  1
  O2-  O270  1  0.83806041  0.41436115  0.49375657  1
  O2-  O271  1  0.83850175  0.40915002  0.75331940  1
  O2-  O272  1  0.83175624  0.74753007  -0.00295784  1
  O2-  O273  1  0.83300831  0.74743652  0.25236065  1
  O2-  O274  1  0.82978134  0.75011107  0.49619097  1
  O2-  O275  1  0.83373528  0.74700865  0.75415193  1
  O2-  O276  1  0.03849162  0.55010906  1.02603894  1
  O2-  O277  1  0.45772582  0.57284339  0.98524138  1
  O2-  O278  1  0.05192229  0.75801326  0.98553593  1
  O2-  O279  1  0.04218395  0.43479701  0.71081706  1
  O2-  O280  1  0.55273502  0.42962184  0.48889641  1
  O2-  O281  1  0.54303991  0.24038937  0.02036456  1
  O2-  O282  1  0.03499493  0.54437033  0.03382049  1
  O2-  O283  1  0.04572434  0.90216046  0.25589401  1
  O2-  O284  1  0.54170876  0.57179500  0.48883214  1
  O2-  O285  1  0.44081040  0.41927452  0.52456056  1
  O2-  O286  1  0.05121075  0.57085459  0.76599731  1
  O2-  O287  1  0.44976108  0.08457084  0.51636522  1
  O2-  O288  1  0.54708048  0.23572250  0.23839527  1
  O2-  O289  1  0.04754234  0.23035507  0.73540233  1
  O2-  O290  1  0.03668378  0.43972358  0.47136473  1
  O2-  O291  1  0.03190157  0.44408150  0.48671978  1
  O2-  O292  1  0.96165134  0.79290920  0.27939913  1
  O2-  O293  1  0.45146435  0.09737666  0.26401646  1
  O2-  O294  1  0.04886845  0.76498865  0.02364767  1
  O2-  O295  1  0.94640418  0.09721656  0.52571176  1
  O2-  O296  1  0.04225219  0.77342410  0.53485469  1
  O2-  O297  1  0.54808982  0.23721479  0.24803452  1
  O2-  O298  1  0.04095705  0.11108811  0.27792425  1
  O2-  O299  1  0.94718298  0.57352026  0.75363476  1
  O2-  O300  1  0.45155408  0.89947182  0.48765676  1
  O2-  O301  1  0.45219613  0.42829927  0.99604541  1
  O2-  O302  1  0.55438833  0.23399804  0.98582174  1
  O2-  O303  1  0.95296104  0.42521825  0.25001766  1
  O2-  O304  1  0.94966054  0.75767595  0.01058040  1
  O2-  O305  1  0.54325011  0.22858776  0.49418608  1
  O2-  O306  1  0.94184731  0.57730152  0.97594808  1
  O2-  O307  1  0.98493284  0.11573967  1.00843899  1
  O2-  O308  1  0.45138172  0.43580734  0.26290828  1
  O2-  O309  1  0.44443032  0.75509218  0.98983621  1
  O2-  O310  1  0.45124852  0.43226707  0.50619557  1
  O2-  O311  1  0.54692271  0.76380086  0.01848555  1
  O2-  O312  1  0.55317973  0.57371643  0.52376975  1
  O2-  O313  1  0.95010524  0.24075738  0.50153832  1
  O2-  O314  1  0.46756917  0.89149582  0.97045930  1
  O2-  O315  1  0.02478907  0.56840255  0.48073711  1
  O2-  O316  1  0.95200939  0.90503022  0.47792429  1
  O2-  O317  1  0.55136182  0.89763931  0.51425281  1
  O2-  O318  1  0.95258741  0.76158421  0.74880985  1
  O2-  O319  1  0.54196436  0.56620481  0.75772850  1
  O2-  O320  1  0.95547071  0.25048172  0.01762420  1
  O2-  O321  1  0.94379502  0.24098810  0.98430903  1
  O2-  O322  1  0.44997506  0.10217084  0.48185040  1
  O2-  O323  1  0.96473883  0.09892608  0.49888526  1
  O2-  O324  1  0.55592793  0.92146550  0.21084830  1
  O2-  O325  1  0.56400709  0.07300479  0.92602118  1
  O2-  O326  1  0.93197389  0.70488272  0.17840427  1
  O2-  O327  1  0.56182155  0.40733826  0.02621724  1
  O2-  O328  1  0.08750064  0.61529431  0.94582032  1
  O2-  O329  1  0.07801681  0.36083234  0.56484205  1
  O2-  O330  1  0.93400535  0.74295208  0.52058977  1
  O2-  O331  1  0.06507493  0.07807502  0.52188231  1
  O2-  O332  1  0.07369756  0.39344787  0.82710169  1
  O2-  O333  1  0.56635004  0.23989520  0.82326502  1
  O2-  O334  1  0.06599235  0.91716444  0.51752845  1
  O2-  O335  1  0.43962642  0.41273413  0.76614141  1
  O2-  O336  1  0.06421139  0.73890061  0.71763804  1
  O2-  O337  1  0.43507278  0.91110463  0.81698681  1
  O2-  O338  1  0.43735437  0.92750555  0.66783780  1
  O2-  O339  1  0.56370297  0.73536948  0.78482413  1
  O2-  O340  1  0.42751238  0.40037981  0.46863797  1
  O2-  O341  1  0.07546542  0.09190096  0.68394242  1
  O2-  O342  1  0.44249482  0.92644076  0.28354909  1
  O2-  O343  1  0.92821372  0.57618981  0.42306555  1
  O2-  O344  1  0.93659161  0.07874366  0.73263175  1
  O2-  O345  1  0.43548727  0.95514461  0.07424927  1
  O2-  O346  1  0.55966741  0.92523567  0.78709920  1
  O2-  O347  1  0.56638742  0.07216607  0.27053111  1
  O2-  O348  1  0.91683806  0.05156420  0.96558025  1
  O2-  O349  1  0.56286895  0.92918430  0.52105802  1
  O2-  O350  1  0.92746702  0.24428239  0.67673443  1
  O2-  O351  1  0.06266506  0.06886401  0.82973545  1
  O2-  O352  1  0.43796093  0.73598294  0.95792653  1
  O2-  O353  1  0.07674623  0.61914334  0.56458768  1
  O2-  O354  1  0.55866743  0.40327087  0.17944486  1
  O2-  O355  1  0.56789800  0.24640870  0.67717967  1
  O2-  O356  1  0.57164651  0.42947222  0.32335179  1
  O2-  O357  1  0.07306582  0.72440116  0.41714921  1
  O2-  O358  1  0.43931301  0.40647197  0.27606900  1
  O2-  O359  1  0.93281252  0.40809763  0.72558389  1
  O2-  O360  1  0.93145264  0.24501810  0.82203007  1
  O2-  O361  1  0.55784889  0.06635002  0.07752793  1
  O2-  O362  1  0.56801745  0.40135162  0.48407169  1
  O2-  O363  1  0.43812589  0.26398078  0.03759266  1
  O2-  O364  1  0.06266512  0.92637342  0.01640915  1
  O2-  O365  1  0.93729756  0.91559159  0.02649995  1
  O2-  O366  1  0.05537305  0.25240473  0.70661943  1
  O2-  O367  1  0.43884671  0.74558161  0.52361462  1
  O2-  O368  1  0.07422221  0.07048933  0.21627976  1
  O2-  O369  1  0.06352565  0.26138485  0.25841054  1
  O2-  O370  1  0.93431910  0.07691900  0.23354200  1
  O2-  O371  1  0.92645802  0.58254720  0.57070081  1
  O2-  O372  1  0.74867683  -0.00441002  0.64421071  1
  O2-  O373  1  0.74902735  0.32309690  0.68161574  1
  O2-  O374  1  0.74875706  0.68029543  0.67724708  1
  O2-  O375  1  0.75048713  0.00634745  0.42005638  1
  O2-  O376  1  0.25152955  0.33459345  0.60889788  1
  O2-  O377  1  0.74934206  0.67000835  0.55926030  1
  O2-  O378  1  0.75033585  0.32477483  0.56221039  1
  O2-  O379  1  0.25111045  0.66582809  0.42288330  1
  O2-  O380  1  0.25022259  -0.00132093  0.41976478  1
  O2-  O381  1  0.25005018  0.32988175  0.12850567  1
  O2-  O382  1  0.75092903  0.34383104  0.93549496  1
  O2-  O383  1  0.24916958  0.67411454  0.13398239  1
  O2-  O384  1  0.25137730  0.64253811  0.89398429  1
  O2-  O385  1  0.74929816  0.31610393  0.81883365  1
  O2-  O386  1  0.25017986  0.66842672  0.80698458  1
  O2-  O387  1  0.25042198  0.01320372  0.86170061  1
  O2-  O388  1  0.24913505  -0.00217064  0.11834437  1
  O2-  O389  1  0.24968401  0.32948911  0.32627710  1
  O2-  O390  1  0.25163890  0.64923685  0.33193982  1
  O2-  O391  1  0.25158614  0.32110054  0.41856843  1
  O2-  O392  1  0.74984466  0.67715169  0.88719599  1
  O2-  O393  1  0.74831511  0.66916174  0.15930763  1
  O2-  O394  1  0.25053052  0.01355731  0.32906401  1
  O2-  O395  1  0.75048294  0.00026274  0.32773544  1
  O2-  O396  1  0.24961380  0.81879076  0.89010930  1
  O2-  O397  1  0.74977579  0.83065501  0.10040595  1
  O2-  O398  1  0.24989292  0.50495200  0.31433543  1
  O2-  O399  1  0.74986615  0.17701914  0.37945308  1
  O2-  O400  1  0.25028680  0.80572480  0.36667303  1
  O2-  O401  1  0.25067737  0.16440655  0.14813875  1
  O2-  O402  1  0.25034245  0.50237678  0.79754052  1
  O2-  O403  1  0.25020997  0.15939298  0.40491380  1
  O2-  O404  1  0.74975221  0.84538048  0.18616011  1
  O2-  O405  1  0.24998066  0.50806077  0.18155163  1
  O2-  O406  1  0.25033311  0.80700770  0.15551281  1
  O2-  O407  1  0.74987625  0.82130859  0.34365544  1
  O2-  O408  1  0.24945747  0.47984190  0.40080633  1
  O2-  O409  1  0.75064724  0.46940621  0.36694316  1
  O2-  O410  1  0.75078954  0.46282593  0.57680163  1
  O2-  O411  1  0.25007092  0.15294337  0.59731982  1
  O2-  O412  1  0.25001501  0.49352629  0.09130029  1
  O2-  O413  1  0.25013659  0.48296445  0.63417439  1
  O2-  O414  1  0.75028643  0.49828937  0.10374418  1
  O2-  O415  1  0.75084143  0.54493791  0.66129894  1
  O2-  O416  1  0.25048606  0.17953259  0.86675618  1
  O2-  O417  1  0.75020519  0.16844399  0.15191286  1
  O2-  O418  1  0.74974149  0.52482911  0.86114217  1
  O2-  O419  1  0.74998448  0.52022094  0.95007446  1
  O2-  O420  1  0.94991946  -0.01673229  0.61516998  1
  O2-  O421  1  0.47330308  0.02362798  0.87890128  1
  O2-  O422  1  0.45876539  0.30346734  0.37649701  1
  O2-  O423  1  0.47310832  0.66700985  0.13180359  1
  O2-  O424  1  0.98358597  0.67391108  0.62916546  1
  O2-  O425  1  0.96924974  -0.00166960  0.12871565  1
  O2-  O426  1  0.51987726  0.35248261  0.62181284  1
  O2-  O427  1  0.95251872  0.33696975  0.38083715  1
  O2-  O428  1  0.47254657  0.65278732  0.62877661  1
  O2-  O429  1  0.54217117  0.36561689  0.88067991  1
  O2-  O430  1  0.97715014  0.35349722  0.88575754  1
  O2-  O431  1  0.97948566  0.67258683  0.36578938  1
  O2-  O432  1  0.97785348  0.34526932  0.60788458  1
  O2-  O433  1  0.45550590  0.30692061  0.87364189  1
  O2-  O434  1  0.52754293  -0.01645157  0.38346022  1
  O2-  O435  1  0.53219182  0.32912010  0.37831947  1
  O2-  O436  1  0.01507799  0.68457528  0.86797062  1
  O2-  O437  1  0.52533400  0.67636536  0.37357178  1
  O2-  O438  1  0.04477728  0.33267108  0.37259194  1
  O2-  O439  1  0.02724159  -0.00245216  0.12328205  1
  O2-  O440  1  0.02684911  -0.00404103  0.37580640  1
  O2-  O441  1  0.03792011  -0.02220694  0.64004564  1
  O2-  O442  1  0.97638283  -0.01796961  0.86889619  1
  O2-  O443  1  0.52689144  0.01301614  0.63597487  1
