# generated using pymatgen
data_La7(Ru4O11)2
_symmetry_space_group_name_H-M   'P 1'
_cell_length_a   23.98962846
_cell_length_b   16.83008157
_cell_length_c   15.42702270
_cell_angle_alpha   90.00140768
_cell_angle_beta   89.99940882
_cell_angle_gamma   89.99875804
_symmetry_Int_Tables_number   1
_chemical_formula_structural   La7(Ru4O11)2
_chemical_formula_sum   'La84 Ru96 O264'
_cell_volume   6228.62035943
_cell_formula_units_Z   12
loop_
 _symmetry_equiv_pos_site_id
 _symmetry_equiv_pos_as_xyz
  1  'x, y, z'
loop_
 _atom_type_symbol
 _atom_type_oxidation_number
  La3+  3.0
  Ru4+  4.0
  O2-  -2.0
loop_
 _atom_site_type_symbol
 _atom_site_label
 _atom_site_symmetry_multiplicity
 _atom_site_fract_x
 _atom_site_fract_y
 _atom_site_fract_z
 _atom_site_occupancy
  La3+  La0  1  0.13480831  -0.00271581  0.12723903  1
  La3+  La1  1  0.13653781  -0.00267854  0.37284114  1
  La3+  La2  1  0.14010531  -0.00083536  0.62852991  1
  La3+  La3  1  0.14209544  -0.00171476  0.86961801  1
  La3+  La4  1  0.13402718  0.33950084  0.12855095  1
  La3+  La5  1  0.13030185  0.33978221  0.36795999  1
  La3+  La6  1  0.13335356  0.33817864  0.63232202  1
  La3+  La7  1  0.13454583  0.33847522  0.86973109  1
  La3+  La8  1  0.14298725  0.66925296  0.12518561  1
  La3+  La9  1  0.13820351  0.66939067  0.37582488  1
  La3+  La10  1  0.13799663  0.67327679  0.63280675  1
  La3+  La11  1  0.13549018  0.67221650  0.86649442  1
  La3+  La12  1  0.63908761  0.00244863  0.12716456  1
  La3+  La13  1  0.63961825  0.00100213  0.37343478  1
  La3+  La14  1  0.63948125  -0.00219011  0.62668751  1
  La3+  La15  1  0.63894156  -0.00278884  0.87439946  1
  La3+  La16  1  0.63705983  0.33801015  0.12563152  1
  La3+  La17  1  0.63845571  0.33332492  0.37679292  1
  La3+  La18  1  0.64167187  0.33515315  0.62399577  1
  La3+  La19  1  0.63581285  0.33435932  0.87670063  1
  La3+  La20  1  0.64009478  0.66263411  0.12463470  1
  La3+  La21  1  0.63835674  0.66465608  0.37405952  1
  La3+  La22  1  0.64086473  0.66591176  0.62541611  1
  La3+  La23  1  0.63943028  0.66403173  0.87438139  1
  La3+  La24  1  0.36204822  0.00063579  0.12429301  1
  La3+  La25  1  0.36237123  0.00003409  0.37472461  1
  La3+  La26  1  0.36016384  -0.00032806  0.62711938  1
  La3+  La27  1  0.35720690  -0.00148965  0.87088082  1
  La3+  La28  1  0.36280354  0.33542087  0.12261438  1
  La3+  La29  1  0.36530118  0.33142854  0.37563867  1
  La3+  La30  1  0.36122340  0.33189031  0.62693733  1
  La3+  La31  1  0.36258868  0.33423067  0.87414371  1
  La3+  La32  1  0.35655588  0.66877532  0.12487694  1
  La3+  La33  1  0.36282042  0.66913532  0.37631209  1
  La3+  La34  1  0.35827584  0.66847770  0.62652526  1
  La3+  La35  1  0.35766387  0.66732673  0.87351821  1
  La3+  La36  1  0.85982780  0.00162889  0.12892296  1
  La3+  La37  1  0.86133432  0.00058601  0.37363504  1
  La3+  La38  1  0.86400995  -0.00015453  0.62612311  1
  La3+  La39  1  0.86167460  -0.00234643  0.87594905  1
  La3+  La40  1  0.85988205  0.33616673  0.12847993  1
  La3+  La41  1  0.86587645  0.33485687  0.37217973  1
  La3+  La42  1  0.86246995  0.33870875  0.62599308  1
  La3+  La43  1  0.86645766  0.33978362  0.86933424  1
  La3+  La44  1  0.86212059  0.66211208  0.12170345  1
  La3+  La45  1  0.86090482  0.66547700  0.37335373  1
  La3+  La46  1  0.86151838  0.66286641  0.62978545  1
  La3+  La47  1  0.86100434  0.66188322  0.87574786  1
  La3+  La48  1  0.49925971  0.83083882  0.61794072  1
  La3+  La49  1  0.49740504  0.17237111  0.87402628  1
  La3+  La50  1  0.00028731  0.49787319  0.12446932  1
  La3+  La51  1  0.49945943  0.49873602  0.87942624  1
  La3+  La52  1  0.00050210  0.83243178  0.63119278  1
  La3+  La53  1  0.00389016  0.49516252  0.35784035  1
  La3+  La54  1  0.50077110  0.49887942  0.61682078  1
  La3+  La55  1  0.49980745  0.84035991  0.11965750  1
  La3+  La56  1  -0.00001939  0.16531859  0.38653538  1
  La3+  La57  1  0.00292218  0.82625305  0.88015684  1
  La3+  La58  1  -0.00053482  0.83748799  0.38272855  1
  La3+  La59  1  0.50037538  0.49953602  0.11202548  1
  La3+  La60  1  -0.00345276  0.49371401  0.88007646  1
  La3+  La61  1  0.50140635  0.49970002  0.36670173  1
  La3+  La62  1  0.50090328  0.83011730  0.13886745  1
  La3+  La63  1  0.00098374  0.83533870  0.13892175  1
  La3+  La64  1  0.50007051  0.16728069  0.14081043  1
  La3+  La65  1  -0.00139169  0.16975867  0.13451908  1
  La3+  La66  1  0.00403619  0.16877662  0.86969692  1
  La3+  La67  1  -0.00447902  0.82882883  0.86117119  1
  La3+  La68  1  0.50128437  0.83260217  0.88021431  1
  La3+  La69  1  0.00078458  0.49389821  0.62599500  1
  La3+  La70  1  0.50091286  0.83111566  0.38881012  1
  La3+  La71  1  -0.00492506  0.49749669  0.86363375  1
  La3+  La72  1  0.75048711  0.20054489  0.47355962  1
  La3+  La73  1  0.75015073  0.86878001  0.75892759  1
  La3+  La74  1  0.74961280  0.20020942  0.74799220  1
  La3+  La75  1  0.24927788  0.55007269  0.53059860  1
  La3+  La76  1  0.74980252  0.87326370  0.19764909  1
  La3+  La77  1  0.25001094  0.16518780  0.72603746  1
  La3+  La78  1  0.74998922  0.17339609  0.02971274  1
  La3+  La79  1  0.24995132  0.10390260  0.25292998  1
  La3+  La80  1  0.74969108  0.49942937  0.26430126  1
  La3+  La81  1  0.25055739  0.16099801  -0.02771471  1
  La3+  La82  1  0.74938197  0.89300209  0.51874221  1
  La3+  La83  1  0.24989899  0.55715130  0.22070436  1
  Ru4+  Ru84  1  0.00090042  0.00257700  0.00062557  1
  Ru4+  Ru85  1  -0.00385871  0.00408696  0.24823225  1
  Ru4+  Ru86  1  -0.00232411  -0.00034861  0.50313261  1
  Ru4+  Ru87  1  -0.00081490  0.00213335  0.74638622  1
  Ru4+  Ru88  1  0.00187859  0.33315676  -0.00103325  1
  Ru4+  Ru89  1  0.00491354  0.33438969  0.25061274  1
  Ru4+  Ru90  1  0.00155931  0.33604723  0.50301572  1
  Ru4+  Ru91  1  0.00167927  0.33800959  0.74728309  1
  Ru4+  Ru92  1  0.00588984  0.67163083  0.00068102  1
  Ru4+  Ru93  1  -0.00097386  0.66780591  0.24652793  1
  Ru4+  Ru94  1  -0.00048686  0.66707402  0.50074777  1
  Ru4+  Ru95  1  0.00153392  0.67508892  0.74146307  1
  Ru4+  Ru96  1  0.50185787  0.00227851  -0.00107621  1
  Ru4+  Ru97  1  0.49812295  0.00080730  0.25294295  1
  Ru4+  Ru98  1  0.49753361  0.00318590  0.50336430  1
  Ru4+  Ru99  1  0.50042089  -0.00200353  0.74675252  1
  Ru4+  Ru100  1  0.49787911  0.32520894  0.00409882  1
  Ru4+  Ru101  1  0.50551019  0.33673466  0.24697541  1
  Ru4+  Ru102  1  0.49522918  0.33136617  0.50241129  1
  Ru4+  Ru103  1  0.49641321  0.33613152  0.74510501  1
  Ru4+  Ru104  1  0.50146574  0.66401620  -0.00136904  1
  Ru4+  Ru105  1  0.50081167  0.66499429  0.24998176  1
  Ru4+  Ru106  1  0.49835454  0.66626283  0.49819706  1
  Ru4+  Ru107  1  0.50058133  0.66655942  0.75327548  1
  Ru4+  Ru108  1  0.10994657  0.16449035  -0.00013940  1
  Ru4+  Ru109  1  0.11026470  0.17007088  0.25048487  1
  Ru4+  Ru110  1  0.11237725  0.16605781  0.49792485  1
  Ru4+  Ru111  1  0.11130409  0.16558456  0.75088619  1
  Ru4+  Ru112  1  0.11445329  0.49863027  0.00012628  1
  Ru4+  Ru113  1  0.11008206  0.49789059  0.24932426  1
  Ru4+  Ru114  1  0.10982541  0.49863382  0.49946511  1
  Ru4+  Ru115  1  0.11319173  0.49887546  0.74928221  1
  Ru4+  Ru116  1  0.11404978  0.82911581  -0.00061652  1
  Ru4+  Ru117  1  0.11496058  0.82831179  0.25077076  1
  Ru4+  Ru118  1  0.11273208  0.83237951  0.50228355  1
  Ru4+  Ru119  1  0.11344975  0.82919688  0.74814660  1
  Ru4+  Ru120  1  0.61034369  0.16394127  -0.00142061  1
  Ru4+  Ru121  1  0.61205193  0.16640525  0.25224647  1
  Ru4+  Ru122  1  0.61211567  0.16680170  0.50248123  1
  Ru4+  Ru123  1  0.61571142  0.16415220  0.74893111  1
  Ru4+  Ru124  1  0.61793576  0.50323378  -0.00009390  1
  Ru4+  Ru125  1  0.61185101  0.49983921  0.24938073  1
  Ru4+  Ru126  1  0.61640318  0.50185651  0.49853661  1
  Ru4+  Ru127  1  0.61525418  0.50047956  0.74860483  1
  Ru4+  Ru128  1  0.61349870  0.83524241  -0.00058524  1
  Ru4+  Ru129  1  0.60910143  0.83390163  0.24954513  1
  Ru4+  Ru130  1  0.61166080  0.83347283  0.49985385  1
  Ru4+  Ru131  1  0.60984212  0.83220713  0.74993765  1
  Ru4+  Ru132  1  0.39052079  0.16657455  -0.00164659  1
  Ru4+  Ru133  1  0.38757747  0.16200049  0.25104669  1
  Ru4+  Ru134  1  0.39062566  0.16645465  0.50290863  1
  Ru4+  Ru135  1  0.38834766  0.16794771  0.75079850  1
  Ru4+  Ru136  1  0.38520874  0.49826887  0.00030990  1
  Ru4+  Ru137  1  0.39016497  0.50140445  0.25038771  1
  Ru4+  Ru138  1  0.38849729  0.50027997  0.49933374  1
  Ru4+  Ru139  1  0.38611294  0.50235899  0.75037397  1
  Ru4+  Ru140  1  0.38592602  0.83295636  -0.00012005  1
  Ru4+  Ru141  1  0.38698335  0.83265075  0.24968905  1
  Ru4+  Ru142  1  0.38624441  0.83102587  0.50042433  1
  Ru4+  Ru143  1  0.38544976  0.83227973  0.75032469  1
  Ru4+  Ru144  1  0.88985800  0.16520838  -0.00072345  1
  Ru4+  Ru145  1  0.88484817  0.16181005  0.25118688  1
  Ru4+  Ru146  1  0.88912844  0.16730168  0.50008227  1
  Ru4+  Ru147  1  0.88755674  0.17009732  0.75064255  1
  Ru4+  Ru148  1  0.88207724  0.49701320  -0.00201764  1
  Ru4+  Ru149  1  0.88602737  0.50262565  0.24991616  1
  Ru4+  Ru150  1  0.88611008  0.49604591  0.50268102  1
  Ru4+  Ru151  1  0.88505553  0.49611399  0.74852626  1
  Ru4+  Ru152  1  0.88658070  0.83330700  0.00188231  1
  Ru4+  Ru153  1  0.88940952  0.83346846  0.24910060  1
  Ru4+  Ru154  1  0.89003116  0.83391354  0.50084681  1
  Ru4+  Ru155  1  0.89049700  0.83339182  0.74879129  1
  Ru4+  Ru156  1  0.74999280  0.06034337  0.75580474  1
  Ru4+  Ru157  1  0.25000378  0.29360618  -0.02179113  1
  Ru4+  Ru158  1  0.24952597  0.90510365  -0.00014542  1
  Ru4+  Ru159  1  0.24978826  0.39262951  0.50147578  1
  Ru4+  Ru160  1  0.25005605  0.26282288  0.26673001  1
  Ru4+  Ru161  1  0.24968785  0.90626429  0.24365277  1
  Ru4+  Ru162  1  0.24946416  0.25649700  0.51360544  1
  Ru4+  Ru163  1  0.74992750  0.03921267  0.00944793  1
  Ru4+  Ru164  1  0.74982580  0.74733029  -0.00018555  1
  Ru4+  Ru165  1  0.75026752  0.72704062  0.76495903  1
  Ru4+  Ru166  1  0.75003210  0.90601759  0.00545130  1
  Ru4+  Ru167  1  0.74914060  0.42033441  0.74499354  1
  Ru4+  Ru168  1  0.75034509  0.56515540  0.50278687  1
  Ru4+  Ru169  1  0.24995667  0.03205344  0.00155711  1
  Ru4+  Ru170  1  0.75003409  0.06274356  0.50920245  1
  Ru4+  Ru171  1  0.25106930  0.40331226  0.25930937  1
  Ru4+  Ru172  1  0.25019801  0.90892167  0.50252383  1
  Ru4+  Ru173  1  0.74979724  0.73139510  0.23815722  1
  Ru4+  Ru174  1  0.75029299  0.30175159  -0.00442156  1
  Ru4+  Ru175  1  0.75003002  0.24786040  0.24348128  1
  Ru4+  Ru176  1  0.24972905  0.58247136  -0.00031375  1
  Ru4+  Ru177  1  0.25056716  0.42248428  0.74619366  1
  Ru4+  Ru178  1  0.75040270  0.74426982  0.50260954  1
  Ru4+  Ru179  1  0.24957141  0.08253070  0.51369092  1
  O2-  O180  1  0.16714679  0.07695623  0.00098338  1
  O2-  O181  1  0.16039992  0.07681978  0.24868423  1
  O2-  O182  1  0.16729690  0.08012644  0.50112507  1
  O2-  O183  1  0.16866944  0.08201619  0.74688658  1
  O2-  O184  1  0.16677241  0.41438535  -0.00052356  1
  O2-  O185  1  0.16790110  0.41368115  0.25241574  1
  O2-  O186  1  0.16797119  0.41193256  0.49946594  1
  O2-  O187  1  0.16789594  0.41521577  0.74940551  1
  O2-  O188  1  0.16540034  0.74872201  0.00157765  1
  O2-  O189  1  0.16509996  0.74704299  0.25192391  1
  O2-  O190  1  0.16653025  0.74841053  0.49697846  1
  O2-  O191  1  0.16912594  0.75013311  0.74999411  1
  O2-  O192  1  0.66745905  0.07799168  0.00337340  1
  O2-  O193  1  0.66427814  0.08234589  0.25122714  1
  O2-  O194  1  0.66773582  0.08139251  0.49824035  1
  O2-  O195  1  0.66816989  0.08097508  0.75056730  1
  O2-  O196  1  0.66848468  0.41409229  0.00050503  1
  O2-  O197  1  0.66713804  0.41420591  0.25116276  1
  O2-  O198  1  0.66531728  0.41606244  0.49907135  1
  O2-  O199  1  0.66868702  0.41604868  0.75159793  1
  O2-  O200  1  0.66673755  0.74769844  0.00085019  1
  O2-  O201  1  0.66673828  0.74540953  0.24838289  1
  O2-  O202  1  0.66621469  0.74672009  0.49929453  1
  O2-  O203  1  0.66832578  0.74706048  0.75128768  1
  O2-  O204  1  0.33368379  0.25594393  -0.00079072  1
  O2-  O205  1  0.33356410  0.25485153  0.25189435  1
  O2-  O206  1  0.33212309  0.25248049  0.49997065  1
  O2-  O207  1  0.33080858  0.25237976  0.75027358  1
  O2-  O208  1  0.33265061  0.58545965  0.00173480  1
  O2-  O209  1  0.33922605  0.58869411  0.25371898  1
  O2-  O210  1  0.33703947  0.58866912  0.49672383  1
  O2-  O211  1  0.33401314  0.58491062  0.75028524  1
  O2-  O212  1  0.33289241  0.91946307  0.00020688  1
  O2-  O213  1  0.33118795  0.91926785  0.25135456  1
  O2-  O214  1  0.33347248  0.91891106  0.49944651  1
  O2-  O215  1  0.33583893  0.91887479  0.74777269  1
  O2-  O216  1  0.83355878  0.25639253  -0.00048863  1
  O2-  O217  1  0.83247641  0.25321311  0.25143994  1
  O2-  O218  1  0.83611907  0.25441655  0.49888915  1
  O2-  O219  1  0.83595798  0.25536518  0.75191408  1
  O2-  O220  1  0.83408703  0.58371847  -0.00089392  1
  O2-  O221  1  0.83498698  0.58699005  0.25005639  1
  O2-  O222  1  0.83461600  0.58654823  0.49915621  1
  O2-  O223  1  0.83474096  0.58459432  0.75108195  1
  O2-  O224  1  0.83316314  0.91858013  0.00149649  1
  O2-  O225  1  0.83529755  0.92044240  0.25181806  1
  O2-  O226  1  0.83736335  0.92265466  0.49845938  1
  O2-  O227  1  0.83583450  0.92233844  0.75017356  1
  O2-  O228  1  0.16517396  0.25386619  -0.00087775  1
  O2-  O229  1  0.16578936  0.25368907  0.25295721  1
  O2-  O230  1  0.16593129  0.25314458  0.50101388  1
  O2-  O231  1  0.16601874  0.25227911  0.74973078  1
  O2-  O232  1  0.16741384  0.58517143  0.00201175  1
  O2-  O233  1  0.16012119  0.58775138  0.25460016  1
  O2-  O234  1  0.16200955  0.58886547  0.49541146  1
  O2-  O235  1  0.16646609  0.58447267  0.75112073  1
  O2-  O236  1  0.16773322  0.92003883  0.00177199  1
  O2-  O237  1  0.16708007  0.91898496  0.25028251  1
  O2-  O238  1  0.16680900  0.91821083  0.50035415  1
  O2-  O239  1  0.16394142  0.91838987  0.74687928  1
  O2-  O240  1  0.66754439  0.25381849  0.00112431  1
  O2-  O241  1  0.66837429  0.25197872  0.25011559  1
  O2-  O242  1  0.66619114  0.25209124  0.49839031  1
  O2-  O243  1  0.66552822  0.25304117  0.75124782  1
  O2-  O244  1  0.66524557  0.58578587  0.00034839  1
  O2-  O245  1  0.66653568  0.58483604  0.25122449  1
  O2-  O246  1  0.66753065  0.58559634  0.49963286  1
  O2-  O247  1  0.66812003  0.58342627  0.75255227  1
  O2-  O248  1  0.66853596  0.91854315  0.00199907  1
  O2-  O249  1  0.66561857  0.92133662  0.25183174  1
  O2-  O250  1  0.66131329  0.92208711  0.49824133  1
  O2-  O251  1  0.66428938  0.92038119  0.74970841  1
  O2-  O252  1  0.33477065  0.07728470  -0.00039596  1
  O2-  O253  1  0.33908314  0.07719820  0.24892510  1
  O2-  O254  1  0.33414777  0.08036701  0.49993935  1
  O2-  O255  1  0.33398765  0.08108771  0.74769884  1
  O2-  O256  1  0.33360973  0.41489081  -0.00053395  1
  O2-  O257  1  0.33439418  0.41182207  0.25103824  1
  O2-  O258  1  0.33311784  0.41229299  0.49900214  1
  O2-  O259  1  0.33324150  0.41357979  0.75045280  1
  O2-  O260  1  0.33420441  0.74806390  0.00122519  1
  O2-  O261  1  0.33581050  0.74858034  0.25238972  1
  O2-  O262  1  0.33150358  0.74874464  0.49734312  1
  O2-  O263  1  0.33295242  0.74899640  0.74931055  1
  O2-  O264  1  0.83443137  0.07859624  0.00197558  1
  O2-  O265  1  0.83497967  0.08084984  0.25036512  1
  O2-  O266  1  0.83394046  0.07905646  0.50011622  1
  O2-  O267  1  0.83101270  0.08014415  0.74946991  1
  O2-  O268  1  0.83302070  0.41113314  -0.00138086  1
  O2-  O269  1  0.83162731  0.41208743  0.25120115  1
  O2-  O270  1  0.83424700  0.41489651  0.49786026  1
  O2-  O271  1  0.83104319  0.41471598  0.75256458  1
  O2-  O272  1  0.83310558  0.74818663  0.00079669  1
  O2-  O273  1  0.83179755  0.74536292  0.24913254  1
  O2-  O274  1  0.83505503  0.74610470  0.49946160  1
  O2-  O275  1  0.83296595  0.74587033  0.75071250  1
  O2-  O276  1  0.54901621  0.76491395  0.01162946  1
  O2-  O277  1  0.54049844  0.10737992  0.77368622  1
  O2-  O278  1  0.44769992  0.09691330  0.51565257  1
  O2-  O279  1  0.94488910  0.42446808  0.26639721  1
  O2-  O280  1  0.54795602  0.09343728  0.04534138  1
  O2-  O281  1  0.54412289  0.90344851  0.50953463  1
  O2-  O282  1  0.95061312  0.57148685  0.73527082  1
  O2-  O283  1  0.53717185  0.54790784  0.74944376  1
  O2-  O284  1  0.04510698  0.57291175  0.23544262  1
  O2-  O285  1  0.45425188  0.42733079  0.48164305  1
  O2-  O286  1  0.54744547  0.43388762  0.98635695  1
  O2-  O287  1  0.46414254  0.88427581  0.28392063  1
  O2-  O288  1  0.96227314  0.11143265  0.73047159  1
  O2-  O289  1  0.45342877  0.24636572  0.23324296  1
  O2-  O290  1  0.95070131  0.42636066  0.76902964  1
  O2-  O291  1  0.04455565  0.10194254  0.24139394  1
  O2-  O292  1  0.04987443  0.90351225  0.98870449  1
  O2-  O293  1  0.04463130  0.56740209  0.48409367  1
  O2-  O294  1  0.53739828  0.10560315  0.50388309  1
  O2-  O295  1  0.54557208  0.24413647  0.76273903  1
  O2-  O296  1  0.04234921  0.43587208  0.76129879  1
  O2-  O297  1  0.04849141  0.42806798  0.26738952  1
  O2-  O298  1  0.04390823  0.43468217  0.24061161  1
  O2-  O299  1  0.04286363  0.77278302  0.74454329  1
  O2-  O300  1  0.54508274  0.89702910  0.73701670  1
  O2-  O301  1  0.45423147  0.23131163  0.26897307  1
  O2-  O302  1  0.95488754  0.23687612  0.26512347  1
  O2-  O303  1  0.95809263  0.43483549  0.74515848  1
  O2-  O304  1  0.45189116  0.76478814  0.01321136  1
  O2-  O305  1  0.45509780  0.42837130  0.73525692  1
  O2-  O306  1  0.53388147  0.22788180  0.50484896  1
  O2-  O307  1  0.95899524  0.11017321  0.74218772  1
  O2-  O308  1  0.44922163  0.57093929  0.73763839  1
  O2-  O309  1  0.95327670  0.56372752  0.00835115  1
  O2-  O310  1  0.95530417  0.76491648  0.01553231  1
  O2-  O311  1  0.04853288  0.42961533  0.73531369  1
  O2-  O312  1  0.05113825  0.76048672  0.76583239  1
  O2-  O313  1  0.04738639  0.90837737  0.76133148  1
  O2-  O314  1  0.04868899  0.90048580  0.26690042  1
  O2-  O315  1  0.54705121  0.42931560  0.20756006  1
  O2-  O316  1  0.54666848  0.76122679  0.48696198  1
  O2-  O317  1  0.95141985  0.90653177  0.99137236  1
  O2-  O318  1  0.45356593  0.56965874  0.51089896  1
  O2-  O319  1  0.55146327  0.43234191  0.51047972  1
  O2-  O320  1  0.04234793  0.56313277  0.78195306  1
  O2-  O321  1  0.54420330  0.09506544  0.26245976  1
  O2-  O322  1  0.95491075  0.23519344  0.98713146  1
  O2-  O323  1  0.04463171  0.76632393  0.48593065  1
  O2-  O324  1  0.93558242  0.74170608  0.22601261  1
  O2-  O325  1  0.43717126  0.40185610  0.03443321  1
  O2-  O326  1  0.06573198  0.41182419  0.93892911  1
  O2-  O327  1  0.56436388  0.92446230  0.97415715  1
  O2-  O328  1  0.56802564  0.41290247  0.80581419  1
  O2-  O329  1  0.57295260  0.06428628  0.70882115  1
  O2-  O330  1  0.93625892  0.92502224  0.52649191  1
  O2-  O331  1  0.57641402  0.07403297  0.92144690  1
  O2-  O332  1  0.56270821  0.40118558  0.68892664  1
  O2-  O333  1  0.55332504  0.42549329  0.20298944  1
  O2-  O334  1  0.93856632  0.58810496  0.02622552  1
  O2-  O335  1  0.43698043  0.59556813  0.96825145  1
  O2-  O336  1  0.55962679  0.40692028  0.53514233  1
  O2-  O337  1  0.06413269  0.58922856  0.97500742  1
  O2-  O338  1  0.06240682  0.06960864  0.46706650  1
  O2-  O339  1  0.06524054  0.40633529  0.52510464  1
  O2-  O340  1  0.56399409  0.59666352  0.46422804  1
  O2-  O341  1  0.43489731  0.26665088  0.53023029  1
  O2-  O342  1  0.07456678  0.59767039  0.69785262  1
  O2-  O343  1  0.56413853  0.41035430  0.97191396  1
  O2-  O344  1  0.56742015  0.25610297  0.77689565  1
  O2-  O345  1  0.94068511  0.41620910  0.27374710  1
  O2-  O346  1  0.06980738  0.39945269  0.78084417  1
  O2-  O347  1  0.55344281  0.08690228  0.05198158  1
  O2-  O348  1  0.93258615  0.39894713  0.71737207  1
  O2-  O349  1  0.93700135  0.40382359  0.53373332  1
  O2-  O350  1  0.56775079  0.39709739  0.33706720  1
  O2-  O351  1  0.56463632  0.59319337  0.22470190  1
  O2-  O352  1  0.43804376  0.73669877  0.78449118  1
  O2-  O353  1  0.93599348  0.25963937  0.27284699  1
  O2-  O354  1  0.91937057  0.05495802  0.79378876  1
  O2-  O355  1  0.06520660  0.06999520  0.78274646  1
  O2-  O356  1  0.42279679  0.93963754  0.19944762  1
  O2-  O357  1  0.43527273  0.26103918  0.77693396  1
  O2-  O358  1  0.57858860  0.05711869  0.53324173  1
  O2-  O359  1  0.57722708  0.60953295  0.71515132  1
  O2-  O360  1  0.43475227  0.74042072  0.52736132  1
  O2-  O361  1  0.56613687  0.25905532  0.28092814  1
  O2-  O362  1  0.56434967  0.74225444  0.77944907  1
  O2-  O363  1  0.06336110  0.07109032  0.93486824  1
  O2-  O364  1  0.93994904  0.60080338  0.71986991  1
  O2-  O365  1  0.06554265  0.41125364  0.05931961  1
  O2-  O366  1  0.56403330  0.25708325  0.97203630  1
  O2-  O367  1  0.57378727  0.27519933  0.54111078  1
  O2-  O368  1  0.06575653  0.07911597  0.06097406  1
  O2-  O369  1  0.06990492  0.39772409  0.22183807  1
  O2-  O370  1  0.06835983  0.73719353  0.71719328  1
  O2-  O371  1  0.06255316  0.92825633  0.27980120  1
  O2-  O372  1  0.25005476  0.33207613  0.65329396  1
  O2-  O373  1  0.75008998  0.65571436  0.31826279  1
  O2-  O374  1  0.25007646  -0.00593972  0.31480219  1
  O2-  O375  1  0.75006517  0.67289842  0.09748493  1
  O2-  O376  1  0.75043247  0.32992665  0.15483323  1
  O2-  O377  1  0.25001613  0.66560608  0.67005487  1
  O2-  O378  1  0.75008306  -0.00076219  0.14392957  1
  O2-  O379  1  0.25012294  0.66468826  0.14608318  1
  O2-  O380  1  0.25011151  0.34931643  0.07702448  1
  O2-  O381  1  0.75020070  0.33294151  0.58140997  1
  O2-  O382  1  0.75025851  0.65720908  0.42794848  1
  O2-  O383  1  0.25014292  -0.00075172  0.43595018  1
  O2-  O384  1  0.25018695  0.66231159  0.91116035  1
  O2-  O385  1  0.25008433  -0.00262589  0.59967235  1
  O2-  O386  1  0.74986190  -0.00094244  0.40209169  1
  O2-  O387  1  0.75001285  0.65820233  0.57279619  1
  O2-  O388  1  0.25015057  0.67255218  0.58034566  1
  O2-  O389  1  0.75037761  -0.00486004  0.89194458  1
  O2-  O390  1  0.24974884  0.33058232  0.16816131  1
  O2-  O391  1  0.75039790  0.33224839  0.67317121  1
  O2-  O392  1  0.75011691  -0.00489839  0.65012102  1
  O2-  O393  1  0.25067751  0.00339955  0.85687939  1
  O2-  O394  1  0.75002595  0.67056000  0.90359242  1
  O2-  O395  1  0.74967847  0.65691937  0.68178366  1
  O2-  O396  1  0.24993886  0.50244988  0.83069122  1
  O2-  O397  1  0.24991395  0.49563807  0.92003061  1
  O2-  O398  1  0.25007938  0.49264934  0.10793810  1
  O2-  O399  1  0.25040926  0.48358949  0.41919476  1
  O2-  O400  1  0.75014089  0.50087341  0.13900058  1
  O2-  O401  1  0.25013801  0.83503341  0.83328429  1
  O2-  O402  1  0.75003912  0.81472991  0.62885023  1
  O2-  O403  1  0.75000977  0.81830570  0.40920364  1
  O2-  O404  1  0.24983810  0.18739623  0.35565841  1
  O2-  O405  1  0.75001779  0.15755551  0.60730800  1
  O2-  O406  1  0.25003136  0.48996059  0.33456537  1
  O2-  O407  1  0.24997366  0.82919511  0.91623320  1
  O2-  O408  1  0.24997680  0.16771017  0.44186917  1
  O2-  O409  1  0.75004252  0.50156330  0.59264409  1
  O2-  O410  1  0.24953176  0.15587856  0.09792595  1
  O2-  O411  1  0.75003327  0.82565890  0.32232073  1
  O2-  O412  1  0.75010237  0.16437990  0.88632065  1
  O2-  O413  1  0.25023425  0.48567778  0.64450826  1
  O2-  O414  1  0.25011431  0.83926734  0.15950698  1
  O2-  O415  1  0.75015666  0.16744493  0.17016485  1
  O2-  O416  1  0.75008327  0.50042175  0.41081854  1
  O2-  O417  1  0.24964998  0.17549809  0.84961860  1
  O2-  O418  1  0.24971370  0.19718718  0.16873301  1
  O2-  O419  1  0.75012443  0.83253797  0.90781188  1
  O2-  O420  1  0.51752280  -0.00927380  0.62406104  1
  O2-  O421  1  0.53066526  0.67247811  0.61622493  1
  O2-  O422  1  0.52572315  0.32244340  0.11566543  1
  O2-  O423  1  0.52345544  0.67097534  0.12172829  1
  O2-  O424  1  0.02549959  0.32623515  0.62840424  1
  O2-  O425  1  0.02291971  0.66733758  0.61442256  1
  O2-  O426  1  0.97641861  -0.00481552  0.87893667  1
  O2-  O427  1  0.97734551  -0.00019931  0.62704301  1
  O2-  O428  1  0.52543924  0.66094148  0.87813859  1
  O2-  O429  1  0.02045636  0.31764261  0.12515994  1
  O2-  O430  1  0.97662849  0.32995662  0.38755780  1
  O2-  O431  1  0.51791111  -0.00743450  0.86605802  1
  O2-  O432  1  0.02100713  0.31880321  0.87457204  1
  O2-  O433  1  0.03876572  0.67043153  0.87875369  1
  O2-  O434  1  0.46945101  0.66551231  0.63278340  1
  O2-  O435  1  0.52421680  0.33039501  0.87767461  1
  O2-  O436  1  0.47552106  0.00452468  0.11741616  1
  O2-  O437  1  0.97903522  0.66416223  0.12605920  1
  O2-  O438  1  0.97190867  0.00132738  0.37416474  1
  O2-  O439  1  0.95591529  0.66343492  0.87271750  1
  O2-  O440  1  0.47165760  0.66728650  0.37244934  1
  O2-  O441  1  0.46459252  0.33804063  0.88368107  1
  O2-  O442  1  0.47276839  0.00066151  0.37670051  1
  O2-  O443  1  0.02304785  -0.01156207  0.13279197  1
