# generated using pymatgen
data_La7(Ru4O11)2
_symmetry_space_group_name_H-M   'P 1'
_cell_length_a   23.99051236
_cell_length_b   16.83022474
_cell_length_c   15.42658666
_cell_angle_alpha   89.99969949
_cell_angle_beta   89.99949342
_cell_angle_gamma   90.00037157
_symmetry_Int_Tables_number   1
_chemical_formula_structural   La7(Ru4O11)2
_chemical_formula_sum   'La84 Ru96 O264'
_cell_volume   6228.72678701
_cell_formula_units_Z   12
loop_
 _symmetry_equiv_pos_site_id
 _symmetry_equiv_pos_as_xyz
  1  'x, y, z'
loop_
 _atom_type_symbol
 _atom_type_oxidation_number
  La3+  3.0
  Ru4+  4.0
  O2-  -2.0
loop_
 _atom_site_type_symbol
 _atom_site_label
 _atom_site_symmetry_multiplicity
 _atom_site_fract_x
 _atom_site_fract_y
 _atom_site_fract_z
 _atom_site_occupancy
  La3+  La0  1  0.13591118  0.00242348  0.12715872  1
  La3+  La1  1  0.13412527  0.00507671  0.37305151  1
  La3+  La2  1  0.13941141  0.00205815  0.62337122  1
  La3+  La3  1  0.13820687  0.00095505  0.87429047  1
  La3+  La4  1  0.13986962  0.33166721  0.12342336  1
  La3+  La5  1  0.13788504  0.33149473  0.37704676  1
  La3+  La6  1  0.14002019  0.33171738  0.62587698  1
  La3+  La7  1  0.14285524  0.33276281  0.87595106  1
  La3+  La8  1  0.13776735  0.66731647  0.12593963  1
  La3+  La9  1  0.13763208  0.66671839  0.37680295  1
  La3+  La10  1  0.13776419  0.66602601  0.62499084  1
  La3+  La11  1  0.13708520  0.66676349  0.87561378  1
  La3+  La12  1  0.63949724  -0.00103931  0.12456581  1
  La3+  La13  1  0.63754113  -0.00235591  0.37467423  1
  La3+  La14  1  0.63909671  -0.00017177  0.62898354  1
  La3+  La15  1  0.64240456  0.00119719  0.87244301  1
  La3+  La16  1  0.63959069  0.33312382  0.12462568  1
  La3+  La17  1  0.63698540  0.33409390  0.37469458  1
  La3+  La18  1  0.63730641  0.33263799  0.62474420  1
  La3+  La19  1  0.64098602  0.33122404  0.87645276  1
  La3+  La20  1  0.63937035  0.66713452  0.12370116  1
  La3+  La21  1  0.63873448  0.66727494  0.37439973  1
  La3+  La22  1  0.63806864  0.66866792  0.62644839  1
  La3+  La23  1  0.63920649  0.66740190  0.87386314  1
  La3+  La24  1  0.36178190  -0.00053821  0.12447816  1
  La3+  La25  1  0.36332057  0.00148524  0.37633009  1
  La3+  La26  1  0.36218890  0.00226546  0.62504409  1
  La3+  La27  1  0.36237762  0.00150117  0.87468150  1
  La3+  La28  1  0.36222217  0.33279687  0.12440494  1
  La3+  La29  1  0.35866796  0.32820078  0.37473338  1
  La3+  La30  1  0.36176208  0.33455417  0.62658800  1
  La3+  La31  1  0.35760403  0.33360414  0.87550216  1
  La3+  La32  1  0.36174511  0.66774814  0.12600457  1
  La3+  La33  1  0.36299020  0.66788121  0.37456028  1
  La3+  La34  1  0.36216723  0.66759355  0.62454904  1
  La3+  La35  1  0.36198804  0.66617851  0.87390989  1
  La3+  La36  1  0.86019678  0.00191105  0.12270614  1
  La3+  La37  1  0.86251163  -0.00028524  0.37407662  1
  La3+  La38  1  0.86023402  -0.00071034  0.62916987  1
  La3+  La39  1  0.85783072  0.00039425  0.87266397  1
  La3+  La40  1  0.85979624  0.33414700  0.12516667  1
  La3+  La41  1  0.86191271  0.33258686  0.37286287  1
  La3+  La42  1  0.86151200  0.33260884  0.62461561  1
  La3+  La43  1  0.85878920  0.33227273  0.87617162  1
  La3+  La44  1  0.86012181  0.66685717  0.12403198  1
  La3+  La45  1  0.86251120  0.66632173  0.37461228  1
  La3+  La46  1  0.86194782  0.66770789  0.62785317  1
  La3+  La47  1  0.86173619  0.66834974  0.87326686  1
  La3+  La48  1  -0.00239552  0.83865691  0.13864480  1
  La3+  La49  1  -0.00140701  0.16783747  0.61578342  1
  La3+  La50  1  0.00102072  0.83476737  0.63839358  1
  La3+  La51  1  0.50068588  0.16423928  0.63579752  1
  La3+  La52  1  0.50015778  0.83319092  0.88570542  1
  La3+  La53  1  0.50494102  0.49567062  0.12073087  1
  La3+  La54  1  0.00048637  0.16484842  0.13340370  1
  La3+  La55  1  -0.00148552  0.50289698  0.36574278  1
  La3+  La56  1  -0.00280460  0.83852413  0.87611825  1
  La3+  La57  1  0.49408155  0.16470382  0.61599125  1
  La3+  La58  1  0.49848423  0.83383201  0.86428249  1
  La3+  La59  1  0.00307902  0.83795568  0.61841081  1
  La3+  La60  1  0.50254149  0.50256894  0.62174053  1
  La3+  La61  1  0.49851189  0.83213791  0.36760321  1
  La3+  La62  1  0.00161475  0.16615473  0.37796892  1
  La3+  La63  1  0.50043258  0.16702489  0.11936998  1
  La3+  La64  1  0.49912824  0.49827126  0.88864798  1
  La3+  La65  1  0.50005034  0.49756527  0.36642424  1
  La3+  La66  1  0.00033548  0.16656238  0.88402995  1
  La3+  La67  1  0.00088995  0.50143485  0.86610437  1
  La3+  La68  1  0.49912820  0.83002790  0.13329078  1
  La3+  La69  1  -0.00001854  0.50040524  0.13437744  1
  La3+  La70  1  0.50637939  0.49817064  0.86917154  1
  La3+  La71  1  0.49841909  0.16503184  0.88133522  1
  La3+  La72  1  0.75015033  0.12461504  0.24506235  1
  La3+  La73  1  0.75005375  0.45887810  0.45634458  1
  La3+  La74  1  0.75020724  0.54455500  0.76764748  1
  La3+  La75  1  0.24976206  0.83554830  0.46203169  1
  La3+  La76  1  0.75050405  0.17010234  0.51220537  1
  La3+  La77  1  0.25017170  0.12413928  0.25081538  1
  La3+  La78  1  0.74978822  0.80140905  -0.02788676  1
  La3+  La79  1  0.24992861  0.84228940  0.81605865  1
  La3+  La80  1  0.25007530  0.79997961  0.28132822  1
  La3+  La81  1  0.25044234  0.49946144  0.50489743  1
  La3+  La82  1  0.24995565  0.45616898  0.03292300  1
  La3+  La83  1  0.74983469  0.80525279  0.25146648  1
  Ru4+  Ru84  1  -0.00087833  0.00087296  -0.00038153  1
  Ru4+  Ru85  1  0.00140240  -0.00047715  0.24956572  1
  Ru4+  Ru86  1  -0.00030527  0.00062448  0.50132876  1
  Ru4+  Ru87  1  0.00075194  0.00070909  0.74987279  1
  Ru4+  Ru88  1  0.00016733  0.33203373  -0.00069245  1
  Ru4+  Ru89  1  0.00151880  0.33395827  0.25157272  1
  Ru4+  Ru90  1  0.00065289  0.33152259  0.49450763  1
  Ru4+  Ru91  1  0.00238720  0.33345775  0.75245081  1
  Ru4+  Ru92  1  -0.00477929  0.65861373  0.00174062  1
  Ru4+  Ru93  1  -0.00234969  0.66471475  0.25251694  1
  Ru4+  Ru94  1  0.00003357  0.65992714  0.49748272  1
  Ru4+  Ru95  1  -0.00182864  0.66759919  0.74599079  1
  Ru4+  Ru96  1  0.49949269  -0.00047889  -0.00124739  1
  Ru4+  Ru97  1  0.49736828  0.00828884  0.25449991  1
  Ru4+  Ru98  1  0.49638258  -0.00526043  0.49627086  1
  Ru4+  Ru99  1  0.50328021  -0.00763958  0.75313346  1
  Ru4+  Ru100  1  0.49900147  0.33071136  0.00015981  1
  Ru4+  Ru101  1  0.50332709  0.32689785  0.24310292  1
  Ru4+  Ru102  1  0.50080025  0.33685671  0.50089993  1
  Ru4+  Ru103  1  0.50166184  0.32789354  0.75432372  1
  Ru4+  Ru104  1  0.50242452  0.67240978  0.00537384  1
  Ru4+  Ru105  1  0.49931277  0.66777307  0.24909915  1
  Ru4+  Ru106  1  0.49773000  0.66286622  0.50314377  1
  Ru4+  Ru107  1  0.49992701  0.66924068  0.74200268  1
  Ru4+  Ru108  1  0.11317615  0.16790216  0.00111649  1
  Ru4+  Ru109  1  0.11094319  0.16525688  0.24864955  1
  Ru4+  Ru110  1  0.11497204  0.16601227  0.49905955  1
  Ru4+  Ru111  1  0.11312419  0.16409814  0.75043984  1
  Ru4+  Ru112  1  0.11161874  0.49852744  0.00026507  1
  Ru4+  Ru113  1  0.11225897  0.50006020  0.24935251  1
  Ru4+  Ru114  1  0.11539967  0.50694263  0.50130111  1
  Ru4+  Ru115  1  0.11527137  0.49796288  0.74954835  1
  Ru4+  Ru116  1  0.11835014  0.83935453  -0.00033131  1
  Ru4+  Ru117  1  0.11150630  0.83481658  0.25161366  1
  Ru4+  Ru118  1  0.11169147  0.83304138  0.49940940  1
  Ru4+  Ru119  1  0.11017201  0.83359793  0.75158790  1
  Ru4+  Ru120  1  0.61502983  0.16737510  -0.00034082  1
  Ru4+  Ru121  1  0.60927011  0.16444040  0.24970314  1
  Ru4+  Ru122  1  0.61715072  0.16602826  0.49792255  1
  Ru4+  Ru123  1  0.61556828  0.16459322  0.75196680  1
  Ru4+  Ru124  1  0.61408402  0.50066591  0.00065977  1
  Ru4+  Ru125  1  0.61334560  0.49751349  0.24989319  1
  Ru4+  Ru126  1  0.61110314  0.49876383  0.49919846  1
  Ru4+  Ru127  1  0.61309257  0.50225982  0.74952188  1
  Ru4+  Ru128  1  0.61016602  0.83255719  -0.00049772  1
  Ru4+  Ru129  1  0.61344550  0.82876849  0.24991585  1
  Ru4+  Ru130  1  0.61574993  0.83643088  0.49952025  1
  Ru4+  Ru131  1  0.61567297  0.83408827  0.74992453  1
  Ru4+  Ru132  1  0.38664521  0.16912669  -0.00017693  1
  Ru4+  Ru133  1  0.38951771  0.16342618  0.25142821  1
  Ru4+  Ru134  1  0.38285033  0.16571579  0.49893770  1
  Ru4+  Ru135  1  0.38305515  0.16853566  0.75175081  1
  Ru4+  Ru136  1  0.38716084  0.49722762  0.00137660  1
  Ru4+  Ru137  1  0.38681990  0.50112410  0.24946777  1
  Ru4+  Ru138  1  0.38835607  0.50100399  0.50010597  1
  Ru4+  Ru139  1  0.38091502  0.50304379  0.74802325  1
  Ru4+  Ru140  1  0.38632711  0.83485385  -0.00097100  1
  Ru4+  Ru141  1  0.38987324  0.83294406  0.24983615  1
  Ru4+  Ru142  1  0.38988556  0.83388281  0.50189368  1
  Ru4+  Ru143  1  0.39039001  0.83350548  0.75136808  1
  Ru4+  Ru144  1  0.88520552  0.16638261  0.00016184  1
  Ru4+  Ru145  1  0.88885084  0.16466948  0.24940206  1
  Ru4+  Ru146  1  0.88637943  0.16079162  0.50046006  1
  Ru4+  Ru147  1  0.88502711  0.16630949  0.75000295  1
  Ru4+  Ru148  1  0.88820544  0.49992544  0.00003512  1
  Ru4+  Ru149  1  0.88595470  0.49721034  0.24869714  1
  Ru4+  Ru150  1  0.88876301  0.50204832  0.50049790  1
  Ru4+  Ru151  1  0.88918397  0.50099337  0.75082065  1
  Ru4+  Ru152  1  0.88882163  0.83241451  -0.00041096  1
  Ru4+  Ru153  1  0.88756275  0.83064448  0.25007875  1
  Ru4+  Ru154  1  0.88673052  0.83508951  0.49914531  1
  Ru4+  Ru155  1  0.88496128  0.83309025  0.75023142  1
  Ru4+  Ru156  1  0.24999622  0.36628057  0.48027109  1
  Ru4+  Ru157  1  0.25020409  0.42330742  0.24839817  1
  Ru4+  Ru158  1  0.74989443  0.59787132  0.49693307  1
  Ru4+  Ru159  1  0.25024200  0.73027158  0.74213219  1
  Ru4+  Ru160  1  0.75030669  0.30272263  0.48727008  1
  Ru4+  Ru161  1  0.24999303  0.26432215  0.25121652  1
  Ru4+  Ru162  1  0.74987948  0.94275443  -0.00829380  1
  Ru4+  Ru163  1  0.75034933  0.41921729  -0.00430166  1
  Ru4+  Ru164  1  0.25001573  0.96371737  0.75116919  1
  Ru4+  Ru165  1  0.74992564  0.94250780  0.24947465  1
  Ru4+  Ru166  1  0.25037445  0.93992141  0.24688575  1
  Ru4+  Ru167  1  0.24966606  0.57777020  0.25096192  1
  Ru4+  Ru168  1  0.75040227  0.04108481  0.47670959  1
  Ru4+  Ru169  1  0.75028246  0.57966333  0.00289736  1
  Ru4+  Ru170  1  0.75020711  0.26874625  0.24624515  1
  Ru4+  Ru171  1  0.24996213  0.63058609  0.47523726  1
  Ru4+  Ru172  1  0.24988620  0.24733933  0.75527176  1
  Ru4+  Ru173  1  0.74993834  0.57848624  0.24942090  1
  Ru4+  Ru174  1  0.74999783  0.90565193  0.49832927  1
  Ru4+  Ru175  1  0.75010869  0.39289448  0.75228066  1
  Ru4+  Ru176  1  0.25042558  0.75889449  -0.00276865  1
  Ru4+  Ru177  1  0.24982917  0.09293569  -0.00374677  1
  Ru4+  Ru178  1  0.25014490  0.59016237  0.00044902  1
  Ru4+  Ru179  1  0.75036507  0.75781089  0.49797343  1
  O2-  O180  1  0.16893328  0.07984146  0.00117615  1
  O2-  O181  1  0.16568998  0.07689931  0.25142776  1
  O2-  O182  1  0.16706488  0.08107073  0.49939412  1
  O2-  O183  1  0.16791207  0.08182300  0.75038750  1
  O2-  O184  1  0.16591814  0.41334918  0.00058523  1
  O2-  O185  1  0.16638452  0.41417745  0.25030617  1
  O2-  O186  1  0.16794297  0.41265842  0.49883700  1
  O2-  O187  1  0.16526378  0.41618959  0.74945541  1
  O2-  O188  1  0.16724516  0.74803382  0.00006031  1
  O2-  O189  1  0.16742834  0.74648116  0.24926372  1
  O2-  O190  1  0.16888844  0.74749464  0.49947285  1
  O2-  O191  1  0.16551159  0.74519115  0.74877497  1
  O2-  O192  1  0.66569606  0.08184604  -0.00026774  1
  O2-  O193  1  0.66549089  0.07862498  0.25060874  1
  O2-  O194  1  0.66606628  0.07870571  0.50023552  1
  O2-  O195  1  0.66666660  0.08306508  0.74812242  1
  O2-  O196  1  0.66767397  0.41445153  0.00009516  1
  O2-  O197  1  0.66482509  0.41556832  0.25002785  1
  O2-  O198  1  0.66659671  0.41240400  0.50078656  1
  O2-  O199  1  0.66763762  0.41261816  0.74928561  1
  O2-  O200  1  0.66503165  0.74527910  0.00019670  1
  O2-  O201  1  0.66644434  0.74514994  0.25022759  1
  O2-  O202  1  0.66865982  0.74754792  0.50016836  1
  O2-  O203  1  0.66716136  0.74820689  0.75016740  1
  O2-  O204  1  0.33540553  0.25147014  0.00114477  1
  O2-  O205  1  0.33322892  0.25352169  0.24829308  1
  O2-  O206  1  0.33186759  0.25183056  0.49986442  1
  O2-  O207  1  0.33277135  0.25249910  0.75137470  1
  O2-  O208  1  0.33293253  0.58743357  0.00025869  1
  O2-  O209  1  0.33372275  0.58477232  0.25135579  1
  O2-  O210  1  0.33422889  0.58762071  0.49883416  1
  O2-  O211  1  0.33233669  0.58442370  0.74979004  1
  O2-  O212  1  0.33236727  0.91981713  0.00043738  1
  O2-  O213  1  0.33234588  0.92102714  0.24994745  1
  O2-  O214  1  0.33075171  0.91853068  0.49837757  1
  O2-  O215  1  0.33339521  0.92172143  0.75121946  1
  O2-  O216  1  0.83437063  0.25181655  0.00043690  1
  O2-  O217  1  0.83346450  0.25361992  0.24975706  1
  O2-  O218  1  0.83311264  0.25490921  0.50007696  1
  O2-  O219  1  0.83172396  0.25249703  0.74922703  1
  O2-  O220  1  0.83238331  0.58656841  -0.00101830  1
  O2-  O221  1  0.83252086  0.58649319  0.24922130  1
  O2-  O222  1  0.83335723  0.58701822  0.50021556  1
  O2-  O223  1  0.83650057  0.58740124  0.75038266  1
  O2-  O224  1  0.83314930  0.92066898  -0.00039514  1
  O2-  O225  1  0.83129594  0.92097808  0.25117234  1
  O2-  O226  1  0.83337543  0.91842041  0.49877201  1
  O2-  O227  1  0.83600969  0.91762681  0.74918432  1
  O2-  O228  1  0.16445434  0.25051704  0.00164695  1
  O2-  O229  1  0.16449767  0.25294242  0.25085429  1
  O2-  O230  1  0.16710569  0.25233790  0.49968962  1
  O2-  O231  1  0.16678506  0.25171654  0.75050111  1
  O2-  O232  1  0.16523482  0.58740702  0.00044780  1
  O2-  O233  1  0.16834861  0.58602877  0.24983008  1
  O2-  O234  1  0.16733976  0.58900450  0.50050927  1
  O2-  O235  1  0.16749772  0.58518879  0.74772260  1
  O2-  O236  1  0.16827045  0.91883894  -0.00069341  1
  O2-  O237  1  0.16702386  0.91991123  0.25050036  1
  O2-  O238  1  0.16929816  0.91936458  0.49822616  1
  O2-  O239  1  0.16778580  0.92137128  0.75026867  1
  O2-  O240  1  0.66521199  0.25179234  0.00067188  1
  O2-  O241  1  0.66613592  0.25295903  0.25023139  1
  O2-  O242  1  0.66660550  0.25429194  0.49982926  1
  O2-  O243  1  0.66650021  0.25279722  0.74877114  1
  O2-  O244  1  0.66852086  0.58554263  -0.00070248  1
  O2-  O245  1  0.66823995  0.58657965  0.24913588  1
  O2-  O246  1  0.66607307  0.58728783  0.49994829  1
  O2-  O247  1  0.66558318  0.58759298  0.74953445  1
  O2-  O248  1  0.66712987  0.92033501  -0.00100984  1
  O2-  O249  1  0.66837053  0.92017862  0.25041029  1
  O2-  O250  1  0.66700835  0.91877129  0.50052505  1
  O2-  O251  1  0.66385298  0.91730771  0.74845214  1
  O2-  O252  1  0.33234020  0.07916730  0.00109613  1
  O2-  O253  1  0.33529983  0.07776367  0.24890293  1
  O2-  O254  1  0.33429641  0.08112705  0.49917633  1
  O2-  O255  1  0.33275413  0.08133550  0.75169535  1
  O2-  O256  1  0.33422125  0.41319404  -0.00000788  1
  O2-  O257  1  0.33102649  0.41454075  0.24861468  1
  O2-  O258  1  0.33233581  0.41288141  0.50041552  1
  O2-  O259  1  0.33364874  0.41536635  0.75021706  1
  O2-  O260  1  0.33311595  0.74756306  0.00081491  1
  O2-  O261  1  0.33375812  0.74458008  0.25095946  1
  O2-  O262  1  0.33247375  0.74745710  0.49736349  1
  O2-  O263  1  0.33395370  0.74555283  0.74933532  1
  O2-  O264  1  0.83461534  0.08189131  -0.00035064  1
  O2-  O265  1  0.83662649  0.07769889  0.25139719  1
  O2-  O266  1  0.83428504  0.07803381  0.49964029  1
  O2-  O267  1  0.83513084  0.08320847  0.74914830  1
  O2-  O268  1  0.83254408  0.41421333  0.00049080  1
  O2-  O269  1  0.83364645  0.41598796  0.24984198  1
  O2-  O270  1  0.83297168  0.41300872  0.50106914  1
  O2-  O271  1  0.83228335  0.41283767  0.74977136  1
  O2-  O272  1  0.83548688  0.74499945  -0.00019080  1
  O2-  O273  1  0.83427625  0.74595354  0.24968146  1
  O2-  O274  1  0.83138806  0.74738593  0.50032835  1
  O2-  O275  1  0.83326185  0.74768650  0.75122679  1
  O2-  O276  1  0.95348170  0.56938960  0.50773434  1
  O2-  O277  1  0.55233509  0.23932771  0.23320769  1
  O2-  O278  1  0.95719332  0.89277273  0.28021764  1
  O2-  O279  1  0.03975607  0.55882732  0.72246028  1
  O2-  O280  1  0.95524427  0.10148355  0.76284708  1
  O2-  O281  1  0.54538825  0.56586143  0.23839709  1
  O2-  O282  1  0.55013174  0.43152455  0.73659628  1
  O2-  O283  1  0.04331424  0.43703966  0.49253711  1
  O2-  O284  1  0.45410650  0.22175752  0.46983146  1
  O2-  O285  1  0.45986362  0.56179375  0.77879094  1
  O2-  O286  1  0.95483603  0.23630663  0.48692111  1
  O2-  O287  1  0.54489223  0.23530380  0.76732290  1
  O2-  O288  1  0.45131736  0.23596803  0.23781982  1
  O2-  O289  1  0.54363685  0.77854342  0.52908722  1
  O2-  O290  1  0.52588668  0.12301790  0.27341045  1
  O2-  O291  1  0.04443287  0.56566378  0.01592640  1
  O2-  O292  1  0.95375945  0.43249420  0.76453503  1
  O2-  O293  1  0.54809504  0.23652719  0.48198404  1
  O2-  O294  1  0.54840448  0.56808998  0.50831678  1
  O2-  O295  1  0.95612705  0.44299247  0.49697565  1
  O2-  O296  1  0.45251853  0.09777443  0.73603730  1
  O2-  O297  1  0.04945478  0.90637280  0.26442759  1
  O2-  O298  1  0.04324311  0.43738050  0.49264377  1
  O2-  O299  1  0.54508729  0.09771430  0.98584840  1
  O2-  O300  1  0.45080132  0.42870096  0.53815533  1
  O2-  O301  1  0.54679483  0.90241061  0.26942599  1
  O2-  O302  1  0.96013825  0.77708453  0.52728619  1
  O2-  O303  1  0.45987153  0.55698591  0.02943635  1
  O2-  O304  1  0.04764951  0.09409119  0.26717342  1
  O2-  O305  1  0.54596235  0.90292879  0.23035525  1
  O2-  O306  1  0.04299782  0.10448060  0.24173093  1
  O2-  O307  1  0.95408596  0.23445175  0.23630188  1
  O2-  O308  1  0.44842895  0.76287919  0.51307386  1
  O2-  O309  1  0.45141650  0.57333677  0.51149901  1
  O2-  O310  1  0.45096821  0.43206587  0.73029540  1
  O2-  O311  1  0.45155700  0.42819839  0.20825381  1
  O2-  O312  1  0.94818340  0.57272047  0.49113172  1
  O2-  O313  1  0.05124975  0.57571051  0.48199352  1
  O2-  O314  1  0.45182407  0.42636359  0.76906076  1
  O2-  O315  1  0.95579145  0.23558958  0.01468235  1
  O2-  O316  1  0.45284124  0.23370458  0.25771681  1
  O2-  O317  1  0.04114766  0.77090881  0.01196420  1
  O2-  O318  1  0.54906667  0.09499862  0.51873741  1
  O2-  O319  1  0.53585135  0.78508809  0.49302140  1
  O2-  O320  1  0.03346715  0.77692266  0.25727426  1
  O2-  O321  1  0.54310402  0.09449924  0.48061963  1
  O2-  O322  1  0.04142792  0.76993382  1.01144836  1
  O2-  O323  1  0.54815666  0.23588752  0.52097551  1
  O2-  O324  1  0.43994157  0.07471102  0.71292345  1
  O2-  O325  1  0.06414714  0.07284292  0.05769610  1
  O2-  O326  1  0.42394916  0.60222806  0.95348268  1
  O2-  O327  1  0.07111857  0.59948485  0.78756448  1
  O2-  O328  1  0.06269900  0.07089016  0.46483840  1
  O2-  O329  1  0.06524939  0.40824193  0.94601241  1
  O2-  O330  1  0.42574254  0.40148322  0.43137887  1
  O2-  O331  1  0.56657259  0.59347917  0.02735970  1
  O2-  O332  1  0.44466843  0.41818571  0.20238650  1
  O2-  O333  1  0.56561340  0.40722841  0.47033128  1
  O2-  O334  1  0.07885849  0.38869317  0.54284635  1
  O2-  O335  1  0.43349371  0.06952768  0.27590404  1
  O2-  O336  1  0.93547610  0.73897805  0.72309600  1
  O2-  O337  1  0.07321859  0.72199418  0.29022823  1
  O2-  O338  1  0.43695689  0.93045956  0.96722957  1
  O2-  O339  1  0.06298382  0.40238398  0.06052007  1
  O2-  O340  1  0.56886004  0.06051454  0.17521886  1
  O2-  O341  1  0.56551830  0.74217110  0.69859717  1
  O2-  O342  1  0.56362201  0.06888499  0.78387134  1
  O2-  O343  1  0.06406626  0.06955266  0.94191803  1
  O2-  O344  1  0.93673222  0.40301510  0.21638557  1
  O2-  O345  1  0.06369913  0.92718290  0.03374687  1
  O2-  O346  1  0.93337976  0.25702079  0.70028833  1
  O2-  O347  1  0.92941839  0.93575353  0.21065183  1
  O2-  O348  1  0.07912139  0.72608524  0.95823641  1
  O2-  O349  1  0.56581537  0.74271389  0.80159398  1
  O2-  O350  1  0.06554487  0.92427169  0.52743703  1
  O2-  O351  1  0.06718582  0.06590819  0.21906793  1
  O2-  O352  1  0.42433715  0.40222817  0.32046853  1
  O2-  O353  1  0.93543052  0.26335933  0.80594621  1
  O2-  O354  1  0.43561378  0.40144743  0.03127565  1
  O2-  O355  1  0.06382142  0.59513104  0.21485696  1
  O2-  O356  1  0.06246768  0.92765143  0.78382605  1
  O2-  O357  1  0.06404438  0.26041458  0.46478538  1
  O2-  O358  1  0.56611365  0.59334367  0.77886604  1
  O2-  O359  1  0.92547832  0.72722435  0.45313398  1
  O2-  O360  1  0.57846238  0.70675131  0.44474697  1
  O2-  O361  1  0.57314471  0.05197185  0.31652477  1
  O2-  O362  1  0.42843000  0.26769270  0.54041976  1
  O2-  O363  1  0.56465334  0.40221789  0.96755664  1
  O2-  O364  1  0.93518814  0.25380232  0.47086321  1
  O2-  O365  1  0.92245446  0.38823812  0.46275608  1
  O2-  O366  1  0.43535129  0.74268168  0.97162869  1
  O2-  O367  1  0.06410556  0.07221504  0.78413985  1
  O2-  O368  1  0.06447166  0.73749316  0.46888311  1
  O2-  O369  1  0.42815472  0.61071918  0.69643843  1
  O2-  O370  1  0.43676129  0.93154602  0.53166226  1
  O2-  O371  1  0.44306621  0.41799890  0.54359971  1
  O2-  O372  1  0.75002441  0.66566008  0.67546225  1
  O2-  O373  1  0.74985307  0.67216834  0.39983217  1
  O2-  O374  1  0.24990178  0.64138676  0.66291847  1
  O2-  O375  1  0.74988774  0.67427736  0.58539568  1
  O2-  O376  1  0.75005742  0.66382720  0.09330238  1
  O2-  O377  1  0.75018819  0.33600615  0.15223840  1
  O2-  O378  1  0.24999544  0.32007697  0.58932162  1
  O2-  O379  1  0.25005424  0.00529406  0.64425340  1
  O2-  O380  1  0.75007753  0.00104814  0.09784438  1
  O2-  O381  1  0.25004114  0.68310595  0.58334092  1
  O2-  O382  1  0.24997028  0.64934395  0.82926536  1
  O2-  O383  1  0.25029283  0.33302476  0.90056926  1
  O2-  O384  1  0.74987019  -0.00299936  0.85429836  1
  O2-  O385  1  0.25000813  0.33908863  0.14991339  1
  O2-  O386  1  0.75007564  0.33683529  0.90559820  1
  O2-  O387  1  0.74994582  0.00102236  0.67714792  1
  O2-  O388  1  0.25017295  0.66786158  0.18167193  1
  O2-  O389  1  0.24996684  0.33772764  0.67796234  1
  O2-  O390  1  0.74985024  0.33550894  0.35089418  1
  O2-  O391  1  0.74998520  -0.01072499  0.58870038  1
  O2-  O392  1  0.24970451  0.33867950  0.34944014  1
  O2-  O393  1  0.74995238  0.33772308  0.60450954  1
  O2-  O394  1  0.24981213  0.67505779  0.91636812  1
  O2-  O395  1  0.24995118  0.67466483  0.08080467  1
  O2-  O396  1  0.24992131  0.83074347  0.67212932  1
  O2-  O397  1  0.25004766  0.17661966  0.37010764  1
  O2-  O398  1  0.24995941  0.17307131  0.12468577  1
  O2-  O399  1  0.25009660  0.16476661  0.66851097  1
  O2-  O400  1  0.75008697  0.83446494  0.84512969  1
  O2-  O401  1  0.75004023  0.16648546  0.83483146  1
  O2-  O402  1  0.74997372  0.50002759  0.09017525  1
  O2-  O403  1  0.75005514  0.16661719  0.91453896  1
  O2-  O404  1  0.74996010  0.49151329  0.89105496  1
  O2-  O405  1  0.25010493  0.50032628  0.34338585  1
  O2-  O406  1  0.74990940  0.17452327  0.37223754  1
  O2-  O407  1  0.74990909  0.50554151  0.33057911  1
  O2-  O408  1  0.24984919  0.83855282  0.15518741  1
  O2-  O409  1  0.75013899  0.83836491  0.11271284  1
  O2-  O410  1  0.75008281  0.17758364  0.12849768  1
  O2-  O411  1  0.24991806  0.50016630  0.81878990  1
  O2-  O412  1  0.25016642  0.83345307  0.58440928  1
  O2-  O413  1  0.24987951  0.50571863  0.90280486  1
  O2-  O414  1  0.25005410  0.16909440  0.58445801  1
  O2-  O415  1  0.25003125  0.84269641  0.06704417  1
  O2-  O416  1  0.75007950  0.51171409  0.57577311  1
  O2-  O417  1  0.75006008  0.83261050  0.59230151  1
  O2-  O418  1  0.74985998  0.48305633  0.65754567  1
  O2-  O419  1  0.25002511  0.16109625  0.91385545  1
  O2-  O420  1  0.02995283  0.32695498  0.63319629  1
  O2-  O421  1  0.46903956  0.32843008  0.63915899  1
  O2-  O422  1  0.02542429  0.32796663  0.86799671  1
  O2-  O423  1  0.53232372  0.33465337  0.36918274  1
  O2-  O424  1  0.46798631  0.67186566  0.86287188  1
  O2-  O425  1  0.97614903  0.33378321  0.36655489  1
  O2-  O426  1  0.97351125  0.00380367  0.11865029  1
  O2-  O427  1  0.97558820  0.66561893  0.62478177  1
  O2-  O428  1  0.52529830  0.66026111  0.62168110  1
  O2-  O429  1  0.96066427  0.66713774  0.87424900  1
  O2-  O430  1  0.03067197  0.66801010  0.87562132  1
  O2-  O431  1  0.97186904  0.66683257  0.12362034  1
  O2-  O432  1  0.53755733  0.67366163  0.12830420  1
  O2-  O433  1  0.45934014  0.66796495  0.12696537  1
  O2-  O434  1  0.53269836  0.66505996  0.88980598  1
  O2-  O435  1  0.97033587  0.33823951  0.61961042  1
  O2-  O436  1  0.97578274  0.66287774  0.36451098  1
  O2-  O437  1  0.47236624  -0.00527436  0.38009258  1
  O2-  O438  1  0.95694153  -0.00095371  0.62370488  1
  O2-  O439  1  0.52897468  0.33422860  0.12342082  1
  O2-  O440  1  0.47628985  0.32025434  0.37582311  1
  O2-  O441  1  0.53665310  0.33439034  0.62269132  1
  O2-  O442  1  0.97182218  -0.00217573  0.87700188  1
  O2-  O443  1  0.03962720  0.00620073  0.63094758  1
