# generated using pymatgen
data_La7(Ru4O11)2
_symmetry_space_group_name_H-M   'P 1'
_cell_length_a   23.99110343
_cell_length_b   16.83243995
_cell_length_c   15.42797302
_cell_angle_alpha   89.99813460
_cell_angle_beta   89.99961513
_cell_angle_gamma   89.99801523
_symmetry_Int_Tables_number   1
_chemical_formula_structural   La7(Ru4O11)2
_chemical_formula_sum   'La84 Ru96 O264'
_cell_volume   6230.25994733
_cell_formula_units_Z   12
loop_
 _symmetry_equiv_pos_site_id
 _symmetry_equiv_pos_as_xyz
  1  'x, y, z'
loop_
 _atom_type_symbol
 _atom_type_oxidation_number
  La3+  3.0
  Ru4+  4.0
  O2-  -2.0
loop_
 _atom_site_type_symbol
 _atom_site_label
 _atom_site_symmetry_multiplicity
 _atom_site_fract_x
 _atom_site_fract_y
 _atom_site_fract_z
 _atom_site_occupancy
  La3+  La0  1  0.13913362  -0.00024827  0.12600346  1
  La3+  La1  1  0.14385385  0.00128162  0.37636466  1
  La3+  La2  1  0.14469702  -0.00191488  0.62183100  1
  La3+  La3  1  0.14026254  -0.00483369  0.87460964  1
  La3+  La4  1  0.13238497  0.33410245  0.12649165  1
  La3+  La5  1  0.13605882  0.33578127  0.37446604  1
  La3+  La6  1  0.13239302  0.33604228  0.62557706  1
  La3+  La7  1  0.13805864  0.33614565  0.87216298  1
  La3+  La8  1  0.14157716  0.66814956  0.12662020  1
  La3+  La9  1  0.14206637  0.66726397  0.37267957  1
  La3+  La10  1  0.13825681  0.67076399  0.62571859  1
  La3+  La11  1  0.13975583  0.67212373  0.87477703  1
  La3+  La12  1  0.63967961  0.00521244  0.12380965  1
  La3+  La13  1  0.63467494  0.00252874  0.37821383  1
  La3+  La14  1  0.64069218  0.00028721  0.62600077  1
  La3+  La15  1  0.63999724  0.00291565  0.87351783  1
  La3+  La16  1  0.62762678  0.33496362  0.10515968  1
  La3+  La17  1  0.63470072  0.33136067  0.37650158  1
  La3+  La18  1  0.63512648  0.33333868  0.62362752  1
  La3+  La19  1  0.62761924  0.33074393  0.89247720  1
  La3+  La20  1  0.63969556  0.66736211  0.12300178  1
  La3+  La21  1  0.63510548  0.66656587  0.37840310  1
  La3+  La22  1  0.63418498  0.66469019  0.63095372  1
  La3+  La23  1  0.64049235  0.66260152  0.86955046  1
  La3+  La24  1  0.36261408  -0.00108960  0.12569425  1
  La3+  La25  1  0.35823978  0.00099832  0.38015683  1
  La3+  La26  1  0.35990384  -0.00257287  0.62080568  1
  La3+  La27  1  0.35937315  -0.00377612  0.87350515  1
  La3+  La28  1  0.36308135  0.33348047  0.12599225  1
  La3+  La29  1  0.36257389  0.33295485  0.37618414  1
  La3+  La30  1  0.36478410  0.33307509  0.62271500  1
  La3+  La31  1  0.35938389  0.33321770  0.87319838  1
  La3+  La32  1  0.35767693  0.66779851  0.12743685  1
  La3+  La33  1  0.35455027  0.66779903  0.37288097  1
  La3+  La34  1  0.35552978  0.66617799  0.62276962  1
  La3+  La35  1  0.35559415  0.66687799  0.87766245  1
  La3+  La36  1  0.86508667  0.00416669  0.12403197  1
  La3+  La37  1  0.86653899  0.00033026  0.37592669  1
  La3+  La38  1  0.85758187  0.00325222  0.62762887  1
  La3+  La39  1  0.85812060  0.00254939  0.87372678  1
  La3+  La40  1  0.86430718  0.33117575  0.11574098  1
  La3+  La41  1  0.86492062  0.33332636  0.37897783  1
  La3+  La42  1  0.86051056  0.33381772  0.62475065  1
  La3+  La43  1  0.85475195  0.33021342  0.87432021  1
  La3+  La44  1  0.86547015  0.66471613  0.12329121  1
  La3+  La45  1  0.86023765  0.66448398  0.37667098  1
  La3+  La46  1  0.86420887  0.66750847  0.62761068  1
  La3+  La47  1  0.86143642  0.66399655  0.87034811  1
  La3+  La48  1  -0.00110180  0.49973406  0.36645935  1
  La3+  La49  1  0.50174866  0.49311470  0.86107377  1
  La3+  La50  1  0.00080822  0.16437025  0.63512849  1
  La3+  La51  1  -0.00033272  0.16402237  0.37720683  1
  La3+  La52  1  0.49727865  0.16837764  0.61785858  1
  La3+  La53  1  0.00131506  0.82871101  0.11462427  1
  La3+  La54  1  0.50366429  0.83860844  0.38872003  1
  La3+  La55  1  -0.00114048  0.16142136  0.87387910  1
  La3+  La56  1  0.50371701  0.17211673  0.12671360  1
  La3+  La57  1  0.50138673  0.83313259  0.12566602  1
  La3+  La58  1  0.00299149  0.84165405  0.61958428  1
  La3+  La59  1  0.00286976  0.83817286  0.13452698  1
  La3+  La60  1  0.50399197  0.49480529  0.10245608  1
  La3+  La61  1  0.50086931  0.16762421  0.89294818  1
  La3+  La62  1  0.49792120  0.83844684  0.36827991  1
  La3+  La63  1  0.50229527  0.83713114  0.62055821  1
  La3+  La64  1  0.50115301  0.83536426  0.86644698  1
  La3+  La65  1  0.00475659  0.17145906  0.61528472  1
  La3+  La66  1  0.50137097  0.50023200  0.39024578  1
  La3+  La67  1  0.49667557  0.49584092  0.36940368  1
  La3+  La68  1  0.00583629  0.16425892  0.89337193  1
  La3+  La69  1  0.49728491  0.17404911  0.87845715  1
  La3+  La70  1  -0.00114497  0.50452677  0.63353905  1
  La3+  La71  1  0.49774563  0.17001749  0.36877411  1
  La3+  La72  1  0.74919582  0.15078279  0.25812933  1
  La3+  La73  1  0.25035251  0.16925981  0.02998431  1
  La3+  La74  1  0.74929251  0.84422278  0.51057149  1
  La3+  La75  1  0.74996146  0.16544363  0.51541621  1
  La3+  La76  1  0.24994368  0.45131408  0.05001602  1
  La3+  La77  1  0.25015466  0.19674543  0.74813435  1
  La3+  La78  1  0.75022202  0.83447442  0.05465540  1
  La3+  La79  1  0.75008393  0.45461491  0.50462987  1
  La3+  La80  1  0.74923144  0.49353016  0.18842075  1
  La3+  La81  1  0.25045568  0.43042337  0.74363196  1
  La3+  La82  1  0.75004477  0.87815243  0.25627093  1
  La3+  La83  1  0.75005027  0.49873349  0.00538777  1
  Ru4+  Ru84  1  0.00091273  0.00176500  0.00065588  1
  Ru4+  Ru85  1  -0.00359539  0.00344573  0.24966662  1
  Ru4+  Ru86  1  -0.00335102  -0.00936194  0.49584252  1
  Ru4+  Ru87  1  0.00297358  -0.00066883  0.75324750  1
  Ru4+  Ru88  1  0.00263264  0.34277475  -0.00120419  1
  Ru4+  Ru89  1  -0.00197717  0.32869812  0.23574562  1
  Ru4+  Ru90  1  -0.00624485  0.33019812  0.50182154  1
  Ru4+  Ru91  1  -0.00788571  0.33858646  0.75241832  1
  Ru4+  Ru92  1  0.00028745  0.66414905  -0.00456752  1
  Ru4+  Ru93  1  0.00056643  0.66448957  0.24330497  1
  Ru4+  Ru94  1  0.00108045  0.67157710  0.49737311  1
  Ru4+  Ru95  1  -0.00481477  0.66256992  0.75886159  1
  Ru4+  Ru96  1  0.50143690  -0.00176353  0.00023117  1
  Ru4+  Ru97  1  0.49829124  0.00101558  0.24797298  1
  Ru4+  Ru98  1  0.49807420  0.00127357  0.50365188  1
  Ru4+  Ru99  1  0.49893131  0.00041817  0.74533394  1
  Ru4+  Ru100  1  0.50340121  0.33261246  0.00096436  1
  Ru4+  Ru101  1  0.50015889  0.33348713  0.24357154  1
  Ru4+  Ru102  1  0.49938207  0.33417258  0.50857417  1
  Ru4+  Ru103  1  0.50093383  0.33022898  0.75405270  1
  Ru4+  Ru104  1  0.50127388  0.66134620  0.00129380  1
  Ru4+  Ru105  1  0.49407338  0.66623122  0.24414689  1
  Ru4+  Ru106  1  0.49590861  0.66817331  0.50439338  1
  Ru4+  Ru107  1  0.49561790  0.67011633  0.74536844  1
  Ru4+  Ru108  1  0.11008325  0.16968283  0.00285117  1
  Ru4+  Ru109  1  0.11367997  0.16400859  0.25101626  1
  Ru4+  Ru110  1  0.11277239  0.16393857  0.49837512  1
  Ru4+  Ru111  1  0.11252410  0.16152090  0.74945143  1
  Ru4+  Ru112  1  0.10835441  0.50178557  0.00275569  1
  Ru4+  Ru113  1  0.11403012  0.50428084  0.25084480  1
  Ru4+  Ru114  1  0.11769618  0.49985563  0.50166489  1
  Ru4+  Ru115  1  0.11379505  0.50694477  0.75188890  1
  Ru4+  Ru116  1  0.11664121  0.83106931  0.00024156  1
  Ru4+  Ru117  1  0.11545462  0.83065053  0.25076557  1
  Ru4+  Ru118  1  0.11568147  0.83327632  0.49873448  1
  Ru4+  Ru119  1  0.11671089  0.83557678  0.75008840  1
  Ru4+  Ru120  1  0.61401510  0.16758019  0.00119156  1
  Ru4+  Ru121  1  0.60971213  0.17017305  0.24833029  1
  Ru4+  Ru122  1  0.61454900  0.17221333  0.50007370  1
  Ru4+  Ru123  1  0.61438196  0.16377180  0.75024166  1
  Ru4+  Ru124  1  0.60875761  0.49986659  0.00021359  1
  Ru4+  Ru125  1  0.61078772  0.49692847  0.24873476  1
  Ru4+  Ru126  1  0.61281471  0.49411818  0.50199890  1
  Ru4+  Ru127  1  0.61601070  0.49775308  0.75237702  1
  Ru4+  Ru128  1  0.61037692  0.83486371  0.00230070  1
  Ru4+  Ru129  1  0.60990670  0.83749563  0.24976943  1
  Ru4+  Ru130  1  0.60788316  0.83359478  0.49875407  1
  Ru4+  Ru131  1  0.61403023  0.83016155  0.74969576  1
  Ru4+  Ru132  1  0.38799574  0.16318764  -0.00072486  1
  Ru4+  Ru133  1  0.38625681  0.16263715  0.25018543  1
  Ru4+  Ru134  1  0.38540988  0.16418845  0.49943114  1
  Ru4+  Ru135  1  0.39132060  0.16325493  0.75051743  1
  Ru4+  Ru136  1  0.39051649  0.49966234  0.00108333  1
  Ru4+  Ru137  1  0.38733044  0.50269432  0.24981808  1
  Ru4+  Ru138  1  0.38846235  0.50359491  0.50439631  1
  Ru4+  Ru139  1  0.39103528  0.50134140  0.74909518  1
  Ru4+  Ru140  1  0.38389284  0.83326834  -0.00023807  1
  Ru4+  Ru141  1  0.38559084  0.82700723  0.24940674  1
  Ru4+  Ru142  1  0.38105685  0.82976414  0.50056711  1
  Ru4+  Ru143  1  0.38499930  0.83213181  0.75117580  1
  Ru4+  Ru144  1  0.88259124  0.16437879  0.00245079  1
  Ru4+  Ru145  1  0.89136249  0.16537247  0.24861525  1
  Ru4+  Ru146  1  0.88745634  0.17215354  0.49747591  1
  Ru4+  Ru147  1  0.88328023  0.16267934  0.74830243  1
  Ru4+  Ru148  1  0.88665235  0.49841505  -0.00003299  1
  Ru4+  Ru149  1  0.88764204  0.49732883  0.25157189  1
  Ru4+  Ru150  1  0.88861634  0.49845126  0.49867365  1
  Ru4+  Ru151  1  0.88701902  0.49803014  0.75045646  1
  Ru4+  Ru152  1  0.88952033  0.83280394  -0.00223015  1
  Ru4+  Ru153  1  0.88976877  0.83612236  0.25058690  1
  Ru4+  Ru154  1  0.89094171  0.83611582  0.49488813  1
  Ru4+  Ru155  1  0.88497153  0.83094058  0.75149297  1
  Ru4+  Ru156  1  0.25005375  0.59905452  0.74188913  1
  Ru4+  Ru157  1  0.75005770  0.90835555  0.74403279  1
  Ru4+  Ru158  1  0.74979082  0.74792524  0.26074836  1
  Ru4+  Ru159  1  0.75016793  0.40146043  0.29926866  1
  Ru4+  Ru160  1  0.24985479  0.03155782  0.00405471  1
  Ru4+  Ru161  1  0.24943326  0.30045501  -0.01442437  1
  Ru4+  Ru162  1  0.75005794  0.97788030  0.47704707  1
  Ru4+  Ru163  1  0.25016570  0.90891200  0.25600449  1
  Ru4+  Ru164  1  0.74954871  0.42247630  0.76356190  1
  Ru4+  Ru165  1  0.74961865  0.96770420  0.01119420  1
  Ru4+  Ru166  1  0.25051174  0.40384452  0.48872992  1
  Ru4+  Ru167  1  0.74942614  0.24465253  0.74837945  1
  Ru4+  Ru168  1  0.74986877  0.60268564  0.27404939  1
  Ru4+  Ru169  1  0.75056370  0.02321789  0.24215997  1
  Ru4+  Ru170  1  0.74944794  0.58620059  0.50785344  1
  Ru4+  Ru171  1  0.25046145  0.04881662  0.73757306  1
  Ru4+  Ru172  1  0.25029617  0.41693807  0.25062063  1
  Ru4+  Ru173  1  0.25051629  0.58860884  0.49339179  1
  Ru4+  Ru174  1  0.24987116  0.59815786  0.00235846  1
  Ru4+  Ru175  1  0.24969590  0.25070851  0.25187774  1
  Ru4+  Ru176  1  0.24948694  0.24770273  0.50195186  1
  Ru4+  Ru177  1  0.74936362  0.71367957  0.50526832  1
  Ru4+  Ru178  1  0.74972650  0.72184554  -0.02418697  1
  Ru4+  Ru179  1  0.75047710  0.27743570  0.25630081  1
  O2-  O180  1  0.16565390  0.07801344  0.00181858  1
  O2-  O181  1  0.16332122  0.08083583  0.24836970  1
  O2-  O182  1  0.16323606  0.08100036  0.49807692  1
  O2-  O183  1  0.16886346  0.07903502  0.75026059  1
  O2-  O184  1  0.16424298  0.41224479  -0.00100544  1
  O2-  O185  1  0.16698793  0.41325953  0.25093242  1
  O2-  O186  1  0.16675119  0.41205734  0.49993795  1
  O2-  O187  1  0.15989034  0.41012470  0.74660694  1
  O2-  O188  1  0.16636223  0.74929729  -0.00224799  1
  O2-  O189  1  0.16653463  0.75027328  0.25134328  1
  O2-  O190  1  0.16475469  0.74832446  0.50128513  1
  O2-  O191  1  0.16577429  0.74978639  0.75074302  1
  O2-  O192  1  0.66344484  0.08046174  0.00000290  1
  O2-  O193  1  0.66257041  0.07818104  0.25229357  1
  O2-  O194  1  0.66614231  0.08056222  0.49715227  1
  O2-  O195  1  0.66677987  0.08443591  0.75237273  1
  O2-  O196  1  0.66734517  0.41633913  -0.00099491  1
  O2-  O197  1  0.66638288  0.41348453  0.24913136  1
  O2-  O198  1  0.66612542  0.41024177  0.49829869  1
  O2-  O199  1  0.66719191  0.41458865  0.75021177  1
  O2-  O200  1  0.66541818  0.74628132  -0.00087617  1
  O2-  O201  1  0.66569989  0.74609296  0.25287654  1
  O2-  O202  1  0.66483603  0.74360725  0.49967171  1
  O2-  O203  1  0.66650699  0.74737635  0.75131656  1
  O2-  O204  1  0.33410053  0.25536654  0.00140683  1
  O2-  O205  1  0.33335146  0.25496104  0.25048977  1
  O2-  O206  1  0.33224348  0.25443231  0.49881256  1
  O2-  O207  1  0.33825756  0.25411798  0.74834067  1
  O2-  O208  1  0.33256053  0.58522510  0.00136344  1
  O2-  O209  1  0.33624667  0.58307187  0.25006112  1
  O2-  O210  1  0.33254481  0.58445360  0.49852107  1
  O2-  O211  1  0.33377522  0.58528245  0.75057247  1
  O2-  O212  1  0.33443274  0.91972958  0.00275877  1
  O2-  O213  1  0.33401642  0.91965995  0.24746260  1
  O2-  O214  1  0.33277128  0.91657333  0.49749165  1
  O2-  O215  1  0.33162237  0.91704125  0.75122466  1
  O2-  O216  1  0.83408302  0.25031207  0.00102555  1
  O2-  O217  1  0.83649770  0.25458077  0.25106481  1
  O2-  O218  1  0.83100651  0.25443873  0.49832901  1
  O2-  O219  1  0.83228157  0.25307952  0.74776990  1
  O2-  O220  1  0.83642765  0.58528061  0.00142951  1
  O2-  O221  1  0.83166238  0.58768556  0.24562322  1
  O2-  O222  1  0.83200521  0.58523639  0.50286665  1
  O2-  O223  1  0.83293531  0.58272516  0.75017318  1
  O2-  O224  1  0.83368157  0.92094759  0.00164121  1
  O2-  O225  1  0.83768969  0.92262877  0.25027751  1
  O2-  O226  1  0.83313897  0.92007941  0.49589692  1
  O2-  O227  1  0.83561279  0.91920433  0.75085506  1
  O2-  O228  1  0.16930608  0.25544609  0.00246997  1
  O2-  O229  1  0.16565102  0.25457673  0.25079325  1
  O2-  O230  1  0.16594822  0.25599441  0.49995867  1
  O2-  O231  1  0.16411082  0.25719899  0.74636202  1
  O2-  O232  1  0.16634616  0.58643603  -0.00156499  1
  O2-  O233  1  0.16460750  0.58341711  0.24983777  1
  O2-  O234  1  0.16717807  0.58581517  0.50102644  1
  O2-  O235  1  0.16593931  0.58641025  0.75025845  1
  O2-  O236  1  0.16384936  0.92142627  0.00115358  1
  O2-  O237  1  0.16598253  0.92036582  0.24787625  1
  O2-  O238  1  0.16445704  0.91836561  0.49889693  1
  O2-  O239  1  0.16546515  0.91915591  0.75099473  1
  O2-  O240  1  0.66862901  0.25163499  -0.00214331  1
  O2-  O241  1  0.66611434  0.25519342  0.24953276  1
  O2-  O242  1  0.66724124  0.25517778  0.50040976  1
  O2-  O243  1  0.66541957  0.25273257  0.74971307  1
  O2-  O244  1  0.66531266  0.58259953  -0.00113890  1
  O2-  O245  1  0.66496231  0.58851537  0.25015598  1
  O2-  O246  1  0.66478219  0.58562949  0.49880734  1
  O2-  O247  1  0.66700118  0.58514910  0.74926703  1
  O2-  O248  1  0.66862607  0.92053697  -0.00009726  1
  O2-  O249  1  0.66276292  0.92231983  0.25093684  1
  O2-  O250  1  0.66607871  0.92193506  0.49663515  1
  O2-  O251  1  0.66634742  0.91855358  0.75133652  1
  O2-  O252  1  0.33206725  0.07802671  0.00323314  1
  O2-  O253  1  0.33634431  0.08088305  0.24883941  1
  O2-  O254  1  0.33294166  0.08267287  0.49593540  1
  O2-  O255  1  0.32931018  0.07904116  0.75081017  1
  O2-  O256  1  0.33696038  0.41142028  -0.00200318  1
  O2-  O257  1  0.33311093  0.41166251  0.25105972  1
  O2-  O258  1  0.33321075  0.41302951  0.49959575  1
  O2-  O259  1  0.34185482  0.41090798  0.74985904  1
  O2-  O260  1  0.33633600  0.74908724  0.00050995  1
  O2-  O261  1  0.33220925  0.74992460  0.25005754  1
  O2-  O262  1  0.33261464  0.74863120  0.49921136  1
  O2-  O263  1  0.33192902  0.75381619  0.75023362  1
  O2-  O264  1  0.83455379  0.07929164  0.00135242  1
  O2-  O265  1  0.83431418  0.07674211  0.25195593  1
  O2-  O266  1  0.83494279  0.07976468  0.49720277  1
  O2-  O267  1  0.83313233  0.08224925  0.75246666  1
  O2-  O268  1  0.83110026  0.41695908  0.00219850  1
  O2-  O269  1  0.83559169  0.41347309  0.24899785  1
  O2-  O270  1  0.83458788  0.41083366  0.50026977  1
  O2-  O271  1  0.83051700  0.41620899  0.74881964  1
  O2-  O272  1  0.83392642  0.74533423  0.00038850  1
  O2-  O273  1  0.83401243  0.74661722  0.24807873  1
  O2-  O274  1  0.83337047  0.74842635  0.50216388  1
  O2-  O275  1  0.83580008  0.74761125  0.75108909  1
  O2-  O276  1  0.44878890  0.90084890  0.98687385  1
  O2-  O277  1  0.54675110  0.76237057  0.25970814  1
  O2-  O278  1  0.54946717  0.42559167  0.01386894  1
  O2-  O279  1  0.04202560  0.20607015  0.04430802  1
  O2-  O280  1  0.54455192  0.88351075  0.96880320  1
  O2-  O281  1  0.54984403  0.56718705  0.51806573  1
  O2-  O282  1  0.94999835  0.23833148  0.76139394  1
  O2-  O283  1  0.04977781  0.23771241  0.75980718  1
  O2-  O284  1  0.45437305  0.90415456  0.50936853  1
  O2-  O285  1  0.53725355  0.56145144  0.95629526  1
  O2-  O286  1  0.96734966  0.44729244  0.99837253  1
  O2-  O287  1  0.55170320  0.09671188  0.51575855  1
  O2-  O288  1  0.04968509  0.56543292  0.51788581  1
  O2-  O289  1  0.04416364  0.42493171  0.47993764  1
  O2-  O290  1  0.54483802  0.09163933  0.47810600  1
  O2-  O291  1  0.54108196  0.43273946  0.98974885  1
  O2-  O292  1  0.54496060  0.09590214  0.26196890  1
  O2-  O293  1  0.05118234  0.42883111  0.26668169  1
  O2-  O294  1  0.96745416  0.88629090  0.46009040  1
  O2-  O295  1  0.95241670  0.76489168  0.23942835  1
  O2-  O296  1  0.45184213  0.56573409  0.73877776  1
  O2-  O297  1  0.94828651  0.23177575  0.01745667  1
  O2-  O298  1  0.04892025  0.44197530  0.76667089  1
  O2-  O299  1  0.95306472  0.24513995  0.98198502  1
  O2-  O300  1  0.53864311  0.11488280  0.77872299  1
  O2-  O301  1  0.95951856  0.76227817  0.53961019  1
  O2-  O302  1  0.45387634  0.23149215  0.23686860  1
  O2-  O303  1  0.04613503  0.42344705  0.73320594  1
  O2-  O304  1  0.54654060  0.23794587  0.48276727  1
  O2-  O305  1  0.44686221  0.24257186  0.98860936  1
  O2-  O306  1  0.46685217  0.78376101  0.75539318  1
  O2-  O307  1  0.04282570  0.57284814  0.48115675  1
  O2-  O308  1  0.54559809  0.57155434  0.26168822  1
  O2-  O309  1  0.05038476  0.57177323  0.26273411  1
  O2-  O310  1  0.95396690  0.76367691  0.98590473  1
  O2-  O311  1  0.45279586  0.76166139  0.48960442  1
  O2-  O312  1  0.54443809  0.22634227  0.00114492  1
  O2-  O313  1  0.46878822  0.78969987  0.73768177  1
  O2-  O314  1  0.05571737  0.43039682  0.01279149  1
  O2-  O315  1  0.95638576  0.45500245  0.03188432  1
  O2-  O316  1  0.95579668  0.09931370  0.51270427  1
  O2-  O317  1  0.04904897  0.76530893  0.73453207  1
  O2-  O318  1  0.45395357  0.90006032  0.23643586  1
  O2-  O319  1  0.55303294  0.23938393  0.98071088  1
  O2-  O320  1  0.95665989  0.55330221  0.21976743  1
  O2-  O321  1  0.95267779  0.90516272  0.00840584  1
  O2-  O322  1  0.04930336  0.43064022  0.51783003  1
  O2-  O323  1  0.55065711  0.56543289  0.73219601  1
  O2-  O324  1  0.93712899  0.06834087  0.71480986  1
  O2-  O325  1  0.92775408  0.94572281  0.56063035  1
  O2-  O326  1  0.56144752  0.92165929  0.71768861  1
  O2-  O327  1  0.56722677  0.40039765  0.96230496  1
  O2-  O328  1  0.93597397  0.40506427  0.81199230  1
  O2-  O329  1  0.92047801  0.36551913  0.94558849  1
  O2-  O330  1  0.43414205  0.07777055  0.52607331  1
  O2-  O331  1  0.43729907  0.73529853  0.32430471  1
  O2-  O332  1  0.56160199  0.59811041  0.52743358  1
  O2-  O333  1  0.92883464  0.59866517  0.28791635  1
  O2-  O334  1  0.93673693  0.26151771  0.57260086  1
  O2-  O335  1  0.56977809  0.26045017  0.03199654  1
  O2-  O336  1  0.43238024  0.08478638  0.68669250  1
  O2-  O337  1  0.06264411  0.73561863  0.72730909  1
  O2-  O338  1  0.06166111  0.40146980  0.28660602  1
  O2-  O339  1  0.56384341  0.40567114  0.52221864  1
  O2-  O340  1  0.06272194  0.59550256  0.02945124  1
  O2-  O341  1  0.55904156  0.59823498  0.72328417  1
  O2-  O342  1  0.43583968  0.25857578  0.53375683  1
  O2-  O343  1  0.43588936  0.92671590  0.72607095  1
  O2-  O344  1  0.57046471  0.61522358  0.06365976  1
  O2-  O345  1  0.93217751  0.58342228  0.44016362  1
  O2-  O346  1  0.93510512  0.58936515  0.72770755  1
  O2-  O347  1  0.43370069  0.92076219  0.52320086  1
  O2-  O348  1  0.43600577  0.07164013  0.81914664  1
  O2-  O349  1  0.57266270  0.06025475  0.68622666  1
  O2-  O350  1  0.56444790  0.74024192  0.71414726  1
  O2-  O351  1  0.93815542  0.75398155  0.55781572  1
  O2-  O352  1  0.41990823  0.71949003  0.81635791  1
  O2-  O353  1  0.93626908  0.40768582  0.46469617  1
  O2-  O354  1  0.56328779  0.25988387  0.28642820  1
  O2-  O355  1  0.43643734  0.59465179  0.42619135  1
  O2-  O356  1  0.07672634  0.27322093  0.95018916  1
  O2-  O357  1  0.43814211  0.07032982  0.97000413  1
  O2-  O358  1  0.93999516  0.25760282  0.42743599  1
  O2-  O359  1  0.42892253  0.71015865  0.66779875  1
  O2-  O360  1  0.93596971  0.40434882  0.67932102  1
  O2-  O361  1  0.43430487  0.58831491  0.02655952  1
  O2-  O362  1  0.93460893  0.07611037  0.22546077  1
  O2-  O363  1  0.06317486  0.74047246  0.03397248  1
  O2-  O364  1  0.57102504  0.94821785  0.06398289  1
  O2-  O365  1  0.56142755  0.40695407  0.28589988  1
  O2-  O366  1  0.43710427  0.40939879  0.53109392  1
  O2-  O367  1  0.43313558  0.74911927  0.18538761  1
  O2-  O368  1  0.06319201  0.73568101  0.21660805  1
  O2-  O369  1  0.43725812  0.59532409  0.56627421  1
  O2-  O370  1  0.91916534  0.74402827  0.41615077  1
  O2-  O371  1  0.93224691  0.58555094  0.55854426  1
  O2-  O372  1  0.75021260  0.34238883  0.15427137  1
  O2-  O373  1  0.75017312  0.01147463  0.58763527  1
  O2-  O374  1  0.24914992  0.66434460  0.32976416  1
  O2-  O375  1  0.24906945  0.00533762  0.61428118  1
  O2-  O376  1  0.24951974  0.67815765  0.82673485  1
  O2-  O377  1  0.24997803  0.66456944  0.17275629  1
  O2-  O378  1  0.24997363  0.68004228  0.08577922  1
  O2-  O379  1  0.75037515  0.63936717  0.06189831  1
  O2-  O380  1  0.24859579  0.66922469  0.64616635  1
  O2-  O381  1  0.24967902  -0.00449850  0.89155690  1
  O2-  O382  1  0.74963575  0.65438774  0.88479716  1
  O2-  O383  1  0.75031244  0.67537903  0.17181331  1
  O2-  O384  1  0.75038043  0.01543020  0.90854483  1
  O2-  O385  1  0.24966010  -0.00474158  0.33877539  1
  O2-  O386  1  0.74963967  -0.00956537  0.35844378  1
  O2-  O387  1  0.25066766  0.33265373  0.85103425  1
  O2-  O388  1  0.74918179  0.67833537  0.37026101  1
  O2-  O389  1  0.24963436  0.67806637  0.91934754  1
  O2-  O390  1  0.24932467  0.67517889  0.41874927  1
  O2-  O391  1  0.75019956  0.00246355  0.81863942  1
  O2-  O392  1  0.74904302  0.33179473  0.84177088  1
  O2-  O393  1  0.75023284  -0.01754476  0.13147569  1
  O2-  O394  1  0.75009517  0.33805181  0.06434508  1
  O2-  O395  1  0.75000404  0.00643641  0.68103725  1
  O2-  O396  1  0.25030831  0.52045571  0.64463353  1
  O2-  O397  1  0.24989805  0.50620798  0.92737239  1
  O2-  O398  1  0.75012800  0.83146649  0.90690739  1
  O2-  O399  1  0.75005707  0.17481952  0.38695544  1
  O2-  O400  1  0.24985370  0.83366033  0.90983864  1
  O2-  O401  1  0.75025489  0.49147670  0.87259623  1
  O2-  O402  1  0.24962129  0.16654376  0.41790283  1
  O2-  O403  1  0.75009773  0.50417139  0.35965146  1
  O2-  O404  1  0.24991633  0.49914348  0.40753848  1
  O2-  O405  1  0.24985845  0.83672368  0.33330250  1
  O2-  O406  1  0.24992532  0.17443557  0.59077580  1
  O2-  O407  1  0.24999928  0.16412812  0.88575439  1
  O2-  O408  1  0.75011391  0.82313165  0.81761222  1
  O2-  O409  1  0.24991261  0.17040454  0.16822291  1
  O2-  O410  1  0.74980696  0.16295322  0.83093254  1
  O2-  O411  1  0.25008529  0.52265229  0.84029393  1
  O2-  O412  1  0.75013105  0.16486849  0.12998913  1
  O2-  O413  1  0.75014375  0.17093114  0.91443160  1
  O2-  O414  1  0.75005338  0.17543648  0.64899893  1
  O2-  O415  1  0.25008855  0.50134159  0.17689240  1
  O2-  O416  1  0.75005648  0.83416016  0.65487999  1
  O2-  O417  1  0.24961525  0.16678710  0.33061568  1
  O2-  O418  1  0.24972183  0.49473699  0.55729915  1
  O2-  O419  1  0.24984629  0.84025655  0.10191653  1
  O2-  O420  1  0.52592668  0.32713276  0.63302252  1
  O2-  O421  1  0.03788677  0.67210397  0.37673699  1
  O2-  O422  1  0.48601921  -0.00461749  0.62083057  1
  O2-  O423  1  0.02244672  0.33555535  0.86862153  1
  O2-  O424  1  0.97735043  -0.00449099  0.12262785  1
  O2-  O425  1  0.97451949  0.66432903  0.87546008  1
  O2-  O426  1  0.97732663  0.66691871  0.63939146  1
  O2-  O427  1  0.04237312  0.33354296  0.13374690  1
  O2-  O428  1  0.54179273  0.33841903  0.13945349  1
  O2-  O429  1  0.47236797  0.00409823  0.12459325  1
  O2-  O430  1  0.02933181  0.32586638  0.62468038  1
  O2-  O431  1  0.03431384  0.66445678  0.61561761  1
  O2-  O432  1  0.95654031  0.33029181  0.13558392  1
  O2-  O433  1  0.47094761  0.33661259  0.37478415  1
  O2-  O434  1  0.02812823  -0.00065955  0.62390170  1
  O2-  O435  1  0.98122662  0.66994498  0.36862769  1
  O2-  O436  1  0.02733158  0.00015734  0.87521913  1
  O2-  O437  1  0.47808263  0.66043490  0.88854976  1
  O2-  O438  1  0.47302402  -0.00083856  0.37614426  1
  O2-  O439  1  0.52841694  0.00059774  0.87407691  1
  O2-  O440  1  0.48214195  0.66203017  0.12258875  1
  O2-  O441  1  0.45348419  0.33744854  0.12630459  1
  O2-  O442  1  0.97339416  0.00568042  0.37013190  1
  O2-  O443  1  0.97260003  0.66856989  0.12217326  1
