# generated using pymatgen
data_La7(Ru4O11)2
_symmetry_space_group_name_H-M   'P 1'
_cell_length_a   23.99546794
_cell_length_b   16.83696132
_cell_length_c   15.43360783
_cell_angle_alpha   89.99767472
_cell_angle_beta   90.00051026
_cell_angle_gamma   90.00571154
_symmetry_Int_Tables_number   1
_chemical_formula_structural   La7(Ru4O11)2
_chemical_formula_sum   'La84 Ru96 O264'
_cell_volume   6235.34367490
_cell_formula_units_Z   12
loop_
 _symmetry_equiv_pos_site_id
 _symmetry_equiv_pos_as_xyz
  1  'x, y, z'
loop_
 _atom_type_symbol
 _atom_type_oxidation_number
  La3+  3.0
  Ru4+  4.0
  O2-  -2.0
loop_
 _atom_site_type_symbol
 _atom_site_label
 _atom_site_symmetry_multiplicity
 _atom_site_fract_x
 _atom_site_fract_y
 _atom_site_fract_z
 _atom_site_occupancy
  La3+  La0  1  0.15057626  0.00280173  0.12566115  1
  La3+  La1  1  0.14620621  -0.00222285  0.36701310  1
  La3+  La2  1  0.13863068  0.00167437  0.62767044  1
  La3+  La3  1  0.14095789  0.00683367  0.87722023  1
  La3+  La4  1  0.14039107  0.32893952  0.12208102  1
  La3+  La5  1  0.14049667  0.32947338  0.36897176  1
  La3+  La6  1  0.13974577  0.32447066  0.62773591  1
  La3+  La7  1  0.13471754  0.32895083  0.87917213  1
  La3+  La8  1  0.14494369  0.67018643  0.12236859  1
  La3+  La9  1  0.13021843  0.66297420  0.36827314  1
  La3+  La10  1  0.13221037  0.66751999  0.62961756  1
  La3+  La11  1  0.14142315  0.66714974  0.87669943  1
  La3+  La12  1  0.62198280  -0.00350160  0.13128491  1
  La3+  La13  1  0.63955982  -0.00939324  0.36272238  1
  La3+  La14  1  0.62434028  -0.00108905  0.63484575  1
  La3+  La15  1  0.65930597  0.00145329  0.87020509  1
  La3+  La16  1  0.63614204  0.33778581  0.12755083  1
  La3+  La17  1  0.63469849  0.33003154  0.37044796  1
  La3+  La18  1  0.64401923  0.33773322  0.62752436  1
  La3+  La19  1  0.63646585  0.33060771  0.87471817  1
  La3+  La20  1  0.64219546  0.67749426  0.12720989  1
  La3+  La21  1  0.63922070  0.67160552  0.37304074  1
  La3+  La22  1  0.63073644  0.67355488  0.62009022  1
  La3+  La23  1  0.64776241  0.66276878  0.87580266  1
  La3+  La24  1  0.35120279  0.00019434  0.12293554  1
  La3+  La25  1  0.34830465  0.00251516  0.36616628  1
  La3+  La26  1  0.35921270  0.00614168  0.62766217  1
  La3+  La27  1  0.36085792  0.00336700  0.87223710  1
  La3+  La28  1  0.35780883  0.32763524  0.12416707  1
  La3+  La29  1  0.36031883  0.32408015  0.37231180  1
  La3+  La30  1  0.35898337  0.32432088  0.63046477  1
  La3+  La31  1  0.35908176  0.33060948  0.87424755  1
  La3+  La32  1  0.36068813  0.67428034  0.12032791  1
  La3+  La33  1  0.35865993  0.66868560  0.37797121  1
  La3+  La34  1  0.36253250  0.67065587  0.62673751  1
  La3+  La35  1  0.35242581  0.66816577  0.87634093  1
  La3+  La36  1  0.86701056  -0.00023561  0.12439240  1
  La3+  La37  1  0.86566779  -0.00793100  0.37489985  1
  La3+  La38  1  0.86515837  0.00299594  0.62590222  1
  La3+  La39  1  0.83945953  0.00383772  0.87208823  1
  La3+  La40  1  0.85202569  0.34237849  0.12701956  1
  La3+  La41  1  0.87071094  0.33882524  0.37185322  1
  La3+  La42  1  0.86904124  0.34560493  0.62829997  1
  La3+  La43  1  0.86486953  0.33962732  0.87098545  1
  La3+  La44  1  0.85951829  0.67889040  0.13093640  1
  La3+  La45  1  0.86511081  0.66993017  0.36657465  1
  La3+  La46  1  0.86297660  0.66699732  0.62546206  1
  La3+  La47  1  0.86042968  0.67157430  0.87152047  1
  La3+  La48  1  0.50193394  0.84715305  0.62540606  1
  La3+  La49  1  0.49755251  0.49611915  0.11557257  1
  La3+  La50  1  -0.00118366  0.49876514  0.61926371  1
  La3+  La51  1  0.49914931  0.50290434  0.87713365  1
  La3+  La52  1  0.00389487  0.15891040  0.63010228  1
  La3+  La53  1  0.00367932  0.48855281  0.39383699  1
  La3+  La54  1  0.00290355  0.83880950  0.84980067  1
  La3+  La55  1  0.00167367  0.49505647  0.85583193  1
  La3+  La56  1  0.00418172  0.50220062  0.87677477  1
  La3+  La57  1  0.50127442  0.16935039  0.13268302  1
  La3+  La58  1  0.50597111  0.50056811  0.13266718  1
  La3+  La59  1  0.50115270  0.83074907  0.35597198  1
  La3+  La60  1  0.50530314  0.83693992  0.87756394  1
  La3+  La61  1  0.50460384  0.84686277  0.60857919  1
  La3+  La62  1  0.49910967  0.49469681  0.39063002  1
  La3+  La63  1  0.00075773  0.49826361  0.12340267  1
  La3+  La64  1  0.50769692  0.50228510  0.37458219  1
  La3+  La65  1  0.49397410  0.49454190  0.62450753  1
  La3+  La66  1  0.49518163  0.49834470  0.85658604  1
  La3+  La67  1  0.00182670  0.84324096  0.61141924  1
  La3+  La68  1  0.49363827  0.16033868  0.11608721  1
  La3+  La69  1  0.00072432  0.84055700  0.36261809  1
  La3+  La70  1  0.49470275  0.17663144  0.63956173  1
  La3+  La71  1  0.50652973  0.83385831  0.37651319  1
  La3+  La72  1  0.74930776  0.55333128  0.46170528  1
  La3+  La73  1  0.75139391  0.51554093  0.77773448  1
  La3+  La74  1  0.75230725  0.80252390  0.45789307  1
  La3+  La75  1  0.25144058  0.47215121  0.23303268  1
  La3+  La76  1  0.25046455  0.40762518  0.51686488  1
  La3+  La77  1  0.25155185  0.55841385  0.76133753  1
  La3+  La78  1  0.24850820  0.16215297  0.75657703  1
  La3+  La79  1  0.74857184  0.89062934  0.03077644  1
  La3+  La80  1  0.74731134  0.47478311  -0.05256073  1
  La3+  La81  1  0.74789284  0.54502013  0.27766426  1
  La3+  La82  1  0.75154669  0.21053344  0.19594092  1
  La3+  La83  1  0.75062919  0.18576178  0.58051170  1
  Ru4+  Ru84  1  -0.00322428  -0.01460742  -0.00581818  1
  Ru4+  Ru85  1  0.00174995  0.00980404  0.25751567  1
  Ru4+  Ru86  1  0.00301074  -0.00115377  0.49558582  1
  Ru4+  Ru87  1  -0.00200027  -0.00949764  0.75002036  1
  Ru4+  Ru88  1  -0.00275231  0.31956733  -0.00503051  1
  Ru4+  Ru89  1  0.00366359  0.33455565  0.26109972  1
  Ru4+  Ru90  1  0.00310638  0.32104825  0.49341658  1
  Ru4+  Ru91  1  0.00175523  0.31764875  0.75708040  1
  Ru4+  Ru92  1  0.00703449  0.67654374  0.00199315  1
  Ru4+  Ru93  1  0.00228168  0.66957226  0.26159356  1
  Ru4+  Ru94  1  0.00011824  0.67007901  0.49867806  1
  Ru4+  Ru95  1  -0.00384816  0.67396417  0.75268454  1
  Ru4+  Ru96  1  0.50391374  -0.01541539  -0.00105302  1
  Ru4+  Ru97  1  0.49296202  -0.00069030  0.25055835  1
  Ru4+  Ru98  1  0.50515394  0.02134787  0.49594772  1
  Ru4+  Ru99  1  0.49670805  0.00672887  0.75727437  1
  Ru4+  Ru100  1  0.50631484  0.31402963  -0.00912682  1
  Ru4+  Ru101  1  0.50087030  0.33118580  0.25612761  1
  Ru4+  Ru102  1  0.50208677  0.33543264  0.50759183  1
  Ru4+  Ru103  1  0.49676929  0.33204699  0.72512407  1
  Ru4+  Ru104  1  0.49733340  0.67102953  -0.00077477  1
  Ru4+  Ru105  1  0.50481787  0.66907466  0.23993178  1
  Ru4+  Ru106  1  0.48961121  0.66310020  0.50262714  1
  Ru4+  Ru107  1  0.49930358  0.66411889  0.75834425  1
  Ru4+  Ru108  1  0.11075676  0.16366360  0.00591816  1
  Ru4+  Ru109  1  0.10733699  0.16459071  0.24732545  1
  Ru4+  Ru110  1  0.11192856  0.16905007  0.49838285  1
  Ru4+  Ru111  1  0.11013657  0.16248711  0.75190810  1
  Ru4+  Ru112  1  0.11974105  0.50163595  0.00315744  1
  Ru4+  Ru113  1  0.10921478  0.50503867  0.24593451  1
  Ru4+  Ru114  1  0.11148496  0.49915419  0.50412286  1
  Ru4+  Ru115  1  0.11545901  0.49073842  0.74261721  1
  Ru4+  Ru116  1  0.10468712  0.83253642  0.00286924  1
  Ru4+  Ru117  1  0.11202570  0.83699648  0.24754985  1
  Ru4+  Ru118  1  0.11430074  0.83492735  0.50170862  1
  Ru4+  Ru119  1  0.11072142  0.83146618  0.74940025  1
  Ru4+  Ru120  1  0.60988698  0.17192687  -0.00775943  1
  Ru4+  Ru121  1  0.61780112  0.17244620  0.25468270  1
  Ru4+  Ru122  1  0.60748476  0.15873143  0.48575547  1
  Ru4+  Ru123  1  0.61358043  0.16240556  0.75185861  1
  Ru4+  Ru124  1  0.60964061  0.50536495  0.00298512  1
  Ru4+  Ru125  1  0.60273223  0.50040415  0.24905988  1
  Ru4+  Ru126  1  0.60779669  0.49377824  0.50052317  1
  Ru4+  Ru127  1  0.61351005  0.49908600  0.74517265  1
  Ru4+  Ru128  1  0.60378322  0.84311021  -0.00183286  1
  Ru4+  Ru129  1  0.61786923  0.82887327  0.24278696  1
  Ru4+  Ru130  1  0.61525936  0.84030302  0.50152617  1
  Ru4+  Ru131  1  0.61791875  0.82696524  0.75424353  1
  Ru4+  Ru132  1  0.38653560  0.16510099  -0.00205970  1
  Ru4+  Ru133  1  0.38213127  0.16743051  0.25496682  1
  Ru4+  Ru134  1  0.38771009  0.16489807  0.50149004  1
  Ru4+  Ru135  1  0.38551313  0.17107374  0.75500895  1
  Ru4+  Ru136  1  0.38140260  0.50339189  0.00135748  1
  Ru4+  Ru137  1  0.38394445  0.50447820  0.24934644  1
  Ru4+  Ru138  1  0.38884498  0.49655367  0.50395774  1
  Ru4+  Ru139  1  0.39474225  0.49559797  0.74590248  1
  Ru4+  Ru140  1  0.39092965  0.83812221  0.00606333  1
  Ru4+  Ru141  1  0.39026775  0.83420906  0.24462268  1
  Ru4+  Ru142  1  0.38705010  0.83907876  0.50275228  1
  Ru4+  Ru143  1  0.38655937  0.83390378  0.74723121  1
  Ru4+  Ru144  1  0.89770939  0.18092060  -0.00374380  1
  Ru4+  Ru145  1  0.89447127  0.16879366  0.25192034  1
  Ru4+  Ru146  1  0.88916275  0.16820349  0.49991237  1
  Ru4+  Ru147  1  0.88921853  0.16484405  0.74807786  1
  Ru4+  Ru148  1  0.88718386  0.49643623  0.00579602  1
  Ru4+  Ru149  1  0.89409362  0.49999891  0.24834983  1
  Ru4+  Ru150  1  0.88599905  0.50476528  0.50491595  1
  Ru4+  Ru151  1  0.88514987  0.50797984  0.74595216  1
  Ru4+  Ru152  1  0.89938950  0.84915991  0.00735450  1
  Ru4+  Ru153  1  0.88732030  0.83463311  0.25032137  1
  Ru4+  Ru154  1  0.89102444  0.83412678  0.49985877  1
  Ru4+  Ru155  1  0.88931350  0.84602163  0.74862882  1
  Ru4+  Ru156  1  0.75051024  0.40711726  0.48528629  1
  Ru4+  Ru157  1  0.25031250  0.22869735  0.01760998  1
  Ru4+  Ru158  1  0.74833519  0.39311891  0.24514762  1
  Ru4+  Ru159  1  0.74981192  0.06575278  0.49921373  1
  Ru4+  Ru160  1  0.74911249  0.22190584  -0.00771641  1
  Ru4+  Ru161  1  0.75179467  0.61297243  0.01533876  1
  Ru4+  Ru162  1  0.24963255  0.32224173  0.23739441  1
  Ru4+  Ru163  1  0.24948550  0.77023456  0.24413239  1
  Ru4+  Ru164  1  0.24864654  0.76477046  0.49735426  1
  Ru4+  Ru165  1  0.25085784  0.39737356  0.75348901  1
  Ru4+  Ru166  1  0.75255265  0.27241457  0.44905264  1
  Ru4+  Ru167  1  0.24927345  0.90573965  -0.00458749  1
  Ru4+  Ru168  1  0.74711910  0.35268808  0.02723038  1
  Ru4+  Ru169  1  0.24867874  0.09644198  0.51159978  1
  Ru4+  Ru170  1  0.24781050  0.62697049  0.20350921  1
  Ru4+  Ru171  1  0.75294336  0.75985754  0.76500160  1
  Ru4+  Ru172  1  0.75172049  0.06594297  0.24022380  1
  Ru4+  Ru173  1  0.74974157  0.92318153  0.54134730  1
  Ru4+  Ru174  1  0.75090630  0.24581336  0.77122767  1
  Ru4+  Ru175  1  0.24874270  0.90719230  0.76983107  1
  Ru4+  Ru176  1  0.25113354  0.91227193  0.49408062  1
  Ru4+  Ru177  1  0.25016791  0.76285276  -0.00020795  1
  Ru4+  Ru178  1  0.24898469  0.59368474  0.53139421  1
  Ru4+  Ru179  1  0.75188469  0.75012405  -0.01371395  1
  O2-  O180  1  0.16592777  0.08351331  -0.00470626  1
  O2-  O181  1  0.16438902  0.08327726  0.24915033  1
  O2-  O182  1  0.16488814  0.08214510  0.50153284  1
  O2-  O183  1  0.16863947  0.08071814  0.74737795  1
  O2-  O184  1  0.16158207  0.40814535  -0.00420578  1
  O2-  O185  1  0.16787261  0.40869360  0.24292319  1
  O2-  O186  1  0.15603332  0.40665865  0.49931203  1
  O2-  O187  1  0.16726998  0.40872291  0.75113780  1
  O2-  O188  1  0.17009422  0.75631463  -0.00828057  1
  O2-  O189  1  0.16950043  0.75588500  0.25164760  1
  O2-  O190  1  0.16546924  0.74856963  0.50137187  1
  O2-  O191  1  0.15890703  0.74721632  0.74797351  1
  O2-  O192  1  0.65936723  0.08808979  0.00702128  1
  O2-  O193  1  0.66810173  0.08071287  0.24182251  1
  O2-  O194  1  0.66832715  0.07814831  0.51344015  1
  O2-  O195  1  0.66438043  0.08136168  0.74186794  1
  O2-  O196  1  0.66694524  0.41043965  -0.00205335  1
  O2-  O197  1  0.66456048  0.41281595  0.25430819  1
  O2-  O198  1  0.66376426  0.41179876  0.49211293  1
  O2-  O199  1  0.66660061  0.41745847  0.75673437  1
  O2-  O200  1  0.66630885  0.75566880  0.00121935  1
  O2-  O201  1  0.66509412  0.74457508  0.25293266  1
  O2-  O202  1  0.66519343  0.74527791  0.50170271  1
  O2-  O203  1  0.67515546  0.74706613  0.73847773  1
  O2-  O204  1  0.33185077  0.25254607  -0.00055821  1
  O2-  O205  1  0.32511555  0.25244617  0.25072463  1
  O2-  O206  1  0.33849381  0.25191402  0.49858142  1
  O2-  O207  1  0.32720999  0.25161162  0.75727363  1
  O2-  O208  1  0.33445244  0.58736119  0.00436738  1
  O2-  O209  1  0.33250364  0.59064291  0.24756683  1
  O2-  O210  1  0.33336880  0.58857184  0.50713604  1
  O2-  O211  1  0.34626997  0.59329240  0.74610025  1
  O2-  O212  1  0.33044273  0.91648957  -0.00651306  1
  O2-  O213  1  0.33997145  0.91819105  0.24824578  1
  O2-  O214  1  0.33582371  0.92390653  0.50036311  1
  O2-  O215  1  0.33111846  0.92157843  0.75007243  1
  O2-  O216  1  0.82705159  0.25233473  -0.00708942  1
  O2-  O217  1  0.83449968  0.25044370  0.25298023  1
  O2-  O218  1  0.83676527  0.25282163  0.49882881  1
  O2-  O219  1  0.83480333  0.25349169  0.75384610  1
  O2-  O220  1  0.83429761  0.58892606  -0.00424390  1
  O2-  O221  1  0.83483587  0.58682736  0.24485172  1
  O2-  O222  1  0.83590594  0.59170495  0.50364049  1
  O2-  O223  1  0.83210760  0.59133832  0.74682789  1
  O2-  O224  1  0.83856244  0.92508353  0.00350822  1
  O2-  O225  1  0.83747428  0.91674138  0.24812848  1
  O2-  O226  1  0.83156649  0.91736022  0.50435789  1
  O2-  O227  1  0.83214000  0.91927398  0.74157213  1
  O2-  O228  1  0.16732303  0.24498352  -0.00092435  1
  O2-  O229  1  0.16317898  0.25022922  0.24769647  1
  O2-  O230  1  0.16502811  0.25285381  0.50259636  1
  O2-  O231  1  0.16529899  0.25127644  0.75396487  1
  O2-  O232  1  0.16775384  0.58559980  -0.00397502  1
  O2-  O233  1  0.17137323  0.58912121  0.25577605  1
  O2-  O234  1  0.16381610  0.58938313  0.50591954  1
  O2-  O235  1  0.15610149  0.59162679  0.74692734  1
  O2-  O236  1  0.16486589  0.91477822  -0.00366288  1
  O2-  O237  1  0.16822775  0.91504236  0.24604071  1
  O2-  O238  1  0.16881156  0.92065363  0.49835351  1
  O2-  O239  1  0.16366282  0.92162897  0.75109921  1
  O2-  O240  1  0.66838192  0.25345917  0.00240119  1
  O2-  O241  1  0.67095054  0.25585660  0.24993092  1
  O2-  O242  1  0.66113161  0.24970916  0.49639723  1
  O2-  O243  1  0.66476138  0.25226290  0.75671706  1
  O2-  O244  1  0.66787966  0.58727655  0.00559780  1
  O2-  O245  1  0.66147838  0.59059662  0.24703666  1
  O2-  O246  1  0.66069384  0.59265780  0.50530547  1
  O2-  O247  1  0.66670663  0.58623650  0.74371075  1
  O2-  O248  1  0.65856549  0.92559339  0.00992210  1
  O2-  O249  1  0.66424508  0.91468131  0.23837808  1
  O2-  O250  1  0.66792150  0.92303650  0.50582884  1
  O2-  O251  1  0.66444324  0.91542911  0.74430453  1
  O2-  O252  1  0.33895737  0.07856520  -0.00207936  1
  O2-  O253  1  0.33474235  0.08224042  0.24743381  1
  O2-  O254  1  0.33057214  0.08370416  0.50013516  1
  O2-  O255  1  0.33247925  0.08139803  0.74973928  1
  O2-  O256  1  0.34233164  0.40859902  -0.00342209  1
  O2-  O257  1  0.33554475  0.40606897  0.24799973  1
  O2-  O258  1  0.34511501  0.40441778  0.49722494  1
  O2-  O259  1  0.33501858  0.41146524  0.75164159  1
  O2-  O260  1  0.33371984  0.75351529  -0.00112583  1
  O2-  O261  1  0.33055656  0.75423608  0.25037912  1
  O2-  O262  1  0.33178001  0.74949318  0.49918661  1
  O2-  O263  1  0.33978348  0.74890337  0.74581496  1
  O2-  O264  1  0.84809313  0.09099564  0.00610947  1
  O2-  O265  1  0.83730963  0.08208398  0.24686440  1
  O2-  O266  1  0.83156363  0.07967472  0.49972888  1
  O2-  O267  1  0.84044679  0.08215476  0.74494754  1
  O2-  O268  1  0.82750299  0.41375142  -0.00639530  1
  O2-  O269  1  0.83111001  0.41719018  0.26056881  1
  O2-  O270  1  0.83668354  0.41383355  0.49901790  1
  O2-  O271  1  0.83293984  0.41955184  0.74834499  1
  O2-  O272  1  0.83994019  0.75373044  -0.00525078  1
  O2-  O273  1  0.83423370  0.74970235  0.25551101  1
  O2-  O274  1  0.83665675  0.74496408  0.50443286  1
  O2-  O275  1  0.83456114  0.75425204  0.74717476  1
  O2-  O276  1  0.44387738  0.09623884  0.74157666  1
  O2-  O277  1  0.45274983  0.42933455  0.24619471  1
  O2-  O278  1  0.04690546  0.09660221  0.23644019  1
  O2-  O279  1  0.05033577  0.90682408  0.01774438  1
  O2-  O280  1  0.05405009  0.75661080  0.52163945  1
  O2-  O281  1  0.54762260  0.42485739  0.99158258  1
  O2-  O282  1  0.05289814  0.23627851  0.75885683  1
  O2-  O283  1  0.44726580  0.76359421  0.01220842  1
  O2-  O284  1  0.94588509  0.23977864  0.72599384  1
  O2-  O285  1  0.54962429  0.76155148  0.23181008  1
  O2-  O286  1  0.55183069  0.75225632  0.05059043  1
  O2-  O287  1  0.94557024  0.41583263  0.76639772  1
  O2-  O288  1  0.06204861  0.25076801  0.00700047  1
  O2-  O289  1  0.02700458  0.77933781  0.96141044  1
  O2-  O290  1  0.03185950  0.10060292  0.00721424  1
  O2-  O291  1  0.52911875  0.76657407  0.72019848  1
  O2-  O292  1  0.54021734  0.90424630  0.74368795  1
  O2-  O293  1  0.55364072  0.10030597  0.55088706  1
  O2-  O294  1  0.54550481  0.56944467  0.73707856  1
  O2-  O295  1  0.55521779  0.09890620  0.23639717  1
  O2-  O296  1  0.54523728  0.09454492  -0.00007942  1
  O2-  O297  1  0.95281234  0.42644271  0.73062831  1
  O2-  O298  1  0.93999035  0.07803949  0.53069279  1
  O2-  O299  1  0.05351155  0.57910990  0.50885827  1
  O2-  O300  1  0.04837624  0.57103408  0.71873164  1
  O2-  O301  1  0.54412089  0.76761703  0.51014484  1
  O2-  O302  1  0.04460469  0.22767013  0.50174573  1
  O2-  O303  1  0.04567533  0.42685114  1.00192857  1
  O2-  O304  1  0.95134514  0.57337417  0.98605928  1
  O2-  O305  1  0.05114929  0.57725690  0.30021267  1
  O2-  O306  1  0.54450198  0.57196870  0.51966939  1
  O2-  O307  1  0.45472572  0.57531310  0.25909418  1
  O2-  O308  1  0.53580041  0.88889790  0.04572261  1
  O2-  O309  1  0.95220729  0.23589952  0.26020430  1
  O2-  O310  1  0.44800776  0.09181568  0.24435117  1
  O2-  O311  1  0.94957459  0.42222438  0.29468064  1
  O2-  O312  1  0.94807392  0.75452025  0.48573443  1
  O2-  O313  1  0.96868649  0.17565033  0.01489761  1
  O2-  O314  1  0.94835123  0.57758060  0.49410928  1
  O2-  O315  1  0.55423228  0.09074593  0.74050599  1
  O2-  O316  1  0.44869709  0.42628932  0.25787715  1
  O2-  O317  1  0.94781804  0.42570346  0.50927549  1
  O2-  O318  1  0.54577759  0.42500172  0.74089495  1
  O2-  O319  1  0.94777823  0.91435035  0.47768923  1
  O2-  O320  1  0.04961862  0.57410288  0.75782033  1
  O2-  O321  1  0.04748321  0.09860317  0.25023918  1
  O2-  O322  1  0.55196872  0.90226839  0.26270990  1
  O2-  O323  1  0.44754540  0.09415337  0.74988619  1
  O2-  O324  1  0.55495398  0.75280836  0.54186450  1
  O2-  O325  1  0.91313084  0.43805629  0.14924255  1
  O2-  O326  1  0.06436787  0.74475263  0.23349011  1
  O2-  O327  1  0.94541519  0.93504977  0.08490692  1
  O2-  O328  1  0.93625680  0.27000817  0.91482918  1
  O2-  O329  1  0.05679583  0.58091394  0.00735146  1
  O2-  O330  1  0.93460068  0.93284439  0.80832979  1
  O2-  O331  1  0.93672703  0.92316084  0.66727274  1
  O2-  O332  1  0.58382928  0.09080508  0.39447498  1
  O2-  O333  1  0.94968425  0.09041438  0.52686054  1
  O2-  O334  1  0.94282626  0.75068720  0.23579261  1
  O2-  O335  1  0.94419011  0.91918343  0.47188567  1
  O2-  O336  1  0.93928068  0.92606001  0.94113568  1
  O2-  O337  1  0.55720469  0.09402989  0.55513442  1
  O2-  O338  1  0.56498824  0.92868152  0.27944129  1
  O2-  O339  1  0.56079757  0.90839521  0.72165538  1
  O2-  O340  1  0.43527348  0.73873597  0.22090702  1
  O2-  O341  1  0.07163569  0.04853728  0.03743517  1
  O2-  O342  1  0.44038611  0.91891795  0.76796823  1
  O2-  O343  1  0.57235794  0.93814907  0.92108834  1
  O2-  O344  1  0.56743018  0.25794279  0.06952331  1
  O2-  O345  1  0.06465865  0.92184321  0.47270225  1
  O2-  O346  1  0.56781164  0.06779149  0.23417351  1
  O2-  O347  1  0.08721652  0.56247013  0.14924498  1
  O2-  O348  1  0.94045779  0.92930702  0.28131717  1
  O2-  O349  1  0.56568065  0.73909750  0.95860982  1
  O2-  O350  1  0.06153846  0.92405520  0.27283722  1
  O2-  O351  1  0.43318983  0.58591059  0.46755723  1
  O2-  O352  1  0.93642928  0.59288363  0.29085368  1
  O2-  O353  1  0.05774218  0.57881767  0.30285849  1
  O2-  O354  1  0.58714890  0.74169712  0.82033862  1
  O2-  O355  1  0.06086862  0.07271085  0.72619733  1
  O2-  O356  1  0.55969941  0.26016859  0.91544384  1
  O2-  O357  1  0.43248493  0.58267688  0.93314831  1
  O2-  O358  1  0.94506654  0.41579347  0.29805951  1
  O2-  O359  1  0.08095854  0.73395309  0.05374212  1
  O2-  O360  1  0.94072872  0.41136089  0.00238463  1
  O2-  O361  1  0.43786629  0.75132666  0.47300377  1
  O2-  O362  1  0.43457589  0.26496979  0.74110748  1
  O2-  O363  1  0.90876385  0.25713029  0.08086361  1
  O2-  O364  1  0.56390845  0.26215472  0.23414216  1
  O2-  O365  1  0.94319680  0.40162747  0.53761750  1
  O2-  O366  1  0.43388862  0.25752548  0.22404526  1
  O2-  O367  1  0.44229907  0.60158983  0.08466839  1
  O2-  O368  1  0.43343566  0.93677291  0.03101339  1
  O2-  O369  1  0.06667430  0.41511715  0.26867965  1
  O2-  O370  1  0.93646697  0.74619917  0.78012418  1
  O2-  O371  1  0.43532542  0.07370443  0.53666621  1
  O2-  O372  1  0.24996423  0.00181163  0.84722830  1
  O2-  O373  1  0.24895422  0.67871782  0.61491162  1
  O2-  O374  1  0.25081520  -0.00298020  0.31804918  1
  O2-  O375  1  0.74861123  0.67415315  0.32746905  1
  O2-  O376  1  0.24837708  0.33164287  0.64843285  1
  O2-  O377  1  0.75019136  0.67455741  0.11935675  1
  O2-  O378  1  0.25339991  0.67812741  0.09062903  1
  O2-  O379  1  0.24986184  0.66911655  0.44006406  1
  O2-  O380  1  0.74971543  -0.02376279  0.42419012  1
  O2-  O381  1  0.25064103  -0.00082967  0.59399303  1
  O2-  O382  1  0.74860757  0.67682408  0.42032998  1
  O2-  O383  1  0.25234988  0.67882881  0.31215124  1
  O2-  O384  1  0.24949492  0.00990084  0.43666719  1
  O2-  O385  1  0.75130626  -0.02747779  0.28873023  1
  O2-  O386  1  0.75188257  0.65995403  0.84409467  1
  O2-  O387  1  0.74892919  0.32627456  0.34204078  1
  O2-  O388  1  0.25020276  0.66699427  0.92474019  1
  O2-  O389  1  0.75021885  -0.00720517  0.87058777  1
  O2-  O390  1  0.24993786  0.33081479  0.10308913  1
  O2-  O391  1  0.24987226  -0.01786456  0.09039273  1
  O2-  O392  1  0.75032419  0.33907972  0.71929105  1
  O2-  O393  1  0.24840304  0.67765309  0.83417597  1
  O2-  O394  1  0.74983402  0.32025458  0.57168908  1
  O2-  O395  1  0.25118029  0.33169808  0.36329171  1
  O2-  O396  1  0.74759677  0.51638156  0.65161370  1
  O2-  O397  1  0.74918780  0.15995217  0.41782637  1
  O2-  O398  1  0.24735389  0.53501476  0.10908163  1
  O2-  O399  1  0.25060846  0.84090839  0.58217680  1
  O2-  O400  1  0.75027440  0.83276985  0.61665600  1
  O2-  O401  1  0.24973203  0.44874002  0.86058417  1
  O2-  O402  1  0.24988628  0.84187908  0.86751911  1
  O2-  O403  1  0.74804913  0.18102461  0.88423424  1
  O2-  O404  1  0.24968051  0.50701753  0.62179889  1
  O2-  O405  1  0.74976926  0.82477367  0.13951572  1
  O2-  O406  1  0.25133405  0.18805192  0.90703913  1
  O2-  O407  1  0.74968873  0.14955268  0.32261864  1
  O2-  O408  1  0.75072309  0.48046838  0.57340341  1
  O2-  O409  1  0.25108402  0.17945473  0.11591518  1
  O2-  O410  1  0.24934649  0.52238240  0.44449421  1
  O2-  O411  1  0.75079326  0.81224424  0.87752803  1
  O2-  O412  1  0.75038008  0.15346690  0.71352879  1
  O2-  O413  1  0.25154098  0.51865440  0.91056500  1
  O2-  O414  1  0.25010961  0.15942054  0.60405510  1
  O2-  O415  1  0.75044992  0.52129773  0.07410220  1
  O2-  O416  1  0.25097804  0.48144785  0.04698557  1
  O2-  O417  1  0.75024803  0.46795853  0.16734191  1
  O2-  O418  1  0.24979149  0.48414334  0.36732006  1
  O2-  O419  1  0.24946020  0.82493693  0.70501289  1
  O2-  O420  1  0.02653805  0.66317223  0.87404253  1
  O2-  O421  1  0.02100774  0.69748340  0.37831478  1
  O2-  O422  1  0.51565732  0.00632636  0.12880786  1
  O2-  O423  1  0.04335598  0.33366243  0.37867019  1
  O2-  O424  1  0.98358723  0.32633805  0.12684237  1
  O2-  O425  1  0.01420713  0.66621081  0.13388251  1
  O2-  O426  1  0.45305418  0.35438661  0.61019099  1
  O2-  O427  1  0.03057508  -0.00141493  0.86971525  1
  O2-  O428  1  0.46895562  0.66128362  0.62990987  1
  O2-  O429  1  0.02988914  0.34492455  0.87388930  1
  O2-  O430  1  0.49966157  -0.01510762  0.37816072  1
  O2-  O431  1  0.02609982  -0.01509268  0.62203705  1
  O2-  O432  1  0.53614920  0.62570425  0.88692946  1
  O2-  O433  1  0.95286643  0.30336988  0.41351115  1
  O2-  O434  1  0.01691013  0.01910728  0.38122281  1
  O2-  O435  1  0.47635288  0.34890027  0.10524510  1
  O2-  O436  1  0.04072915  0.34196603  0.14620658  1
  O2-  O437  1  0.44990017  0.70566487  0.84096326  1
  O2-  O438  1  0.95935078  0.64826275  0.11194433  1
  O2-  O439  1  0.48595044  0.67346869  0.36966155  1
  O2-  O440  1  0.50782956  -0.01596821  0.62404798  1
  O2-  O441  1  0.54908563  0.32251035  0.61626758  1
  O2-  O442  1  0.47523684  0.00479136  0.88446230  1
  O2-  O443  1  0.47714177  0.33341478  0.38974658  1
