# generated using pymatgen
data_La7(Ru4O11)2
_symmetry_space_group_name_H-M   'P 1'
_cell_length_a   23.99315149
_cell_length_b   16.83315966
_cell_length_c   15.42952393
_cell_angle_alpha   90.00229090
_cell_angle_beta   89.99888615
_cell_angle_gamma   90.00045599
_symmetry_Int_Tables_number   1
_chemical_formula_structural   La7(Ru4O11)2
_chemical_formula_sum   'La84 Ru96 O264'
_cell_volume   6231.68460315
_cell_formula_units_Z   12
loop_
 _symmetry_equiv_pos_site_id
 _symmetry_equiv_pos_as_xyz
  1  'x, y, z'
loop_
 _atom_type_symbol
 _atom_type_oxidation_number
  La3+  3.0
  Ru4+  4.0
  O2-  -2.0
loop_
 _atom_site_type_symbol
 _atom_site_label
 _atom_site_symmetry_multiplicity
 _atom_site_fract_x
 _atom_site_fract_y
 _atom_site_fract_z
 _atom_site_occupancy
  La3+  La0  1  0.14558063  -0.00081648  0.12256013  1
  La3+  La1  1  0.13960815  0.00036766  0.37597013  1
  La3+  La2  1  0.14493001  0.00211596  0.62414147  1
  La3+  La3  1  0.14246839  -0.00129680  0.87387729  1
  La3+  La4  1  0.14345262  0.33405229  0.12089680  1
  La3+  La5  1  0.13583015  0.33047705  0.37407938  1
  La3+  La6  1  0.14022679  0.33226859  0.62557536  1
  La3+  La7  1  0.14795252  0.33374034  0.87930441  1
  La3+  La8  1  0.13943935  0.67133700  0.12078027  1
  La3+  La9  1  0.14558800  0.66604362  0.37244603  1
  La3+  La10  1  0.14070856  0.66574376  0.62738026  1
  La3+  La11  1  0.13787309  0.67071110  0.87660002  1
  La3+  La12  1  0.64532980  -0.00328804  0.12881693  1
  La3+  La13  1  0.63676741  0.00348416  0.36810881  1
  La3+  La14  1  0.63829177  -0.00001300  0.62389719  1
  La3+  La15  1  0.63804240  -0.00180461  0.87266161  1
  La3+  La16  1  0.63584992  0.33230370  0.12696926  1
  La3+  La17  1  0.63299395  0.32700429  0.37805834  1
  La3+  La18  1  0.63603947  0.32479419  0.62704436  1
  La3+  La19  1  0.64500829  0.33210846  0.87244558  1
  La3+  La20  1  0.63398994  0.66603163  0.13619334  1
  La3+  La21  1  0.62765514  0.65344814  0.36800000  1
  La3+  La22  1  0.63668447  0.66570536  0.62514910  1
  La3+  La23  1  0.63580340  0.66493399  0.87506701  1
  La3+  La24  1  0.35842307  -0.00535555  0.12131147  1
  La3+  La25  1  0.35761378  0.00003202  0.37747416  1
  La3+  La26  1  0.35361813  -0.00000490  0.62472340  1
  La3+  La27  1  0.35087781  -0.00185607  0.87145929  1
  La3+  La28  1  0.35545318  0.33568235  0.11970867  1
  La3+  La29  1  0.36004352  0.33071002  0.37359133  1
  La3+  La30  1  0.36021215  0.32858717  0.62730521  1
  La3+  La31  1  0.35302578  0.33430828  0.87768196  1
  La3+  La32  1  0.35142595  0.67420021  0.12292064  1
  La3+  La33  1  0.36474287  0.66665463  0.37411636  1
  La3+  La34  1  0.35736558  0.66788826  0.63233866  1
  La3+  La35  1  0.35715079  0.67184720  0.87362747  1
  La3+  La36  1  0.85834458  0.00004829  0.12860531  1
  La3+  La37  1  0.85928821  0.00500986  0.37027663  1
  La3+  La38  1  0.85883022  0.00128176  0.62206918  1
  La3+  La39  1  0.86363215  -0.00085214  0.87805860  1
  La3+  La40  1  0.86420305  0.32966430  0.12359811  1
  La3+  La41  1  0.86670693  0.32984299  0.37823398  1
  La3+  La42  1  0.85807904  0.32716840  0.62447635  1
  La3+  La43  1  0.85555382  0.33004540  0.87287744  1
  La3+  La44  1  0.86234441  0.66664411  0.13049219  1
  La3+  La45  1  0.86556234  0.66761775  0.37152598  1
  La3+  La46  1  0.85976501  0.66586148  0.62877141  1
  La3+  La47  1  0.85779956  0.66533200  0.86926890  1
  La3+  La48  1  0.00240218  0.82747075  0.64337242  1
  La3+  La49  1  0.49870423  0.49808782  0.87268671  1
  La3+  La50  1  0.00385988  0.49922577  0.12657749  1
  La3+  La51  1  -0.00376376  0.84619939  0.86798005  1
  La3+  La52  1  -0.00239591  0.82776800  0.39141371  1
  La3+  La53  1  0.50637619  0.84153497  0.36818612  1
  La3+  La54  1  0.49845261  0.16971562  0.62176829  1
  La3+  La55  1  -0.00429498  0.83574310  0.88744622  1
  La3+  La56  1  0.00270407  0.49489443  0.14851159  1
  La3+  La57  1  0.49737172  0.49885422  0.62320431  1
  La3+  La58  1  -0.00031998  0.85225369  0.11886252  1
  La3+  La59  1  0.49896114  0.83484486  0.86332016  1
  La3+  La60  1  -0.00398262  0.84558572  0.13270899  1
  La3+  La61  1  0.49719211  0.18195318  0.39562233  1
  La3+  La62  1  0.00227723  0.49928073  0.89221379  1
  La3+  La63  1  0.00199489  0.16881417  0.13286037  1
  La3+  La64  1  0.00786016  0.50534155  0.87247470  1
  La3+  La65  1  0.50163465  0.16127098  0.13711521  1
  La3+  La66  1  0.49826931  0.16930885  0.11699725  1
  La3+  La67  1  0.00795100  0.82092954  0.62395580  1
  La3+  La68  1  0.50585785  0.50841577  0.37535134  1
  La3+  La69  1  -0.00115652  0.16996622  0.63090560  1
  La3+  La70  1  0.50149546  0.17423306  0.87687396  1
  La3+  La71  1  0.50496075  0.51568317  0.37452083  1
  La3+  La72  1  0.74877222  0.21557094  0.03205924  1
  La3+  La73  1  0.74890657  0.79067437  0.73443344  1
  La3+  La74  1  0.74904491  0.51303849  0.72195920  1
  La3+  La75  1  0.74776762  0.79982377  0.00542422  1
  La3+  La76  1  0.75116566  0.47712681  0.55931699  1
  La3+  La77  1  0.24960734  0.49321981  0.49414017  1
  La3+  La78  1  0.25012807  0.90109373  0.50661186  1
  La3+  La79  1  0.75057237  0.48973884  0.20594918  1
  La3+  La80  1  0.74865796  0.88713701  0.46253878  1
  La3+  La81  1  0.25016586  0.20957779  0.20486373  1
  La3+  La82  1  0.74916999  0.42195951  0.00417658  1
  La3+  La83  1  0.25013566  0.49857518  0.75765030  1
  Ru4+  Ru84  1  0.00449250  0.01023994  -0.00007564  1
  Ru4+  Ru85  1  0.00404327  -0.00262095  0.25141988  1
  Ru4+  Ru86  1  0.00275525  0.00813851  0.49004818  1
  Ru4+  Ru87  1  0.00341257  0.00697726  0.75482363  1
  Ru4+  Ru88  1  0.00144344  0.32461051  -0.00086672  1
  Ru4+  Ru89  1  0.00085008  0.32649331  0.25307245  1
  Ru4+  Ru90  1  0.00113096  0.34058826  0.49695833  1
  Ru4+  Ru91  1  0.00031233  0.33020748  0.74707069  1
  Ru4+  Ru92  1  -0.00639185  0.66873727  0.00038779  1
  Ru4+  Ru93  1  0.00267877  0.66740308  0.25245775  1
  Ru4+  Ru94  1  0.00946972  0.65235526  0.51299290  1
  Ru4+  Ru95  1  -0.00362560  0.65947004  0.74129483  1
  Ru4+  Ru96  1  0.49357388  -0.01606804  0.00520059  1
  Ru4+  Ru97  1  0.50218401  -0.00038756  0.24375541  1
  Ru4+  Ru98  1  0.49951063  -0.00224362  0.50572717  1
  Ru4+  Ru99  1  0.50031641  -0.00433050  0.74726363  1
  Ru4+  Ru100  1  0.50207152  0.33660815  -0.01044167  1
  Ru4+  Ru101  1  0.50579688  0.33799586  0.24384556  1
  Ru4+  Ru102  1  0.49389280  0.33709378  0.49017140  1
  Ru4+  Ru103  1  0.50096361  0.32835610  0.75910168  1
  Ru4+  Ru104  1  0.48967794  0.65762206  0.01572946  1
  Ru4+  Ru105  1  0.50352634  0.67225414  0.24194291  1
  Ru4+  Ru106  1  0.49836152  0.68365446  0.50065226  1
  Ru4+  Ru107  1  0.49734037  0.66673935  0.74864426  1
  Ru4+  Ru108  1  0.11264749  0.16693235  0.00178873  1
  Ru4+  Ru109  1  0.11006964  0.16762093  0.24868291  1
  Ru4+  Ru110  1  0.11326979  0.16484826  0.49979218  1
  Ru4+  Ru111  1  0.11159254  0.16593120  0.75176029  1
  Ru4+  Ru112  1  0.11747917  0.49846039  -0.00079144  1
  Ru4+  Ru113  1  0.11072124  0.50347085  0.25602329  1
  Ru4+  Ru114  1  0.10073663  0.50556565  0.49708856  1
  Ru4+  Ru115  1  0.11213828  0.49755673  0.74619384  1
  Ru4+  Ru116  1  0.12140065  0.83756346  0.00128922  1
  Ru4+  Ru117  1  0.11114721  0.83424116  0.25417715  1
  Ru4+  Ru118  1  0.11243385  0.83470696  0.49742398  1
  Ru4+  Ru119  1  0.11803696  0.83479463  0.74860555  1
  Ru4+  Ru120  1  0.61012901  0.17054358  -0.00269462  1
  Ru4+  Ru121  1  0.61362697  0.16051691  0.25243917  1
  Ru4+  Ru122  1  0.61531219  0.16006911  0.50070765  1
  Ru4+  Ru123  1  0.61263865  0.17070894  0.74878679  1
  Ru4+  Ru124  1  0.61116264  0.49860275  0.00404428  1
  Ru4+  Ru125  1  0.61273483  0.49506229  0.24204514  1
  Ru4+  Ru126  1  0.61511361  0.49511949  0.49873627  1
  Ru4+  Ru127  1  0.61133353  0.49782306  0.75028566  1
  Ru4+  Ru128  1  0.60917070  0.83071613  0.00047356  1
  Ru4+  Ru129  1  0.61085056  0.82644711  0.24921503  1
  Ru4+  Ru130  1  0.60648821  0.82598534  0.50093317  1
  Ru4+  Ru131  1  0.60831489  0.83387033  0.75355613  1
  Ru4+  Ru132  1  0.38675406  0.16700818  -0.00116713  1
  Ru4+  Ru133  1  0.38839684  0.16246568  0.25143321  1
  Ru4+  Ru134  1  0.38569464  0.16863603  0.50022875  1
  Ru4+  Ru135  1  0.38807721  0.16786584  0.74896670  1
  Ru4+  Ru136  1  0.38998573  0.50889283  0.00202132  1
  Ru4+  Ru137  1  0.38736323  0.49720481  0.24377834  1
  Ru4+  Ru138  1  0.39129854  0.49840564  0.50037240  1
  Ru4+  Ru139  1  0.38874014  0.49958272  0.74917933  1
  Ru4+  Ru140  1  0.38943703  0.83771354  -0.00073218  1
  Ru4+  Ru141  1  0.38848331  0.83770520  0.24852997  1
  Ru4+  Ru142  1  0.39370408  0.83075441  0.50238329  1
  Ru4+  Ru143  1  0.38771412  0.83228454  0.74639803  1
  Ru4+  Ru144  1  0.89160920  0.16859022  -0.00067450  1
  Ru4+  Ru145  1  0.88818408  0.16309804  0.25097482  1
  Ru4+  Ru146  1  0.89000984  0.16633883  0.49854927  1
  Ru4+  Ru147  1  0.88758119  0.17003328  0.75048912  1
  Ru4+  Ru148  1  0.88506221  0.49739751  -0.00145581  1
  Ru4+  Ru149  1  0.88541184  0.49460379  0.25798195  1
  Ru4+  Ru150  1  0.89266126  0.49877131  0.49807835  1
  Ru4+  Ru151  1  0.88705695  0.49467579  0.74388029  1
  Ru4+  Ru152  1  0.88260673  0.82702223  -0.00078172  1
  Ru4+  Ru153  1  0.88734254  0.82685572  0.25142536  1
  Ru4+  Ru154  1  0.88969060  0.83724651  0.49515647  1
  Ru4+  Ru155  1  0.88859947  0.83359208  0.74812430  1
  Ru4+  Ru156  1  0.24948014  0.24422337  0.76679109  1
  Ru4+  Ru157  1  0.24998993  0.58955840  0.25045078  1
  Ru4+  Ru158  1  0.25037626  0.62744762  0.51482736  1
  Ru4+  Ru159  1  0.75052700  0.94009208  0.74547562  1
  Ru4+  Ru160  1  0.25013227  0.08284247  0.00060708  1
  Ru4+  Ru161  1  0.75015796  0.36811595  0.28566194  1
  Ru4+  Ru162  1  0.75021486  0.23998355  0.24817751  1
  Ru4+  Ru163  1  0.75001941  0.74935707  0.50164434  1
  Ru4+  Ru164  1  0.74972917  0.60276450  -0.00850749  1
  Ru4+  Ru165  1  0.25023375  0.74533470  0.24194048  1
  Ru4+  Ru166  1  0.25020414  0.08888436  0.74921340  1
  Ru4+  Ru167  1  0.74991415  0.08310211  0.50336086  1
  Ru4+  Ru168  1  0.75081721  0.62273481  0.28057436  1
  Ru4+  Ru169  1  0.74927792  0.24439735  0.50688931  1
  Ru4+  Ru170  1  0.24950994  0.57797933  -0.00038439  1
  Ru4+  Ru171  1  0.74983147  0.08612790  0.74002395  1
  Ru4+  Ru172  1  0.74998822  0.07213214  -0.00147450  1
  Ru4+  Ru173  1  0.75028397  0.37152750  0.45864339  1
  Ru4+  Ru174  1  0.74979931  0.93755578  0.01115987  1
  Ru4+  Ru175  1  0.25035974  0.75718766  0.50327080  1
  Ru4+  Ru176  1  0.25016171  0.35554369  0.49018383  1
  Ru4+  Ru177  1  0.24953648  0.41014926  0.24793587  1
  Ru4+  Ru178  1  0.75030638  0.60350918  0.48183009  1
  Ru4+  Ru179  1  0.24969216  0.06815436  0.25050922  1
  O2-  O180  1  0.17174461  0.08239708  -0.00278393  1
  O2-  O181  1  0.16471236  0.08090192  0.25057713  1
  O2-  O182  1  0.16396775  0.08319004  0.50041695  1
  O2-  O183  1  0.17109709  0.08190892  0.74812256  1
  O2-  O184  1  0.16671671  0.41528774  0.00102756  1
  O2-  O185  1  0.16497222  0.41469687  0.25117583  1
  O2-  O186  1  0.16406313  0.41479457  0.50028871  1
  O2-  O187  1  0.16764262  0.41451052  0.74938900  1
  O2-  O188  1  0.16618880  0.74890861  -0.00423752  1
  O2-  O189  1  0.16767158  0.75034950  0.24286532  1
  O2-  O190  1  0.16705591  0.74808131  0.50225812  1
  O2-  O191  1  0.16424699  0.74561066  0.75333914  1
  O2-  O192  1  0.66620529  0.07862795  -0.00056635  1
  O2-  O193  1  0.66873056  0.08090935  0.25860088  1
  O2-  O194  1  0.66677301  0.07843565  0.49664405  1
  O2-  O195  1  0.66456723  0.08093724  0.74993850  1
  O2-  O196  1  0.65905370  0.41068445  0.00189080  1
  O2-  O197  1  0.66722192  0.40922233  0.25156656  1
  O2-  O198  1  0.66697496  0.40994175  0.50108140  1
  O2-  O199  1  0.66753533  0.41415952  0.74474745  1
  O2-  O200  1  0.66026585  0.74471511  -0.00451051  1
  O2-  O201  1  0.66671930  0.75131498  0.25170455  1
  O2-  O202  1  0.66693991  0.74695965  0.49896814  1
  O2-  O203  1  0.65899594  0.74353593  0.75206310  1
  O2-  O204  1  0.33697555  0.24955989  -0.00104888  1
  O2-  O205  1  0.33463298  0.25524586  0.25073685  1
  O2-  O206  1  0.33273469  0.25232557  0.50029739  1
  O2-  O207  1  0.32975202  0.25084130  0.75143490  1
  O2-  O208  1  0.33105848  0.58692795  -0.00431608  1
  O2-  O209  1  0.33302580  0.58349838  0.25220605  1
  O2-  O210  1  0.33204425  0.58942730  0.49956032  1
  O2-  O211  1  0.33158485  0.58326821  0.75382845  1
  O2-  O212  1  0.33179048  0.91458096  0.00419453  1
  O2-  O213  1  0.33692457  0.91720743  0.24967265  1
  O2-  O214  1  0.34290710  0.92026576  0.50032981  1
  O2-  O215  1  0.33662850  0.91856337  0.74917030  1
  O2-  O216  1  0.83539671  0.25404751  0.00181319  1
  O2-  O217  1  0.83471683  0.25294387  0.25256494  1
  O2-  O218  1  0.83265376  0.25051333  0.49590553  1
  O2-  O219  1  0.83449520  0.24960105  0.74840909  1
  O2-  O220  1  0.83502563  0.58749263  -0.00125345  1
  O2-  O221  1  0.83171926  0.58927727  0.25279192  1
  O2-  O222  1  0.83539018  0.58573222  0.50070891  1
  O2-  O223  1  0.83576384  0.58133887  0.74885892  1
  O2-  O224  1  0.83268352  0.91910492  0.00169712  1
  O2-  O225  1  0.83740744  0.91671112  0.25179303  1
  O2-  O226  1  0.83403584  0.92204402  0.50298125  1
  O2-  O227  1  0.83491587  0.92211540  0.74646310  1
  O2-  O228  1  0.16273562  0.24919043  -0.00002316  1
  O2-  O229  1  0.16785435  0.25563348  0.25339896  1
  O2-  O230  1  0.16300766  0.25342080  0.50071863  1
  O2-  O231  1  0.16648102  0.24946173  0.74975974  1
  O2-  O232  1  0.16764529  0.58917171  -0.00224287  1
  O2-  O233  1  0.16881458  0.58458474  0.24763114  1
  O2-  O234  1  0.16816688  0.58304854  0.50449494  1
  O2-  O235  1  0.16844682  0.58614405  0.75439514  1
  O2-  O236  1  0.16914772  0.92136401  -0.00110094  1
  O2-  O237  1  0.16444748  0.91420932  0.25276028  1
  O2-  O238  1  0.15951924  0.92495723  0.50009635  1
  O2-  O239  1  0.16386999  0.92173857  0.74949515  1
  O2-  O240  1  0.66124972  0.25576112  0.00003384  1
  O2-  O241  1  0.66595764  0.24939054  0.25022467  1
  O2-  O242  1  0.66625729  0.25122554  0.50199934  1
  O2-  O243  1  0.66822924  0.25181109  0.74803619  1
  O2-  O244  1  0.66849335  0.58658126  -0.00387852  1
  O2-  O245  1  0.67001478  0.58559595  0.25004303  1
  O2-  O246  1  0.66666657  0.58557366  0.50192038  1
  O2-  O247  1  0.66534356  0.58469891  0.75369106  1
  O2-  O248  1  0.66748846  0.92016454  -0.00260316  1
  O2-  O249  1  0.66281278  0.91568872  0.25516971  1
  O2-  O250  1  0.65890108  0.92086437  0.49860256  1
  O2-  O251  1  0.66801490  0.92223867  0.74664235  1
  O2-  O252  1  0.32819168  0.08039086  0.00049865  1
  O2-  O253  1  0.33444182  0.07968999  0.24904514  1
  O2-  O254  1  0.33849105  0.08230356  0.50000832  1
  O2-  O255  1  0.33385191  0.08410713  0.74828490  1
  O2-  O256  1  0.34198010  0.41875037  -0.00054489  1
  O2-  O257  1  0.33004202  0.41500813  0.25299134  1
  O2-  O258  1  0.33552848  0.41185094  0.50240258  1
  O2-  O259  1  0.33324921  0.41568722  0.74993637  1
  O2-  O260  1  0.33718636  0.75278865  -0.00329015  1
  O2-  O261  1  0.33476208  0.74932513  0.25203587  1
  O2-  O262  1  0.33397382  0.74882052  0.49832223  1
  O2-  O263  1  0.33419249  0.75102988  0.75283050  1
  O2-  O264  1  0.83557682  0.08046460  0.00175370  1
  O2-  O265  1  0.83705286  0.08259047  0.24872576  1
  O2-  O266  1  0.83357737  0.08037535  0.49884035  1
  O2-  O267  1  0.83451859  0.08116869  0.74776910  1
  O2-  O268  1  0.83834170  0.40796330  0.00122362  1
  O2-  O269  1  0.83412025  0.40768518  0.25356340  1
  O2-  O270  1  0.83402031  0.41207826  0.49803221  1
  O2-  O271  1  0.82572791  0.41620674  0.74864113  1
  O2-  O272  1  0.83386462  0.74283018  0.00018742  1
  O2-  O273  1  0.83267002  0.74929495  0.25289615  1
  O2-  O274  1  0.83643991  0.74871557  0.49921925  1
  O2-  O275  1  0.83641425  0.74450630  0.75057737  1
  O2-  O276  1  0.03553892  0.88905662  0.29075769  1
  O2-  O277  1  0.55158476  0.24252886  0.72761560  1
  O2-  O278  1  0.54001612  0.56711961  0.50715589  1
  O2-  O279  1  0.03730221  0.56034670  0.30102647  1
  O2-  O280  1  0.01737642  0.54810293  0.50651507  1
  O2-  O281  1  0.95519944  0.22616906  0.75754672  1
  O2-  O282  1  0.05297230  0.90654886  0.01472559  1
  O2-  O283  1  0.05046782  0.75840897  0.98255717  1
  O2-  O284  1  0.04779202  0.76416892  0.76843637  1
  O2-  O285  1  0.54467130  0.43028995  0.48699778  1
  O2-  O286  1  0.54987053  0.57365197  0.76393903  1
  O2-  O287  1  0.55401397  0.57920372  0.47696041  1
  O2-  O288  1  0.95395789  0.90896017  0.99312726  1
  O2-  O289  1  0.04852836  0.10146625  0.49283021  1
  O2-  O290  1  0.45004853  0.90107201  0.73682826  1
  O2-  O291  1  0.45599784  0.90705493  0.23956427  1
  O2-  O292  1  0.94984590  0.09713975  0.49175914  1
  O2-  O293  1  0.94877915  0.43069199  0.48289244  1
  O2-  O294  1  0.94959121  0.57264204  0.01385652  1
  O2-  O295  1  0.45529124  0.42798144  0.75654063  1
  O2-  O296  1  0.54837248  0.56211832  0.25769511  1
  O2-  O297  1  0.04755234  0.42372273  0.26371152  1
  O2-  O298  1  0.04317967  0.76992117  0.21237939  1
  O2-  O299  1  0.54482320  0.09600263  0.00216963  1
  O2-  O300  1  0.44988283  0.57315323  0.73044818  1
  O2-  O301  1  0.94074956  0.58533417  0.22091427  1
  O2-  O302  1  0.55352534  0.58307701  0.27323462  1
  O2-  O303  1  0.46000855  0.43311142  0.29194118  1
  O2-  O304  1  0.45336456  0.23640347  0.24527580  1
  O2-  O305  1  0.04937628  0.56694754  0.74193556  1
  O2-  O306  1  0.05288160  0.76776509  0.02023707  1
  O2-  O307  1  0.45453964  0.75380168  0.01009808  1
  O2-  O308  1  0.53111578  0.11140746  0.29490480  1
  O2-  O309  1  0.55881681  0.92131174  0.77854428  1
  O2-  O310  1  0.46098765  0.55008863  0.24429454  1
  O2-  O311  1  0.96042133  0.89112330  0.53435039  1
  O2-  O312  1  0.05316942  0.42101316  0.51283943  1
  O2-  O313  1  0.04848785  0.57342260  0.74935666  1
  O2-  O314  1  0.55609536  0.90676235  0.00608806  1
  O2-  O315  1  0.95127570  0.77064869  0.03760071  1
  O2-  O316  1  0.46172615  0.78211237  0.46276526  1
  O2-  O317  1  0.95306625  0.22744752  0.24672573  1
  O2-  O318  1  0.53899743  0.55637612  0.00427531  1
  O2-  O319  1  0.55026313  0.23515271  0.51546255  1
  O2-  O320  1  0.46607830  0.87826667  1.01062667  1
  O2-  O321  1  0.53339559  0.79304339  0.21358417  1
  O2-  O322  1  0.96254687  0.44990708  0.77368051  1
  O2-  O323  1  0.46141407  0.50454921  0.02295108  1
  O2-  O324  1  0.06467239  0.07537747  0.03717773  1
  O2-  O325  1  0.43937298  0.93331792  0.46514094  1
  O2-  O326  1  0.42683024  0.72222566  0.56283814  1
  O2-  O327  1  0.55990194  0.73824288  0.57486354  1
  O2-  O328  1  0.56236729  0.41008204  0.17579879  1
  O2-  O329  1  0.44027508  0.73636771  0.72467819  1
  O2-  O330  1  0.56940531  0.72559590  0.30116998  1
  O2-  O331  1  0.06482516  0.59913481  0.96736026  1
  O2-  O332  1  0.93137678  0.71154112  0.93010197  1
  O2-  O333  1  0.56363854  0.73959501  0.43686907  1
  O2-  O334  1  0.06427292  0.40842435  0.97358312  1
  O2-  O335  1  0.43884902  0.58802738  0.47217531  1
  O2-  O336  1  0.93633614  0.25922046  0.52047972  1
  O2-  O337  1  0.06199998  0.92549422  0.47468634  1
  O2-  O338  1  0.55396251  0.24832573  0.72072232  1
  O2-  O339  1  0.94218705  0.58434625  0.22092982  1
  O2-  O340  1  0.43877433  0.26035122  0.53646001  1
  O2-  O341  1  0.94053128  0.73579520  0.32566366  1
  O2-  O342  1  0.56458072  0.40727932  0.97919334  1
  O2-  O343  1  0.93718379  0.25564665  0.97958352  1
  O2-  O344  1  0.41965481  0.39592008  0.19586410  1
  O2-  O345  1  0.92653034  0.41804565  0.92748461  1
  O2-  O346  1  0.93498774  0.92021615  0.97062479  1
  O2-  O347  1  0.07195933  0.72569596  0.32382636  1
  O2-  O348  1  0.07053128  0.95415768  0.18410399  1
  O2-  O349  1  0.93012027  0.42332467  0.06978685  1
  O2-  O350  1  0.06081281  0.74967918  0.52220025  1
  O2-  O351  1  0.07682148  0.60189887  0.19587421  1
  O2-  O352  1  0.43656846  0.07602645  0.03662291  1
  O2-  O353  1  0.06531801  0.07897256  0.76902898  1
  O2-  O354  1  0.42473630  0.96342344  0.94059852  1
  O2-  O355  1  0.07760289  0.62188543  0.45369338  1
  O2-  O356  1  0.93565411  0.74452079  0.17988570  1
  O2-  O357  1  0.56986229  0.41941012  0.31564363  1
  O2-  O358  1  0.42566234  0.62205228  0.06495155  1
  O2-  O359  1  0.57205714  0.59892417  0.22223010  1
  O2-  O360  1  0.57881033  0.06195201  0.19664217  1
  O2-  O361  1  0.42518602  0.62940594  0.21596329  1
  O2-  O362  1  0.92936724  0.94745590  0.42755997  1
  O2-  O363  1  0.56361209  0.26256832  0.53024969  1
  O2-  O364  1  0.91489041  0.39260873  0.69585352  1
  O2-  O365  1  0.93810176  0.73819600  0.77888115  1
  O2-  O366  1  0.43603198  0.61063618  0.91462743  1
  O2-  O367  1  0.06421589  0.25465295  0.22623251  1
  O2-  O368  1  0.43695544  0.26110872  0.71386848  1
  O2-  O369  1  0.57991466  0.61568030  0.02298416  1
  O2-  O370  1  0.56414305  0.25677202  0.21393783  1
  O2-  O371  1  0.55521564  0.91592151  0.77351548  1
  O2-  O372  1  0.24869424  0.33967956  0.68220412  1
  O2-  O373  1  0.74987943  0.33142644  0.14277707  1
  O2-  O374  1  0.25032274  -0.01623061  0.33282686  1
  O2-  O375  1  0.74950015  0.00768779  0.84821466  1
  O2-  O376  1  0.25170531  0.66714131  0.34798927  1
  O2-  O377  1  0.74988019  0.68235514  0.38578710  1
  O2-  O378  1  0.24990478  0.01132035  0.84556717  1
  O2-  O379  1  0.25069346  0.00454096  0.61061976  1
  O2-  O380  1  0.75055980  -0.00309711  0.12795554  1
  O2-  O381  1  0.25044010  0.00996998  0.41991585  1
  O2-  O382  1  0.74931953  0.68448885  0.06296175  1
  O2-  O383  1  0.75005274  -0.00153861  0.60084963  1
  O2-  O384  1  0.24921589  0.32469210  0.37307639  1
  O2-  O385  1  0.24893961  0.32256119  0.87919611  1
  O2-  O386  1  0.25119033  0.00250584  0.14461262  1
  O2-  O387  1  0.24901603  0.66223988  0.10332222  1
  O2-  O388  1  0.74953522  0.33378711  0.60357587  1
  O2-  O389  1  0.25036904  0.33205609  0.12462447  1
  O2-  O390  1  0.75020590  0.32943579  0.90537667  1
  O2-  O391  1  0.74987404  0.66569207  0.58216074  1
  O2-  O392  1  0.75012258  0.65601807  0.69834059  1
  O2-  O393  1  0.74954485  0.68060058  0.18579881  1
  O2-  O394  1  0.24990971  0.65692128  0.63771153  1
  O2-  O395  1  0.24955476  0.30758149  0.59924306  1
  O2-  O396  1  0.25017625  0.49971947  0.18340634  1
  O2-  O397  1  0.75001974  0.16653333  0.41964959  1
  O2-  O398  1  0.75013278  0.16923738  0.81474424  1
  O2-  O399  1  0.25027279  0.15893852  0.34507077  1
  O2-  O400  1  0.74946659  0.48005990  0.84080706  1
  O2-  O401  1  0.25013528  0.83836931  0.30286187  1
  O2-  O402  1  0.24977457  0.49524615  0.06024688  1
  O2-  O403  1  0.75013236  0.16289919  0.16415294  1
  O2-  O404  1  0.24964992  0.51053962  0.90058282  1
  O2-  O405  1  0.24965708  0.83268859  0.69816902  1
  O2-  O406  1  0.74963087  0.50745077  0.33838665  1
  O2-  O407  1  0.75023725  0.16261408  0.59883274  1
  O2-  O408  1  0.24977198  0.49800624  0.34073366  1
  O2-  O409  1  0.25004741  0.16459831  0.43096397  1
  O2-  O410  1  0.74995547  0.83139842  0.59563918  1
  O2-  O411  1  0.74983879  0.15959411  0.33173104  1
  O2-  O412  1  0.74951986  0.49687349  0.42681876  1
  O2-  O413  1  0.75024937  0.53379858  0.08555576  1
  O2-  O414  1  0.75021151  0.84389106  0.86928091  1
  O2-  O415  1  0.24995033  0.81823685  0.61614941  1
  O2-  O416  1  0.75154918  0.52708409  0.91159331  1
  O2-  O417  1  0.75043922  0.15401732  0.90297600  1
  O2-  O418  1  0.25016155  0.81743541  0.38880411  1
  O2-  O419  1  0.24949006  0.83202581  0.90852136  1
  O2-  O420  1  0.95224465  0.67020190  0.61558645  1
  O2-  O421  1  0.54058703  0.31049858  0.38111210  1
  O2-  O422  1  0.47821171  0.32169131  0.10795461  1
  O2-  O423  1  0.44971213  0.33209166  0.38871314  1
  O2-  O424  1  0.51867424  -0.00734128  0.12050387  1
  O2-  O425  1  0.02349350  0.66404971  0.11183900  1
  O2-  O426  1  0.04399763  0.66579172  0.63145883  1
  O2-  O427  1  0.03970048  0.32424624  0.63113861  1
  O2-  O428  1  0.02490083  -0.00015157  0.62626142  1
  O2-  O429  1  0.04334006  -0.01081069  0.88616675  1
  O2-  O430  1  0.52910141  0.00443239  0.62105206  1
  O2-  O431  1  0.97685380  0.33044288  0.62109517  1
  O2-  O432  1  0.95336250  0.00871119  0.85140208  1
  O2-  O433  1  0.45077812  0.32898197  0.88940033  1
  O2-  O434  1  0.03389420  0.32569586  0.86687921  1
  O2-  O435  1  0.52243295  0.67824406  0.12317589  1
  O2-  O436  1  0.54409859  0.32578021  0.86706896  1
  O2-  O437  1  0.02482696  0.32733300  0.37879905  1
  O2-  O438  1  0.47213907  0.66719048  0.36162773  1
  O2-  O439  1  0.02181826  0.01132098  0.36650315  1
  O2-  O440  1  0.04598983  0.34015454  0.10649394  1
  O2-  O441  1  0.97490864  0.32538468  0.86678135  1
  O2-  O442  1  0.97093751  0.00375653  0.12502385  1
  O2-  O443  1  0.95989323  0.32098876  0.14114620  1
