# generated using pymatgen
data_La7(Ru4O11)2
_symmetry_space_group_name_H-M   'P 1'
_cell_length_a   23.99538947
_cell_length_b   16.83580836
_cell_length_c   15.43224570
_cell_angle_alpha   89.99864563
_cell_angle_beta   90.00027322
_cell_angle_gamma   89.99947962
_symmetry_Int_Tables_number   1
_chemical_formula_structural   La7(Ru4O11)2
_chemical_formula_sum   'La84 Ru96 O264'
_cell_volume   6234.34606265
_cell_formula_units_Z   12
loop_
 _symmetry_equiv_pos_site_id
 _symmetry_equiv_pos_as_xyz
  1  'x, y, z'
loop_
 _atom_type_symbol
 _atom_type_oxidation_number
  La3+  3.0
  Ru4+  4.0
  O2-  -2.0
loop_
 _atom_site_type_symbol
 _atom_site_label
 _atom_site_symmetry_multiplicity
 _atom_site_fract_x
 _atom_site_fract_y
 _atom_site_fract_z
 _atom_site_occupancy
  La3+  La0  1  0.15076217  -0.00419187  0.12570033  1
  La3+  La1  1  0.15053969  -0.00599823  0.37937355  1
  La3+  La2  1  0.15341721  0.00627500  0.62061741  1
  La3+  La3  1  0.13640900  -0.00056607  0.87220329  1
  La3+  La4  1  0.14803385  0.33104792  0.12065657  1
  La3+  La5  1  0.13478721  0.33795869  0.37779453  1
  La3+  La6  1  0.13977665  0.33396453  0.62604574  1
  La3+  La7  1  0.13505827  0.33204328  0.87464505  1
  La3+  La8  1  0.14908772  0.66724175  0.12711838  1
  La3+  La9  1  0.13620673  0.66570360  0.37061229  1
  La3+  La10  1  0.15150332  0.66959766  0.62087632  1
  La3+  La11  1  0.13655996  0.66277438  0.87326848  1
  La3+  La12  1  0.63142129  0.00476605  0.12505953  1
  La3+  La13  1  0.64133707  0.01174152  0.37321668  1
  La3+  La14  1  0.63258234  0.00194087  0.62427520  1
  La3+  La15  1  0.63494834  0.00985537  0.87805297  1
  La3+  La16  1  0.63460276  0.34177036  0.11821322  1
  La3+  La17  1  0.64330224  0.33357393  0.37148555  1
  La3+  La18  1  0.63286944  0.33317990  0.62540972  1
  La3+  La19  1  0.63054290  0.33382062  0.88331723  1
  La3+  La20  1  0.63986758  0.66205271  0.13121406  1
  La3+  La21  1  0.63916359  0.66493881  0.37349786  1
  La3+  La22  1  0.63092589  0.66009072  0.62071503  1
  La3+  La23  1  0.63791394  0.66167067  0.87464030  1
  La3+  La24  1  0.34913528  -0.00228018  0.12147326  1
  La3+  La25  1  0.34987653  -0.00381516  0.37770866  1
  La3+  La26  1  0.34477929  -0.00065822  0.61670508  1
  La3+  La27  1  0.34524089  -0.00221647  0.86641503  1
  La3+  La28  1  0.35485387  0.33365489  0.11523580  1
  La3+  La29  1  0.36376341  0.33644236  0.37980600  1
  La3+  La30  1  0.36266907  0.33941073  0.62299686  1
  La3+  La31  1  0.36429067  0.33679256  0.88131807  1
  La3+  La32  1  0.35180617  0.66940388  0.12526846  1
  La3+  La33  1  0.35514272  0.66939895  0.37210176  1
  La3+  La34  1  0.36313157  0.66638866  0.62524215  1
  La3+  La35  1  0.35497750  0.66652014  0.87846364  1
  La3+  La36  1  0.86369641  0.00150958  0.12449609  1
  La3+  La37  1  0.85774901  0.00862987  0.37208893  1
  La3+  La38  1  0.86964319  0.00394234  0.62534437  1
  La3+  La39  1  0.85876205  0.01162887  0.88236088  1
  La3+  La40  1  0.86582709  0.33341985  0.12389782  1
  La3+  La41  1  0.85210741  0.33560169  0.37189982  1
  La3+  La42  1  0.86655256  0.33552735  0.62338486  1
  La3+  La43  1  0.86175950  0.33049039  0.88283853  1
  La3+  La44  1  0.86465696  0.66147163  0.13124511  1
  La3+  La45  1  0.86070323  0.66033796  0.37523274  1
  La3+  La46  1  0.87182693  0.66107934  0.62001142  1
  La3+  La47  1  0.86118355  0.66352601  0.87242385  1
  La3+  La48  1  0.49780431  0.83698041  0.89560165  1
  La3+  La49  1  0.50344359  0.49696095  0.38878031  1
  La3+  La50  1  0.01717342  0.81197756  0.61984439  1
  La3+  La51  1  -0.02380381  0.49294160  0.87527765  1
  La3+  La52  1  0.00389446  0.50700730  0.61115304  1
  La3+  La53  1  0.49713807  0.49760503  0.36864135  1
  La3+  La54  1  -0.00508573  0.82567102  0.88632147  1
  La3+  La55  1  0.01081377  0.16241534  0.11803138  1
  La3+  La56  1  0.00503239  0.16398003  0.63820595  1
  La3+  La57  1  -0.00260300  0.17150890  0.87353863  1
  La3+  La58  1  0.49553475  0.49876818  0.88463909  1
  La3+  La59  1  0.50414826  0.83408769  0.36659616  1
  La3+  La60  1  0.01816588  0.81752446  0.63503575  1
  La3+  La61  1  0.50007071  0.48989592  0.11152065  1
  La3+  La62  1  0.49849318  0.48792058  0.86634215  1
  La3+  La63  1  0.00021229  0.83007828  0.37496638  1
  La3+  La64  1  0.00349236  0.83084383  0.13062602  1
  La3+  La65  1  -0.00436587  0.16804669  0.37166261  1
  La3+  La66  1  0.48989521  0.83588609  0.63961265  1
  La3+  La67  1  0.48921640  0.83134924  0.62399937  1
  La3+  La68  1  0.50617934  0.16837615  0.14622267  1
  La3+  La69  1  0.50212526  0.84155077  0.87484124  1
  La3+  La70  1  0.49743353  0.50037153  0.62823749  1
  La3+  La71  1  0.50476409  0.18140695  0.38949485  1
  La3+  La72  1  0.75026541  0.18527632  0.53817973  1
  La3+  La73  1  0.75015014  0.50484910  0.47525381  1
  La3+  La74  1  0.24836039  0.16024996  -0.04806253  1
  La3+  La75  1  0.75512188  0.21959642  0.77129433  1
  La3+  La76  1  0.24999430  0.10681560  0.28258449  1
  La3+  La77  1  0.24687580  0.50586786  -0.01331860  1
  La3+  La78  1  0.74955675  0.15819316  0.18253034  1
  La3+  La79  1  0.74943984  0.87347322  -0.05415676  1
  La3+  La80  1  0.74950196  0.90050413  0.73249183  1
  La3+  La81  1  0.74670207  0.92032871  0.24394620  1
  La3+  La82  1  0.75030811  0.50176246  0.79160970  1
  La3+  La83  1  0.74768110  0.89211693  0.52444392  1
  Ru4+  Ru84  1  -0.00095507  0.00912518  0.01139136  1
  Ru4+  Ru85  1  -0.00458888  -0.00720878  0.23647938  1
  Ru4+  Ru86  1  -0.00523554  -0.00034982  0.49294687  1
  Ru4+  Ru87  1  -0.00069655  -0.01046873  0.76644722  1
  Ru4+  Ru88  1  -0.00731118  0.33380893  0.00204896  1
  Ru4+  Ru89  1  0.00214387  0.33617076  0.25718685  1
  Ru4+  Ru90  1  0.00061200  0.33823489  0.48754075  1
  Ru4+  Ru91  1  -0.00700325  0.33357581  0.75026972  1
  Ru4+  Ru92  1  0.00617402  0.65820633  -0.00239508  1
  Ru4+  Ru93  1  -0.00112102  0.66013309  0.23996449  1
  Ru4+  Ru94  1  0.00318879  0.65589127  0.48937999  1
  Ru4+  Ru95  1  0.00582787  0.66352035  0.76273690  1
  Ru4+  Ru96  1  0.49545459  0.01500001  0.00863165  1
  Ru4+  Ru97  1  0.49198938  0.00731542  0.23818666  1
  Ru4+  Ru98  1  0.49905788  0.00393646  0.49921702  1
  Ru4+  Ru99  1  0.49146211  0.01044847  0.74036021  1
  Ru4+  Ru100  1  0.50251929  0.31538024  0.00061762  1
  Ru4+  Ru101  1  0.50477758  0.32220210  0.24268857  1
  Ru4+  Ru102  1  0.50845318  0.32235472  0.49962571  1
  Ru4+  Ru103  1  0.49846001  0.31696387  0.74946837  1
  Ru4+  Ru104  1  0.49613272  0.66754618  0.01220049  1
  Ru4+  Ru105  1  0.50367513  0.66967908  0.24726072  1
  Ru4+  Ru106  1  0.50064899  0.67077476  0.49964485  1
  Ru4+  Ru107  1  0.49035037  0.66617650  0.74707731  1
  Ru4+  Ru108  1  0.11291872  0.16912522  0.00263239  1
  Ru4+  Ru109  1  0.11437991  0.16648476  0.24982978  1
  Ru4+  Ru110  1  0.11350217  0.16252792  0.49732026  1
  Ru4+  Ru111  1  0.11597957  0.16219168  0.75319839  1
  Ru4+  Ru112  1  0.10015217  0.49770977  0.00632616  1
  Ru4+  Ru113  1  0.10592871  0.50196064  0.24472245  1
  Ru4+  Ru114  1  0.11203306  0.49924000  0.50053395  1
  Ru4+  Ru115  1  0.11437800  0.50390087  0.74475772  1
  Ru4+  Ru116  1  0.11164764  0.83258084  0.00340008  1
  Ru4+  Ru117  1  0.11314432  0.83293905  0.24880493  1
  Ru4+  Ru118  1  0.11777951  0.83428408  0.49836363  1
  Ru4+  Ru119  1  0.11302633  0.83998589  0.75074309  1
  Ru4+  Ru120  1  0.61485548  0.16532939  -0.00034995  1
  Ru4+  Ru121  1  0.61158688  0.16975235  0.24883253  1
  Ru4+  Ru122  1  0.60694941  0.17205131  0.49986236  1
  Ru4+  Ru123  1  0.60985962  0.17028272  0.75395718  1
  Ru4+  Ru124  1  0.62050127  0.50195207  0.00379184  1
  Ru4+  Ru125  1  0.61803173  0.49915647  0.24273829  1
  Ru4+  Ru126  1  0.61512124  0.50016868  0.50501369  1
  Ru4+  Ru127  1  0.61506427  0.49479090  0.74394665  1
  Ru4+  Ru128  1  0.61346964  0.82977750  0.00079549  1
  Ru4+  Ru129  1  0.60839820  0.83161034  0.25110038  1
  Ru4+  Ru130  1  0.61179150  0.83286672  0.49168201  1
  Ru4+  Ru131  1  0.61265127  0.83369742  0.74883206  1
  Ru4+  Ru132  1  0.39144760  0.14561245  -0.00816577  1
  Ru4+  Ru133  1  0.39448721  0.16525989  0.24868353  1
  Ru4+  Ru134  1  0.38596022  0.16125042  0.49571488  1
  Ru4+  Ru135  1  0.39218029  0.15119134  0.75048662  1
  Ru4+  Ru136  1  0.38473315  0.50473493  0.00520044  1
  Ru4+  Ru137  1  0.38731830  0.50053757  0.24429026  1
  Ru4+  Ru138  1  0.38207044  0.50051277  0.50266397  1
  Ru4+  Ru139  1  0.38717518  0.49833023  0.73919228  1
  Ru4+  Ru140  1  0.38633347  0.83367144  0.00252494  1
  Ru4+  Ru141  1  0.38840540  0.83544715  0.24675745  1
  Ru4+  Ru142  1  0.38413853  0.83309190  0.49987081  1
  Ru4+  Ru143  1  0.38193600  0.83302902  0.74760141  1
  Ru4+  Ru144  1  0.88519102  0.16901051  -0.00169458  1
  Ru4+  Ru145  1  0.88509098  0.17575176  0.26310830  1
  Ru4+  Ru146  1  0.89657537  0.16710025  0.50299172  1
  Ru4+  Ru147  1  0.89560605  0.16517748  0.74840142  1
  Ru4+  Ru148  1  0.88676205  0.49568130  0.00185468  1
  Ru4+  Ru149  1  0.88667810  0.50456307  0.24690724  1
  Ru4+  Ru150  1  0.89026775  0.49825336  0.49794095  1
  Ru4+  Ru151  1  0.88767227  0.49946648  0.74272774  1
  Ru4+  Ru152  1  0.89172594  0.83186373  0.00104787  1
  Ru4+  Ru153  1  0.89067387  0.83596126  0.25212174  1
  Ru4+  Ru154  1  0.89114215  0.83976246  0.49290774  1
  Ru4+  Ru155  1  0.89356269  0.83871982  0.75986448  1
  Ru4+  Ru156  1  0.75040172  0.72347986  0.26431268  1
  Ru4+  Ru157  1  0.75114678  0.06439696  0.76200664  1
  Ru4+  Ru158  1  0.74911847  0.36199775  0.74642383  1
  Ru4+  Ru159  1  0.25268435  0.25111751  0.74460717  1
  Ru4+  Ru160  1  0.75064447  0.32959397  0.49996999  1
  Ru4+  Ru161  1  0.24834516  0.75069362  0.00414098  1
  Ru4+  Ru162  1  0.75135541  0.73636347  0.01165447  1
  Ru4+  Ru163  1  0.24864675  0.92150442  0.00540170  1
  Ru4+  Ru164  1  0.24994702  0.24522006  0.49980569  1
  Ru4+  Ru165  1  0.24928284  0.42749919  0.23871308  1
  Ru4+  Ru166  1  0.24917717  0.58625314  0.48312514  1
  Ru4+  Ru167  1  0.24956313  0.75947180  0.74833696  1
  Ru4+  Ru168  1  0.75141288  0.54935587  0.02192094  1
  Ru4+  Ru169  1  0.25243943  0.56434200  0.74230840  1
  Ru4+  Ru170  1  0.75052883  0.60992376  0.68803022  1
  Ru4+  Ru171  1  0.24915151  0.91180496  0.75471330  1
  Ru4+  Ru172  1  0.24995474  0.42255663  0.74942459  1
  Ru4+  Ru173  1  0.74975382  1.01164017  0.01481887  1
  Ru4+  Ru174  1  0.25088507  0.74256671  0.50331053  1
  Ru4+  Ru175  1  0.75090623  0.04002440  0.50093437  1
  Ru4+  Ru176  1  0.75153702  0.71919818  0.49871088  1
  Ru4+  Ru177  1  0.25106950  0.28189500  0.23460237  1
  Ru4+  Ru178  1  0.24978136  0.57471416  0.25524820  1
  Ru4+  Ru179  1  0.75055488  0.74450534  0.73067733  1
  O2-  O180  1  0.16405970  0.08093776  -0.00367833  1
  O2-  O181  1  0.15728634  0.07490504  0.24950042  1
  O2-  O182  1  0.16897573  0.08765251  0.49527110  1
  O2-  O183  1  0.16420746  0.08173561  0.75205893  1
  O2-  O184  1  0.17032820  0.42075462  -0.01353840  1
  O2-  O185  1  0.16590407  0.41775200  0.25392529  1
  O2-  O186  1  0.16839149  0.41423936  0.50369561  1
  O2-  O187  1  0.16500904  0.41614911  0.74978620  1
  O2-  O188  1  0.16392970  0.74836028  -0.00312842  1
  O2-  O189  1  0.16376106  0.74690962  0.25556924  1
  O2-  O190  1  0.17106148  0.74618329  0.48893024  1
  O2-  O191  1  0.16566009  0.75025646  0.75070782  1
  O2-  O192  1  0.67054938  0.07720679  0.00760203  1
  O2-  O193  1  0.67175645  0.08274009  0.24239576  1
  O2-  O194  1  0.66615369  0.07873206  0.50512300  1
  O2-  O195  1  0.66986191  0.08191050  0.75488893  1
  O2-  O196  1  0.67010302  0.41442528  0.00227533  1
  O2-  O197  1  0.66387630  0.40950817  0.24836365  1
  O2-  O198  1  0.67323184  0.41161710  0.50203492  1
  O2-  O199  1  0.66830738  0.41094515  0.75009440  1
  O2-  O200  1  0.66785757  0.74336989  0.00121785  1
  O2-  O201  1  0.66549453  0.74167685  0.25158122  1
  O2-  O202  1  0.66775050  0.74511299  0.50549181  1
  O2-  O203  1  0.66370136  0.74478916  0.74730684  1
  O2-  O204  1  0.33995518  0.24879538  -0.00728853  1
  O2-  O205  1  0.33372764  0.25490445  0.25130198  1
  O2-  O206  1  0.33421793  0.25353265  0.50306261  1
  O2-  O207  1  0.34170807  0.25136354  0.75015605  1
  O2-  O208  1  0.33424796  0.58852540  0.00111462  1
  O2-  O209  1  0.33232608  0.58362740  0.24960595  1
  O2-  O210  1  0.33160040  0.58740413  0.50299474  1
  O2-  O211  1  0.33450379  0.58367553  0.74833728  1
  O2-  O212  1  0.33103967  0.91464753  0.00071926  1
  O2-  O213  1  0.33874572  0.91567746  0.25338196  1
  O2-  O214  1  0.33207741  0.91295112  0.49240166  1
  O2-  O215  1  0.33033632  0.91624451  0.74343277  1
  O2-  O216  1  0.83304777  0.25544826  0.00602388  1
  O2-  O217  1  0.82756605  0.25415602  0.23689506  1
  O2-  O218  1  0.83532931  0.25596600  0.50303656  1
  O2-  O219  1  0.84822679  0.26003484  0.74745637  1
  O2-  O220  1  0.83411619  0.57964783  0.00488836  1
  O2-  O221  1  0.83206565  0.58246862  0.25592374  1
  O2-  O222  1  0.82987648  0.58512669  0.49790530  1
  O2-  O223  1  0.83083669  0.58520583  0.74473867  1
  O2-  O224  1  0.83656452  0.92163566  0.00171161  1
  O2-  O225  1  0.83817230  0.92463796  0.25166291  1
  O2-  O226  1  0.83716566  0.92263367  0.50802314  1
  O2-  O227  1  0.84120999  0.92339572  0.74570797  1
  O2-  O228  1  0.16668649  0.25399105  -0.00892416  1
  O2-  O229  1  0.17010487  0.25625585  0.25659415  1
  O2-  O230  1  0.16646289  0.25379559  0.50392439  1
  O2-  O231  1  0.16715508  0.25209913  0.74706722  1
  O2-  O232  1  0.16353127  0.57674207  -0.00597489  1
  O2-  O233  1  0.16916380  0.58036286  0.25271684  1
  O2-  O234  1  0.16786533  0.58522824  0.49576837  1
  O2-  O235  1  0.17291156  0.57733320  0.75005212  1
  O2-  O236  1  0.16537632  0.91890037  -0.00340990  1
  O2-  O237  1  0.16181034  0.91618353  0.25252456  1
  O2-  O238  1  0.16648909  0.91698156  0.49736721  1
  O2-  O239  1  0.16892246  0.92290617  0.75452383  1
  O2-  O240  1  0.66084174  0.25585146  0.00522393  1
  O2-  O241  1  0.66493001  0.25407612  0.24168775  1
  O2-  O242  1  0.66405182  0.25587968  0.50315950  1
  O2-  O243  1  0.66461991  0.25710536  0.74526218  1
  O2-  O244  1  0.67013111  0.58363814  0.00702674  1
  O2-  O245  1  0.66735578  0.58392794  0.25128195  1
  O2-  O246  1  0.66988050  0.58653687  0.49986291  1
  O2-  O247  1  0.66586115  0.58505491  0.74563209  1
  O2-  O248  1  0.66391716  0.92509587  0.00442029  1
  O2-  O249  1  0.65119244  0.92552228  0.24858882  1
  O2-  O250  1  0.65816927  0.92445019  0.49967382  1
  O2-  O251  1  0.65927982  0.92624081  0.75823052  1
  O2-  O252  1  0.32318778  0.08972918  0.00452223  1
  O2-  O253  1  0.34130011  0.08171850  0.25328980  1
  O2-  O254  1  0.33075583  0.08771357  0.49673759  1
  O2-  O255  1  0.32846748  0.08491713  0.74228586  1
  O2-  O256  1  0.32947208  0.41414922  -0.00355847  1
  O2-  O257  1  0.33272519  0.41589012  0.25265612  1
  O2-  O258  1  0.33239560  0.41347445  0.50295524  1
  O2-  O259  1  0.33033894  0.41362297  0.75186954  1
  O2-  O260  1  0.33198419  0.74937586  0.00046672  1
  O2-  O261  1  0.34017530  0.74577376  0.25157284  1
  O2-  O262  1  0.33159015  0.74367953  0.49769275  1
  O2-  O263  1  0.33198846  0.74339750  0.74631587  1
  O2-  O264  1  0.82976960  0.08309558  0.00966490  1
  O2-  O265  1  0.83420322  0.08469641  0.24250601  1
  O2-  O266  1  0.83487861  0.07862291  0.50775664  1
  O2-  O267  1  0.83623609  0.07845509  0.74911129  1
  O2-  O268  1  0.83644500  0.41200987  0.00053567  1
  O2-  O269  1  0.83858384  0.41475072  0.24650714  1
  O2-  O270  1  0.83101848  0.41546312  0.50277464  1
  O2-  O271  1  0.83183483  0.41319011  0.75171621  1
  O2-  O272  1  0.83566238  0.74447746  0.00108823  1
  O2-  O273  1  0.83588004  0.74290975  0.25553318  1
  O2-  O274  1  0.83800049  0.74656497  0.50212349  1
  O2-  O275  1  0.83987394  0.74981112  0.74319621  1
  O2-  O276  1  0.05017835  0.23781096  0.24307837  1
  O2-  O277  1  0.54895146  0.42168635  0.74351459  1
  O2-  O278  1  0.94807835  0.41338910  0.52354149  1
  O2-  O279  1  0.45659391  0.42829511  0.51338853  1
  O2-  O280  1  0.45337231  0.57625693  0.22926331  1
  O2-  O281  1  0.46786660  0.12673787  1.01638194  1
  O2-  O282  1  0.54476744  0.57138705  0.74153904  1
  O2-  O283  1  0.04832016  0.90187921  0.49492476  1
  O2-  O284  1  0.45096022  0.90202878  0.01722175  1
  O2-  O285  1  0.04484051  0.54570997  0.78364761  1
  O2-  O286  1  0.45922529  0.89897688  0.24499522  1
  O2-  O287  1  0.54784678  0.57338508  0.78050206  1
  O2-  O288  1  0.55232286  0.57630231  0.99190642  1
  O2-  O289  1  0.45521416  0.42546012  0.23192571  1
  O2-  O290  1  0.05352452  0.90560793  0.79964613  1
  O2-  O291  1  0.94926588  0.23869295  0.01781995  1
  O2-  O292  1  0.56102207  0.08921983  0.98452548  1
  O2-  O293  1  0.54366573  0.88239225  0.53087171  1
  O2-  O294  1  0.44864028  0.57367984  0.48500587  1
  O2-  O295  1  0.55591316  0.24714301  0.75617353  1
  O2-  O296  1  0.44968418  0.42900792  0.99129611  1
  O2-  O297  1  0.95809460  0.90745588  0.00633048  1
  O2-  O298  1  0.04507702  0.09448362  0.75742374  1
  O2-  O299  1  0.45811180  0.18197051  0.71655507  1
  O2-  O300  1  0.95793032  0.89142934  0.70496191  1
  O2-  O301  1  0.94372916  0.20234347  0.19876017  1
  O2-  O302  1  0.46402326  0.10678767  0.29433167  1
  O2-  O303  1  0.53484801  0.10771496  0.74997711  1
  O2-  O304  1  0.95334955  0.88246869  0.55388278  1
  O2-  O305  1  0.04875547  0.24164428  0.76316331  1
  O2-  O306  1  0.54979573  0.09586307  0.48452175  1
  O2-  O307  1  0.55221930  0.90698900  0.98798420  1
  O2-  O308  1  0.05040779  0.23706532  0.26380536  1
  O2-  O309  1  0.02740828  0.53568857  0.75753504  1
  O2-  O310  1  0.46413806  0.12302580  0.02717915  1
  O2-  O311  1  0.04691996  0.76006189  0.25358805  1
  O2-  O312  1  0.03799860  0.42206352  0.94813312  1
  O2-  O313  1  0.04637703  0.90869683  0.27098289  1
  O2-  O314  1  0.05045721  0.42757245  0.23874959  1
  O2-  O315  1  0.54724524  0.42789239  0.98958740  1
  O2-  O316  1  0.04566679  0.10878016  0.98785179  1
  O2-  O317  1  0.54676409  0.75960408  0.73500827  1
  O2-  O318  1  0.95586489  0.76320335  0.01673712  1
  O2-  O319  1  0.03237508  0.55509612  0.96557090  1
  O2-  O320  1  0.94468011  0.57915640  0.50925497  1
  O2-  O321  1  0.44886143  0.42336897  0.47635697  1
  O2-  O322  1  0.94541322  0.57657589  0.48914251  1
  O2-  O323  1  0.05126192  0.54939588  0.44724792  1
  O2-  O324  1  0.07291340  0.62818921  0.06078970  1
  O2-  O325  1  0.93520287  0.91285791  0.31320650  1
  O2-  O326  1  0.06799370  0.40224528  0.48764689  1
  O2-  O327  1  0.94449365  0.24369744  0.02171193  1
  O2-  O328  1  0.56046337  0.58802821  0.53895119  1
  O2-  O329  1  0.56362223  0.58290906  0.27265779  1
  O2-  O330  1  0.55925452  0.74882427  0.27719028  1
  O2-  O331  1  0.43867180  0.74615463  0.46224677  1
  O2-  O332  1  0.56588521  0.40751248  0.48138402  1
  O2-  O333  1  0.08505480  0.40462467  0.06466607  1
  O2-  O334  1  0.56098844  0.95288015  0.41342762  1
  O2-  O335  1  0.56260356  0.74272523  0.47429430  1
  O2-  O336  1  0.43333314  0.74242944  0.72947599  1
  O2-  O337  1  0.56342487  0.25901153  0.76534080  1
  O2-  O338  1  0.05623270  0.75595449  0.76415237  1
  O2-  O339  1  0.05969595  0.07605496  0.46789821  1
  O2-  O340  1  0.93247900  0.28326993  0.31993179  1
  O2-  O341  1  0.93809738  0.74472100  0.23120743  1
  O2-  O342  1  0.44119357  0.40937898  0.96124400  1
  O2-  O343  1  0.40642880  0.03080409  0.96462201  1
  O2-  O344  1  0.42403040  0.08030851  0.82346150  1
  O2-  O345  1  0.08555581  0.90983537  0.65063270  1
  O2-  O346  1  0.92574199  0.95129852  0.45031885  1
  O2-  O347  1  0.07019517  0.60083357  0.56168773  1
  O2-  O348  1  0.93339380  0.59270103  0.76556821  1
  O2-  O349  1  0.94053455  0.58315286  0.23397850  1
  O2-  O350  1  0.93655829  0.07548300  0.95929971  1
  O2-  O351  1  0.43661042  0.73381163  0.96637273  1
  O2-  O352  1  0.06563922  0.26525997  0.77697181  1
  O2-  O353  1  0.93131696  0.90454071  0.17030566  1
  O2-  O354  1  0.56303970  0.73623521  0.96069811  1
  O2-  O355  1  0.43501421  0.26572392  0.28574808  1
  O2-  O356  1  0.06231872  0.74522802  0.48052507  1
  O2-  O357  1  0.56806229  0.40925789  0.98161256  1
  O2-  O358  1  0.56376041  0.07595772  0.23455302  1
  O2-  O359  1  0.05776123  0.91201082  0.80202831  1
  O2-  O360  1  0.07603610  0.63894727  0.69110439  1
  O2-  O361  1  0.42987128  0.03909422  0.67206477  1
  O2-  O362  1  0.93309508  0.94520290  0.82856168  1
  O2-  O363  1  0.43945907  0.92005282  0.53402789  1
  O2-  O364  1  0.43962552  0.07454447  0.46287826  1
  O2-  O365  1  0.06431241  0.59616956  0.22670452  1
  O2-  O366  1  0.44201096  0.91331382  0.76969965  1
  O2-  O367  1  0.43857465  0.40111345  0.71788558  1
  O2-  O368  1  0.94022932  0.41005172  0.71465981  1
  O2-  O369  1  0.42937267  0.05231662  0.17446476  1
  O2-  O370  1  0.58270762  0.06077079  0.72584524  1
  O2-  O371  1  0.55512378  0.91379998  0.72155663  1
  O2-  O372  1  0.75075134  0.64962858  0.09152726  1
  O2-  O373  1  0.25164133  0.67309592  0.10225118  1
  O2-  O374  1  0.74821118  0.34643395  0.37903331  1
  O2-  O375  1  0.24996913  0.33533700  0.84481457  1
  O2-  O376  1  0.74845457  -0.00544825  0.87815290  1
  O2-  O377  1  0.25104283  0.66114543  0.80755071  1
  O2-  O378  1  0.75052339  0.63883448  0.94408999  1
  O2-  O379  1  0.25034663  0.33354642  0.64892044  1
  O2-  O380  1  0.25234091  0.33527851  0.11735852  1
  O2-  O381  1  0.24944282  0.00512144  0.67607917  1
  O2-  O382  1  0.74814985  0.65892564  0.81006111  1
  O2-  O383  1  0.25001127  -0.00346388  0.35942501  1
  O2-  O384  1  0.74977418  0.01831312  0.14033137  1
  O2-  O385  1  0.25068167  0.65926452  0.94081452  1
  O2-  O386  1  0.24568402  -0.00180197  0.90177969  1
  O2-  O387  1  0.24989411  -0.00167693  0.13046646  1
  O2-  O388  1  0.74972797  0.31814933  0.62715671  1
  O2-  O389  1  0.75125162  0.00013246  0.63463175  1
  O2-  O390  1  0.25060777  0.65554729  0.35036561  1
  O2-  O391  1  0.75043180  0.65856783  0.37634864  1
  O2-  O392  1  0.75006349  0.33769917  0.87128098  1
  O2-  O393  1  0.24767156  -0.00441269  0.58441876  1
  O2-  O394  1  0.74973276  -0.01210774  0.38418024  1
  O2-  O395  1  0.74995702  0.64009659  0.18438292  1
  O2-  O396  1  0.25021223  0.50211261  0.13996490  1
  O2-  O397  1  0.74969064  0.15737705  0.40225555  1
  O2-  O398  1  0.25029748  0.18550318  0.17054996  1
  O2-  O399  1  0.24756504  0.16663056  0.08809312  1
  O2-  O400  1  0.74983484  0.51022088  0.62297833  1
  O2-  O401  1  0.75078401  0.81643427  0.33579776  1
  O2-  O402  1  0.25000163  0.83819979  0.57270376  1
  O2-  O403  1  0.75109742  0.17157053  0.31712053  1
  O2-  O404  1  0.74976195  0.13403553  0.66347662  1
  O2-  O405  1  0.74896429  0.13132366  0.87214075  1
  O2-  O406  1  0.75056256  0.80388841  0.83293734  1
  O2-  O407  1  0.74955504  0.84008483  0.07443612  1
  O2-  O408  1  0.24920858  0.83940775  0.08203232  1
  O2-  O409  1  0.75034744  0.50246067  0.12217727  1
  O2-  O410  1  0.24993416  0.83109202  0.17050712  1
  O2-  O411  1  0.25026279  0.19043979  0.40052039  1
  O2-  O412  1  0.75004405  0.16563805  0.95133957  1
  O2-  O413  1  0.75147761  0.79663812  0.18082114  1
  O2-  O414  1  0.24942524  0.83478799  0.66266035  1
  O2-  O415  1  0.25102364  0.50681365  0.40635196  1
  O2-  O416  1  0.24962590  0.16571791  0.81111704  1
  O2-  O417  1  0.25056415  0.83096368  0.85296448  1
  O2-  O418  1  0.75083260  0.78842550  0.61662226  1
  O2-  O419  1  0.75086650  0.80671158  0.42334689  1
  O2-  O420  1  0.53982748  -0.00785601  0.85073694  1
  O2-  O421  1  0.02091705  0.31515800  0.12265544  1
  O2-  O422  1  0.02165939  0.00890270  0.89264725  1
  O2-  O423  1  0.52582453  0.32543655  0.36667027  1
  O2-  O424  1  0.02537320  0.32892471  0.37430648  1
  O2-  O425  1  0.96712614  0.33490050  0.87550018  1
  O2-  O426  1  0.01657167  0.66322647  0.36597356  1
  O2-  O427  1  0.48327964  -0.01036666  0.88460891  1
  O2-  O428  1  0.98648807  0.03091903  0.35866300  1
  O2-  O429  1  0.96666256  0.35345389  0.13329597  1
  O2-  O430  1  0.51225431  0.65265465  0.37439221  1
  O2-  O431  1  0.04653000  0.67461092  0.88316321  1
  O2-  O432  1  0.97382465  0.67983501  0.62941492  1
  O2-  O433  1  0.51208810  0.33166699  0.88196325  1
  O2-  O434  1  0.52697885  0.33246938  0.12174542  1
  O2-  O435  1  0.95676793  0.03748802  0.12534073  1
  O2-  O436  1  0.04821422  -0.00853764  0.11954852  1
  O2-  O437  1  0.97747107  0.66178879  0.11572944  1
  O2-  O438  1  0.47172058  0.66322108  0.61826412  1
  O2-  O439  1  0.95255771  0.67474021  0.89210729  1
  O2-  O440  1  0.52887665  0.66375236  0.12775784  1
  O2-  O441  1  0.52152073  -0.00112342  0.61851998  1
  O2-  O442  1  0.52799784  -0.00607539  0.12340055  1
  O2-  O443  1  0.00964814  0.02290062  0.61498545  1
