# generated using pymatgen
data_La7(Ru4O11)2
_symmetry_space_group_name_H-M   'P 1'
_cell_length_a   23.99359637
_cell_length_b   16.83332935
_cell_length_c   15.42995172
_cell_angle_alpha   89.99940510
_cell_angle_beta   90.00224225
_cell_angle_gamma   89.99841835
_symmetry_Int_Tables_number   1
_chemical_formula_structural   La7(Ru4O11)2
_chemical_formula_sum   'La84 Ru96 O264'
_cell_volume   6232.03575225
_cell_formula_units_Z   12
loop_
 _symmetry_equiv_pos_site_id
 _symmetry_equiv_pos_as_xyz
  1  'x, y, z'
loop_
 _atom_type_symbol
 _atom_type_oxidation_number
  La3+  3.0
  Ru4+  4.0
  O2-  -2.0
loop_
 _atom_site_type_symbol
 _atom_site_label
 _atom_site_symmetry_multiplicity
 _atom_site_fract_x
 _atom_site_fract_y
 _atom_site_fract_z
 _atom_site_occupancy
  La3+  La0  1  0.14389221  -0.00555722  0.12455648  1
  La3+  La1  1  0.14324410  0.00123329  0.37224484  1
  La3+  La2  1  0.13915073  -0.00200425  0.63180753  1
  La3+  La3  1  0.15404590  0.00866837  0.87873433  1
  La3+  La4  1  0.14367973  0.33354524  0.12166257  1
  La3+  La5  1  0.13707697  0.33016704  0.37667166  1
  La3+  La6  1  0.14476500  0.33203300  0.62659779  1
  La3+  La7  1  0.13781054  0.33495390  0.87798809  1
  La3+  La8  1  0.13910605  0.66511174  0.11913485  1
  La3+  La9  1  0.14150214  0.66693245  0.37650690  1
  La3+  La10  1  0.14035853  0.66649716  0.62362533  1
  La3+  La11  1  0.14283088  0.66293375  0.88481909  1
  La3+  La12  1  0.63836504  -0.00086462  0.11662167  1
  La3+  La13  1  0.62533512  -0.01508412  0.39010766  1
  La3+  La14  1  0.62832765  -0.00411999  0.62495785  1
  La3+  La15  1  0.64276337  0.00073566  0.87673578  1
  La3+  La16  1  0.63708563  0.33177804  0.12471198  1
  La3+  La17  1  0.63942788  0.33057023  0.37801677  1
  La3+  La18  1  0.63572219  0.33860468  0.62844691  1
  La3+  La19  1  0.64102294  0.33461697  0.86691076  1
  La3+  La20  1  0.63403915  0.67253426  0.12198046  1
  La3+  La21  1  0.63521524  0.66156265  0.37093921  1
  La3+  La22  1  0.63970047  0.66416721  0.62899476  1
  La3+  La23  1  0.64229680  0.66246999  0.87216689  1
  La3+  La24  1  0.36538405  0.00225117  0.12638870  1
  La3+  La25  1  0.35398483  0.00711209  0.37284747  1
  La3+  La26  1  0.35978849  0.00161861  0.62917339  1
  La3+  La27  1  0.35777124  0.00257199  0.87407610  1
  La3+  La28  1  0.35674742  0.33547829  0.12400342  1
  La3+  La29  1  0.35958322  0.33129217  0.37480790  1
  La3+  La30  1  0.35651808  0.33320947  0.62609697  1
  La3+  La31  1  0.35639954  0.33288026  0.87646532  1
  La3+  La32  1  0.36425287  0.66047625  0.12455072  1
  La3+  La33  1  0.36307517  0.66055464  0.37621139  1
  La3+  La34  1  0.36284724  0.66310296  0.62044866  1
  La3+  La35  1  0.35237158  0.66772116  0.88175292  1
  La3+  La36  1  0.85936521  -0.00022552  0.11664663  1
  La3+  La37  1  0.86881227  -0.00148913  0.37191917  1
  La3+  La38  1  0.85893403  -0.00211795  0.62909142  1
  La3+  La39  1  0.84960032  0.00273159  0.88082204  1
  La3+  La40  1  0.86342177  0.32727307  0.12125047  1
  La3+  La41  1  0.86262724  0.33138301  0.37490272  1
  La3+  La42  1  0.85310906  0.33037697  0.63129808  1
  La3+  La43  1  0.85635523  0.32940439  0.87371679  1
  La3+  La44  1  0.86625387  0.67122695  0.12552438  1
  La3+  La45  1  0.85848148  0.66358547  0.37128715  1
  La3+  La46  1  0.86788906  0.66444197  0.63275407  1
  La3+  La47  1  0.86326811  0.66354942  0.86856362  1
  La3+  La48  1  0.00245765  0.50115448  0.10778070  1
  La3+  La49  1  0.50269888  0.82651874  0.12504682  1
  La3+  La50  1  0.00201758  0.15656346  0.64002354  1
  La3+  La51  1  0.50444423  0.49054429  0.88715114  1
  La3+  La52  1  0.49937917  0.16352549  0.36438059  1
  La3+  La53  1  0.50130265  0.84062781  0.62045476  1
  La3+  La54  1  0.00255878  0.84574897  0.89174469  1
  La3+  La55  1  -0.00410895  0.50292967  0.62751174  1
  La3+  La56  1  0.49985390  0.16077467  0.87726932  1
  La3+  La57  1  -0.00138093  0.16568729  0.62052702  1
  La3+  La58  1  0.00551893  0.50938393  0.36990384  1
  La3+  La59  1  0.00181277  0.51102075  0.86163353  1
  La3+  La60  1  0.50187889  0.16329282  0.63410809  1
  La3+  La61  1  0.50047075  0.16612738  0.38650955  1
  La3+  La62  1  0.49805593  0.84401628  0.36867379  1
  La3+  La63  1  0.50117913  0.49676783  0.61982493  1
  La3+  La64  1  -0.00023445  0.16614662  0.37299081  1
  La3+  La65  1  0.49956259  0.49041395  0.39221151  1
  La3+  La66  1  0.49814931  0.52298695  0.13516725  1
  La3+  La67  1  0.50024120  0.49639788  0.86650472  1
  La3+  La68  1  0.00252704  0.50070368  0.88088009  1
  La3+  La69  1  0.50503392  0.83308532  0.38488548  1
  La3+  La70  1  0.00209846  0.50420349  0.12982097  1
  La3+  La71  1  -0.00647334  0.83183683  0.14181694  1
  La3+  La72  1  0.74849722  0.87995574  0.78722712  1
  La3+  La73  1  0.74897019  0.16250897  0.74974686  1
  La3+  La74  1  0.25107247  0.53809042  0.24038637  1
  La3+  La75  1  0.74842992  0.11507644  0.51516173  1
  La3+  La76  1  0.74998983  0.55787969  0.04150166  1
  La3+  La77  1  0.75063158  0.82495037  0.31393630  1
  La3+  La78  1  0.74867399  0.43778146  0.48633797  1
  La3+  La79  1  0.75029887  0.53452900  0.23329220  1
  La3+  La80  1  0.74981951  0.23521659  0.22758839  1
  La3+  La81  1  0.74965690  0.48251127  0.72861021  1
  La3+  La82  1  0.24918292  0.16830103  0.21149678  1
  La3+  La83  1  0.75196909  0.84671357  0.52166788  1
  Ru4+  Ru84  1  0.01136614  0.01159507  0.01735334  1
  Ru4+  Ru85  1  -0.00128094  0.00227520  0.25389252  1
  Ru4+  Ru86  1  -0.00095799  -0.01148856  0.50536448  1
  Ru4+  Ru87  1  0.01296836  -0.00699707  0.74930602  1
  Ru4+  Ru88  1  0.00158447  0.31881425  -0.00525426  1
  Ru4+  Ru89  1  0.00713822  0.33109752  0.25209438  1
  Ru4+  Ru90  1  -0.00461947  0.34343145  0.49367676  1
  Ru4+  Ru91  1  0.00072572  0.33108419  0.76008944  1
  Ru4+  Ru92  1  -0.00450215  0.67970492  0.00113360  1
  Ru4+  Ru93  1  0.00611789  0.66645930  0.25717307  1
  Ru4+  Ru94  1  -0.00490590  0.68037558  0.50528131  1
  Ru4+  Ru95  1  0.00812048  0.67493360  0.72934020  1
  Ru4+  Ru96  1  0.49223399  0.00269843  -0.00179313  1
  Ru4+  Ru97  1  0.50093171  0.00186084  0.23979606  1
  Ru4+  Ru98  1  0.50167673  -0.00298113  0.49925367  1
  Ru4+  Ru99  1  0.49337510  -0.00634657  0.74515057  1
  Ru4+  Ru100  1  0.49566225  0.33287357  0.00688749  1
  Ru4+  Ru101  1  0.49538871  0.34096352  0.24289324  1
  Ru4+  Ru102  1  0.49528174  0.32519632  0.50527151  1
  Ru4+  Ru103  1  0.49782709  0.32495568  0.74828606  1
  Ru4+  Ru104  1  0.50395486  0.67258842  -0.00327792  1
  Ru4+  Ru105  1  0.50578466  0.66835629  0.24739438  1
  Ru4+  Ru106  1  0.50611048  0.66910201  0.50627611  1
  Ru4+  Ru107  1  0.50074496  0.67391991  0.75178831  1
  Ru4+  Ru108  1  0.10416643  0.15411997  -0.00115396  1
  Ru4+  Ru109  1  0.10885847  0.16619761  0.25048144  1
  Ru4+  Ru110  1  0.11648104  0.16801423  0.49711804  1
  Ru4+  Ru111  1  0.11410248  0.16702143  0.75309407  1
  Ru4+  Ru112  1  0.12180627  0.49581333  -0.00144806  1
  Ru4+  Ru113  1  0.11100554  0.50123158  0.25288307  1
  Ru4+  Ru114  1  0.11213008  0.50075622  0.50290391  1
  Ru4+  Ru115  1  0.11750570  0.50079317  0.74657955  1
  Ru4+  Ru116  1  0.11206328  0.83932215  -0.00457324  1
  Ru4+  Ru117  1  0.11086370  0.83157091  0.25102486  1
  Ru4+  Ru118  1  0.10942917  0.83492003  0.49920629  1
  Ru4+  Ru119  1  0.11048725  0.84145564  0.75031581  1
  Ru4+  Ru120  1  0.61467907  0.16874770  -0.00179771  1
  Ru4+  Ru121  1  0.61053824  0.16124503  0.23872851  1
  Ru4+  Ru122  1  0.61198897  0.17081716  0.50251154  1
  Ru4+  Ru123  1  0.61267729  0.16983257  0.75014401  1
  Ru4+  Ru124  1  0.61217361  0.49550137  0.00339818  1
  Ru4+  Ru125  1  0.60437172  0.49890227  0.25326942  1
  Ru4+  Ru126  1  0.61412621  0.50494950  0.50235261  1
  Ru4+  Ru127  1  0.61605934  0.50582410  0.74914582  1
  Ru4+  Ru128  1  0.61489019  0.82785605  -0.00488477  1
  Ru4+  Ru129  1  0.61581041  0.83281607  0.25074599  1
  Ru4+  Ru130  1  0.61408302  0.83388540  0.50887533  1
  Ru4+  Ru131  1  0.60784699  0.83317286  0.73855070  1
  Ru4+  Ru132  1  0.38711685  0.16511540  -0.00355524  1
  Ru4+  Ru133  1  0.38858413  0.17360727  0.24561605  1
  Ru4+  Ru134  1  0.38411928  0.17332389  0.50440436  1
  Ru4+  Ru135  1  0.38741744  0.16310385  0.74995714  1
  Ru4+  Ru136  1  0.38473502  0.49941680  0.00136473  1
  Ru4+  Ru137  1  0.38717709  0.48954450  0.25208255  1
  Ru4+  Ru138  1  0.38239039  0.49805896  0.50108254  1
  Ru4+  Ru139  1  0.38560524  0.49619420  0.74781311  1
  Ru4+  Ru140  1  0.38401213  0.83129235  0.00036877  1
  Ru4+  Ru141  1  0.38395825  0.83514528  0.24914024  1
  Ru4+  Ru142  1  0.38382046  0.83176809  0.50456544  1
  Ru4+  Ru143  1  0.38790054  0.83064335  0.74670362  1
  Ru4+  Ru144  1  0.88790494  0.17274533  0.00140644  1
  Ru4+  Ru145  1  0.89159143  0.16726252  0.25253676  1
  Ru4+  Ru146  1  0.88736916  0.16822262  0.49721305  1
  Ru4+  Ru147  1  0.88927802  0.16360654  0.75311603  1
  Ru4+  Ru148  1  0.88753269  0.49508282  0.00186905  1
  Ru4+  Ru149  1  0.89125562  0.50360668  0.24981996  1
  Ru4+  Ru150  1  0.89248109  0.49541772  0.50517747  1
  Ru4+  Ru151  1  0.88287625  0.49720594  0.74804960  1
  Ru4+  Ru152  1  0.88732516  0.83729342  0.00376632  1
  Ru4+  Ru153  1  0.88985480  0.83316628  0.24887697  1
  Ru4+  Ru154  1  0.89624106  0.82725180  0.49213182  1
  Ru4+  Ru155  1  0.88735897  0.83828614  0.75179791  1
  Ru4+  Ru156  1  0.24960172  0.75306823  0.49381058  1
  Ru4+  Ru157  1  0.24912891  0.90357070  0.24765693  1
  Ru4+  Ru158  1  0.24972368  0.76412386  0.25554150  1
  Ru4+  Ru159  1  0.75015375  0.07686168  0.22898288  1
  Ru4+  Ru160  1  0.75251762  0.58159150  0.49794244  1
  Ru4+  Ru161  1  0.24974123  0.76152577  0.74964189  1
  Ru4+  Ru162  1  0.74990630  0.39464667  0.00665771  1
  Ru4+  Ru163  1  0.75033439  0.39354958  0.25311346  1
  Ru4+  Ru164  1  0.24862251  0.24140900  -0.00729437  1
  Ru4+  Ru165  1  0.74999656  0.27165439  0.51586620  1
  Ru4+  Ru166  1  0.75115807  0.75072641  -0.00532009  1
  Ru4+  Ru167  1  0.24924565  0.43417778  0.50254550  1
  Ru4+  Ru168  1  0.24984813  0.09184670  0.50351836  1
  Ru4+  Ru169  1  0.74948136  0.72834060  0.75100508  1
  Ru4+  Ru170  1  0.75021256  0.71296179  0.21913287  1
  Ru4+  Ru171  1  0.75124845  0.97861829  0.46810606  1
  Ru4+  Ru172  1  0.74953194  0.93702365  0.21817396  1
  Ru4+  Ru173  1  0.74983384  0.71095108  0.49792952  1
  Ru4+  Ru174  1  0.24875024  0.39427352  0.25868114  1
  Ru4+  Ru175  1  0.24911123  0.90163372  0.50048099  1
  Ru4+  Ru176  1  0.25046452  0.57170295  0.75547930  1
  Ru4+  Ru177  1  0.25183503  0.91604277  -0.01052068  1
  Ru4+  Ru178  1  0.25065280  0.24763014  0.74487956  1
  Ru4+  Ru179  1  0.25152333  0.90994489  0.75671582  1
  O2-  O180  1  0.17215463  0.08885595  0.00863592  1
  O2-  O181  1  0.16618956  0.08161525  0.24806585  1
  O2-  O182  1  0.16429510  0.07819043  0.49972577  1
  O2-  O183  1  0.16414086  0.08584633  0.74581318  1
  O2-  O184  1  0.16999437  0.41141618  -0.00220146  1
  O2-  O185  1  0.16823067  0.41360417  0.25240941  1
  O2-  O186  1  0.16980182  0.41304223  0.50039071  1
  O2-  O187  1  0.16488273  0.41291240  0.75104188  1
  O2-  O188  1  0.16132768  0.75053747  0.00067553  1
  O2-  O189  1  0.16891666  0.74961041  0.24948039  1
  O2-  O190  1  0.16560431  0.74999405  0.50294227  1
  O2-  O191  1  0.16364239  0.75146307  0.74921276  1
  O2-  O192  1  0.66017669  0.08184513  -0.00041702  1
  O2-  O193  1  0.66675602  0.07889606  0.24473974  1
  O2-  O194  1  0.65828505  0.07227525  0.49827751  1
  O2-  O195  1  0.66443407  0.08202853  0.75173190  1
  O2-  O196  1  0.66500387  0.41136366  0.00015255  1
  O2-  O197  1  0.66850317  0.41568047  0.24638774  1
  O2-  O198  1  0.65748075  0.41068431  0.50432416  1
  O2-  O199  1  0.66407651  0.41467015  0.74652404  1
  O2-  O200  1  0.67078476  0.75214312  -0.00177237  1
  O2-  O201  1  0.67096406  0.74453248  0.24945137  1
  O2-  O202  1  0.66502316  0.74340688  0.49896434  1
  O2-  O203  1  0.66597499  0.74634288  0.75049191  1
  O2-  O204  1  0.33140514  0.24987627  0.00022421  1
  O2-  O205  1  0.32883194  0.25238841  0.25030652  1
  O2-  O206  1  0.33489061  0.25539721  0.50159033  1
  O2-  O207  1  0.33334966  0.25181800  0.75029489  1
  O2-  O208  1  0.33453301  0.58416616  0.00034062  1
  O2-  O209  1  0.33939556  0.58765461  0.25100995  1
  O2-  O210  1  0.33317337  0.58558783  0.50311261  1
  O2-  O211  1  0.33284636  0.58805551  0.74734989  1
  O2-  O212  1  0.33103344  0.92053234  0.00101479  1
  O2-  O213  1  0.32850212  0.91643651  0.23972783  1
  O2-  O214  1  0.33242299  0.91725177  0.50229455  1
  O2-  O215  1  0.33420874  0.91668731  0.75251529  1
  O2-  O216  1  0.83317005  0.24944506  0.00024465  1
  O2-  O217  1  0.84068601  0.25665536  0.25206269  1
  O2-  O218  1  0.83388901  0.25458600  0.50111277  1
  O2-  O219  1  0.83517088  0.25073772  0.75258291  1
  O2-  O220  1  0.83640997  0.59154790  -0.00028391  1
  O2-  O221  1  0.83890834  0.58822361  0.24531323  1
  O2-  O222  1  0.83718739  0.58312954  0.50032751  1
  O2-  O223  1  0.83143329  0.58527930  0.75236603  1
  O2-  O224  1  0.83365170  0.91508286  -0.00112868  1
  O2-  O225  1  0.83115066  0.92023924  0.24924077  1
  O2-  O226  1  0.83629928  0.91853756  0.49864131  1
  O2-  O227  1  0.83784497  0.91992346  0.75160110  1
  O2-  O228  1  0.16324692  0.24778147  -0.00115405  1
  O2-  O229  1  0.16532737  0.25096024  0.24917589  1
  O2-  O230  1  0.16496443  0.25525244  0.50125721  1
  O2-  O231  1  0.16914011  0.25268459  0.75362368  1
  O2-  O232  1  0.16551385  0.58675770  0.00286571  1
  O2-  O233  1  0.16494733  0.59116526  0.25083092  1
  O2-  O234  1  0.16077745  0.58610180  0.50210654  1
  O2-  O235  1  0.16812691  0.58831391  0.74824291  1
  O2-  O236  1  0.17441185  0.91662625  0.00413292  1
  O2-  O237  1  0.16756921  0.91462898  0.25320904  1
  O2-  O238  1  0.16614871  0.91717068  0.49888670  1
  O2-  O239  1  0.17147327  0.90934895  0.74429364  1
  O2-  O240  1  0.66127469  0.25310801  -0.00083532  1
  O2-  O241  1  0.65841358  0.25386652  0.25143552  1
  O2-  O242  1  0.66551255  0.25415166  0.50632353  1
  O2-  O243  1  0.66368430  0.25225160  0.75052100  1
  O2-  O244  1  0.66414154  0.59000950  0.00098765  1
  O2-  O245  1  0.66499191  0.58476483  0.25197828  1
  O2-  O246  1  0.66902680  0.58576761  0.49948598  1
  O2-  O247  1  0.67097473  0.58620883  0.74608530  1
  O2-  O248  1  0.66266259  0.91461888  -0.00188486  1
  O2-  O249  1  0.66765685  0.92150839  0.24832188  1
  O2-  O250  1  0.66953657  0.92033364  0.50466033  1
  O2-  O251  1  0.65913722  0.92033003  0.75022469  1
  O2-  O252  1  0.33770459  0.07933440  0.00372404  1
  O2-  O253  1  0.33181490  0.08466039  0.23897720  1
  O2-  O254  1  0.33466166  0.07992374  0.50406125  1
  O2-  O255  1  0.33709794  0.08153447  0.75160912  1
  O2-  O256  1  0.33366604  0.41524892  -0.00321420  1
  O2-  O257  1  0.32853316  0.41230649  0.25402267  1
  O2-  O258  1  0.33226231  0.41320773  0.50316912  1
  O2-  O259  1  0.33590482  0.41353483  0.74942343  1
  O2-  O260  1  0.33558003  0.74780115  0.00403276  1
  O2-  O261  1  0.32914919  0.74968573  0.24927710  1
  O2-  O262  1  0.33140153  0.74566074  0.50343107  1
  O2-  O263  1  0.33227369  0.74714686  0.74809347  1
  O2-  O264  1  0.84090815  0.08357924  0.00110689  1
  O2-  O265  1  0.83839476  0.08057629  0.24701542  1
  O2-  O266  1  0.84047870  0.07507763  0.49722699  1
  O2-  O267  1  0.83633819  0.08076304  0.75181198  1
  O2-  O268  1  0.83430129  0.41067565  0.00378368  1
  O2-  O269  1  0.83305338  0.41127097  0.24938747  1
  O2-  O270  1  0.84084868  0.41106148  0.49770369  1
  O2-  O271  1  0.83402529  0.41226379  0.75180567  1
  O2-  O272  1  0.83579668  0.74665838  -0.00242741  1
  O2-  O273  1  0.83108126  0.74673221  0.24836179  1
  O2-  O274  1  0.83140624  0.74728830  0.50315522  1
  O2-  O275  1  0.83248828  0.74601968  0.75405923  1
  O2-  O276  1  0.54854478  0.09460224  0.74360931  1
  O2-  O277  1  0.98037866  0.78448288  0.50505983  1
  O2-  O278  1  0.45253001  0.56924235  0.74899581  1
  O2-  O279  1  0.55369449  0.90724818  0.24974646  1
  O2-  O280  1  0.95673228  0.57285247  0.74033302  1
  O2-  O281  1  0.95269500  0.23899875  0.73862992  1
  O2-  O282  1  0.95435127  0.42823412  0.24281224  1
  O2-  O283  1  0.44947306  0.10725552  0.51830230  1
  O2-  O284  1  0.44886364  0.75446040  0.50067933  1
  O2-  O285  1  0.54974197  0.91300978  0.98121554  1
  O2-  O286  1  0.95500270  0.09392030  0.50431442  1
  O2-  O287  1  0.04870853  0.43561173  0.75124262  1
  O2-  O288  1  0.53726691  0.77778608  0.02150941  1
  O2-  O289  1  0.05060552  0.90011240  0.50752456  1
  O2-  O290  1  0.04822471  0.90025926  0.04635546  1
  O2-  O291  1  0.54753976  0.56766067  0.00812376  1
  O2-  O292  1  0.95239490  0.77067414  0.77289688  1
  O2-  O293  1  0.04899898  0.23989548  0.51343078  1
  O2-  O294  1  0.94435809  0.91082257  0.48621402  1
  O2-  O295  1  0.54986815  0.09639364  0.51639284  1
  O2-  O296  1  0.05413764  0.23967471  0.98685285  1
  O2-  O297  1  0.45599376  0.57669272  0.49254653  1
  O2-  O298  1  0.55592595  0.75440514  0.50347500  1
  O2-  O299  1  0.45009394  0.42665079  0.52058118  1
  O2-  O300  1  0.54868087  0.89890287  0.50230610  1
  O2-  O301  1  0.04858779  0.56816525  0.99017462  1
  O2-  O302  1  0.94883996  0.57692612  0.98856659  1
  O2-  O303  1  0.94944342  0.42777322  0.75587284  1
  O2-  O304  1  0.55285435  0.42794355  0.51076519  1
  O2-  O305  1  0.45229101  0.23438132  0.74458293  1
  O2-  O306  1  0.54066975  0.55674411  0.29851958  1
  O2-  O307  1  0.55954091  0.91252158  0.48539430  1
  O2-  O308  1  0.04545332  0.10151985  0.24742646  1
  O2-  O309  1  0.45531031  0.88743304  0.21269475  1
  O2-  O310  1  0.94844784  0.24375939  0.48456418  1
  O2-  O311  1  0.95921236  0.76369890  0.73591454  1
  O2-  O312  1  0.95851893  0.44605654  0.46245091  1
  O2-  O313  1  0.02218929  0.87562168  0.74584985  1
  O2-  O314  1  0.04921765  0.89969795  0.24608408  1
  O2-  O315  1  0.54739311  0.42700976  0.75820223  1
  O2-  O316  1  0.04224411  0.10358553  0.76237921  1
  O2-  O317  1  0.54126539  0.43346516  0.20743288  1
  O2-  O318  1  0.03520982  0.86505753  0.71483422  1
  O2-  O319  1  0.44637201  0.90699744  0.49918121  1
  O2-  O320  1  0.00366567  0.11738017  0.01959331  1
  O2-  O321  1  0.46273627  0.45474297  0.02926929  1
  O2-  O322  1  0.55268573  0.91172070  0.02021840  1
  O2-  O323  1  0.44384845  0.57060211  0.24614516  1
  O2-  O324  1  0.06408098  0.41061905  0.97810061  1
  O2-  O325  1  0.57503362  0.09469670  0.31976587  1
  O2-  O326  1  0.93641671  0.26443825  0.03541060  1
  O2-  O327  1  0.43914845  0.08399021  0.26804240  1
  O2-  O328  1  0.43468486  0.25866559  0.32997840  1
  O2-  O329  1  0.55946311  0.40783687  0.78573028  1
  O2-  O330  1  0.57196012  0.40028330  0.32796937  1
  O2-  O331  1  0.55858490  0.40301479  0.53801265  1
  O2-  O332  1  0.06502684  0.26408098  0.70990872  1
  O2-  O333  1  0.43622309  0.91983792  0.72821965  1
  O2-  O334  1  0.56106308  0.07264896  0.17553910  1
  O2-  O335  1  0.55700590  0.25352963  0.28090539  1
  O2-  O336  1  0.44152002  0.24719082  0.95954781  1
  O2-  O337  1  0.57721714  0.60108381  0.19197066  1
  O2-  O338  1  0.05897663  0.58799536  0.96167207  1
  O2-  O339  1  0.41616989  0.93199239  0.31107421  1
  O2-  O340  1  0.94011962  0.26191694  0.28019514  1
  O2-  O341  1  0.43970579  0.73832775  0.71288049  1
  O2-  O342  1  0.93606424  0.92399152  0.26821515  1
  O2-  O343  1  0.05468804  0.90135575  0.05052919  1
  O2-  O344  1  0.43342794  0.58701633  0.47854583  1
  O2-  O345  1  0.08495140  0.90989149  0.91001292  1
  O2-  O346  1  0.08589353  0.96544805  0.78380739  1
  O2-  O347  1  0.06901350  0.41866518  0.31790921  1
  O2-  O348  1  0.08086105  0.06258794  0.06742921  1
  O2-  O349  1  0.92248662  0.70696122  0.45378126  1
  O2-  O350  1  0.56056708  0.06839822  0.72423900  1
  O2-  O351  1  0.43169079  0.24054270  0.18539376  1
  O2-  O352  1  0.43475030  0.74417233  0.26868087  1
  O2-  O353  1  0.56390504  0.59134605  0.48438847  1
  O2-  O354  1  0.07141182  0.58125779  0.17483620  1
  O2-  O355  1  0.43715624  0.60395182  0.02756313  1
  O2-  O356  1  0.43364549  0.38896709  0.92280025  1
  O2-  O357  1  0.06515278  0.40886537  0.48453785  1
  O2-  O358  1  0.56586319  0.74374867  0.27489653  1
  O2-  O359  1  0.43479685  0.41248165  0.32800648  1
  O2-  O360  1  0.07128980  0.58802690  0.31706761  1
  O2-  O361  1  0.07842685  0.08290458  0.91976058  1
  O2-  O362  1  0.07135288  0.41923618  0.17593699  1
  O2-  O363  1  0.93534544  0.38118316  0.57843470  1
  O2-  O364  1  0.93658675  0.73193681  0.22394881  1
  O2-  O365  1  0.43968279  0.59789662  0.22129457  1
  O2-  O366  1  0.93433797  0.58851160  0.73467975  1
  O2-  O367  1  0.58188515  0.72095390  0.94763398  1
  O2-  O368  1  0.93792270  0.93355673  0.03014466  1
  O2-  O369  1  0.56778968  0.93417123  0.54213939  1
  O2-  O370  1  0.42845149  0.41831248  0.18510855  1
  O2-  O371  1  0.56494061  0.59443019  0.77040431  1
  O2-  O372  1  0.75052413  -0.00848225  0.34322649  1
  O2-  O373  1  0.25459724  -0.00946994  0.85625918  1
  O2-  O374  1  0.24974853  0.32924547  0.07398453  1
  O2-  O375  1  0.75090902  0.67218758  0.89846373  1
  O2-  O376  1  0.74879447  0.33721605  0.82826548  1
  O2-  O377  1  0.74867845  0.33908555  0.63041316  1
  O2-  O378  1  0.25042030  0.67255952  0.40191022  1
  O2-  O379  1  0.24924080  -0.00089339  0.30213982  1
  O2-  O380  1  0.74880081  0.31666972  0.91695512  1
  O2-  O381  1  0.24987141  -0.00555836  0.57120442  1
  O2-  O382  1  0.24902738  0.66806597  0.82338786  1
  O2-  O383  1  0.25042429  0.32893398  0.65582909  1
  O2-  O384  1  0.75087852  0.33147671  0.11335819  1
  O2-  O385  1  0.75109443  0.33562348  0.39289235  1
  O2-  O386  1  0.25110846  0.00143459  0.69497826  1
  O2-  O387  1  0.75034710  -0.00895377  0.88345672  1
  O2-  O388  1  0.75053235  -0.00367755  0.11210249  1
  O2-  O389  1  0.75119526  -0.00051121  0.68673047  1
  O2-  O390  1  0.25000286  0.66797383  0.91470487  1
  O2-  O391  1  0.24913069  -0.00137615  0.42977698  1
  O2-  O392  1  0.75006020  0.66878665  0.35281953  1
  O2-  O393  1  0.74857723  -0.00363764  0.59413758  1
  O2-  O394  1  0.74831304  0.66672499  0.64681701  1
  O2-  O395  1  0.24949014  0.31704473  0.16649464  1
  O2-  O396  1  0.25004461  0.18271981  0.43263456  1
  O2-  O397  1  0.75005481  0.20819878  0.41917293  1
  O2-  O398  1  0.74947060  0.16651077  0.96497070  1
  O2-  O399  1  0.75000065  0.82896216  0.15474489  1
  O2-  O400  1  0.75043588  0.83637338  0.06434257  1
  O2-  O401  1  0.75046137  0.16653867  0.88262436  1
  O2-  O402  1  0.25031113  0.83137607  0.85035379  1
  O2-  O403  1  0.75022151  0.13460331  0.32820688  1
  O2-  O404  1  0.24986801  0.49752447  0.11653628  1
  O2-  O405  1  0.75011861  0.14196964  0.12798426  1
  O2-  O406  1  0.25009599  0.16456120  0.34662408  1
  O2-  O407  1  0.75047278  0.49722099  0.36080847  1
  O2-  O408  1  0.75083576  0.52055894  0.59984991  1
  O2-  O409  1  0.24987205  0.49447576  0.59349216  1
  O2-  O410  1  0.25046165  0.17715049  0.90565289  1
  O2-  O411  1  0.75166053  0.19696793  0.61974148  1
  O2-  O412  1  0.25020798  0.48703792  0.40014216  1
  O2-  O413  1  0.25005469  0.83210136  0.40079718  1
  O2-  O414  1  0.74974995  0.82229554  0.65476379  1
  O2-  O415  1  0.74967309  0.51887274  0.85587615  1
  O2-  O416  1  0.25035650  0.16056134  0.67336645  1
  O2-  O417  1  0.25019981  0.50257500  0.83590293  1
  O2-  O418  1  0.75003923  0.47973440  0.93343841  1
  O2-  O419  1  0.25023080  0.17578495  0.58649206  1
  O2-  O420  1  0.46073969  0.32731251  0.10361417  1
  O2-  O421  1  0.53069854  0.67379257  0.38172069  1
  O2-  O422  1  0.04390829  0.32805688  0.86020369  1
  O2-  O423  1  0.02043111  0.67813287  0.38611059  1
  O2-  O424  1  0.53628798  -0.01030748  0.37564070  1
  O2-  O425  1  0.95620340  0.66333757  0.61219462  1
  O2-  O426  1  0.55008600  0.32481662  0.10722945  1
  O2-  O427  1  0.46719075  0.65851947  0.36121759  1
  O2-  O428  1  0.02111978  0.31156058  0.37577829  1
  O2-  O429  1  0.98036882  0.01311482  0.37969417  1
  O2-  O430  1  -0.00378674  -0.00346123  0.87047792  1
  O2-  O431  1  0.01751310  0.32551355  0.11765925  1
  O2-  O432  1  0.45358610  0.02217967  0.40331010  1
  O2-  O433  1  0.04916763  0.66086199  0.62235822  1
  O2-  O434  1  0.51050571  0.65958201  0.87364430  1
  O2-  O435  1  0.95192132  0.33756108  0.88484560  1
  O2-  O436  1  0.46991330  0.00257038  0.11658909  1
  O2-  O437  1  0.04610416  0.01367991  0.61801987  1
  O2-  O438  1  0.51765571  0.68136301  0.12224503  1
  O2-  O439  1  0.95381745  0.00248076  0.64218276  1
  O2-  O440  1  0.47492937  0.00846905  0.87460757  1
  O2-  O441  1  0.00546210  0.00242493  0.13936727  1
  O2-  O442  1  0.02100849  0.68215300  0.11907540  1
  O2-  O443  1  0.47392759  0.00489148  0.62207663  1
