# generated using pymatgen
data_La7(Ru4O11)2
_symmetry_space_group_name_H-M   'P 1'
_cell_length_a   23.99128788
_cell_length_b   16.83292569
_cell_length_c   15.42708954
_cell_angle_alpha   90.00081473
_cell_angle_beta   90.00034521
_cell_angle_gamma   89.99969749
_symmetry_Int_Tables_number   1
_chemical_formula_structural   La7(Ru4O11)2
_chemical_formula_sum   'La84 Ru96 O264'
_cell_volume   6230.13085321
_cell_formula_units_Z   12
loop_
 _symmetry_equiv_pos_site_id
 _symmetry_equiv_pos_as_xyz
  1  'x, y, z'
loop_
 _atom_type_symbol
 _atom_type_oxidation_number
  La3+  3.0
  Ru4+  4.0
  O2-  -2.0
loop_
 _atom_site_type_symbol
 _atom_site_label
 _atom_site_symmetry_multiplicity
 _atom_site_fract_x
 _atom_site_fract_y
 _atom_site_fract_z
 _atom_site_occupancy
  La3+  La0  1  0.14050175  -0.00292509  0.12440601  1
  La3+  La1  1  0.14177697  0.00084191  0.37746890  1
  La3+  La2  1  0.13702335  0.00112515  0.62048412  1
  La3+  La3  1  0.14046452  0.00026508  0.87919677  1
  La3+  La4  1  0.13931027  0.33306378  0.12092482  1
  La3+  La5  1  0.13986173  0.33045440  0.37683659  1
  La3+  La6  1  0.13886838  0.33075457  0.62153706  1
  La3+  La7  1  0.14219942  0.33306003  0.88017387  1
  La3+  La8  1  0.14254891  0.66955364  0.12488829  1
  La3+  La9  1  0.14051986  0.66690620  0.37179071  1
  La3+  La10  1  0.14200326  0.66639465  0.62842954  1
  La3+  La11  1  0.14188538  0.66702062  0.87554485  1
  La3+  La12  1  0.63621415  -0.00353767  0.12315105  1
  La3+  La13  1  0.63697079  -0.00074462  0.37304304  1
  La3+  La14  1  0.63507260  -0.00088545  0.62143479  1
  La3+  La15  1  0.64053905  0.00128196  0.87851404  1
  La3+  La16  1  0.63762181  0.33529507  0.12371736  1
  La3+  La17  1  0.63712657  0.33530100  0.37848131  1
  La3+  La18  1  0.63572333  0.33526177  0.62345037  1
  La3+  La19  1  0.63231243  0.33236959  0.87664582  1
  La3+  La20  1  0.64246084  0.66935765  0.12831648  1
  La3+  La21  1  0.64262154  0.66902475  0.37062209  1
  La3+  La22  1  0.63517599  0.66735673  0.62085868  1
  La3+  La23  1  0.63757971  0.66724080  0.87580730  1
  La3+  La24  1  0.36085509  -0.00185137  0.12292348  1
  La3+  La25  1  0.35748339  0.00057789  0.37797404  1
  La3+  La26  1  0.35868258  0.00299326  0.61884504  1
  La3+  La27  1  0.35910404  0.00103941  0.88041768  1
  La3+  La28  1  0.36241825  0.33376924  0.12345754  1
  La3+  La29  1  0.36440215  0.32969279  0.37391037  1
  La3+  La30  1  0.36174433  0.33365848  0.62260982  1
  La3+  La31  1  0.35781410  0.33390380  0.87969168  1
  La3+  La32  1  0.35736491  0.66903404  0.12450997  1
  La3+  La33  1  0.36027598  0.66890664  0.37120743  1
  La3+  La34  1  0.36003988  0.66359083  0.62730208  1
  La3+  La35  1  0.35961990  0.66639359  0.87555742  1
  La3+  La36  1  0.86252931  -0.00446700  0.12480997  1
  La3+  La37  1  0.86029032  -0.00541518  0.37482353  1
  La3+  La38  1  0.86295069  0.00081202  0.61907923  1
  La3+  La39  1  0.86008832  -0.00194548  0.87672316  1
  La3+  La40  1  0.86088144  0.33382468  0.12602410  1
  La3+  La41  1  0.86222388  0.33586675  0.37714475  1
  La3+  La42  1  0.86247619  0.33460389  0.62081916  1
  La3+  La43  1  0.86364568  0.33284878  0.87779213  1
  La3+  La44  1  0.85687355  0.66952536  0.12742870  1
  La3+  La45  1  0.85714077  0.66922576  0.37308627  1
  La3+  La46  1  0.86502644  0.66557619  0.62293137  1
  La3+  La47  1  0.86359401  0.66783981  0.87843389  1
  La3+  La48  1  0.50174897  0.50045134  0.86349448  1
  La3+  La49  1  0.50214954  0.82638947  0.13598472  1
  La3+  La50  1  0.49799467  0.83610893  0.37936866  1
  La3+  La51  1  -0.00460678  0.16407227  0.85829807  1
  La3+  La52  1  0.50242182  0.16959161  0.12192009  1
  La3+  La53  1  -0.00392726  0.17512826  0.87729150  1
  La3+  La54  1  0.00224881  0.50716688  0.87765022  1
  La3+  La55  1  0.00082735  0.50725108  0.86080815  1
  La3+  La56  1  -0.00079360  0.49878841  0.13128270  1
  La3+  La57  1  0.49930110  0.49692300  0.11735422  1
  La3+  La58  1  0.00661062  0.82599054  0.87379903  1
  La3+  La59  1  0.50022730  0.16441221  0.37133963  1
  La3+  La60  1  0.00120361  0.83602958  0.62851125  1
  La3+  La61  1  0.50363288  0.16647845  0.88460266  1
  La3+  La62  1  0.00200991  0.49774882  0.36276221  1
  La3+  La63  1  -0.00474022  0.50153505  0.61663626  1
  La3+  La64  1  0.00322976  0.50294003  0.63496404  1
  La3+  La65  1  0.49895228  0.16499774  0.14353986  1
  La3+  La66  1  0.00068756  0.16708611  0.36726976  1
  La3+  La67  1  0.00140895  0.83128727  0.89396880  1
  La3+  La68  1  0.00455138  0.17060367  0.12630288  1
  La3+  La69  1  0.50047815  0.17338423  0.63504741  1
  La3+  La70  1  -0.00317668  0.50267122  0.38275774  1
  La3+  La71  1  0.50074986  0.83461597  0.88389291  1
  La3+  La72  1  0.24960310  0.83187979  0.26328330  1
  La3+  La73  1  0.74959996  0.51045023  0.79772752  1
  La3+  La74  1  0.75078172  0.16369012  0.24504978  1
  La3+  La75  1  0.25014707  0.54205013  0.27507379  1
  La3+  La76  1  0.25003374  0.17705828  0.70992246  1
  La3+  La77  1  0.25015794  0.12261177  0.29071795  1
  La3+  La78  1  0.75023043  0.16786218  0.75074251  1
  La3+  La79  1  0.25026191  0.87063253  0.47353939  1
  La3+  La80  1  0.74985570  0.83614142  0.78811217  1
  La3+  La81  1  0.24976481  0.78678281  0.75138451  1
  La3+  La82  1  0.74951120  0.12100090  0.49891159  1
  La3+  La83  1  0.74994566  0.50777338  0.25162440  1
  Ru4+  Ru84  1  0.00108032  -0.00466309  0.01036795  1
  Ru4+  Ru85  1  -0.00068023  -0.00409269  0.24615158  1
  Ru4+  Ru86  1  0.00485498  -0.00084011  0.50581839  1
  Ru4+  Ru87  1  0.00002768  0.00148722  0.74392118  1
  Ru4+  Ru88  1  0.00211607  0.33456372  0.00538151  1
  Ru4+  Ru89  1  -0.00067468  0.33281957  0.24843598  1
  Ru4+  Ru90  1  -0.00070342  0.32535419  0.49942460  1
  Ru4+  Ru91  1  -0.00092155  0.32996622  0.74842250  1
  Ru4+  Ru92  1  0.00134006  0.66447906  0.00121298  1
  Ru4+  Ru93  1  -0.00298868  0.67401085  0.24962963  1
  Ru4+  Ru94  1  -0.00252538  0.67384000  0.49571771  1
  Ru4+  Ru95  1  0.00770256  0.67372788  0.75357558  1
  Ru4+  Ru96  1  0.50255899  -0.00347480  0.00174749  1
  Ru4+  Ru97  1  0.49667108  -0.00459129  0.25004830  1
  Ru4+  Ru98  1  0.49764726  -0.00166097  0.50091344  1
  Ru4+  Ru99  1  0.49843641  -0.00572140  0.74515035  1
  Ru4+  Ru100  1  0.50110125  0.33465844  -0.00024153  1
  Ru4+  Ru101  1  0.50149070  0.34318429  0.24856293  1
  Ru4+  Ru102  1  0.49601984  0.33947334  0.49474324  1
  Ru4+  Ru103  1  0.50431938  0.33458016  0.75378204  1
  Ru4+  Ru104  1  0.50028536  0.66709126  0.00011303  1
  Ru4+  Ru105  1  0.49721313  0.66121882  0.24966557  1
  Ru4+  Ru106  1  0.49854534  0.66429230  0.49778820  1
  Ru4+  Ru107  1  0.49990149  0.66655597  0.75118994  1
  Ru4+  Ru108  1  0.11669886  0.16598382  0.00242579  1
  Ru4+  Ru109  1  0.11039359  0.16562713  0.25021785  1
  Ru4+  Ru110  1  0.11444093  0.16527207  0.50155877  1
  Ru4+  Ru111  1  0.11124930  0.16537450  0.74902137  1
  Ru4+  Ru112  1  0.11355282  0.49927834  0.00027152  1
  Ru4+  Ru113  1  0.11083814  0.50076255  0.25009127  1
  Ru4+  Ru114  1  0.11517804  0.50010819  0.50004152  1
  Ru4+  Ru115  1  0.11395430  0.50475105  0.75090346  1
  Ru4+  Ru116  1  0.11545102  0.83244018  0.00286724  1
  Ru4+  Ru117  1  0.11230437  0.83563860  0.24886296  1
  Ru4+  Ru118  1  0.11012980  0.83494483  0.49939022  1
  Ru4+  Ru119  1  0.10954101  0.83230545  0.74915767  1
  Ru4+  Ru120  1  0.61309398  0.16625490  -0.00058843  1
  Ru4+  Ru121  1  0.61355835  0.17144226  0.24881146  1
  Ru4+  Ru122  1  0.61252421  0.16250133  0.50010517  1
  Ru4+  Ru123  1  0.61001003  0.16785135  0.74987158  1
  Ru4+  Ru124  1  0.61177826  0.49983351  -0.00051526  1
  Ru4+  Ru125  1  0.61139127  0.50008361  0.24909752  1
  Ru4+  Ru126  1  0.61243053  0.50066040  0.50088147  1
  Ru4+  Ru127  1  0.60919509  0.49966297  0.75010908  1
  Ru4+  Ru128  1  0.61432009  0.83459215  -0.00160511  1
  Ru4+  Ru129  1  0.61667599  0.83577229  0.25093277  1
  Ru4+  Ru130  1  0.61880822  0.83484383  0.50019452  1
  Ru4+  Ru131  1  0.60780549  0.83288544  0.74978772  1
  Ru4+  Ru132  1  0.38402247  0.16801258  -0.00044498  1
  Ru4+  Ru133  1  0.38566627  0.16222255  0.24942676  1
  Ru4+  Ru134  1  0.38389907  0.16762059  0.50008326  1
  Ru4+  Ru135  1  0.38829881  0.16722353  0.74918664  1
  Ru4+  Ru136  1  0.38605784  0.49709149  0.00092935  1
  Ru4+  Ru137  1  0.38954932  0.49927063  0.24794801  1
  Ru4+  Ru138  1  0.38813199  0.49773002  0.49823219  1
  Ru4+  Ru139  1  0.38641279  0.50389580  0.74869293  1
  Ru4+  Ru140  1  0.38488811  0.83297804  0.00091049  1
  Ru4+  Ru141  1  0.38571188  0.83284760  0.25023075  1
  Ru4+  Ru142  1  0.38977384  0.83452478  0.50020874  1
  Ru4+  Ru143  1  0.39226726  0.83928666  0.74942843  1
  Ru4+  Ru144  1  0.88579769  0.16580264  0.00069718  1
  Ru4+  Ru145  1  0.89053423  0.16835011  0.25027666  1
  Ru4+  Ru146  1  0.88939373  0.16715702  0.49897886  1
  Ru4+  Ru147  1  0.89030075  0.16703650  0.74956865  1
  Ru4+  Ru148  1  0.88717528  0.50069499  0.00112502  1
  Ru4+  Ru149  1  0.88715699  0.49814924  0.24898115  1
  Ru4+  Ru150  1  0.88373170  0.49780754  0.50060799  1
  Ru4+  Ru151  1  0.88477548  0.49638718  0.75131155  1
  Ru4+  Ru152  1  0.88470458  0.83317004  0.00022781  1
  Ru4+  Ru153  1  0.88978256  0.83272939  0.25093523  1
  Ru4+  Ru154  1  0.88627533  0.83185392  0.49993850  1
  Ru4+  Ru155  1  0.88922313  0.83524249  0.74701465  1
  Ru4+  Ru156  1  0.74973363  0.28725764  0.25130051  1
  Ru4+  Ru157  1  0.74986828  0.57797184  0.49059890  1
  Ru4+  Ru158  1  0.75005998  0.03701999  0.25114335  1
  Ru4+  Ru159  1  0.25004975  0.05744001  0.76229731  1
  Ru4+  Ru160  1  0.74963099  0.60653820  0.71093812  1
  Ru4+  Ru161  1  0.25042285  0.57962820  0.50247495  1
  Ru4+  Ru162  1  0.74960418  0.58694571  0.01094945  1
  Ru4+  Ru163  1  0.24976672  0.40612428  0.24075511  1
  Ru4+  Ru164  1  0.75095892  0.27998310  0.79306211  1
  Ru4+  Ru165  1  0.74972375  0.23873281  -0.00531405  1
  Ru4+  Ru166  1  0.74928106  0.39445429  0.75549148  1
  Ru4+  Ru167  1  0.24999463  0.72559995  0.51816688  1
  Ru4+  Ru168  1  0.25036785  0.29845384  0.76953857  1
  Ru4+  Ru169  1  0.24994742  0.42823275  0.75049035  1
  Ru4+  Ru170  1  0.74999776  0.41903698  -0.00355348  1
  Ru4+  Ru171  1  0.74984670  0.09277517  -0.00122632  1
  Ru4+  Ru172  1  0.25003906  0.26060273  0.24704638  1
  Ru4+  Ru173  1  0.24971032  0.92220123  0.74655526  1
  Ru4+  Ru174  1  0.25023392  0.58501138  0.00155165  1
  Ru4+  Ru175  1  0.25041309  0.42128886  0.49971803  1
  Ru4+  Ru176  1  0.74972853  0.25768027  0.49680287  1
  Ru4+  Ru177  1  0.75020071  0.05144488  0.73250896  1
  Ru4+  Ru178  1  0.74936613  0.93587476  0.71214936  1
  Ru4+  Ru179  1  0.75000097  0.72256101  0.74224193  1
  O2-  O180  1  0.16807902  0.08260775  -0.00106040  1
  O2-  O181  1  0.16425096  0.07832449  0.24879473  1
  O2-  O182  1  0.16573075  0.08298548  0.49976629  1
  O2-  O183  1  0.16747264  0.07982505  0.74798905  1
  O2-  O184  1  0.16589984  0.41528133  0.00005186  1
  O2-  O185  1  0.16691478  0.41259621  0.25094560  1
  O2-  O186  1  0.16821390  0.41352590  0.49918001  1
  O2-  O187  1  0.16896315  0.41374605  0.74944808  1
  O2-  O188  1  0.16650740  0.74923040  -0.00129132  1
  O2-  O189  1  0.16503129  0.74743364  0.25221378  1
  O2-  O190  1  0.16770177  0.74718800  0.50069925  1
  O2-  O191  1  0.16343286  0.74401887  0.75146086  1
  O2-  O192  1  0.66824883  0.08243916  0.00020077  1
  O2-  O193  1  0.66517046  0.07736204  0.25059869  1
  O2-  O194  1  0.66247174  0.07780866  0.50277459  1
  O2-  O195  1  0.66329766  0.07884415  0.74686343  1
  O2-  O196  1  0.66784151  0.41340069  0.00002481  1
  O2-  O197  1  0.66653657  0.41453748  0.25026491  1
  O2-  O198  1  0.66345881  0.41553142  0.49996229  1
  O2-  O199  1  0.66525646  0.41239838  0.74994220  1
  O2-  O200  1  0.66698591  0.74915625  0.00059125  1
  O2-  O201  1  0.66466383  0.75021497  0.24911800  1
  O2-  O202  1  0.66784137  0.74669053  0.50301019  1
  O2-  O203  1  0.66481224  0.74596316  0.74842813  1
  O2-  O204  1  0.33526990  0.25202677  -0.00018942  1
  O2-  O205  1  0.33357519  0.25368837  0.25095787  1
  O2-  O206  1  0.33507237  0.25313627  0.50007635  1
  O2-  O207  1  0.33184474  0.25556450  0.75087366  1
  O2-  O208  1  0.33324385  0.58484985  -0.00043838  1
  O2-  O209  1  0.33700874  0.58716081  0.25118078  1
  O2-  O210  1  0.33046527  0.58321836  0.50161860  1
  O2-  O211  1  0.33304908  0.58351654  0.75159226  1
  O2-  O212  1  0.33246954  0.91797539  0.00055310  1
  O2-  O213  1  0.33092888  0.91957459  0.24881881  1
  O2-  O214  1  0.33365049  0.91899626  0.50235021  1
  O2-  O215  1  0.33162431  0.91815331  0.75101084  1
  O2-  O216  1  0.83323129  0.25168750  -0.00168184  1
  O2-  O217  1  0.83535788  0.25507719  0.25067911  1
  O2-  O218  1  0.83360255  0.25250308  0.50106146  1
  O2-  O219  1  0.83662941  0.25578320  0.75033244  1
  O2-  O220  1  0.83349621  0.58578755  -0.00088999  1
  O2-  O221  1  0.83414056  0.58456732  0.24973904  1
  O2-  O222  1  0.83107828  0.58732612  0.50199380  1
  O2-  O223  1  0.83562494  0.58785071  0.75045600  1
  O2-  O224  1  0.83441717  0.91866172  -0.00021750  1
  O2-  O225  1  0.83338374  0.91809540  0.24827894  1
  O2-  O226  1  0.83582545  0.91811650  0.50205574  1
  O2-  O227  1  0.83429125  0.91997153  0.74999263  1
  O2-  O228  1  0.16676461  0.25081679  -0.00035107  1
  O2-  O229  1  0.16546906  0.25405907  0.25044439  1
  O2-  O230  1  0.16576725  0.25269075  0.49999702  1
  O2-  O231  1  0.16502241  0.25482980  0.74886707  1
  O2-  O232  1  0.16732488  0.58448922  -0.00018653  1
  O2-  O233  1  0.16347540  0.58754936  0.24988689  1
  O2-  O234  1  0.16738299  0.58553419  0.50049738  1
  O2-  O235  1  0.16587743  0.58514806  0.75068867  1
  O2-  O236  1  0.16859278  0.91730136  0.00056728  1
  O2-  O237  1  0.16813535  0.91929047  0.25217325  1
  O2-  O238  1  0.16566210  0.91890387  0.50156285  1
  O2-  O239  1  0.16597034  0.91987244  0.74978627  1
  O2-  O240  1  0.66813364  0.25220152  -0.00008316  1
  O2-  O241  1  0.66510610  0.25695184  0.24985616  1
  O2-  O242  1  0.66577813  0.25324704  0.49909233  1
  O2-  O243  1  0.66606105  0.25452900  0.74920910  1
  O2-  O244  1  0.66674412  0.58591312  0.00063662  1
  O2-  O245  1  0.66542813  0.58300290  0.24942924  1
  O2-  O246  1  0.66851399  0.58689165  0.50242133  1
  O2-  O247  1  0.66438683  0.58734462  0.74866018  1
  O2-  O248  1  0.66703208  0.91721122  0.00020873  1
  O2-  O249  1  0.66558880  0.91882871  0.24982070  1
  O2-  O250  1  0.66506155  0.92127703  0.50239093  1
  O2-  O251  1  0.66342341  0.92085629  0.74725678  1
  O2-  O252  1  0.33383415  0.08118087  0.00172037  1
  O2-  O253  1  0.33498152  0.07803659  0.24673792  1
  O2-  O254  1  0.33369355  0.08427779  0.50106533  1
  O2-  O255  1  0.33509497  0.08015753  0.74986560  1
  O2-  O256  1  0.33266529  0.41609255  -0.00062143  1
  O2-  O257  1  0.33266065  0.41321118  0.25191346  1
  O2-  O258  1  0.33237679  0.41478598  0.49872131  1
  O2-  O259  1  0.33187654  0.41513513  0.75053456  1
  O2-  O260  1  0.33393042  0.74970530  -0.00123421  1
  O2-  O261  1  0.33423131  0.74799058  0.25106297  1
  O2-  O262  1  0.33326265  0.74624228  0.50092252  1
  O2-  O263  1  0.33810298  0.74625364  0.75094525  1
  O2-  O264  1  0.83092830  0.08244667  -0.00025551  1
  O2-  O265  1  0.83560023  0.07780825  0.24955537  1
  O2-  O266  1  0.83489152  0.08002656  0.50287253  1
  O2-  O267  1  0.83638774  0.07810810  0.74912439  1
  O2-  O268  1  0.83138854  0.41373320  -0.00240907  1
  O2-  O269  1  0.83307334  0.41462110  0.24991311  1
  O2-  O270  1  0.83394070  0.41503791  0.50028556  1
  O2-  O271  1  0.83530173  0.40983778  0.75121740  1
  O2-  O272  1  0.83270028  0.74711782  -0.00133644  1
  O2-  O273  1  0.83643336  0.74933896  0.24970346  1
  O2-  O274  1  0.83407215  0.74645660  0.50197970  1
  O2-  O275  1  0.83670401  0.74532607  0.75005738  1
  O2-  O276  1  0.45243131  0.42285520  0.48334934  1
  O2-  O277  1  0.46027168  0.55624937  0.53493849  1
  O2-  O278  1  0.95906961  0.10798593  0.03721040  1
  O2-  O279  1  0.54506718  0.09161093  0.73777554  1
  O2-  O280  1  0.04681346  0.57320088  0.51199217  1
  O2-  O281  1  0.55164176  0.23632878  0.48372966  1
  O2-  O282  1  0.54345423  0.77075444  0.51086933  1
  O2-  O283  1  0.04687882  0.42732945  0.48745063  1
  O2-  O284  1  0.45197521  0.23889435  0.48316890  1
  O2-  O285  1  0.54805572  0.09942491  0.26250612  1
  O2-  O286  1  0.95481955  0.09999690  0.26353573  1
  O2-  O287  1  0.55300377  0.90447529  0.73578954  1
  O2-  O288  1  0.54802804  0.76340050  0.26646654  1
  O2-  O289  1  0.94988169  0.89985539  0.01221587  1
  O2-  O290  1  0.54977568  0.90121176  0.26697823  1
  O2-  O291  1  0.95127792  0.42697359  0.73860608  1
  O2-  O292  1  0.44587022  0.76354435  0.48719459  1
  O2-  O293  1  0.03386120  0.11308244  0.71104695  1
  O2-  O294  1  0.95905733  0.44460943  0.96441278  1
  O2-  O295  1  0.46969866  0.86071407  0.73011721  1
  O2-  O296  1  0.94872717  0.76688677  0.48907971  1
  O2-  O297  1  0.95310048  0.23907259  0.01184793  1
  O2-  O298  1  0.45340325  0.23477822  0.26309036  1
  O2-  O299  1  0.96626292  0.11386134  0.49699412  1
  O2-  O300  1  0.45278611  0.43268896  0.76461008  1
  O2-  O301  1  0.54354168  0.77062786  0.51100632  1
  O2-  O302  1  0.55339154  0.24138060  0.76689963  1
  O2-  O303  1  0.55596765  0.56834316  0.51588312  1
  O2-  O304  1  0.54745239  0.90441963  0.03919544  1
  O2-  O305  1  0.04935623  0.43048078  0.76400844  1
  O2-  O306  1  0.95356832  0.76638825  0.26228457  1
  O2-  O307  1  0.53799791  0.77278022  0.03057972  1
  O2-  O308  1  0.04762182  0.43465968  0.01459155  1
  O2-  O309  1  0.03608389  0.78693977  0.49836406  1
  O2-  O310  1  0.45405841  0.09989251  0.01112221  1
  O2-  O311  1  0.45698685  0.89130467  0.22390359  1
  O2-  O312  1  0.95362260  0.56788223  0.26008243  1
  O2-  O313  1  0.54574388  0.43448046  0.23582614  1
  O2-  O314  1  0.95355183  0.76142437  0.73335069  1
  O2-  O315  1  0.03957015  0.88799890  0.04009158  1
  O2-  O316  1  0.04732348  0.24096128  0.76031336  1
  O2-  O317  1  0.95334089  0.57114408  0.73710833  1
  O2-  O318  1  0.45561941  0.10975933  0.52882206  1
  O2-  O319  1  0.46515617  0.55694670  0.49738191  1
  O2-  O320  1  0.54896150  0.09382886  0.51489838  1
  O2-  O321  1  0.04324387  0.11133357  0.96627450  1
  O2-  O322  1  0.45914641  0.21995164  0.78851439  1
  O2-  O323  1  0.96246551  0.89047104  0.77985029  1
  O2-  O324  1  0.06666210  0.07695171  0.52669652  1
  O2-  O325  1  0.93571616  0.73461781  0.96569551  1
  O2-  O326  1  0.56289810  0.59204391  0.78333338  1
  O2-  O327  1  0.93512116  0.25920065  0.47222511  1
  O2-  O328  1  0.41992846  0.94310138  0.68872068  1
  O2-  O329  1  0.41396883  0.62376077  0.45014528  1
  O2-  O330  1  0.57102786  0.71909621  0.45361781  1
  O2-  O331  1  0.42199595  0.27159693  0.69985332  1
  O2-  O332  1  0.56091034  0.07379128  0.28142084  1
  O2-  O333  1  0.06470523  0.92606738  0.52716812  1
  O2-  O334  1  0.56110977  0.26645122  0.46766676  1
  O2-  O335  1  0.56275049  0.73908145  0.78208958  1
  O2-  O336  1  0.43385039  0.40986941  0.22339556  1
  O2-  O337  1  0.43669717  0.92894803  0.97139334  1
  O2-  O338  1  0.43546557  0.73563351  0.03355434  1
  O2-  O339  1  0.07257870  0.05474874  0.06245381  1
  O2-  O340  1  0.92094095  0.39427811  0.05018574  1
  O2-  O341  1  0.06306261  0.93117730  0.21843440  1
  O2-  O342  1  0.56452753  0.25702600  0.97306472  1
  O2-  O343  1  0.06551078  0.25952836  0.02653066  1
  O2-  O344  1  0.93485780  0.59472370  0.47514490  1
  O2-  O345  1  0.56872193  0.93519947  0.91263189  1
  O2-  O346  1  0.06480515  0.40256929  0.28412930  1
  O2-  O347  1  0.57086869  0.72145920  0.94415422  1
  O2-  O348  1  0.93861975  0.59264577  0.71530785  1
  O2-  O349  1  0.56242690  0.73718865  0.28183720  1
  O2-  O350  1  0.92688016  0.94899391  0.68902392  1
  O2-  O351  1  0.07648098  0.71361226  0.45748433  1
  O2-  O352  1  0.43176098  0.94134402  0.82480372  1
  O2-  O353  1  0.43589836  0.92466088  0.47197063  1
  O2-  O354  1  0.93634973  0.40330279  0.53382747  1
  O2-  O355  1  0.92079244  0.06116914  0.95128966  1
  O2-  O356  1  0.92325713  0.05813985  0.46808056  1
  O2-  O357  1  0.56601921  0.40940381  0.72362665  1
  O2-  O358  1  0.06302605  0.26516472  0.53177590  1
  O2-  O359  1  0.06376303  0.73492353  0.03134733  1
  O2-  O360  1  0.93305626  0.92737608  0.27562215  1
  O2-  O361  1  0.07708405  0.93346507  0.95257037  1
  O2-  O362  1  0.07770872  0.06159787  0.79537219  1
  O2-  O363  1  0.56506490  0.41139461  0.97354868  1
  O2-  O364  1  0.55626751  0.91284398  0.04841413  1
  O2-  O365  1  0.43920836  0.25915694  0.28165221  1
  O2-  O366  1  0.43651425  0.40893860  0.02452910  1
  O2-  O367  1  0.42742999  0.06828784  0.45674299  1
  O2-  O368  1  0.56109825  0.25157727  0.77340414  1
  O2-  O369  1  0.56372870  0.07485713  0.96821511  1
  O2-  O370  1  0.43762659  0.59917882  0.71837246  1
  O2-  O371  1  0.42456727  0.93702529  0.29540733  1
  O2-  O372  1  0.74986671  0.36049234  0.33803479  1
  O2-  O373  1  0.74987820  0.34747783  0.42732630  1
  O2-  O374  1  0.75029308  0.65915031  0.35433347  1
  O2-  O375  1  0.25004437  0.33471853  0.35391821  1
  O2-  O376  1  0.24997834  0.33218218  0.14417603  1
  O2-  O377  1  0.75007124  0.32627195  0.65489853  1
  O2-  O378  1  0.24994262  0.66758766  0.07903917  1
  O2-  O379  1  0.24945324  -0.00495500  0.40003718  1
  O2-  O380  1  0.24986051  0.66394687  0.39915117  1
  O2-  O381  1  0.24978186  0.66174861  0.90684244  1
  O2-  O382  1  0.75046220  0.00020311  0.86035299  1
  O2-  O383  1  0.24983130  0.67048911  0.64672593  1
  O2-  O384  1  0.24995365  0.66439946  0.17044432  1
  O2-  O385  1  0.75008117  -0.00135998  0.06715954  1
  O2-  O386  1  0.75004651  0.65840990  0.14402175  1
  O2-  O387  1  0.74991122  0.35069062  0.56855133  1
  O2-  O388  1  0.74969815  -0.02156774  0.15469116  1
  O2-  O389  1  0.24980551  -0.00548499  0.86355871  1
  O2-  O390  1  0.74968662  -0.02593980  0.34659496  1
  O2-  O391  1  0.75023769  0.32728525  0.05808048  1
  O2-  O392  1  0.74971003  0.00292446  0.43015576  1
  O2-  O393  1  0.74998255  0.36280503  0.17149606  1
  O2-  O394  1  0.24977247  -0.00014616  0.64218188  1
  O2-  O395  1  0.25023150  0.33533589  0.89220356  1
  O2-  O396  1  0.75016644  0.17321182  0.37869896  1
  O2-  O397  1  0.74987073  0.83302712  0.16487842  1
  O2-  O398  1  0.24993541  0.49474965  0.13941702  1
  O2-  O399  1  0.75002237  0.83368138  0.41306295  1
  O2-  O400  1  0.25003856  0.17131743  0.40492579  1
  O2-  O401  1  0.75028122  0.83467377  0.64015664  1
  O2-  O402  1  0.74987842  0.16868429  0.89162386  1
  O2-  O403  1  0.74992028  0.83293137  0.33359675  1
  O2-  O404  1  0.24993890  0.17197458  0.15337443  1
  O2-  O405  1  0.75009932  0.16842023  0.62131854  1
  O2-  O406  1  0.24986829  0.16753748  0.06909549  1
  O2-  O407  1  0.24999584  0.16222211  0.85498277  1
  O2-  O408  1  0.75001602  0.16743857  0.10933898  1
  O2-  O409  1  0.24993896  0.83510490  0.13973088  1
  O2-  O410  1  0.24987396  0.82967668  0.61134014  1
  O2-  O411  1  0.74999018  0.83350198  0.55740800  1
  O2-  O412  1  0.24981464  0.49770198  0.59307185  1
  O2-  O413  1  0.75019465  0.83067747  0.90185602  1
  O2-  O414  1  0.24997245  0.16793060  0.58908389  1
  O2-  O415  1  0.75023515  0.50455482  0.63477206  1
  O2-  O416  1  0.75006293  0.50382124  0.92124924  1
  O2-  O417  1  0.75014202  0.49994380  0.09266033  1
  O2-  O418  1  0.75008585  0.83362123  0.08493130  1
  O2-  O419  1  0.74998836  0.50327321  0.41244025  1
  O2-  O420  1  0.45643484  0.00133508  0.12386968  1
  O2-  O421  1  0.02734254  0.33385242  0.87947790  1
  O2-  O422  1  0.47189499  0.33758873  0.61792831  1
  O2-  O423  1  0.97233373  0.00097112  0.13084181  1
  O2-  O424  1  0.96409007  -0.00376651  0.86427117  1
  O2-  O425  1  0.52710920  0.66189819  0.12898395  1
  O2-  O426  1  0.02860937  -0.00291961  0.87521447  1
  O2-  O427  1  0.47553587  0.67021798  0.35999299  1
  O2-  O428  1  0.54015492  0.01459285  0.13813012  1
  O2-  O429  1  0.97403527  0.33864150  0.36939209  1
  O2-  O430  1  0.04035973  0.33781027  0.13384368  1
  O2-  O431  1  0.02233290  -0.00457205  0.62811600  1
  O2-  O432  1  0.03311355  0.00255604  0.37469238  1
  O2-  O433  1  0.54415745  0.33141884  0.12210934  1
  O2-  O434  1  0.97242397  0.66409921  0.12627859  1
  O2-  O435  1  0.47949563  0.00576593  0.61798506  1
  O2-  O436  1  0.53023221  0.32866200  0.62090005  1
  O2-  O437  1  0.46216654  0.31820606  0.12266220  1
  O2-  O438  1  0.96142499  0.32553926  0.13765184  1
  O2-  O439  1  0.47111962  0.66624201  0.87594140  1
  O2-  O440  1  0.97537890  -0.00140477  0.37489980  1
  O2-  O441  1  0.51913236  0.34145432  0.87418256  1
  O2-  O442  1  0.97702873  0.66631514  0.36939734  1
  O2-  O443  1  0.48392322  0.00607449  0.37254901  1
