# generated using pymatgen
data_La7(Ru4O11)2
_symmetry_space_group_name_H-M   'P 1'
_cell_length_a   23.99110364
_cell_length_b   16.83091842
_cell_length_c   15.42787908
_cell_angle_alpha   89.99956978
_cell_angle_beta   89.99863364
_cell_angle_gamma   89.99844965
_symmetry_Int_Tables_number   1
_chemical_formula_structural   La7(Ru4O11)2
_chemical_formula_sum   'La84 Ru96 O264'
_cell_volume   6229.65889742
_cell_formula_units_Z   12
loop_
 _symmetry_equiv_pos_site_id
 _symmetry_equiv_pos_as_xyz
  1  'x, y, z'
loop_
 _atom_type_symbol
 _atom_type_oxidation_number
  La3+  3.0
  Ru4+  4.0
  O2-  -2.0
loop_
 _atom_site_type_symbol
 _atom_site_label
 _atom_site_symmetry_multiplicity
 _atom_site_fract_x
 _atom_site_fract_y
 _atom_site_fract_z
 _atom_site_occupancy
  La3+  La0  1  0.13756710  0.00117086  0.12429416  1
  La3+  La1  1  0.13945606  0.00163873  0.37865675  1
  La3+  La2  1  0.14007373  0.00115756  0.62462875  1
  La3+  La3  1  0.14020633  -0.00001675  0.87427841  1
  La3+  La4  1  0.13811783  0.33427663  0.12787847  1
  La3+  La5  1  0.14021147  0.33326131  0.37429841  1
  La3+  La6  1  0.14079427  0.33013193  0.62142168  1
  La3+  La7  1  0.13804693  0.33549704  0.87301193  1
  La3+  La8  1  0.14475939  0.66897842  0.13025724  1
  La3+  La9  1  0.13925865  0.66543443  0.38001993  1
  La3+  La10  1  0.13859031  0.66940391  0.62291834  1
  La3+  La11  1  0.14067838  0.66450321  0.87410608  1
  La3+  La12  1  0.64315785  -0.00027035  0.12600452  1
  La3+  La13  1  0.63800508  -0.00306154  0.36819693  1
  La3+  La14  1  0.63799704  0.00083767  0.63020277  1
  La3+  La15  1  0.64282302  0.00185311  0.87461960  1
  La3+  La16  1  0.63573770  0.33365426  0.12438139  1
  La3+  La17  1  0.63495537  0.33474706  0.37381372  1
  La3+  La18  1  0.63969741  0.33535935  0.62640940  1
  La3+  La19  1  0.63679297  0.33200537  0.87605855  1
  La3+  La20  1  0.63599698  0.67118561  0.12369260  1
  La3+  La21  1  0.63842573  0.66949428  0.37330929  1
  La3+  La22  1  0.63639864  0.66594822  0.62799989  1
  La3+  La23  1  0.64088556  0.67029487  0.87782190  1
  La3+  La24  1  0.36257891  0.00271842  0.12544159  1
  La3+  La25  1  0.35953628  0.00026165  0.37709397  1
  La3+  La26  1  0.36059422  0.00075697  0.62369084  1
  La3+  La27  1  0.36152174  0.00122449  0.87344131  1
  La3+  La28  1  0.36116716  0.33239644  0.12542316  1
  La3+  La29  1  0.35881844  0.33237674  0.37586659  1
  La3+  La30  1  0.36291577  0.33212170  0.62548761  1
  La3+  La31  1  0.36318902  0.33406283  0.87399093  1
  La3+  La32  1  0.36226915  0.66337193  0.12487777  1
  La3+  La33  1  0.35944129  0.66491938  0.37770548  1
  La3+  La34  1  0.36324911  0.66065526  0.63009591  1
  La3+  La35  1  0.36577404  0.65817148  0.86215198  1
  La3+  La36  1  0.86268106  -0.00809802  0.13167420  1
  La3+  La37  1  0.86654179  -0.00722564  0.36565053  1
  La3+  La38  1  0.85898762  0.00160588  0.63336660  1
  La3+  La39  1  0.85457292  0.00207577  0.87574613  1
  La3+  La40  1  0.86018196  0.33069237  0.12258395  1
  La3+  La41  1  0.86632879  0.33344925  0.37722372  1
  La3+  La42  1  0.86183206  0.33607493  0.62557648  1
  La3+  La43  1  0.86116360  0.33149430  0.87561405  1
  La3+  La44  1  0.86316679  0.66938565  0.12572510  1
  La3+  La45  1  0.86153123  0.66704045  0.37060480  1
  La3+  La46  1  0.85440192  0.67008962  0.62076112  1
  La3+  La47  1  0.85805477  0.66642786  0.87343019  1
  La3+  La48  1  -0.00043890  0.49343276  0.63065600  1
  La3+  La49  1  -0.00087936  0.83384310  0.37795054  1
  La3+  La50  1  -0.00611018  0.17380333  0.62077893  1
  La3+  La51  1  -0.00241614  0.49640865  0.87384569  1
  La3+  La52  1  0.49739361  0.50351469  0.62152194  1
  La3+  La53  1  0.50447168  0.49561606  0.13435319  1
  La3+  La54  1  0.49977508  0.16969438  0.64387318  1
  La3+  La55  1  0.00087427  0.16859009  0.13247056  1
  La3+  La56  1  0.49934862  0.82913194  0.13788849  1
  La3+  La57  1  -0.00016020  0.83311990  0.86201777  1
  La3+  La58  1  0.50041273  0.84003067  0.11857542  1
  La3+  La59  1  0.50150251  0.49694667  0.36563047  1
  La3+  La60  1  0.49594593  0.82657744  0.62570469  1
  La3+  La61  1  0.49869306  0.83807180  0.38223723  1
  La3+  La62  1  -0.00288703  0.50438266  0.61160114  1
  La3+  La63  1  0.50056769  0.17154336  0.62681946  1
  La3+  La64  1  0.00259708  0.16660427  0.36225494  1
  La3+  La65  1  -0.00422527  0.15873861  0.87718718  1
  La3+  La66  1  -0.00408430  0.83958904  0.14345500  1
  La3+  La67  1  0.00336297  0.83819026  0.88290246  1
  La3+  La68  1  -0.00924371  0.48862790  0.88235112  1
  La3+  La69  1  0.49706194  0.50102367  0.86729977  1
  La3+  La70  1  -0.00069033  0.50294200  0.12164215  1
  La3+  La71  1  0.50058116  0.83454910  0.87424924  1
  La3+  La72  1  0.24957945  0.50577051  0.70529335  1
  La3+  La73  1  0.24983683  0.83057112  -0.06703336  1
  La3+  La74  1  0.24987815  0.16802726  0.44692706  1
  La3+  La75  1  0.25016461  0.11786454  0.77013913  1
  La3+  La76  1  0.25003861  0.83302436  0.30624409  1
  La3+  La77  1  0.74959792  0.54771761  0.21295124  1
  La3+  La78  1  0.74994395  0.21348201  0.50561464  1
  La3+  La79  1  0.75034790  0.83825414  0.00168011  1
  La3+  La80  1  0.75066936  0.12371808  0.21553366  1
  La3+  La81  1  0.74994897  0.83092421  0.55639079  1
  La3+  La82  1  0.74952774  0.50204959  0.76990349  1
  La3+  La83  1  0.25015676  0.50080186  0.02533913  1
  Ru4+  Ru84  1  -0.00017485  0.00297933  0.00377014  1
  Ru4+  Ru85  1  0.00039151  -0.00108734  0.24947085  1
  Ru4+  Ru86  1  0.00043388  0.00062540  0.49878427  1
  Ru4+  Ru87  1  -0.00010031  0.00037750  0.75146828  1
  Ru4+  Ru88  1  0.00218639  0.32908652  0.00010137  1
  Ru4+  Ru89  1  -0.00312546  0.33200529  0.25526043  1
  Ru4+  Ru90  1  0.00128743  0.32757123  0.49858205  1
  Ru4+  Ru91  1  0.00493048  0.32998704  0.74980016  1
  Ru4+  Ru92  1  0.00001374  0.66641063  0.00480472  1
  Ru4+  Ru93  1  -0.00214964  0.66734153  0.25298955  1
  Ru4+  Ru94  1  -0.00195567  0.66750320  0.49872461  1
  Ru4+  Ru95  1  0.00148476  0.67097917  0.74418745  1
  Ru4+  Ru96  1  0.50029769  0.00342232  0.00004343  1
  Ru4+  Ru97  1  0.50391901  0.00375010  0.24906726  1
  Ru4+  Ru98  1  0.50076912  0.00069721  0.49720621  1
  Ru4+  Ru99  1  0.49520951  -0.00373914  0.75186589  1
  Ru4+  Ru100  1  0.50134670  0.33467906  0.00332475  1
  Ru4+  Ru101  1  0.50114106  0.32021601  0.25087706  1
  Ru4+  Ru102  1  0.49910638  0.33140817  0.49635297  1
  Ru4+  Ru103  1  0.50358925  0.33969561  0.75149479  1
  Ru4+  Ru104  1  0.49797801  0.65748257  -0.00011997  1
  Ru4+  Ru105  1  0.49851856  0.66673076  0.24816488  1
  Ru4+  Ru106  1  0.49701058  0.66093957  0.50123847  1
  Ru4+  Ru107  1  0.49998309  0.66275369  0.74709571  1
  Ru4+  Ru108  1  0.11014927  0.17097157  0.00043535  1
  Ru4+  Ru109  1  0.11171651  0.16862175  0.25076668  1
  Ru4+  Ru110  1  0.11276989  0.16493506  0.50008077  1
  Ru4+  Ru111  1  0.10841023  0.16602904  0.74940922  1
  Ru4+  Ru112  1  0.11363722  0.50175922  0.00226678  1
  Ru4+  Ru113  1  0.11537220  0.50354156  0.24850094  1
  Ru4+  Ru114  1  0.11558881  0.50215561  0.49669447  1
  Ru4+  Ru115  1  0.11484604  0.49460492  0.74959636  1
  Ru4+  Ru116  1  0.11109397  0.83281236  0.00324686  1
  Ru4+  Ru117  1  0.10904437  0.83672428  0.24883878  1
  Ru4+  Ru118  1  0.11743688  0.83567998  0.50085679  1
  Ru4+  Ru119  1  0.11134940  0.83278871  0.75049875  1
  Ru4+  Ru120  1  0.61720154  0.16670629  0.00067650  1
  Ru4+  Ru121  1  0.60625087  0.16445024  0.25001952  1
  Ru4+  Ru122  1  0.61220479  0.16834119  0.49553025  1
  Ru4+  Ru123  1  0.61739030  0.16883579  0.75116413  1
  Ru4+  Ru124  1  0.61223312  0.50056569  -0.00093013  1
  Ru4+  Ru125  1  0.61431066  0.50761784  0.25168259  1
  Ru4+  Ru126  1  0.61021415  0.49889207  0.49991332  1
  Ru4+  Ru127  1  0.61139336  0.50240136  0.75090272  1
  Ru4+  Ru128  1  0.61670657  0.83722289  -0.00109319  1
  Ru4+  Ru129  1  0.61742184  0.83370763  0.25106244  1
  Ru4+  Ru130  1  0.61368071  0.83884285  0.50027021  1
  Ru4+  Ru131  1  0.61565244  0.83336111  0.75208757  1
  Ru4+  Ru132  1  0.38747821  0.16727725  0.00057425  1
  Ru4+  Ru133  1  0.38622627  0.16968890  0.24949084  1
  Ru4+  Ru134  1  0.38821218  0.16864156  0.49402596  1
  Ru4+  Ru135  1  0.38524661  0.16212534  0.75140637  1
  Ru4+  Ru136  1  0.38921922  0.50002632  -0.00394234  1
  Ru4+  Ru137  1  0.38695011  0.50243982  0.25059463  1
  Ru4+  Ru138  1  0.38690437  0.50210323  0.50182358  1
  Ru4+  Ru139  1  0.38876518  0.50074086  0.74861684  1
  Ru4+  Ru140  1  0.38612656  0.83303776  -0.00124754  1
  Ru4+  Ru141  1  0.39023151  0.83357815  0.25280545  1
  Ru4+  Ru142  1  0.38600552  0.83089361  0.49968914  1
  Ru4+  Ru143  1  0.38843509  0.83021927  0.74989920  1
  Ru4+  Ru144  1  0.88470749  0.16666098  -0.00077288  1
  Ru4+  Ru145  1  0.89053380  0.16426842  0.25044637  1
  Ru4+  Ru146  1  0.88930392  0.16733297  0.50073853  1
  Ru4+  Ru147  1  0.88602496  0.16365843  0.74966332  1
  Ru4+  Ru148  1  0.88795972  0.50004741  0.00093605  1
  Ru4+  Ru149  1  0.89090724  0.50226649  0.25130167  1
  Ru4+  Ru150  1  0.88309543  0.50507077  0.49738918  1
  Ru4+  Ru151  1  0.88389007  0.50276391  0.75149741  1
  Ru4+  Ru152  1  0.88657203  0.83388608  0.00264442  1
  Ru4+  Ru153  1  0.88570439  0.83525883  0.25293576  1
  Ru4+  Ru154  1  0.89163229  0.83321708  0.50051629  1
  Ru4+  Ru155  1  0.88689440  0.83870484  0.74878444  1
  Ru4+  Ru156  1  0.75050240  0.25068535  0.74573132  1
  Ru4+  Ru157  1  0.24983254  0.09994349  0.24904466  1
  Ru4+  Ru158  1  0.25004591  0.42433284  0.25075073  1
  Ru4+  Ru159  1  0.25024378  0.91260631  0.51000122  1
  Ru4+  Ru160  1  0.75009250  0.70973610  0.50478718  1
  Ru4+  Ru161  1  0.24990457  0.95646649  0.00957679  1
  Ru4+  Ru162  1  0.75022579  0.41937490  -0.00691364  1
  Ru4+  Ru163  1  0.24979269  0.71646111  0.23657268  1
  Ru4+  Ru164  1  0.24984986  0.24182483  -0.00077254  1
  Ru4+  Ru165  1  0.75022150  0.93804531  0.47383636  1
  Ru4+  Ru166  1  0.75008964  0.25635767  0.26167136  1
  Ru4+  Ru167  1  0.25011999  0.09694337  0.00094843  1
  Ru4+  Ru168  1  0.75005905  0.58009475  -0.00632869  1
  Ru4+  Ru169  1  0.74959230  0.40074726  0.49671051  1
  Ru4+  Ru170  1  0.24998201  0.90992181  0.74226988  1
  Ru4+  Ru171  1  0.75051184  0.07895101  0.49236836  1
  Ru4+  Ru172  1  0.75017863  0.75242310  0.76141590  1
  Ru4+  Ru173  1  0.25018675  0.96373740  0.25652585  1
  Ru4+  Ru174  1  0.74981714  0.40696022  0.26098878  1
  Ru4+  Ru175  1  0.74877502  0.58307038  0.49397863  1
  Ru4+  Ru176  1  0.25019834  0.42397655  0.48782776  1
  Ru4+  Ru177  1  0.25037496  0.70413911  0.00842445  1
  Ru4+  Ru178  1  0.24994209  0.75073755  0.74516584  1
  Ru4+  Ru179  1  0.24986788  0.27291367  0.74716499  1
  O2-  O180  1  0.16584324  0.08319513  0.00088621  1
  O2-  O181  1  0.16678603  0.07995889  0.25166419  1
  O2-  O182  1  0.16842875  0.08191997  0.49734680  1
  O2-  O183  1  0.16365782  0.07993896  0.74620246  1
  O2-  O184  1  0.16594212  0.41385770  0.00033922  1
  O2-  O185  1  0.16943758  0.41321992  0.25128963  1
  O2-  O186  1  0.16689940  0.41397161  0.49830242  1
  O2-  O187  1  0.17087756  0.41385065  0.75011060  1
  O2-  O188  1  0.16895148  0.74511384  -0.00365023  1
  O2-  O189  1  0.16630682  0.74579813  0.25345466  1
  O2-  O190  1  0.16567917  0.74832379  0.50059393  1
  O2-  O191  1  0.16915107  0.74844331  0.75164296  1
  O2-  O192  1  0.66362328  0.08304204  -0.00066935  1
  O2-  O193  1  0.66433852  0.08049113  0.25228444  1
  O2-  O194  1  0.66805612  0.08148652  0.50213708  1
  O2-  O195  1  0.66639822  0.08372977  0.75003875  1
  O2-  O196  1  0.66688946  0.41487289  -0.00216859  1
  O2-  O197  1  0.66593464  0.41391170  0.24870880  1
  O2-  O198  1  0.66697944  0.41262036  0.49979859  1
  O2-  O199  1  0.66536065  0.41408496  0.75264441  1
  O2-  O200  1  0.66716399  0.74654743  0.00234551  1
  O2-  O201  1  0.66763400  0.74629216  0.25143514  1
  O2-  O202  1  0.66417089  0.74441939  0.50157047  1
  O2-  O203  1  0.66878266  0.74958755  0.74815527  1
  O2-  O204  1  0.33217944  0.25355569  0.00112209  1
  O2-  O205  1  0.33485753  0.25316899  0.24947037  1
  O2-  O206  1  0.33155318  0.25075709  0.49944691  1
  O2-  O207  1  0.33176958  0.25445607  0.75164406  1
  O2-  O208  1  0.33188290  0.58614038  0.00163828  1
  O2-  O209  1  0.33592670  0.58446018  0.25020795  1
  O2-  O210  1  0.33613159  0.58462969  0.50132774  1
  O2-  O211  1  0.32964652  0.58444874  0.75003234  1
  O2-  O212  1  0.33265912  0.92279241  -0.00115892  1
  O2-  O213  1  0.33464606  0.92259951  0.24846298  1
  O2-  O214  1  0.33366269  0.92006254  0.50084907  1
  O2-  O215  1  0.33182464  0.91876022  0.75127656  1
  O2-  O216  1  0.83427385  0.25260375  -0.00100512  1
  O2-  O217  1  0.83332780  0.25417645  0.24979292  1
  O2-  O218  1  0.83422276  0.25679772  0.49698536  1
  O2-  O219  1  0.83221858  0.25218201  0.75234160  1
  O2-  O220  1  0.83065530  0.58776632  -0.00111191  1
  O2-  O221  1  0.83442080  0.58815370  0.25011376  1
  O2-  O222  1  0.83138912  0.58577455  0.49774933  1
  O2-  O223  1  0.83100961  0.58505442  0.75338269  1
  O2-  O224  1  0.83561564  0.91945911  0.00099736  1
  O2-  O225  1  0.83106656  0.91840814  0.25070466  1
  O2-  O226  1  0.83204430  0.92056406  0.49840875  1
  O2-  O227  1  0.83216807  0.91606458  0.75074152  1
  O2-  O228  1  0.16987597  0.25336421  0.00130310  1
  O2-  O229  1  0.16483075  0.25346534  0.25116818  1
  O2-  O230  1  0.16869434  0.25074988  0.49502281  1
  O2-  O231  1  0.16929173  0.25184997  0.75306318  1
  O2-  O232  1  0.17050647  0.58568336  -0.00406662  1
  O2-  O233  1  0.16422105  0.58364384  0.25284765  1
  O2-  O234  1  0.16483358  0.58592295  0.50101090  1
  O2-  O235  1  0.16581693  0.58543875  0.74967321  1
  O2-  O236  1  0.16786357  0.92173403  -0.00008376  1
  O2-  O237  1  0.16548117  0.92241634  0.25088538  1
  O2-  O238  1  0.16689490  0.91942493  0.50012589  1
  O2-  O239  1  0.16680514  0.91737820  0.75094705  1
  O2-  O240  1  0.66338121  0.25279169  -0.00261164  1
  O2-  O241  1  0.66415385  0.25308224  0.25052775  1
  O2-  O242  1  0.66512935  0.25677708  0.49951595  1
  O2-  O243  1  0.66878223  0.25238162  0.75224189  1
  O2-  O244  1  0.66791378  0.58561358  0.00037984  1
  O2-  O245  1  0.66510431  0.59154437  0.25259061  1
  O2-  O246  1  0.66544095  0.58645072  0.49972070  1
  O2-  O247  1  0.66817428  0.58336170  0.74832878  1
  O2-  O248  1  0.66601899  0.92025704  -0.00106429  1
  O2-  O249  1  0.66739997  0.91711316  0.24977545  1
  O2-  O250  1  0.66728798  0.92081123  0.50194182  1
  O2-  O251  1  0.66723357  0.91600462  0.74737979  1
  O2-  O252  1  0.33288433  0.08154223  -0.00059529  1
  O2-  O253  1  0.33359618  0.08155329  0.25085956  1
  O2-  O254  1  0.33158971  0.08346512  0.50111127  1
  O2-  O255  1  0.33851315  0.07504933  0.75056665  1
  O2-  O256  1  0.33272440  0.41317395  0.00133053  1
  O2-  O257  1  0.33152128  0.41274876  0.24833145  1
  O2-  O258  1  0.33410209  0.41414608  0.50122524  1
  O2-  O259  1  0.33477194  0.41425055  0.75160147  1
  O2-  O260  1  0.33200451  0.74538807  -0.00089156  1
  O2-  O261  1  0.33170431  0.74329314  0.24936417  1
  O2-  O262  1  0.33677129  0.74859893  0.50046985  1
  O2-  O263  1  0.33313065  0.74947524  0.75010183  1
  O2-  O264  1  0.83490491  0.08323790  0.00192378  1
  O2-  O265  1  0.83904042  0.07704652  0.25169788  1
  O2-  O266  1  0.83557229  0.08194799  0.49871194  1
  O2-  O267  1  0.83147292  0.08503078  0.75206914  1
  O2-  O268  1  0.83484514  0.41429546  -0.00227998  1
  O2-  O269  1  0.83511034  0.41336683  0.24880516  1
  O2-  O270  1  0.83319059  0.41315607  0.49832779  1
  O2-  O271  1  0.83242945  0.41296690  0.75330741  1
  O2-  O272  1  0.83397100  0.74471738  -0.00033113  1
  O2-  O273  1  0.83810246  0.74816526  0.24924503  1
  O2-  O274  1  0.83538983  0.74812385  0.49696283  1
  O2-  O275  1  0.83344965  0.74939762  0.75106689  1
  O2-  O276  1  0.96189640  0.56238733  0.76053078  1
  O2-  O277  1  0.05248671  0.43143557  0.23233278  1
  O2-  O278  1  0.03824926  0.10847303  0.71175401  1
  O2-  O279  1  0.04735804  0.75816726  0.48115855  1
  O2-  O280  1  0.04918600  0.57426151  0.50457634  1
  O2-  O281  1  0.54852265  0.76560146  0.51845298  1
  O2-  O282  1  0.44980444  0.90770950  0.98390218  1
  O2-  O283  1  0.95368373  0.90827577  0.23414415  1
  O2-  O284  1  0.54844006  0.43346030  0.23999254  1
  O2-  O285  1  0.54359291  0.88715586  0.71961947  1
  O2-  O286  1  0.53571742  0.54820618  0.74101499  1
  O2-  O287  1  0.46356295  0.55047162  0.03480793  1
  O2-  O288  1  0.45522209  0.24155350  0.74201962  1
  O2-  O289  1  0.96164891  0.21339422  0.46244265  1
  O2-  O290  1  0.54988743  0.90253729  0.98696597  1
  O2-  O291  1  0.44981952  0.76098358  0.01226148  1
  O2-  O292  1  0.54664717  0.23186635  0.26271847  1
  O2-  O293  1  0.45650315  0.56321608  0.48758889  1
  O2-  O294  1  0.05649161  0.57364921  0.73692933  1
  O2-  O295  1  0.95702934  0.56977864  0.77595236  1
  O2-  O296  1  0.97109852  0.88988435  0.50440054  1
  O2-  O297  1  0.05496810  0.24530903  0.51895355  1
  O2-  O298  1  0.03992869  0.55444438  0.98491513  1
  O2-  O299  1  0.95477659  0.90290199  0.01422998  1
  O2-  O300  1  0.95490654  0.76184640  0.98542426  1
  O2-  O301  1  0.94806984  0.42219577  0.75550818  1
  O2-  O302  1  0.54687708  0.42778637  0.73966101  1
  O2-  O303  1  0.94841776  0.41984539  0.75436603  1
  O2-  O304  1  0.94730323  0.43222695  0.50922596  1
  O2-  O305  1  0.54554021  0.75787519  0.48018403  1
  O2-  O306  1  0.03473786  0.55050055  -0.00682916  1
  O2-  O307  1  0.44763534  0.57489131  0.76844659  1
  O2-  O308  1  0.55168259  0.09912218  0.72934628  1
  O2-  O309  1  0.53781557  0.12007769  0.49364645  1
  O2-  O310  1  0.05493588  0.41964079  0.80106626  1
  O2-  O311  1  0.54674863  0.75752316  0.98066874  1
  O2-  O312  1  0.95419169  0.89377101  0.25794890  1
  O2-  O313  1  0.04698409  0.76284608  0.23796358  1
  O2-  O314  1  0.04905380  0.42499846  0.50772599  1
  O2-  O315  1  0.95043011  0.43073503  0.23380363  1
  O2-  O316  1  0.45394021  0.56606082  0.74332589  1
  O2-  O317  1  0.53752997  0.10596639  0.76111472  1
  O2-  O318  1  0.03719226  0.22707540  0.78893554  1
  O2-  O319  1  0.44983639  0.90012372  0.74393630  1
  O2-  O320  1  0.05064046  0.77440173  0.51566068  1
  O2-  O321  1  0.94872981  0.75739523  0.51222161  1
  O2-  O322  1  0.45377051  0.11270754  0.53642555  1
  O2-  O323  1  0.55153124  0.76261302  0.01890551  1
  O2-  O324  1  0.56502264  0.07633747  0.22453291  1
  O2-  O325  1  0.57396369  0.93693530  0.79752631  1
  O2-  O326  1  0.56216056  0.92120464  0.47158781  1
  O2-  O327  1  0.06309471  0.07313058  0.52196986  1
  O2-  O328  1  0.93667126  0.25799289  0.27332268  1
  O2-  O329  1  0.93680610  0.92918193  0.82313696  1
  O2-  O330  1  0.56444924  0.74292004  0.22820446  1
  O2-  O331  1  0.06247679  0.26233546  0.93135992  1
  O2-  O332  1  0.56560156  0.25760973  0.44028322  1
  O2-  O333  1  0.06047899  0.75044772  0.03070417  1
  O2-  O334  1  0.56530186  0.41051858  0.02559488  1
  O2-  O335  1  0.93326626  0.93428073  0.28369975  1
  O2-  O336  1  0.92211597  0.26822014  0.55260548  1
  O2-  O337  1  0.08040107  0.62163756  0.06732420  1
  O2-  O338  1  0.42830558  0.60115772  0.71928391  1
  O2-  O339  1  0.43527451  0.74334533  0.27678567  1
  O2-  O340  1  0.07669052  0.05965211  0.80336703  1
  O2-  O341  1  0.43222364  0.25096732  0.56223919  1
  O2-  O342  1  0.56904852  0.25164877  0.55988438  1
  O2-  O343  1  0.06400379  0.74034598  0.72887125  1
  O2-  O344  1  0.43732616  0.25039051  0.71568240  1
  O2-  O345  1  0.93277320  0.59442893  0.02553430  1
  O2-  O346  1  0.93653950  0.40629098  0.53060812  1
  O2-  O347  1  0.93521916  0.59826639  0.52665019  1
  O2-  O348  1  0.92108171  0.94630654  0.52746409  1
  O2-  O349  1  0.57881760  0.06120601  0.46577387  1
  O2-  O350  1  0.43677795  0.26436840  0.43242039  1
  O2-  O351  1  0.07551500  0.26732571  0.69266642  1
  O2-  O352  1  0.92142078  0.64036230  0.68892086  1
  O2-  O353  1  0.93367684  0.07685657  0.72482653  1
  O2-  O354  1  0.42815213  0.05145276  0.44120927  1
  O2-  O355  1  0.43770729  0.40193564  0.96596774  1
  O2-  O356  1  0.56281900  0.59321442  0.96499034  1
  O2-  O357  1  0.07314289  0.40560071  0.66261198  1
  O2-  O358  1  0.93736561  0.26235824  0.96593833  1
  O2-  O359  1  0.06094711  0.40671118  0.80560375  1
  O2-  O360  1  0.56291641  0.40897139  0.22175545  1
  O2-  O361  1  0.06328176  0.93020565  0.03521019  1
  O2-  O362  1  0.56330022  0.92009685  0.27721202  1
  O2-  O363  1  0.55988802  0.74342365  0.78394480  1
  O2-  O364  1  0.93776153  0.07068212  0.96742197  1
  O2-  O365  1  0.05887029  0.25340969  0.52592348  1
  O2-  O366  1  0.93725562  0.59793660  0.28134945  1
  O2-  O367  1  0.06157361  0.26236358  0.07235766  1
  O2-  O368  1  0.42984493  0.61016766  0.94001061  1
  O2-  O369  1  0.06228095  0.40029935  0.21931072  1
  O2-  O370  1  0.93423738  0.91674829  0.68932009  1
  O2-  O371  1  0.57851930  0.61524448  0.79908846  1
  O2-  O372  1  0.75002837  0.33199217  0.05310278  1
  O2-  O373  1  0.75066190  0.00943323  0.37899245  1
  O2-  O374  1  0.25077144  0.65567049  0.13190997  1
  O2-  O375  1  0.24975291  0.00420320  0.13748516  1
  O2-  O376  1  0.75017918  0.33255299  0.17221247  1
  O2-  O377  1  0.74985073  0.00073015  0.83180412  1
  O2-  O378  1  0.24986345  0.33291689  0.40337487  1
  O2-  O379  1  0.75012119  0.33330464  0.36393335  1
  O2-  O380  1  0.74944036  0.00356627  0.58975049  1
  O2-  O381  1  0.75032406  -0.00154409  0.68101261  1
  O2-  O382  1  0.25018184  0.67149796  0.42288105  1
  O2-  O383  1  0.24988005  0.66959874  0.65849906  1
  O2-  O384  1  0.75050971  0.66718567  0.84516871  1
  O2-  O385  1  0.24974432  0.64980874  0.33551827  1
  O2-  O386  1  0.74986383  0.32843727  0.65538261  1
  O2-  O387  1  0.75035681  -0.00384853  0.17029443  1
  O2-  O388  1  0.24984885  -0.00310195  0.65395869  1
  O2-  O389  1  0.75021158  0.00028903  0.08075560  1
  O2-  O390  1  0.74955392  -0.00076028  0.91845147  1
  O2-  O391  1  0.74951579  0.65858079  0.38693076  1
  O2-  O392  1  0.24978148  0.67483113  0.84893551  1
  O2-  O393  1  0.24981349  -0.00190245  0.40097688  1
  O2-  O394  1  0.25048387  -0.00699521  0.84756680  1
  O2-  O395  1  0.74947911  0.67372686  0.65265367  1
  O2-  O396  1  0.25023500  0.49997293  0.90554096  1
  O2-  O397  1  0.75033399  0.49791017  0.64459224  1
  O2-  O398  1  0.24995660  0.17878235  0.89631597  1
  O2-  O399  1  0.74964899  0.17140591  0.09593661  1
  O2-  O400  1  0.25005003  0.49620669  0.57547117  1
  O2-  O401  1  0.25002503  0.84011023  0.59774053  1
  O2-  O402  1  0.75014055  0.49432041  0.33961558  1
  O2-  O403  1  0.75018165  0.83008679  0.12857224  1
  O2-  O404  1  0.75007412  0.17210041  0.36229856  1
  O2-  O405  1  0.74981931  0.83951591  0.39955806  1
  O2-  O406  1  0.25004224  0.83408622  0.43420198  1
  O2-  O407  1  0.24993148  0.16264866  0.57635588  1
  O2-  O408  1  0.74995172  0.49326467  0.56122657  1
  O2-  O409  1  0.75009408  0.49820219  0.08514236  1
  O2-  O410  1  0.24980184  0.82914502  0.16550820  1
  O2-  O411  1  0.25020989  0.49463358  0.40684374  1
  O2-  O412  1  0.25005919  0.16381350  0.15726666  1
  O2-  O413  1  0.74999155  0.49261284  0.42559812  1
  O2-  O414  1  0.74998858  0.50035334  0.90289222  1
  O2-  O415  1  0.24955385  0.18968315  0.66014110  1
  O2-  O416  1  0.25005819  0.49215607  0.15812423  1
  O2-  O417  1  0.75005388  0.82607241  0.85954923  1
  O2-  O418  1  0.24973296  0.49738317  0.82506713  1
  O2-  O419  1  0.25005596  0.83226822  0.07660156  1
  O2-  O420  1  0.02507119  0.66746838  0.37375930  1
  O2-  O421  1  0.52735519  0.33272462  0.87472092  1
  O2-  O422  1  0.54346673  0.00093734  0.61737704  1
  O2-  O423  1  0.53988214  0.33889802  0.63189897  1
  O2-  O424  1  0.51549913  0.00252368  0.36903602  1
  O2-  O425  1  0.02321426  0.66340924  0.61975575  1
  O2-  O426  1  0.02391629  -0.01095597  0.88252059  1
  O2-  O427  1  0.54155216  0.65600813  0.12058375  1
  O2-  O428  1  0.46187625  0.35611578  0.62579557  1
  O2-  O429  1  0.97738821  0.01403305  0.62090082  1
  O2-  O430  1  0.54423843  0.66232978  0.62643634  1
  O2-  O431  1  0.51907581  0.32274687  0.12342887  1
  O2-  O432  1  0.52140042  0.34932385  0.36786658  1
  O2-  O433  1  0.45446957  0.00035630  0.12911630  1
  O2-  O434  1  0.52058593  0.00760639  0.88231773  1
  O2-  O435  1  0.47699371  0.66317242  0.37675753  1
  O2-  O436  1  0.45490026  0.66925424  0.13502015  1
  O2-  O437  1  0.97388313  0.67242795  0.13400912  1
  O2-  O438  1  0.03298596  -0.01090605  0.62931620  1
  O2-  O439  1  0.45746120  0.67915092  0.61145952  1
  O2-  O440  1  0.97487352  0.33972368  0.37969186  1
  O2-  O441  1  0.97715359  0.32943277  0.63507417  1
  O2-  O442  1  0.45639048  -0.00124794  0.62843778  1
  O2-  O443  1  0.54159463  -0.00853477  0.11614114  1
