# generated using pymatgen
data_La7(Ru4O11)2
_symmetry_space_group_name_H-M   'P 1'
_cell_length_a   23.99155825
_cell_length_b   16.83246687
_cell_length_c   15.42721749
_cell_angle_alpha   90.00112293
_cell_angle_beta   90.00153488
_cell_angle_gamma   89.99949429
_symmetry_Int_Tables_number   1
_chemical_formula_structural   La7(Ru4O11)2
_chemical_formula_sum   'La84 Ru96 O264'
_cell_volume   6230.08291114
_cell_formula_units_Z   12
loop_
 _symmetry_equiv_pos_site_id
 _symmetry_equiv_pos_as_xyz
  1  'x, y, z'
loop_
 _atom_type_symbol
 _atom_type_oxidation_number
  La3+  3.0
  Ru4+  4.0
  O2-  -2.0
loop_
 _atom_site_type_symbol
 _atom_site_label
 _atom_site_symmetry_multiplicity
 _atom_site_fract_x
 _atom_site_fract_y
 _atom_site_fract_z
 _atom_site_occupancy
  La3+  La0  1  0.14067114  0.00006910  0.12521617  1
  La3+  La1  1  0.13912310  0.00235975  0.37230165  1
  La3+  La2  1  0.14224904  0.00411592  0.62585792  1
  La3+  La3  1  0.14139572  0.00378176  0.87648881  1
  La3+  La4  1  0.13369574  0.34226234  0.13552579  1
  La3+  La5  1  0.13348249  0.34100035  0.37390945  1
  La3+  La6  1  0.14429657  0.33276671  0.61918727  1
  La3+  La7  1  0.14344509  0.33657943  0.87345307  1
  La3+  La8  1  0.13953696  0.66551627  0.12705908  1
  La3+  La9  1  0.14192091  0.66429701  0.37072393  1
  La3+  La10  1  0.13756012  0.66320285  0.62750384  1
  La3+  La11  1  0.14109462  0.66417253  0.87638488  1
  La3+  La12  1  0.63872588  -0.00035335  0.12898308  1
  La3+  La13  1  0.63411620  -0.00650697  0.37820362  1
  La3+  La14  1  0.63875352  -0.00326324  0.62153186  1
  La3+  La15  1  0.63652971  0.00337644  0.87220400  1
  La3+  La16  1  0.64047040  0.33100838  0.13019200  1
  La3+  La17  1  0.64207663  0.33316454  0.36877951  1
  La3+  La18  1  0.63982941  0.33318820  0.62744621  1
  La3+  La19  1  0.63854190  0.33074372  0.87230483  1
  La3+  La20  1  0.63693648  0.66641520  0.12905633  1
  La3+  La21  1  0.64121981  0.66720950  0.37581888  1
  La3+  La22  1  0.63808749  0.66805647  0.62372438  1
  La3+  La23  1  0.63726428  0.66716330  0.87226186  1
  La3+  La24  1  0.36189632  -0.00074384  0.12948825  1
  La3+  La25  1  0.36222222  0.00076395  0.37393533  1
  La3+  La26  1  0.36021324  0.00126913  0.62355250  1
  La3+  La27  1  0.36061049  0.00190840  0.87383368  1
  La3+  La28  1  0.35864672  0.33631392  0.12537939  1
  La3+  La29  1  0.35722789  0.33496851  0.37629833  1
  La3+  La30  1  0.35087123  0.33270408  0.62445270  1
  La3+  La31  1  0.35649799  0.33460188  0.87530298  1
  La3+  La32  1  0.35511337  0.66679070  0.12623514  1
  La3+  La33  1  0.35854203  0.66386300  0.37062830  1
  La3+  La34  1  0.36339619  0.66162323  0.62921859  1
  La3+  La35  1  0.36046135  0.66147066  0.87805366  1
  La3+  La36  1  0.85952928  0.00211139  0.12191863  1
  La3+  La37  1  0.86290867  -0.00468161  0.37382368  1
  La3+  La38  1  0.86434525  -0.00121685  0.62614574  1
  La3+  La39  1  0.86360946  0.00535451  0.87727518  1
  La3+  La40  1  0.86865809  0.33858420  0.12057812  1
  La3+  La41  1  0.85639653  0.33199679  0.37227301  1
  La3+  La42  1  0.86313191  0.33487826  0.62573478  1
  La3+  La43  1  0.87113319  0.34163617  0.88262560  1
  La3+  La44  1  0.86451273  0.66604983  0.12970025  1
  La3+  La45  1  0.85343356  0.66672614  0.37419741  1
  La3+  La46  1  0.85675595  0.67091860  0.62587371  1
  La3+  La47  1  0.86139315  0.66905931  0.87294939  1
  La3+  La48  1  0.49982802  0.49328822  0.85199003  1
  La3+  La49  1  -0.00512955  0.49238606  0.87619360  1
  La3+  La50  1  0.00404147  0.83227455  0.61158879  1
  La3+  La51  1  0.00090458  0.16226066  0.62140013  1
  La3+  La52  1  0.49944602  0.83696795  0.12039966  1
  La3+  La53  1  -0.00046756  0.49927436  0.36880222  1
  La3+  La54  1  0.00011909  0.16289407  0.11554124  1
  La3+  La55  1  0.50112191  0.82953592  0.86612252  1
  La3+  La56  1  0.00288214  0.83579542  0.88437188  1
  La3+  La57  1  0.50218804  0.49909699  0.87355637  1
  La3+  La58  1  0.50168672  0.83834260  0.36707889  1
  La3+  La59  1  -0.00016553  0.17007521  0.87034653  1
  La3+  La60  1  -0.00147203  0.16453492  0.38085101  1
  La3+  La61  1  0.49959089  0.83479571  0.60481624  1
  La3+  La62  1  0.49900786  0.83665780  0.88535232  1
  La3+  La63  1  0.50019528  0.50613150  0.11803944  1
  La3+  La64  1  -0.00988119  0.82714235  0.36527294  1
  La3+  La65  1  0.50046760  0.16925092  0.61459554  1
  La3+  La66  1  0.49919522  0.16412150  0.63635674  1
  La3+  La67  1  -0.00047058  0.81372422  0.37430632  1
  La3+  La68  1  0.00625099  0.49326643  0.13199380  1
  La3+  La69  1  0.00805030  0.49020131  0.11553955  1
  La3+  La70  1  0.49909423  0.50406753  0.61204984  1
  La3+  La71  1  0.50248129  0.83312384  0.62680982  1
  La3+  La72  1  0.25002677  0.12846233  0.21200233  1
  La3+  La73  1  0.74927766  0.11616721  -0.00167862  1
  La3+  La74  1  0.75001276  0.89434429  0.01636890  1
  La3+  La75  1  0.75006265  0.13937874  0.50763549  1
  La3+  La76  1  0.75022605  0.49131976  -0.03342363  1
  La3+  La77  1  0.74981085  0.52583545  0.46573258  1
  La3+  La78  1  0.74930167  0.44503859  0.73656552  1
  La3+  La79  1  0.25043550  0.83526076  0.49381277  1
  La3+  La80  1  0.24985276  0.17747389  0.47574946  1
  La3+  La81  1  0.25037867  0.79996038  0.02160307  1
  La3+  La82  1  0.74936895  0.79137446  0.76720421  1
  La3+  La83  1  0.24996348  0.48535755  0.53756794  1
  Ru4+  Ru84  1  0.00230225  -0.00844300  -0.00096642  1
  Ru4+  Ru85  1  0.00091832  0.00449290  0.24463004  1
  Ru4+  Ru86  1  -0.00135467  0.00078829  0.50139280  1
  Ru4+  Ru87  1  0.00221942  -0.00135981  0.75086165  1
  Ru4+  Ru88  1  -0.00111724  0.33390072  -0.00170679  1
  Ru4+  Ru89  1  0.00056797  0.33527413  0.25044601  1
  Ru4+  Ru90  1  -0.00922721  0.33468461  0.49765799  1
  Ru4+  Ru91  1  0.00085308  0.33768848  0.75865271  1
  Ru4+  Ru92  1  -0.00173914  0.66780954  0.00582592  1
  Ru4+  Ru93  1  -0.00257134  0.66903996  0.23498547  1
  Ru4+  Ru94  1  -0.00881499  0.64535242  0.49948801  1
  Ru4+  Ru95  1  0.00310859  0.66328664  0.75909164  1
  Ru4+  Ru96  1  0.50020482  0.00878182  0.00461782  1
  Ru4+  Ru97  1  0.50179074  0.00785820  0.24842042  1
  Ru4+  Ru98  1  0.49914579  0.01020771  0.48776226  1
  Ru4+  Ru99  1  0.50216103  0.00557631  0.75239714  1
  Ru4+  Ru100  1  0.49743237  0.32933688  -0.00649117  1
  Ru4+  Ru101  1  0.49800626  0.32533591  0.25895443  1
  Ru4+  Ru102  1  0.49797081  0.33080437  0.49723686  1
  Ru4+  Ru103  1  0.49845781  0.33171372  0.75636957  1
  Ru4+  Ru104  1  0.49351257  0.66582922  0.00657587  1
  Ru4+  Ru105  1  0.50266879  0.66441287  0.25286562  1
  Ru4+  Ru106  1  0.50009221  0.66765481  0.50326532  1
  Ru4+  Ru107  1  0.50494406  0.67709656  0.74832376  1
  Ru4+  Ru108  1  0.11409614  0.16663226  0.00002300  1
  Ru4+  Ru109  1  0.11085858  0.16662080  0.25079177  1
  Ru4+  Ru110  1  0.11428191  0.16070801  0.50107659  1
  Ru4+  Ru111  1  0.11242406  0.16549305  0.74896791  1
  Ru4+  Ru112  1  0.11563776  0.49720782  -0.00031953  1
  Ru4+  Ru113  1  0.11522656  0.49778224  0.25211743  1
  Ru4+  Ru114  1  0.11239730  0.50598259  0.49838776  1
  Ru4+  Ru115  1  0.11290377  0.49808763  0.74940505  1
  Ru4+  Ru116  1  0.11067765  0.83242028  -0.00065927  1
  Ru4+  Ru117  1  0.11432463  0.83398490  0.24345046  1
  Ru4+  Ru118  1  0.11083919  0.83597728  0.50635714  1
  Ru4+  Ru119  1  0.11178705  0.83881570  0.75224748  1
  Ru4+  Ru120  1  0.60378638  0.16623303  -0.00021203  1
  Ru4+  Ru121  1  0.60747511  0.16817303  0.25100091  1
  Ru4+  Ru122  1  0.60705037  0.16351265  0.49423640  1
  Ru4+  Ru123  1  0.61205659  0.16416872  0.74945186  1
  Ru4+  Ru124  1  0.61121419  0.50028995  -0.00013874  1
  Ru4+  Ru125  1  0.61403322  0.50268346  0.25146876  1
  Ru4+  Ru126  1  0.60714406  0.49868686  0.49938972  1
  Ru4+  Ru127  1  0.60762946  0.50006889  0.75020885  1
  Ru4+  Ru128  1  0.60854167  0.83806211  0.00018394  1
  Ru4+  Ru129  1  0.61393307  0.83601443  0.24908885  1
  Ru4+  Ru130  1  0.61747507  0.82769207  0.49870544  1
  Ru4+  Ru131  1  0.60759877  0.83200312  0.75121546  1
  Ru4+  Ru132  1  0.39045874  0.16503177  -0.00168040  1
  Ru4+  Ru133  1  0.39120810  0.17200475  0.24756836  1
  Ru4+  Ru134  1  0.38981865  0.16887493  0.49996279  1
  Ru4+  Ru135  1  0.38681378  0.16721041  0.75347922  1
  Ru4+  Ru136  1  0.38563518  0.49890832  0.00314830  1
  Ru4+  Ru137  1  0.38508322  0.49937475  0.24960024  1
  Ru4+  Ru138  1  0.38920428  0.49968009  0.49999358  1
  Ru4+  Ru139  1  0.38340238  0.49521965  0.74741093  1
  Ru4+  Ru140  1  0.39354237  0.83294891  -0.00035086  1
  Ru4+  Ru141  1  0.38767349  0.83259219  0.24867937  1
  Ru4+  Ru142  1  0.39213363  0.83193866  0.50110555  1
  Ru4+  Ru143  1  0.38898080  0.82799318  0.74958187  1
  Ru4+  Ru144  1  0.88516205  0.17055195  -0.00278156  1
  Ru4+  Ru145  1  0.88582794  0.16950643  0.25054926  1
  Ru4+  Ru146  1  0.88891754  0.16865625  0.49967710  1
  Ru4+  Ru147  1  0.88686690  0.16497596  0.74912499  1
  Ru4+  Ru148  1  0.88967958  0.50190863  -0.00311949  1
  Ru4+  Ru149  1  0.88226904  0.49822866  0.24961229  1
  Ru4+  Ru150  1  0.89706881  0.50638356  0.50251422  1
  Ru4+  Ru151  1  0.89028509  0.49927454  0.75552036  1
  Ru4+  Ru152  1  0.89209507  0.83251701  0.00126535  1
  Ru4+  Ru153  1  0.88498677  0.83352201  0.24403761  1
  Ru4+  Ru154  1  0.88220604  0.83479860  0.50302831  1
  Ru4+  Ru155  1  0.88939291  0.83660698  0.75296315  1
  Ru4+  Ru156  1  0.24988970  0.27199163  0.24332873  1
  Ru4+  Ru157  1  0.25005456  0.69436393  0.52254106  1
  Ru4+  Ru158  1  0.74956532  0.39716413  0.50132342  1
  Ru4+  Ru159  1  0.25044095  0.90776908  0.25289936  1
  Ru4+  Ru160  1  0.24992914  0.98056689  0.48374062  1
  Ru4+  Ru161  1  0.74940891  0.24558997  -0.01581968  1
  Ru4+  Ru162  1  0.25015735  0.75982078  0.75613934  1
  Ru4+  Ru163  1  0.74776346  0.37087186  0.00839198  1
  Ru4+  Ru164  1  0.25046263  0.08567458  0.00472433  1
  Ru4+  Ru165  1  0.75011163  0.08494302  0.24832608  1
  Ru4+  Ru166  1  0.75064089  0.23971940  0.75074265  1
  Ru4+  Ru167  1  0.74993627  0.61887034  -0.00202079  1
  Ru4+  Ru168  1  0.75012574  0.94077991  0.74351953  1
  Ru4+  Ru169  1  0.24946869  0.25575462  -0.00180609  1
  Ru4+  Ru170  1  0.74973141  0.64924543  0.53432658  1
  Ru4+  Ru171  1  0.74959472  0.76131238  0.24735954  1
  Ru4+  Ru172  1  0.24962988  0.57237997  0.77136296  1
  Ru4+  Ru173  1  0.25081192  0.90418334  0.75656656  1
  Ru4+  Ru174  1  0.24984741  0.08131444  0.75034872  1
  Ru4+  Ru175  1  0.75069831  0.00277070  0.50004879  1
  Ru4+  Ru176  1  0.74943300  0.75425680  -0.00213176  1
  Ru4+  Ru177  1  0.25076884  0.94511209  -0.00284741  1
  Ru4+  Ru178  1  0.74994159  0.60194698  0.74622631  1
  Ru4+  Ru179  1  0.74923989  0.27027795  0.48724201  1
  O2-  O180  1  0.16795067  0.08330501  0.00289136  1
  O2-  O181  1  0.16447356  0.07978322  0.25053981  1
  O2-  O182  1  0.16986054  0.08111833  0.49528248  1
  O2-  O183  1  0.16824444  0.08043072  0.75018251  1
  O2-  O184  1  0.16715154  0.41632123  0.00032512  1
  O2-  O185  1  0.16888650  0.41539291  0.25037665  1
  O2-  O186  1  0.16459223  0.41712325  0.49981936  1
  O2-  O187  1  0.16762019  0.41710494  0.74780656  1
  O2-  O188  1  0.16341014  0.74479048  -0.00011395  1
  O2-  O189  1  0.16422205  0.74879238  0.24874188  1
  O2-  O190  1  0.16526769  0.74572716  0.50129449  1
  O2-  O191  1  0.16592844  0.74985082  0.74909336  1
  O2-  O192  1  0.66083543  0.07818436  -0.00180589  1
  O2-  O193  1  0.66764948  0.08323378  0.25112198  1
  O2-  O194  1  0.66658381  0.07695005  0.50223196  1
  O2-  O195  1  0.66289008  0.07922112  0.75009504  1
  O2-  O196  1  0.66367832  0.41092494  -0.00036459  1
  O2-  O197  1  0.66123181  0.41451595  0.24707487  1
  O2-  O198  1  0.66371622  0.41335485  0.50162922  1
  O2-  O199  1  0.65741445  0.40976545  0.74948963  1
  O2-  O200  1  0.66494245  0.74593327  -0.00056285  1
  O2-  O201  1  0.66512958  0.74841046  0.24877585  1
  O2-  O202  1  0.66801887  0.74673483  0.50167653  1
  O2-  O203  1  0.66096457  0.74298831  0.74927903  1
  O2-  O204  1  0.33533790  0.24893213  0.00043108  1
  O2-  O205  1  0.33318422  0.25019739  0.25038529  1
  O2-  O206  1  0.33696560  0.25116500  0.50024650  1
  O2-  O207  1  0.33657464  0.25122705  0.74926237  1
  O2-  O208  1  0.33287282  0.58476271  -0.00193601  1
  O2-  O209  1  0.33368248  0.58375515  0.25056188  1
  O2-  O210  1  0.33345550  0.58650736  0.50293594  1
  O2-  O211  1  0.33176861  0.58290721  0.75069423  1
  O2-  O212  1  0.33243463  0.92194652  0.00047683  1
  O2-  O213  1  0.33289983  0.91969347  0.25009711  1
  O2-  O214  1  0.33020886  0.92281147  0.50090612  1
  O2-  O215  1  0.33265124  0.91955958  0.74920016  1
  O2-  O216  1  0.83204773  0.25272066  -0.00024398  1
  O2-  O217  1  0.83546460  0.25006299  0.24776374  1
  O2-  O218  1  0.83204198  0.25263293  0.50215848  1
  O2-  O219  1  0.83438526  0.25294119  0.75116079  1
  O2-  O220  1  0.83192642  0.58764589  0.00211201  1
  O2-  O221  1  0.83435688  0.58330140  0.24846080  1
  O2-  O222  1  0.83343029  0.58675824  0.50187864  1
  O2-  O223  1  0.83327274  0.58611916  0.74938816  1
  O2-  O224  1  0.84031607  0.92412941  -0.00199947  1
  O2-  O225  1  0.83040078  0.91626393  0.25350546  1
  O2-  O226  1  0.82854852  0.92291887  0.50033112  1
  O2-  O227  1  0.82979476  0.92075795  0.74887450  1
  O2-  O228  1  0.16693873  0.25222204  0.00174732  1
  O2-  O229  1  0.16719383  0.25450727  0.24974772  1
  O2-  O230  1  0.16309698  0.25133683  0.49754026  1
  O2-  O231  1  0.16221766  0.25070453  0.74917939  1
  O2-  O232  1  0.16351022  0.58645208  0.00087968  1
  O2-  O233  1  0.16184627  0.58546255  0.24762693  1
  O2-  O234  1  0.16789172  0.58446437  0.50331433  1
  O2-  O235  1  0.16840139  0.58413438  0.74900276  1
  O2-  O236  1  0.17078099  0.92022800  0.00303757  1
  O2-  O237  1  0.16838867  0.91914345  0.25174134  1
  O2-  O238  1  0.16986342  0.92153450  0.49545419  1
  O2-  O239  1  0.17303977  0.91409173  0.74755332  1
  O2-  O240  1  0.66410897  0.24978198  0.00001254  1
  O2-  O241  1  0.66341871  0.25002505  0.24831976  1
  O2-  O242  1  0.66507597  0.25213895  0.50038140  1
  O2-  O243  1  0.66596383  0.25227412  0.74900000  1
  O2-  O244  1  0.66531486  0.58978567  0.00041604  1
  O2-  O245  1  0.66366802  0.58643371  0.24882955  1
  O2-  O246  1  0.66425616  0.58934080  0.50059157  1
  O2-  O247  1  0.66743184  0.58866285  0.75031231  1
  O2-  O248  1  0.65873149  0.92532367  -0.00207216  1
  O2-  O249  1  0.66743252  0.91791388  0.24859573  1
  O2-  O250  1  0.66746942  0.92019044  0.50080674  1
  O2-  O251  1  0.67020588  0.92140362  0.75159485  1
  O2-  O252  1  0.33246392  0.08096796  0.00094922  1
  O2-  O253  1  0.33584447  0.08042963  0.24864664  1
  O2-  O254  1  0.33287394  0.07791789  0.49881700  1
  O2-  O255  1  0.33303376  0.07953008  0.74838997  1
  O2-  O256  1  0.33440064  0.41759738  0.00069379  1
  O2-  O257  1  0.33322402  0.41572014  0.24833620  1
  O2-  O258  1  0.33618954  0.41632739  0.50046476  1
  O2-  O259  1  0.33373499  0.41482020  0.75040482  1
  O2-  O260  1  0.33522996  0.74361644  -0.00278734  1
  O2-  O261  1  0.33785985  0.74970144  0.25123002  1
  O2-  O262  1  0.33453750  0.74440781  0.50205895  1
  O2-  O263  1  0.33215556  0.74817119  0.74977780  1
  O2-  O264  1  0.83735811  0.07936733  -0.00185583  1
  O2-  O265  1  0.83190766  0.08162508  0.25218049  1
  O2-  O266  1  0.83532959  0.07650146  0.50113956  1
  O2-  O267  1  0.83713234  0.07991020  0.74848495  1
  O2-  O268  1  0.83413494  0.41154323  -0.00029561  1
  O2-  O269  1  0.83196829  0.41559854  0.24353028  1
  O2-  O270  1  0.83440931  0.41468425  0.50129640  1
  O2-  O271  1  0.83919916  0.41042731  0.74966780  1
  O2-  O272  1  0.83447592  0.74852690  -0.00000663  1
  O2-  O273  1  0.83143580  0.75191612  0.24706171  1
  O2-  O274  1  0.83437608  0.74935147  0.50169044  1
  O2-  O275  1  0.83859742  0.74680506  0.75016986  1
  O2-  O276  1  0.55085304  0.09154600  0.98086570  1
  O2-  O277  1  0.04059549  0.88791383  0.04025170  1
  O2-  O278  1  0.54643419  0.24359758  0.01554011  1
  O2-  O279  1  0.44786993  0.58296534  0.94585460  1
  O2-  O280  1  0.54505517  0.76338712  0.98900105  1
  O2-  O281  1  0.55345141  0.09377270  0.24084559  1
  O2-  O282  1  0.45671770  0.57234463  0.73730827  1
  O2-  O283  1  0.54898459  0.57238377  0.00825470  1
  O2-  O284  1  0.45658771  0.22788148  0.75855039  1
  O2-  O285  1  0.94939318  0.88020587  0.70389703  1
  O2-  O286  1  0.05308212  0.75804223  0.25923732  1
  O2-  O287  1  0.95380039  0.76236798  0.98755064  1
  O2-  O288  1  0.05489077  0.57625032  0.48352172  1
  O2-  O289  1  0.54524821  0.56706061  0.48553393  1
  O2-  O290  1  0.94801239  0.90648494  0.98171085  1
  O2-  O291  1  0.94566165  0.24276077  0.02401475  1
  O2-  O292  1  0.45452836  0.10394104  0.48999374  1
  O2-  O293  1  0.45559759  0.43461421  0.73652932  1
  O2-  O294  1  0.95263654  0.75984084  0.49610739  1
  O2-  O295  1  0.95379985  0.10298266  0.24183014  1
  O2-  O296  1  0.54692537  0.24446631  0.26405713  1
  O2-  O297  1  0.94902419  0.09996140  0.98602676  1
  O2-  O298  1  0.05426494  0.42585896  0.23350997  1
  O2-  O299  1  0.45419346  0.56356212  0.28234212  1
  O2-  O300  1  0.54746130  0.89587506  0.48939213  1
  O2-  O301  1  0.55156876  0.56668967  0.26460316  1
  O2-  O302  1  0.04501866  0.44290902  0.24878779  1
  O2-  O303  1  0.95282337  0.44137869  0.21716982  1
  O2-  O304  1  0.94760115  0.42669475  0.99243461  1
  O2-  O305  1  0.96028717  0.43710755  0.00917752  1
  O2-  O306  1  0.95331657  0.09955445  0.50916096  1
  O2-  O307  1  0.45573988  0.10424619  0.21332942  1
  O2-  O308  1  0.54398583  0.43038600  0.98960261  1
  O2-  O309  1  0.46000974  0.42976669  0.22139244  1
  O2-  O310  1  0.44863481  0.09652922  0.98567527  1
  O2-  O311  1  0.04835957  0.24216296  0.47867338  1
  O2-  O312  1  0.05036645  0.23182945  0.00571013  1
  O2-  O313  1  0.04876287  0.90200140  0.29392045  1
  O2-  O314  1  0.04872413  0.42605027  0.51802395  1
  O2-  O315  1  0.96325571  0.89569707  0.23022900  1
  O2-  O316  1  0.95875838  0.77211220  0.20692474  1
  O2-  O317  1  0.04902860  0.23945855  0.51802359  1
  O2-  O318  1  0.04007578  0.89410318  0.46787423  1
  O2-  O319  1  0.97269750  0.52426817  0.51764709  1
  O2-  O320  1  0.45397459  0.90092482  0.76154004  1
  O2-  O321  1  0.96678207  0.56363190  0.02653565  1
  O2-  O322  1  0.04738666  0.42547808  0.47878188  1
  O2-  O323  1  0.03640094  0.85908915  0.74245662  1
  O2-  O324  1  0.94109101  0.06753186  0.97374867  1
  O2-  O325  1  0.93159985  0.62680726  0.57535931  1
  O2-  O326  1  0.93086846  0.94854794  0.81224007  1
  O2-  O327  1  0.93423813  0.40187263  0.53432839  1
  O2-  O328  1  0.93143342  0.60270945  0.42012931  1
  O2-  O329  1  0.06274185  0.25441615  0.22824452  1
  O2-  O330  1  0.93308710  0.92768452  0.47535230  1
  O2-  O331  1  0.92584955  0.72230076  0.31276314  1
  O2-  O332  1  0.06169920  0.07261014  0.28595241  1
  O2-  O333  1  0.43584928  0.92582188  0.47813996  1
  O2-  O334  1  0.07442525  0.93711737  0.57405238  1
  O2-  O335  1  0.06187160  0.07740278  0.52743673  1
  O2-  O336  1  0.92058263  0.39280677  0.30620040  1
  O2-  O337  1  0.43994809  0.92552629  0.21437932  1
  O2-  O338  1  0.06713064  0.09341936  0.81555748  1
  O2-  O339  1  0.93719131  0.25622825  0.47673845  1
  O2-  O340  1  0.93790716  0.58554644  0.22487480  1
  O2-  O341  1  0.93469628  0.40336578  0.04345528  1
  O2-  O342  1  0.56290978  0.73838756  0.46284801  1
  O2-  O343  1  0.56041294  0.92465279  0.47733827  1
  O2-  O344  1  0.07276661  0.41160999  0.06414298  1
  O2-  O345  1  0.42825655  0.07020808  0.28823272  1
  O2-  O346  1  0.92030859  0.60283441  0.94788507  1
  O2-  O347  1  0.06333318  0.41417436  0.77201458  1
  O2-  O348  1  0.56192505  0.07128246  0.57455458  1
  O2-  O349  1  0.06551412  0.40490124  0.28739989  1
  O2-  O350  1  0.43197439  0.60415651  0.21252034  1
  O2-  O351  1  0.07229327  0.94309703  0.18213326  1
  O2-  O352  1  0.93783386  0.41016293  0.77212551  1
  O2-  O353  1  0.43411040  0.26224162  0.21502193  1
  O2-  O354  1  0.43467924  0.58918842  0.73201138  1
  O2-  O355  1  0.43645000  0.06791872  0.77950623  1
  O2-  O356  1  0.06162757  0.07155241  0.68229465  1
  O2-  O357  1  0.42997178  0.40160667  0.29174151  1
  O2-  O358  1  0.91950066  0.94998779  0.22056418  1
  O2-  O359  1  0.07394273  0.93521593  0.95731149  1
  O2-  O360  1  0.06332435  0.59704594  0.71730757  1
  O2-  O361  1  0.06506286  0.41624236  0.93377118  1
  O2-  O362  1  0.55986436  0.92708320  0.28174636  1
  O2-  O363  1  0.43939294  0.40159402  0.07353193  1
  O2-  O364  1  0.94107308  0.24895600  0.02982914  1
  O2-  O365  1  0.08536621  0.94791707  0.78915548  1
  O2-  O366  1  0.43217042  0.42056716  0.93415606  1
  O2-  O367  1  0.56369124  0.93121385  0.78513677  1
  O2-  O368  1  0.44312794  0.57617940  0.94499239  1
  O2-  O369  1  0.43306362  0.61053097  0.08132436  1
  O2-  O370  1  0.56357763  0.07489470  0.43029998  1
  O2-  O371  1  0.56363537  0.26211969  0.47206879  1
  O2-  O372  1  0.74887768  0.66668811  0.32182820  1
  O2-  O373  1  0.25052517  0.32978948  0.42224513  1
  O2-  O374  1  0.25073368  -0.00241006  0.84429670  1
  O2-  O375  1  0.75019195  0.01045809  0.08307161  1
  O2-  O376  1  0.75004138  0.33403401  0.84722460  1
  O2-  O377  1  0.24983431  0.32774402  0.90806482  1
  O2-  O378  1  0.24925155  0.34642501  0.33318784  1
  O2-  O379  1  0.24978207  0.67113426  0.32550729  1
  O2-  O380  1  0.24948690  0.67062114  0.65726434  1
  O2-  O381  1  0.74993989  0.32477087  0.11934166  1
  O2-  O382  1  0.24972278  0.32520870  0.10239301  1
  O2-  O383  1  0.74909302  0.67192416  0.87728289  1
  O2-  O384  1  0.25044041  -0.00221979  0.14955349  1
  O2-  O385  1  0.25113867  -0.00012934  0.60928925  1
  O2-  O386  1  0.25059439  0.66862972  0.84256027  1
  O2-  O387  1  0.74948408  0.66070159  0.18982489  1
  O2-  O388  1  0.75036228  -0.00213032  0.17403955  1
  O2-  O389  1  0.74887517  0.33060641  0.36855271  1
  O2-  O390  1  0.24997721  0.34265439  0.59696428  1
  O2-  O391  1  0.25028456  0.64994949  0.41238960  1
  O2-  O392  1  0.74944629  0.32921995  0.65269729  1
  O2-  O393  1  0.24991143  -0.00303796  0.34984125  1
  O2-  O394  1  0.74890400  0.68149268  0.41869829  1
  O2-  O395  1  0.75026558  0.67978274  0.10078155  1
  O2-  O396  1  0.74980864  0.52360455  0.62118179  1
  O2-  O397  1  0.75000078  0.82640972  0.89714177  1
  O2-  O398  1  0.25004739  0.83765211  0.87179222  1
  O2-  O399  1  0.24972126  0.17069759  0.83080064  1
  O2-  O400  1  0.25038348  0.17592290  0.34121360  1
  O2-  O401  1  0.24976905  0.16182355  0.60693613  1
  O2-  O402  1  0.74967657  0.81705643  0.13336626  1
  O2-  O403  1  0.25038301  0.50031764  0.39934171  1
  O2-  O404  1  0.75002924  0.50552823  0.10710325  1
  O2-  O405  1  0.74972050  0.49699568  0.34469750  1
  O2-  O406  1  0.74993443  0.49979081  0.18984952  1
  O2-  O407  1  0.74992262  0.17033773  0.65754985  1
  O2-  O408  1  0.24965093  0.50051919  0.08423222  1
  O2-  O409  1  0.74998730  0.84885803  0.64080815  1
  O2-  O410  1  0.25012948  0.83811390  0.34368995  1
  O2-  O411  1  0.74977406  0.17110959  0.84679524  1
  O2-  O412  1  0.25012931  0.50005363  0.31720006  1
  O2-  O413  1  0.24995670  0.50014828  0.16382881  1
  O2-  O414  1  0.74992439  0.52925294  0.84171573  1
  O2-  O415  1  0.24977262  0.51183275  0.88308968  1
  O2-  O416  1  0.24995756  0.17619893  0.69200848  1
  O2-  O417  1  0.75027911  0.83172078  0.55962666  1
  O2-  O418  1  0.24970151  0.16440641  0.92241638  1
  O2-  O419  1  0.25020604  0.83682938  0.16162176  1
  O2-  O420  1  0.47734293  0.32765463  0.38630451  1
  O2-  O421  1  0.95882000  0.67134750  0.11551416  1
  O2-  O422  1  0.04047450  0.30654978  0.85829317  1
  O2-  O423  1  0.45483117  0.67536833  0.61064764  1
  O2-  O424  1  0.54743769  0.33285363  0.86704444  1
  O2-  O425  1  0.47444790  0.32987228  0.62103330  1
  O2-  O426  1  0.97141057  0.00191803  0.62670733  1
  O2-  O427  1  0.02824158  0.66611277  0.37175779  1
  O2-  O428  1  0.97632818  0.00685463  0.37053919  1
  O2-  O429  1  0.01876705  0.32828164  0.12802232  1
  O2-  O430  1  0.95796943  0.32416254  0.88432413  1
  O2-  O431  1  0.04790207  0.66544935  0.88110790  1
  O2-  O432  1  0.53005969  0.67357276  0.12975489  1
  O2-  O433  1  0.47111486  -0.00152656  0.62425184  1
  O2-  O434  1  0.45872380  0.32339008  0.86488365  1
  O2-  O435  1  0.54584400  0.66896404  0.62749695  1
  O2-  O436  1  0.01424540  0.00807421  0.87944446  1
  O2-  O437  1  0.98217916  0.32533781  0.37135949  1
  O2-  O438  1  0.97755754  0.01111282  0.11624911  1
  O2-  O439  1  0.04783811  0.66111600  0.12210382  1
  O2-  O440  1  0.47210430  0.67452044  0.37960183  1
  O2-  O441  1  0.47828761  -0.00725327  0.37069009  1
  O2-  O442  1  0.52770594  -0.00824181  0.12318001  1
  O2-  O443  1  0.95785799  0.67798854  0.84872481  1
