# generated using pymatgen
data_La7(Ru4O11)2
_symmetry_space_group_name_H-M   'P 1'
_cell_length_a   23.99051073
_cell_length_b   16.82958135
_cell_length_c   15.42791401
_cell_angle_alpha   89.99832131
_cell_angle_beta   90.00008390
_cell_angle_gamma   90.00076881
_symmetry_Int_Tables_number   1
_chemical_formula_structural   La7(Ru4O11)2
_chemical_formula_sum   'La84 Ru96 O264'
_cell_volume   6229.02416475
_cell_formula_units_Z   12
loop_
 _symmetry_equiv_pos_site_id
 _symmetry_equiv_pos_as_xyz
  1  'x, y, z'
loop_
 _atom_type_symbol
 _atom_type_oxidation_number
  La3+  3.0
  Ru4+  4.0
  O2-  -2.0
loop_
 _atom_site_type_symbol
 _atom_site_label
 _atom_site_symmetry_multiplicity
 _atom_site_fract_x
 _atom_site_fract_y
 _atom_site_fract_z
 _atom_site_occupancy
  La3+  La0  1  0.13955269  -0.00142088  0.12264039  1
  La3+  La1  1  0.13761745  0.00120305  0.37597136  1
  La3+  La2  1  0.13886350  0.00198234  0.62713303  1
  La3+  La3  1  0.13898928  0.00224787  0.87415321  1
  La3+  La4  1  0.13856579  0.33238192  0.12607700  1
  La3+  La5  1  0.13746637  0.33175731  0.37416189  1
  La3+  La6  1  0.14048542  0.33259948  0.62705887  1
  La3+  La7  1  0.13973274  0.33299813  0.87462188  1
  La3+  La8  1  0.14328221  0.66298755  0.12931883  1
  La3+  La9  1  0.13619213  0.66496407  0.37256429  1
  La3+  La10  1  0.13952179  0.66510641  0.62275972  1
  La3+  La11  1  0.13869508  0.66604387  0.87541725  1
  La3+  La12  1  0.63848028  0.00057981  0.12607557  1
  La3+  La13  1  0.63993473  -0.00044408  0.37741212  1
  La3+  La14  1  0.63951526  -0.00098448  0.62623300  1
  La3+  La15  1  0.63802257  0.00045784  0.87229181  1
  La3+  La16  1  0.63925798  0.33153123  0.12412110  1
  La3+  La17  1  0.64011180  0.33359046  0.37242470  1
  La3+  La18  1  0.63841537  0.33309176  0.62472072  1
  La3+  La19  1  0.64031458  0.33226518  0.87734135  1
  La3+  La20  1  0.64180148  0.66437156  0.12584912  1
  La3+  La21  1  0.64235765  0.66764495  0.37291200  1
  La3+  La22  1  0.63907095  0.67004875  0.62476832  1
  La3+  La23  1  0.64167540  0.66630843  0.87692072  1
  La3+  La24  1  0.35886684  0.00191837  0.12432315  1
  La3+  La25  1  0.35897830  -0.00039058  0.37198410  1
  La3+  La26  1  0.36089180  0.00321665  0.62554478  1
  La3+  La27  1  0.35911749  0.00136318  0.87427418  1
  La3+  La28  1  0.36037823  0.33204905  0.12569260  1
  La3+  La29  1  0.36150689  0.33192611  0.37401027  1
  La3+  La30  1  0.36110766  0.33207812  0.62524587  1
  La3+  La31  1  0.35974405  0.33392565  0.87526994  1
  La3+  La32  1  0.36043486  0.66433784  0.12596247  1
  La3+  La33  1  0.36437187  0.66618224  0.37487795  1
  La3+  La34  1  0.35903901  0.66535144  0.62553173  1
  La3+  La35  1  0.36315995  0.66618454  0.87465004  1
  La3+  La36  1  0.86222504  -0.00081617  0.12411254  1
  La3+  La37  1  0.86003658  -0.00253612  0.37518368  1
  La3+  La38  1  0.86068228  -0.00084644  0.62732813  1
  La3+  La39  1  0.86127485  0.00218803  0.87571439  1
  La3+  La40  1  0.85920120  0.33237152  0.12457257  1
  La3+  La41  1  0.85755972  0.33457750  0.37150763  1
  La3+  La42  1  0.86307959  0.33230831  0.62455729  1
  La3+  La43  1  0.86027333  0.33192379  0.87728029  1
  La3+  La44  1  0.86022347  0.66865546  0.12703248  1
  La3+  La45  1  0.85952761  0.66930455  0.37281607  1
  La3+  La46  1  0.85940563  0.66939459  0.62494045  1
  La3+  La47  1  0.85894986  0.66617739  0.87903876  1
  La3+  La48  1  0.50116759  0.16547418  0.11846419  1
  La3+  La49  1  -0.00139648  0.50364577  0.13483607  1
  La3+  La50  1  -0.00327778  0.17112906  0.37112833  1
  La3+  La51  1  -0.00026604  0.50256721  0.61317686  1
  La3+  La52  1  0.49829790  0.83351757  0.63539177  1
  La3+  La53  1  -0.00042071  0.83447011  0.36340582  1
  La3+  La54  1  0.49978676  0.16491923  0.36229852  1
  La3+  La55  1  0.49760856  0.83151696  0.61895677  1
  La3+  La56  1  0.49747136  0.82918346  0.12803831  1
  La3+  La57  1  0.50091575  0.16726717  0.88450223  1
  La3+  La58  1  0.50228868  0.17215108  0.62188879  1
  La3+  La59  1  0.00091300  0.49704749  0.87873178  1
  La3+  La60  1  0.50138302  0.16710615  0.38344606  1
  La3+  La61  1  0.00127141  0.82965454  0.61191365  1
  La3+  La62  1  0.49918925  0.50032872  0.11706294  1
  La3+  La63  1  0.00322355  0.49379021  0.11618516  1
  La3+  La64  1  0.49936739  0.50119903  0.63097176  1
  La3+  La65  1  0.49662922  0.82909828  0.86951267  1
  La3+  La66  1  0.50130953  0.50096170  0.36035723  1
  La3+  La67  1  -0.00199680  0.49670589  0.63415767  1
  La3+  La68  1  0.00175077  0.50159236  0.36882078  1
  La3+  La69  1  0.50648583  0.49743497  0.86926675  1
  La3+  La70  1  0.00006640  0.16619470  0.11450870  1
  La3+  La71  1  0.50559960  0.84087701  0.38685603  1
  La3+  La72  1  0.75035033  0.79289682  -0.01055690  1
  La3+  La73  1  0.74980866  0.83158624  0.74093439  1
  La3+  La74  1  0.24974777  0.16753326  0.50020494  1
  La3+  La75  1  0.75024558  0.45442639  0.48225427  1
  La3+  La76  1  0.24989124  0.45603270  0.74260784  1
  La3+  La77  1  0.25010347  0.49975373  0.00209179  1
  La3+  La78  1  0.24951755  0.78188725  0.22729360  1
  La3+  La79  1  0.74984916  0.49661798  0.25337427  1
  La3+  La80  1  0.25002046  0.83285457  0.53372604  1
  La3+  La81  1  0.24989476  0.54495415  0.50538645  1
  La3+  La82  1  0.24965177  0.87414890  -0.01205348  1
  La3+  La83  1  0.74986634  0.20660428  0.24856409  1
  Ru4+  Ru84  1  -0.00006890  -0.00544603  -0.00489832  1
  Ru4+  Ru85  1  -0.00163436  -0.00418267  0.24958784  1
  Ru4+  Ru86  1  0.00246169  0.00103498  0.50468112  1
  Ru4+  Ru87  1  -0.00042423  0.00371641  0.75867169  1
  Ru4+  Ru88  1  -0.00079945  0.33105107  -0.00084455  1
  Ru4+  Ru89  1  0.00161693  0.33198417  0.25201129  1
  Ru4+  Ru90  1  0.00290438  0.33915447  0.49990432  1
  Ru4+  Ru91  1  -0.00154411  0.32756497  0.75118465  1
  Ru4+  Ru92  1  0.00068816  0.67667349  -0.00250500  1
  Ru4+  Ru93  1  -0.00111262  0.66939781  0.25569722  1
  Ru4+  Ru94  1  0.00066743  0.66616803  0.49950447  1
  Ru4+  Ru95  1  0.00264911  0.67186707  0.74692069  1
  Ru4+  Ru96  1  0.50111808  0.00595880  -0.00014890  1
  Ru4+  Ru97  1  0.49999955  0.00376140  0.24981853  1
  Ru4+  Ru98  1  0.50097460  -0.00008569  0.50112045  1
  Ru4+  Ru99  1  0.49887056  0.00314181  0.74988886  1
  Ru4+  Ru100  1  0.50019160  0.33410191  0.00366368  1
  Ru4+  Ru101  1  0.49957478  0.33112919  0.24795280  1
  Ru4+  Ru102  1  0.50121372  0.33042218  0.50154758  1
  Ru4+  Ru103  1  0.49984549  0.33338110  0.74762759  1
  Ru4+  Ru104  1  0.49961540  0.66750308  -0.00012376  1
  Ru4+  Ru105  1  0.50073718  0.66284405  0.24715292  1
  Ru4+  Ru106  1  0.49836243  0.66755084  0.50056627  1
  Ru4+  Ru107  1  0.49989857  0.66838399  0.75318681  1
  Ru4+  Ru108  1  0.11201324  0.16623112  -0.00022726  1
  Ru4+  Ru109  1  0.11419806  0.17074102  0.24944254  1
  Ru4+  Ru110  1  0.11148977  0.16630075  0.50059044  1
  Ru4+  Ru111  1  0.11221597  0.16360389  0.75012968  1
  Ru4+  Ru112  1  0.11246929  0.49837608  -0.00075476  1
  Ru4+  Ru113  1  0.11271605  0.50159667  0.25032344  1
  Ru4+  Ru114  1  0.11070511  0.50025444  0.49921501  1
  Ru4+  Ru115  1  0.11158894  0.49708641  0.75022306  1
  Ru4+  Ru116  1  0.10686209  0.83343225  0.00094337  1
  Ru4+  Ru117  1  0.11034782  0.83266854  0.25085089  1
  Ru4+  Ru118  1  0.11014285  0.83332667  0.50034702  1
  Ru4+  Ru119  1  0.11263763  0.82967251  0.74968786  1
  Ru4+  Ru120  1  0.61492487  0.16646000  -0.00023862  1
  Ru4+  Ru121  1  0.60968246  0.16745262  0.25083255  1
  Ru4+  Ru122  1  0.61053012  0.16678999  0.49979930  1
  Ru4+  Ru123  1  0.61281326  0.16662590  0.74957231  1
  Ru4+  Ru124  1  0.61400705  0.50284499  0.00001761  1
  Ru4+  Ru125  1  0.61237267  0.49958957  0.25023317  1
  Ru4+  Ru126  1  0.61199780  0.49803161  0.50084189  1
  Ru4+  Ru127  1  0.61338787  0.50019619  0.75142462  1
  Ru4+  Ru128  1  0.61369557  0.83067942  0.00121135  1
  Ru4+  Ru129  1  0.61495227  0.83135686  0.24961357  1
  Ru4+  Ru130  1  0.61680088  0.83175833  0.49831307  1
  Ru4+  Ru131  1  0.61270678  0.83410612  0.74883907  1
  Ru4+  Ru132  1  0.38739959  0.16444120  -0.00015430  1
  Ru4+  Ru133  1  0.38876183  0.16816198  0.25079683  1
  Ru4+  Ru134  1  0.38785875  0.17068600  0.49969751  1
  Ru4+  Ru135  1  0.38706231  0.16427921  0.75015337  1
  Ru4+  Ru136  1  0.38848532  0.49989353  0.00033287  1
  Ru4+  Ru137  1  0.38688631  0.50293311  0.25034258  1
  Ru4+  Ru138  1  0.38861876  0.50104688  0.50038022  1
  Ru4+  Ru139  1  0.38901147  0.49908633  0.74917598  1
  Ru4+  Ru140  1  0.38804155  0.83301142  0.00135157  1
  Ru4+  Ru141  1  0.38690639  0.83534796  0.24864257  1
  Ru4+  Ru142  1  0.38899147  0.83338412  0.49954280  1
  Ru4+  Ru143  1  0.38675363  0.83127897  0.75062826  1
  Ru4+  Ru144  1  0.88707573  0.16734837  -0.00036325  1
  Ru4+  Ru145  1  0.88926888  0.16698263  0.24980786  1
  Ru4+  Ru146  1  0.88101544  0.16187790  0.50037896  1
  Ru4+  Ru147  1  0.88785662  0.16884255  0.74822650  1
  Ru4+  Ru148  1  0.88336581  0.49985301  -0.00008774  1
  Ru4+  Ru149  1  0.88661207  0.50186975  0.25003706  1
  Ru4+  Ru150  1  0.89023526  0.49957611  0.50016977  1
  Ru4+  Ru151  1  0.88739280  0.49824151  0.75083979  1
  Ru4+  Ru152  1  0.89103079  0.83230300  -0.00201138  1
  Ru4+  Ru153  1  0.88701785  0.82959743  0.24904016  1
  Ru4+  Ru154  1  0.88482688  0.83259013  0.49956943  1
  Ru4+  Ru155  1  0.88851177  0.83725310  0.75119480  1
  Ru4+  Ru156  1  0.25007161  0.25076505  0.75429313  1
  Ru4+  Ru157  1  0.74933693  0.24481790  0.50130449  1
  Ru4+  Ru158  1  0.75011560  0.40906019  0.75899990  1
  Ru4+  Ru159  1  0.24988701  0.60230570  0.73573991  1
  Ru4+  Ru160  1  0.24966763  0.94344434  0.24883346  1
  Ru4+  Ru161  1  0.25005280  0.24312979  -0.00149554  1
  Ru4+  Ru162  1  0.75015091  0.58789611  0.76152670  1
  Ru4+  Ru163  1  0.75023379  0.94413548  0.00374151  1
  Ru4+  Ru164  1  0.24955572  0.39341002  0.49443787  1
  Ru4+  Ru165  1  0.74952144  0.06837722  0.24343540  1
  Ru4+  Ru166  1  0.74925962  0.08824111  0.50117609  1
  Ru4+  Ru167  1  0.24974237  0.97095528  0.50864933  1
  Ru4+  Ru168  1  0.25005857  0.91309472  0.74841994  1
  Ru4+  Ru169  1  0.75030616  0.60724861  0.50175989  1
  Ru4+  Ru170  1  0.24995066  0.09124506  0.00076683  1
  Ru4+  Ru171  1  0.24971675  0.74046877  0.00449805  1
  Ru4+  Ru172  1  0.74978009  0.41798575  -0.01288389  1
  Ru4+  Ru173  1  0.75025117  0.08935057  0.00221509  1
  Ru4+  Ru174  1  0.75026577  0.90356300  0.25038184  1
  Ru4+  Ru175  1  0.25036709  0.07964939  0.24169308  1
  Ru4+  Ru176  1  0.24978389  0.75915228  0.74695179  1
  Ru4+  Ru177  1  0.75020585  0.25433692  0.74946593  1
  Ru4+  Ru178  1  0.25007506  0.69973196  0.48203973  1
  Ru4+  Ru179  1  0.24987975  0.41411829  0.24601309  1
  O2-  O180  1  0.16737793  0.08219995  0.00044150  1
  O2-  O181  1  0.16860919  0.08031716  0.25011269  1
  O2-  O182  1  0.16702285  0.07943445  0.50045746  1
  O2-  O183  1  0.16645191  0.08348751  0.74981548  1
  O2-  O184  1  0.16763230  0.41329462  0.00068537  1
  O2-  O185  1  0.16817546  0.41264220  0.24906620  1
  O2-  O186  1  0.16838208  0.41276387  0.49929427  1
  O2-  O187  1  0.16362387  0.41187931  0.75177515  1
  O2-  O188  1  0.16841636  0.74784686  -0.00086296  1
  O2-  O189  1  0.16283360  0.74521424  0.25357119  1
  O2-  O190  1  0.16553103  0.74490266  0.49780701  1
  O2-  O191  1  0.16888023  0.75006574  0.75010121  1
  O2-  O192  1  0.66684935  0.08095080  -0.00183255  1
  O2-  O193  1  0.66638181  0.07849730  0.25022275  1
  O2-  O194  1  0.66758843  0.08061576  0.50157330  1
  O2-  O195  1  0.66697078  0.08051168  0.75024770  1
  O2-  O196  1  0.66612575  0.41333187  0.00019233  1
  O2-  O197  1  0.66626072  0.41466773  0.25026085  1
  O2-  O198  1  0.66393094  0.41163437  0.50182507  1
  O2-  O199  1  0.66808858  0.41331013  0.74907700  1
  O2-  O200  1  0.66490012  0.74688926  0.00038352  1
  O2-  O201  1  0.66709511  0.74939515  0.25023727  1
  O2-  O202  1  0.66754591  0.74952608  0.50035601  1
  O2-  O203  1  0.66563874  0.74639031  0.75074848  1
  O2-  O204  1  0.33156437  0.25286694  0.00061517  1
  O2-  O205  1  0.33340740  0.25370148  0.25078202  1
  O2-  O206  1  0.33379980  0.25240660  0.49832978  1
  O2-  O207  1  0.33344472  0.25353392  0.75046447  1
  O2-  O208  1  0.33365190  0.58455416  -0.00010475  1
  O2-  O209  1  0.33449928  0.58480386  0.25115887  1
  O2-  O210  1  0.33641116  0.58805295  0.49728761  1
  O2-  O211  1  0.33170952  0.58695411  0.75123936  1
  O2-  O212  1  0.33519061  0.92082907  -0.00156916  1
  O2-  O213  1  0.33191248  0.91918274  0.25048403  1
  O2-  O214  1  0.33427925  0.92149484  0.50121562  1
  O2-  O215  1  0.33351115  0.91885874  0.74958402  1
  O2-  O216  1  0.83560559  0.25059758  -0.00041448  1
  O2-  O217  1  0.83578670  0.25341903  0.25032548  1
  O2-  O218  1  0.83238565  0.25154681  0.50220289  1
  O2-  O219  1  0.83192817  0.25092212  0.75012861  1
  O2-  O220  1  0.83306298  0.58369043  -0.00060463  1
  O2-  O221  1  0.83120118  0.58664893  0.25079510  1
  O2-  O222  1  0.83326040  0.58769967  0.49983579  1
  O2-  O223  1  0.83137428  0.58703507  0.74940365  1
  O2-  O224  1  0.83177412  0.92007375  0.00112007  1
  O2-  O225  1  0.83253742  0.91884269  0.24903938  1
  O2-  O226  1  0.83370270  0.91895641  0.50066006  1
  O2-  O227  1  0.83101066  0.91859302  0.74812922  1
  O2-  O228  1  0.16804205  0.25253921  0.00071002  1
  O2-  O229  1  0.16765145  0.25114218  0.24876237  1
  O2-  O230  1  0.16826444  0.25144499  0.49788920  1
  O2-  O231  1  0.16716372  0.25184158  0.75096771  1
  O2-  O232  1  0.16793321  0.58582683  -0.00016106  1
  O2-  O233  1  0.16583043  0.58509828  0.25285324  1
  O2-  O234  1  0.16281549  0.58815060  0.49723682  1
  O2-  O235  1  0.16718159  0.58774425  0.74879051  1
  O2-  O236  1  0.16304841  0.91990474  0.00004455  1
  O2-  O237  1  0.16754265  0.92139121  0.25041924  1
  O2-  O238  1  0.16728622  0.92223472  0.49990251  1
  O2-  O239  1  0.16731730  0.91714479  0.74948336  1
  O2-  O240  1  0.66735225  0.25145875  -0.00088360  1
  O2-  O241  1  0.66397617  0.25431519  0.25010462  1
  O2-  O242  1  0.66743055  0.25362974  0.50171466  1
  O2-  O243  1  0.66841378  0.25165823  0.74983233  1
  O2-  O244  1  0.66466866  0.58389487  0.00068832  1
  O2-  O245  1  0.66822213  0.58537584  0.24983116  1
  O2-  O246  1  0.66799057  0.58595772  0.49974992  1
  O2-  O247  1  0.66844425  0.58560071  0.74944510  1
  O2-  O248  1  0.66809781  0.92076489  -0.00102914  1
  O2-  O249  1  0.66761477  0.91846367  0.24891842  1
  O2-  O250  1  0.66582801  0.91907498  0.50100138  1
  O2-  O251  1  0.66769848  0.92147377  0.75104616  1
  O2-  O252  1  0.33281595  0.08191385  -0.00126618  1
  O2-  O253  1  0.33198484  0.07992338  0.24998152  1
  O2-  O254  1  0.33098093  0.07931475  0.50216875  1
  O2-  O255  1  0.33518566  0.08143143  0.75015312  1
  O2-  O256  1  0.33049695  0.41367296  -0.00049785  1
  O2-  O257  1  0.33201280  0.41287127  0.24973421  1
  O2-  O258  1  0.33205417  0.41338563  0.49874332  1
  O2-  O259  1  0.33711757  0.41170140  0.75068102  1
  O2-  O260  1  0.33406572  0.74632832  -0.00024631  1
  O2-  O261  1  0.33570396  0.74561518  0.25410875  1
  O2-  O262  1  0.33244821  0.74469707  0.49717660  1
  O2-  O263  1  0.33153887  0.74865762  0.75008292  1
  O2-  O264  1  0.83086059  0.08100894  0.00082545  1
  O2-  O265  1  0.83360125  0.07901740  0.24999704  1
  O2-  O266  1  0.83096945  0.08043059  0.50222737  1
  O2-  O267  1  0.83203143  0.08230166  0.74948032  1
  O2-  O268  1  0.83310016  0.41449497  -0.00046133  1
  O2-  O269  1  0.83447734  0.41416821  0.25029708  1
  O2-  O270  1  0.83566886  0.41042004  0.50193644  1
  O2-  O271  1  0.83221998  0.41374190  0.74962818  1
  O2-  O272  1  0.83548254  0.74669014  0.00180448  1
  O2-  O273  1  0.83276433  0.74889342  0.25133405  1
  O2-  O274  1  0.83547140  0.74859938  0.49986367  1
  O2-  O275  1  0.83495624  0.74665079  0.74934277  1
  O2-  O276  1  0.95439468  0.43097696  0.26477546  1
  O2-  O277  1  0.54467834  0.09991219  0.73608965  1
  O2-  O278  1  0.95577788  0.23095865  0.50552915  1
  O2-  O279  1  0.04723294  0.90452200  0.71707275  1
  O2-  O280  1  0.45908863  0.89522983  0.28625187  1
  O2-  O281  1  0.56029772  0.25411963  0.02345750  1
  O2-  O282  1  0.04415121  0.21790421  0.50711672  1
  O2-  O283  1  0.45102999  0.76464646  0.01520821  1
  O2-  O284  1  0.95581108  0.23107197  0.50554025  1
  O2-  O285  1  0.96276809  0.54779434  -0.00374972  1
  O2-  O286  1  0.54912271  0.43270026  0.01317895  1
  O2-  O287  1  0.54488410  0.89467134  0.22107037  1
  O2-  O288  1  0.04951128  0.09263984  0.48348698  1
  O2-  O289  1  0.96017210  0.55751147  0.98072015  1
  O2-  O290  1  0.45779525  0.43934449  0.46678902  1
  O2-  O291  1  0.54528390  0.89495478  0.97549420  1
  O2-  O292  1  0.95374754  0.90193591  0.51189575  1
  O2-  O293  1  0.45364664  0.90416668  0.73901419  1
  O2-  O294  1  0.04880393  0.90738777  0.01474859  1
  O2-  O295  1  0.04807473  0.56639824  0.73777775  1
  O2-  O296  1  0.54484909  0.90542250  0.51519257  1
  O2-  O297  1  0.45521945  0.89540102  0.96997587  1
  O2-  O298  1  0.54935779  0.42754222  0.48663081  1
  O2-  O299  1  0.02218914  0.79091540  0.01559855  1
  O2-  O300  1  0.95674338  0.09748984  0.53093032  1
  O2-  O301  1  0.54327986  0.56246075  0.47020659  1
  O2-  O302  1  0.55779266  0.75380558  0.54802775  1
  O2-  O303  1  0.96410320  0.87110096  0.75207292  1
  O2-  O304  1  0.46667382  0.11552085  0.51003932  1
  O2-  O305  1  0.95878222  0.10262611  0.77642775  1
  O2-  O306  1  0.45321071  0.43075455  0.26174787  1
  O2-  O307  1  0.05220524  0.56777475  0.98619667  1
  O2-  O308  1  0.95478862  0.23494844  0.23565276  1
  O2-  O309  1  0.04291209  0.10820913  0.27561299  1
  O2-  O310  1  0.55541463  0.75624767  0.95051370  1
  O2-  O311  1  0.45504077  0.76636365  0.27909995  1
  O2-  O312  1  0.46111428  0.55260041  0.77965229  1
  O2-  O313  1  0.95304443  0.56758321  0.76333391  1
  O2-  O314  1  0.45157217  0.23426944  0.01225010  1
  O2-  O315  1  0.45965611  0.44622898  0.96120220  1
  O2-  O316  1  0.54519422  0.77124010  0.27963525  1
  O2-  O317  1  0.44552811  0.75046681  0.44951309  1
  O2-  O318  1  0.04518101  0.23566971  0.98505023  1
  O2-  O319  1  0.02660709  0.78209458  0.75434168  1
  O2-  O320  1  0.46279320  0.10965740  0.51878058  1
  O2-  O321  1  0.95201541  0.23650297  0.73587552  1
  O2-  O322  1  0.45077131  0.57237813  0.48569689  1
  O2-  O323  1  0.95201733  0.09859385  0.23431820  1
  O2-  O324  1  0.42678774  0.60876323  0.69168823  1
  O2-  O325  1  0.08197366  0.71498293  0.71254898  1
  O2-  O326  1  0.07530710  0.27794724  0.54097887  1
  O2-  O327  1  0.42626870  0.39631155  0.54558619  1
  O2-  O328  1  0.41872046  0.03763231  0.43971607  1
  O2-  O329  1  0.93434671  0.40679843  0.02704870  1
  O2-  O330  1  0.93445922  0.92511629  0.27705775  1
  O2-  O331  1  0.44804004  0.75864308  0.45479802  1
  O2-  O332  1  0.57385960  0.93681788  0.29379984  1
  O2-  O333  1  0.92526935  0.28419481  0.45290278  1
  O2-  O334  1  0.57228226  0.93518080  0.04323209  1
  O2-  O335  1  0.56424373  0.93007852  0.71578406  1
  O2-  O336  1  0.06532783  0.07421072  0.77472045  1
  O2-  O337  1  0.55160533  0.74697709  0.95306149  1
  O2-  O338  1  0.56178155  0.59279072  0.21863272  1
  O2-  O339  1  0.56370802  0.40251926  0.78290473  1
  O2-  O340  1  0.42685557  0.38788622  0.05836970  1
  O2-  O341  1  0.55184020  0.24137878  0.01524422  1
  O2-  O342  1  0.06669382  0.41183062  0.44109043  1
  O2-  O343  1  0.93414823  0.92696162  0.96905683  1
  O2-  O344  1  0.07361398  0.73559265  0.93610525  1
  O2-  O345  1  0.43011690  0.94230597  0.05134705  1
  O2-  O346  1  0.93144698  0.74276708  0.97073276  1
  O2-  O347  1  0.56425284  0.40340002  0.28353049  1
  O2-  O348  1  0.56928269  0.73075973  0.20482510  1
  O2-  O349  1  0.93442750  0.06443902  0.70426402  1
  O2-  O350  1  0.92293299  0.95446180  0.79466123  1
  O2-  O351  1  0.07383771  0.06456615  0.20802488  1
  O2-  O352  1  0.92825861  0.06518934  0.46181437  1
  O2-  O353  1  0.91261074  0.62214093  0.04893787  1
  O2-  O354  1  0.93632300  0.07326654  0.96919408  1
  O2-  O355  1  0.57185055  0.60095549  0.54420371  1
  O2-  O356  1  0.42823931  0.94382601  0.19689555  1
  O2-  O357  1  0.43075121  0.72474320  0.58331755  1
  O2-  O358  1  0.56995181  0.72524442  0.07939847  1
  O2-  O359  1  0.06610577  0.26023029  0.27685629  1
  O2-  O360  1  0.57003886  0.72291221  0.41716330  1
  O2-  O361  1  0.07125567  0.93235737  0.79056734  1
  O2-  O362  1  0.56460822  0.59684151  0.78291060  1
  O2-  O363  1  0.06375895  0.40951727  0.56699386  1
  O2-  O364  1  0.43486349  0.74092554  0.77682304  1
  O2-  O365  1  0.93506571  0.74226956  0.22530019  1
  O2-  O366  1  0.06366752  0.93115785  0.53316165  1
  O2-  O367  1  0.08222525  0.71980370  0.05852647  1
  O2-  O368  1  0.54994354  0.76378142  0.53890240  1
  O2-  O369  1  0.42842536  0.73125037  0.20894796  1
  O2-  O370  1  0.93514251  0.59275883  0.22302002  1
  O2-  O371  1  0.06495465  0.26553779  0.71878896  1
  O2-  O372  1  0.75021740  0.66830305  0.60074135  1
  O2-  O373  1  0.75024973  -0.00777599  0.33279688  1
  O2-  O374  1  0.75016608  -0.00722448  0.14916925  1
  O2-  O375  1  0.25017960  0.33654607  0.83050448  1
  O2-  O376  1  0.75014816  -0.00168221  0.43100484  1
  O2-  O377  1  0.25022113  -0.00292706  0.65364903  1
  O2-  O378  1  0.25027701  0.00194693  0.82926456  1
  O2-  O379  1  0.24993177  0.65228020  0.92256577  1
  O2-  O380  1  0.75018010  0.33243698  0.42171248  1
  O2-  O381  1  0.74983202  0.33400236  0.90269588  1
  O2-  O382  1  0.75009922  0.33251268  0.32961860  1
  O2-  O383  1  0.24986196  0.00539024  0.39427696  1
  O2-  O384  1  0.25020353  0.65275826  0.08493050  1
  O2-  O385  1  0.24980938  0.66199724  0.60171571  1
  O2-  O386  1  0.24998943  0.33400192  0.92383636  1
  O2-  O387  1  0.25016451  0.66513786  0.17484433  1
  O2-  O388  1  0.25017642  0.33111283  0.59754252  1
  O2-  O389  1  0.25013346  -0.00178505  0.92077822  1
  O2-  O390  1  0.75004478  0.66667781  0.89848097  1
  O2-  O391  1  0.75017116  0.33170083  0.07961253  1
  O2-  O392  1  0.24987094  0.67585886  0.83092300  1
  O2-  O393  1  0.75013593  0.33416377  0.17110034  1
  O2-  O394  1  0.75039225  0.66734368  0.40245498  1
  O2-  O395  1  0.24986612  0.00153524  0.09592952  1
  O2-  O396  1  0.25018936  0.85489809  0.33021979  1
  O2-  O397  1  0.25003138  0.50535568  0.86770909  1
  O2-  O398  1  0.75009728  0.50007192  0.68563264  1
  O2-  O399  1  0.24980960  0.16561305  0.37934471  1
  O2-  O400  1  0.24989075  0.17554875  0.29757599  1
  O2-  O401  1  0.74990539  0.16175963  0.09006712  1
  O2-  O402  1  0.25011460  0.49730220  0.62051611  1
  O2-  O403  1  0.75003120  0.83744281  0.33459242  1
  O2-  O404  1  0.25012556  0.15683141  0.70164556  1
  O2-  O405  1  0.25004787  0.50732868  0.30649866  1
  O2-  O406  1  0.74985561  0.51060099  0.37253141  1
  O2-  O407  1  0.25034960  0.84187733  0.11512974  1
  O2-  O408  1  0.75007298  0.49975603  0.13628064  1
  O2-  O409  1  0.75006229  0.50798719  0.05549168  1
  O2-  O410  1  0.74986382  0.84033265  0.12037930  1
  O2-  O411  1  0.74981789  0.50907665  0.59844545  1
  O2-  O412  1  0.25002581  0.83402053  0.66318750  1
  O2-  O413  1  0.75002288  0.83441224  0.61980810  1
  O2-  O414  1  0.25002737  0.82477393  0.40712711  1
  O2-  O415  1  0.74996860  0.49505893  0.90787825  1
  O2-  O416  1  0.74997266  0.84140738  0.86843015  1
  O2-  O417  1  0.75011953  0.16665630  0.40694733  1
  O2-  O418  1  0.24975204  0.16703282  0.62005357  1
  O2-  O419  1  0.25000725  0.48634497  0.39160549  1
  O2-  O420  1  0.47462937  0.65784534  0.11843372  1
  O2-  O421  1  0.03041088  0.65840731  0.13731885  1
  O2-  O422  1  0.97427346  0.67168451  0.12243722  1
  O2-  O423  1  0.47538823  0.32804363  0.63227320  1
  O2-  O424  1  0.97176976  0.33928014  0.62423581  1
  O2-  O425  1  0.97375537  -0.00171777  0.37124531  1
  O2-  O426  1  0.02714044  -0.00229403  0.12019317  1
  O2-  O427  1  0.96032720  0.32977082  0.12912376  1
  O2-  O428  1  0.97307838  0.33547007  0.87529567  1
  O2-  O429  1  0.52484638  0.00776531  0.37945202  1
  O2-  O430  1  0.96850858  -0.00067158  0.12403069  1
  O2-  O431  1  0.02837897  0.65782259  0.86496023  1
  O2-  O432  1  0.04312965  0.33392830  0.12398375  1
  O2-  O433  1  0.02776074  0.66650955  0.37316056  1
  O2-  O434  1  0.52569036  0.33650300  0.13310371  1
  O2-  O435  1  0.52335459  0.66230921  0.64129278  1
  O2-  O436  1  0.02407634  0.00147639  0.88547703  1
  O2-  O437  1  0.52766408  0.00195917  0.87546051  1
  O2-  O438  1  0.02209124  0.33091954  0.37229984  1
  O2-  O439  1  0.52401849  0.00904450  0.12992425  1
  O2-  O440  1  0.96931112  0.66502872  0.87017738  1
  O2-  O441  1  0.03338308  -0.00383043  0.37214262  1
  O2-  O442  1  0.47324725  0.66303978  0.88142620  1
  O2-  O443  1  0.02215156  0.66206611  0.61825540  1
