# generated using pymatgen
data_La7(Ru4O11)2
_symmetry_space_group_name_H-M   'P 1'
_cell_length_a   23.99597644
_cell_length_b   16.83515140
_cell_length_c   15.43241958
_cell_angle_alpha   89.99937918
_cell_angle_beta   89.99850661
_cell_angle_gamma   89.99642729
_symmetry_Int_Tables_number   1
_chemical_formula_structural   La7(Ru4O11)2
_chemical_formula_sum   'La84 Ru96 O264'
_cell_volume   6234.32551681
_cell_formula_units_Z   12
loop_
 _symmetry_equiv_pos_site_id
 _symmetry_equiv_pos_as_xyz
  1  'x, y, z'
loop_
 _atom_type_symbol
 _atom_type_oxidation_number
  La3+  3.0
  Ru4+  4.0
  O2-  -2.0
loop_
 _atom_site_type_symbol
 _atom_site_label
 _atom_site_symmetry_multiplicity
 _atom_site_fract_x
 _atom_site_fract_y
 _atom_site_fract_z
 _atom_site_occupancy
  La3+  La0  1  0.13927817  0.00067112  0.13215656  1
  La3+  La1  1  0.14384653  0.00056746  0.37311373  1
  La3+  La2  1  0.15377030  -0.00188403  0.62493066  1
  La3+  La3  1  0.13370301  0.00103948  0.86905385  1
  La3+  La4  1  0.14255705  0.34870106  0.11961717  1
  La3+  La5  1  0.14274836  0.34269819  0.37741844  1
  La3+  La6  1  0.14507222  0.33739516  0.62381836  1
  La3+  La7  1  0.14378885  0.34039009  0.87821321  1
  La3+  La8  1  0.13170674  0.66583166  0.12706456  1
  La3+  La9  1  0.13219800  0.67090996  0.37779457  1
  La3+  La10  1  0.14509487  0.66607410  0.61423424  1
  La3+  La11  1  0.14218985  0.66622229  0.87821811  1
  La3+  La12  1  0.64633350  0.00007647  0.12280470  1
  La3+  La13  1  0.63827011  0.00808731  0.37635246  1
  La3+  La14  1  0.63604683  0.00798436  0.62667404  1
  La3+  La15  1  0.64091095  -0.00304014  0.87762236  1
  La3+  La16  1  0.64430429  0.33438696  0.12108357  1
  La3+  La17  1  0.64782546  0.33000673  0.37441412  1
  La3+  La18  1  0.64172733  0.33627550  0.63132027  1
  La3+  La19  1  0.63870849  0.34218758  0.87832963  1
  La3+  La20  1  0.64566595  0.66145788  0.12998365  1
  La3+  La21  1  0.64864554  0.65993858  0.37122925  1
  La3+  La22  1  0.64450831  0.66270344  0.62571426  1
  La3+  La23  1  0.63363667  0.66596891  0.88155309  1
  La3+  La24  1  0.36273493  -0.00191854  0.12811714  1
  La3+  La25  1  0.35910583  -0.00044987  0.37395964  1
  La3+  La26  1  0.36466695  -0.00510344  0.62823369  1
  La3+  La27  1  0.36042576  -0.00335046  0.86387489  1
  La3+  La28  1  0.37043796  0.33865324  0.12315666  1
  La3+  La29  1  0.35346688  0.32890898  0.37324340  1
  La3+  La30  1  0.35883149  0.33434090  0.62109373  1
  La3+  La31  1  0.35585797  0.33938005  0.87495376  1
  La3+  La32  1  0.36666761  0.66429480  0.12384471  1
  La3+  La33  1  0.35892760  0.66264079  0.38057746  1
  La3+  La34  1  0.34969076  0.66265867  0.61696879  1
  La3+  La35  1  0.35976988  0.66387042  0.87599929  1
  La3+  La36  1  0.85381007  -0.00058097  0.12520969  1
  La3+  La37  1  0.86008000  0.00627462  0.37782783  1
  La3+  La38  1  0.86830953  0.00484814  0.62756587  1
  La3+  La39  1  0.86009795  -0.00244293  0.87474960  1
  La3+  La40  1  0.85490127  0.33457324  0.12555057  1
  La3+  La41  1  0.84940659  0.33469606  0.37395530  1
  La3+  La42  1  0.85593510  0.33039118  0.62325485  1
  La3+  La43  1  0.85425408  0.33557043  0.87605564  1
  La3+  La44  1  0.85605503  0.66287459  0.12810251  1
  La3+  La45  1  0.85053732  0.66001613  0.37190491  1
  La3+  La46  1  0.86058910  0.66451751  0.62382490  1
  La3+  La47  1  0.86383890  0.66319386  0.87207951  1
  La3+  La48  1  0.50658915  0.49282697  0.88339824  1
  La3+  La49  1  0.51653690  0.50278018  0.61770852  1
  La3+  La50  1  0.00196164  0.82505734  0.12678536  1
  La3+  La51  1  -0.00510343  0.17345300  0.87258994  1
  La3+  La52  1  0.50272028  0.48792275  0.86820376  1
  La3+  La53  1  0.00467927  0.49967292  0.86332210  1
  La3+  La54  1  0.51210426  0.82610745  0.13038719  1
  La3+  La55  1  0.50516745  0.83938168  0.36271930  1
  La3+  La56  1  0.00162016  0.50897960  0.88270093  1
  La3+  La57  1  0.48947274  0.83806549  0.64319604  1
  La3+  La58  1  0.00086598  0.49754006  0.13181523  1
  La3+  La59  1  0.00297831  0.83129465  0.37780410  1
  La3+  La60  1  0.00872045  0.15712319  0.62235595  1
  La3+  La61  1  0.00080712  0.16373416  0.11711437  1
  La3+  La62  1  0.49472561  0.83982951  0.87596505  1
  La3+  La63  1  0.50862350  0.17224488  0.88495191  1
  La3+  La64  1  -0.00114828  0.50378881  0.61340794  1
  La3+  La65  1  -0.00737773  0.16513729  0.88607284  1
  La3+  La66  1  0.49983957  0.83094158  0.38136923  1
  La3+  La67  1  0.49588869  0.83096014  0.62446932  1
  La3+  La68  1  0.50860970  0.50282706  0.63654375  1
  La3+  La69  1  0.50005533  0.17247334  0.86698338  1
  La3+  La70  1  0.49903233  0.16539989  0.62654137  1
  La3+  La71  1  0.49574766  0.49194750  0.36237881  1
  La3+  La72  1  0.24993760  0.13524672  0.02019390  1
  La3+  La73  1  0.75117649  0.84266490  0.46848973  1
  La3+  La74  1  0.25090489  0.50389167  0.19424802  1
  La3+  La75  1  0.25561991  0.11448179  0.77755264  1
  La3+  La76  1  0.24905738  0.20295647  0.21972427  1
  La3+  La77  1  0.74844153  0.17334621  0.78502503  1
  La3+  La78  1  0.74844862  0.17788416  0.26119665  1
  La3+  La79  1  0.75043796  0.17299648  0.52130277  1
  La3+  La80  1  0.25073758  0.81102081  0.05425495  1
  La3+  La81  1  0.75152069  0.78489723  0.21265035  1
  La3+  La82  1  0.75189244  0.77818793  0.76961931  1
  La3+  La83  1  0.25008531  0.09844417  0.47670505  1
  Ru4+  Ru84  1  -0.00039085  -0.00902295  0.00502259  1
  Ru4+  Ru85  1  -0.00351162  -0.00445117  0.25228298  1
  Ru4+  Ru86  1  0.00813204  -0.00521075  0.50835635  1
  Ru4+  Ru87  1  0.00056010  -0.00315232  0.74123679  1
  Ru4+  Ru88  1  -0.00785091  0.32738044  -0.00199220  1
  Ru4+  Ru89  1  -0.00278395  0.33240260  0.26331734  1
  Ru4+  Ru90  1  -0.00400589  0.31488742  0.48943222  1
  Ru4+  Ru91  1  -0.01004255  0.34870282  0.73707309  1
  Ru4+  Ru92  1  -0.00336353  0.67290717  -0.00174166  1
  Ru4+  Ru93  1  -0.00151825  0.66265238  0.24718773  1
  Ru4+  Ru94  1  0.00077433  0.67418875  0.52038163  1
  Ru4+  Ru95  1  -0.00195807  0.67011403  0.73638332  1
  Ru4+  Ru96  1  0.49176089  -0.01158546  0.00855841  1
  Ru4+  Ru97  1  0.49695532  0.00941032  0.24783668  1
  Ru4+  Ru98  1  0.49774692  0.00580791  0.49491774  1
  Ru4+  Ru99  1  0.50399865  0.01870951  0.75095505  1
  Ru4+  Ru100  1  0.49608008  0.32779608  0.00777383  1
  Ru4+  Ru101  1  0.50013961  0.32758297  0.25316731  1
  Ru4+  Ru102  1  0.51040670  0.32024214  0.48208238  1
  Ru4+  Ru103  1  0.48891882  0.32885899  0.76047104  1
  Ru4+  Ru104  1  0.49988889  0.66441885  0.00055894  1
  Ru4+  Ru105  1  0.49924578  0.65976844  0.24306393  1
  Ru4+  Ru106  1  0.49718180  0.66730479  0.50970260  1
  Ru4+  Ru107  1  0.49902744  0.66835175  0.75328237  1
  Ru4+  Ru108  1  0.11253087  0.16563519  0.00318386  1
  Ru4+  Ru109  1  0.09993306  0.18094131  0.25350339  1
  Ru4+  Ru110  1  0.10229419  0.17620439  0.50145329  1
  Ru4+  Ru111  1  0.11447082  0.17315109  0.73992098  1
  Ru4+  Ru112  1  0.11666022  0.50180448  -0.00069452  1
  Ru4+  Ru113  1  0.10940670  0.50190636  0.24709406  1
  Ru4+  Ru114  1  0.11472714  0.50694647  0.50110120  1
  Ru4+  Ru115  1  0.11543508  0.49477745  0.74849880  1
  Ru4+  Ru116  1  0.10946807  0.83671420  -0.00184504  1
  Ru4+  Ru117  1  0.11672470  0.83921976  0.25019427  1
  Ru4+  Ru118  1  0.10683308  0.84132865  0.50768039  1
  Ru4+  Ru119  1  0.11224198  0.83048253  0.75161777  1
  Ru4+  Ru120  1  0.61035924  0.16928607  0.00356118  1
  Ru4+  Ru121  1  0.60193001  0.16794819  0.24978651  1
  Ru4+  Ru122  1  0.60693827  0.17775576  0.50293626  1
  Ru4+  Ru123  1  0.60468270  0.16106490  0.75234763  1
  Ru4+  Ru124  1  0.61488485  0.50656741  0.00639846  1
  Ru4+  Ru125  1  0.61217897  0.50504080  0.25370057  1
  Ru4+  Ru126  1  0.61889524  0.49906873  0.49032244  1
  Ru4+  Ru127  1  0.61947266  0.50635902  0.75411542  1
  Ru4+  Ru128  1  0.61281720  0.83623952  0.00044034  1
  Ru4+  Ru129  1  0.60987553  0.83424952  0.24503357  1
  Ru4+  Ru130  1  0.61706326  0.82748831  0.49772697  1
  Ru4+  Ru131  1  0.61330868  0.83697346  0.75334433  1
  Ru4+  Ru132  1  0.38980820  0.16513489  0.00307675  1
  Ru4+  Ru133  1  0.39378233  0.16878344  0.25343741  1
  Ru4+  Ru134  1  0.39076418  0.16369556  0.49304760  1
  Ru4+  Ru135  1  0.39913992  0.17069555  0.74808899  1
  Ru4+  Ru136  1  0.38517867  0.49614096  0.00725421  1
  Ru4+  Ru137  1  0.39404846  0.50264540  0.24706555  1
  Ru4+  Ru138  1  0.38351188  0.49626856  0.49450840  1
  Ru4+  Ru139  1  0.38260007  0.49263687  0.74742072  1
  Ru4+  Ru140  1  0.39087214  0.84091120  -0.00864757  1
  Ru4+  Ru141  1  0.38519189  0.84130592  0.24868944  1
  Ru4+  Ru142  1  0.38389385  0.82478427  0.49736106  1
  Ru4+  Ru143  1  0.38365964  0.82669272  0.75799609  1
  Ru4+  Ru144  1  0.88553060  0.16583280  0.00546412  1
  Ru4+  Ru145  1  0.89187301  0.16868561  0.25334775  1
  Ru4+  Ru146  1  0.89474505  0.17246117  0.48830983  1
  Ru4+  Ru147  1  0.88507880  0.16312090  0.74529600  1
  Ru4+  Ru148  1  0.88458035  0.50078331  0.00403878  1
  Ru4+  Ru149  1  0.89142404  0.50077324  0.25240073  1
  Ru4+  Ru150  1  0.88605076  0.49420748  0.49820546  1
  Ru4+  Ru151  1  0.88591411  0.49270305  0.75034360  1
  Ru4+  Ru152  1  0.88944844  0.83245232  -0.00400570  1
  Ru4+  Ru153  1  0.89139101  0.83536399  0.25064374  1
  Ru4+  Ru154  1  0.89270444  0.82350826  0.49618393  1
  Ru4+  Ru155  1  0.89254668  0.83709788  0.75179290  1
  Ru4+  Ru156  1  0.75149188  0.57859251  0.75587030  1
  Ru4+  Ru157  1  0.24948001  0.88695726  0.75318502  1
  Ru4+  Ru158  1  0.25107748  0.27436569  0.77031667  1
  Ru4+  Ru159  1  0.75116191  0.69242086  0.53316976  1
  Ru4+  Ru160  1  0.75104945  0.97757978  0.51934682  1
  Ru4+  Ru161  1  0.74851631  0.94332401  0.26234662  1
  Ru4+  Ru162  1  0.74855301  0.07064086  -0.01682733  1
  Ru4+  Ru163  1  0.25189166  0.06568487  0.26409090  1
  Ru4+  Ru164  1  0.74887753  0.42366600  0.24863889  1
  Ru4+  Ru165  1  0.74984523  0.76654256  -0.00650962  1
  Ru4+  Ru166  1  0.25222915  0.90928244  0.51330560  1
  Ru4+  Ru167  1  0.24910324  0.56454022  0.76385277  1
  Ru4+  Ru168  1  0.75008541  0.94477781  0.76951103  1
  Ru4+  Ru169  1  0.75166440  0.56945647  -0.00872508  1
  Ru4+  Ru170  1  0.24903104  0.66825544  -0.01476359  1
  Ru4+  Ru171  1  0.24975384  0.26880648  0.48457947  1
  Ru4+  Ru172  1  0.25018823  0.75816806  0.24753206  1
  Ru4+  Ru173  1  0.74898508  0.41600981  0.74708799  1
  Ru4+  Ru174  1  0.25035561  0.62290787  0.28599990  1
  Ru4+  Ru175  1  0.25069316  0.37077482  0.25415122  1
  Ru4+  Ru176  1  0.24881836  0.93566444  -0.02088802  1
  Ru4+  Ru177  1  0.24896894  0.74849193  0.74085201  1
  Ru4+  Ru178  1  0.74869093  0.26213052  -0.01211277  1
  Ru4+  Ru179  1  0.25073619  0.27964260  -0.00842552  1
  O2-  O180  1  0.16034833  0.07886684  0.00237175  1
  O2-  O181  1  0.17086864  0.08886946  0.24332101  1
  O2-  O182  1  0.15702460  0.08289934  0.50007315  1
  O2-  O183  1  0.16347551  0.08170517  0.75573943  1
  O2-  O184  1  0.17024472  0.42032921  -0.00403306  1
  O2-  O185  1  0.16908964  0.41603251  0.24882728  1
  O2-  O186  1  0.16313751  0.41870916  0.50582718  1
  O2-  O187  1  0.16501257  0.41220103  0.75230470  1
  O2-  O188  1  0.17116120  0.74520201  0.00142564  1
  O2-  O189  1  0.16965964  0.75003145  0.25013403  1
  O2-  O190  1  0.15998631  0.75535068  0.49424981  1
  O2-  O191  1  0.16505472  0.74496657  0.75086477  1
  O2-  O192  1  0.66215155  0.08042677  -0.00518838  1
  O2-  O193  1  0.66116439  0.08302672  0.25243252  1
  O2-  O194  1  0.65999438  0.08476173  0.50372326  1
  O2-  O195  1  0.66485992  0.07850220  0.75265267  1
  O2-  O196  1  0.66417472  0.41841470  0.00264065  1
  O2-  O197  1  0.66220389  0.41485156  0.24721943  1
  O2-  O198  1  0.66270301  0.41122998  0.50141266  1
  O2-  O199  1  0.66816228  0.41519490  0.75457474  1
  O2-  O200  1  0.66589987  0.74673211  -0.00470694  1
  O2-  O201  1  0.66092934  0.74636619  0.25310470  1
  O2-  O202  1  0.66920252  0.74406635  0.49961554  1
  O2-  O203  1  0.65873470  0.74225333  0.75492695  1
  O2-  O204  1  0.33300177  0.25410908  0.00702716  1
  O2-  O205  1  0.33584579  0.25554174  0.23939252  1
  O2-  O206  1  0.32966740  0.25041715  0.49928827  1
  O2-  O207  1  0.33312725  0.25413163  0.75494213  1
  O2-  O208  1  0.33539706  0.58952637  0.00259665  1
  O2-  O209  1  0.33564251  0.58886485  0.24628240  1
  O2-  O210  1  0.33109587  0.58227539  0.49206333  1
  O2-  O211  1  0.33386839  0.58502387  0.75253554  1
  O2-  O212  1  0.33035894  0.91876526  0.00418020  1
  O2-  O213  1  0.33041916  0.91840795  0.25054744  1
  O2-  O214  1  0.33188602  0.91815803  0.49820863  1
  O2-  O215  1  0.33121982  0.91247095  0.74520526  1
  O2-  O216  1  0.83241315  0.25261105  -0.00281750  1
  O2-  O217  1  0.83383324  0.25095751  0.24671660  1
  O2-  O218  1  0.83293644  0.25098678  0.50266278  1
  O2-  O219  1  0.83375600  0.25166023  0.75227543  1
  O2-  O220  1  0.83359517  0.58784073  -0.00199447  1
  O2-  O221  1  0.83954585  0.58187254  0.24675099  1
  O2-  O222  1  0.84051991  0.58424116  0.50253402  1
  O2-  O223  1  0.83404029  0.58236153  0.75127060  1
  O2-  O224  1  0.83849349  0.91619814  0.00070790  1
  O2-  O225  1  0.83155864  0.92009539  0.25340473  1
  O2-  O226  1  0.83635189  0.92227711  0.50575244  1
  O2-  O227  1  0.83204333  0.92041428  0.75255845  1
  O2-  O228  1  0.16868518  0.25401878  0.00228128  1
  O2-  O229  1  0.16886085  0.25475847  0.25395723  1
  O2-  O230  1  0.16807478  0.25302857  0.49473722  1
  O2-  O231  1  0.16743868  0.25570503  0.75429439  1
  O2-  O232  1  0.17308015  0.59234264  0.00585512  1
  O2-  O233  1  0.16815975  0.59109076  0.24894483  1
  O2-  O234  1  0.17007964  0.58747230  0.49159624  1
  O2-  O235  1  0.16733045  0.58717205  0.75368990  1
  O2-  O236  1  0.16583321  0.92097307  0.00045694  1
  O2-  O237  1  0.16601002  0.91901917  0.24419051  1
  O2-  O238  1  0.17363818  0.91309656  0.49831673  1
  O2-  O239  1  0.16522283  0.91210079  0.75557716  1
  O2-  O240  1  0.66664773  0.25386822  -0.00525800  1
  O2-  O241  1  0.66249067  0.24901250  0.24465660  1
  O2-  O242  1  0.66833754  0.25440320  0.50488116  1
  O2-  O243  1  0.66238683  0.25238651  0.75546247  1
  O2-  O244  1  0.66970007  0.58613303  -0.00260851  1
  O2-  O245  1  0.66464273  0.58116446  0.24761792  1
  O2-  O246  1  0.66334691  0.58747924  0.50107732  1
  O2-  O247  1  0.67001145  0.59136705  0.75726196  1
  O2-  O248  1  0.66438166  0.91713474  -0.00098196  1
  O2-  O249  1  0.66295971  0.92258994  0.25287079  1
  O2-  O250  1  0.66789363  0.92669991  0.50742380  1
  O2-  O251  1  0.66606783  0.92248243  0.75372203  1
  O2-  O252  1  0.34028780  0.08026801  0.00171339  1
  O2-  O253  1  0.33656107  0.08208893  0.24769482  1
  O2-  O254  1  0.34057236  0.07668478  0.50957266  1
  O2-  O255  1  0.34512963  0.07619666  0.73990188  1
  O2-  O256  1  0.32985371  0.41739822  0.00653584  1
  O2-  O257  1  0.33243006  0.41333263  0.24033177  1
  O2-  O258  1  0.32666412  0.41569470  0.51093880  1
  O2-  O259  1  0.32938642  0.41254643  0.74593909  1
  O2-  O260  1  0.33345074  0.74701579  0.00249153  1
  O2-  O261  1  0.33342423  0.75090048  0.24795849  1
  O2-  O262  1  0.33114191  0.74365436  0.49279898  1
  O2-  O263  1  0.33235682  0.74317452  0.74987520  1
  O2-  O264  1  0.83122100  0.07915706  -0.00488454  1
  O2-  O265  1  0.83698951  0.08281343  0.25283032  1
  O2-  O266  1  0.83655106  0.08394066  0.50472426  1
  O2-  O267  1  0.82740313  0.08055544  0.75008715  1
  O2-  O268  1  0.83569306  0.41666678  0.00157917  1
  O2-  O269  1  0.83351892  0.41658123  0.24954895  1
  O2-  O270  1  0.83550112  0.41381015  0.50232511  1
  O2-  O271  1  0.82916647  0.41390564  0.75239634  1
  O2-  O272  1  0.82969571  0.75055482  -0.00466894  1
  O2-  O273  1  0.84237424  0.74526274  0.24930924  1
  O2-  O274  1  0.83259298  0.74490981  0.50155044  1
  O2-  O275  1  0.84502681  0.74393077  0.75090967  1
  O2-  O276  1  0.05688430  0.75899584  0.98784822  1
  O2-  O277  1  0.93788358  0.25067950  0.27481210  1
  O2-  O278  1  0.45192878  0.23439399  1.00952961  1
  O2-  O279  1  0.95057319  0.90757110  0.01427014  1
  O2-  O280  1  0.04943030  0.57768705  0.50872316  1
  O2-  O281  1  0.02906920  0.10063434  0.25970709  1
  O2-  O282  1  0.04759862  0.23886494  0.98813895  1
  O2-  O283  1  0.96868916  0.78444947  0.98663409  1
  O2-  O284  1  0.05639008  0.75291695  0.49168195  1
  O2-  O285  1  0.94608617  0.22835494  0.55467794  1
  O2-  O286  1  0.05233753  0.42538282  0.23611994  1
  O2-  O287  1  0.54589055  0.09411170  0.25045472  1
  O2-  O288  1  0.44468679  0.90781922  0.50697941  1
  O2-  O289  1  0.95384104  0.75928989  0.26110682  1
  O2-  O290  1  0.95090703  0.23895107  0.75373216  1
  O2-  O291  1  0.45459083  0.42937374  0.22958799  1
  O2-  O292  1  0.55317627  0.90697614  0.51101216  1
  O2-  O293  1  0.45681398  0.09088151  0.98201376  1
  O2-  O294  1  0.94643889  0.42414364  0.25047305  1
  O2-  O295  1  0.46504755  0.86744668  0.02458768  1
  O2-  O296  1  0.54770483  0.43135485  0.74769593  1
  O2-  O297  1  0.04621758  0.09102704  0.99389341  1
  O2-  O298  1  0.02000842  0.22616280  0.24020877  1
  O2-  O299  1  0.54942529  0.90468744  0.50050089  1
  O2-  O300  1  0.95405910  0.43448563  0.99930777  1
  O2-  O301  1  0.03588706  0.22217776  0.45412006  1
  O2-  O302  1  0.54525605  0.76368502  0.75685389  1
  O2-  O303  1  0.95088414  0.78958030  0.55444753  1
  O2-  O304  1  0.05185205  0.11398213  0.78704399  1
  O2-  O305  1  0.55268503  0.91700418  0.73557076  1
  O2-  O306  1  0.94447735  0.08465902  0.50786966  1
  O2-  O307  1  0.54223672  0.42752609  0.98613036  1
  O2-  O308  1  0.54852476  0.09489872  0.52111375  1
  O2-  O309  1  0.05114253  0.56676027  0.74421982  1
  O2-  O310  1  0.95191707  0.57884121  0.24122671  1
  O2-  O311  1  0.00284864  0.88733921  0.51390480  1
  O2-  O312  1  0.05376410  0.76478312  0.25649825  1
  O2-  O313  1  0.54654920  0.56647316  0.47306949  1
  O2-  O314  1  0.47172094  0.43012551  0.52366805  1
  O2-  O315  1  0.45227145  0.90442530  0.75829738  1
  O2-  O316  1  0.95051303  0.56525983  0.74584712  1
  O2-  O317  1  0.05183272  0.09096006  0.49628233  1
  O2-  O318  1  0.47089662  0.21082547  0.49249907  1
  O2-  O319  1  0.45584326  0.56277319  0.75571416  1
  O2-  O320  1  0.95481743  0.43064552  0.50356282  1
  O2-  O321  1  0.45251683  0.76403964  0.24623838  1
  O2-  O322  1  0.45457961  0.56437306  0.77353005  1
  O2-  O323  1  0.03161337  0.11440007  0.76343819  1
  O2-  O324  1  0.93945970  0.91833663  0.72907502  1
  O2-  O325  1  0.41011693  0.42314000  0.41742310  1
  O2-  O326  1  0.42545132  0.42836490  0.82743806  1
  O2-  O327  1  0.55871648  0.26832286  0.58483883  1
  O2-  O328  1  0.55561183  0.59283546  0.28893584  1
  O2-  O329  1  0.92834728  0.24737219  0.06872654  1
  O2-  O330  1  0.43790970  0.25449382  0.26192454  1
  O2-  O331  1  0.08716668  0.89941164  0.40862105  1
  O2-  O332  1  0.93241862  0.07115777  0.76993542  1
  O2-  O333  1  0.43659068  0.92972200  0.77191353  1
  O2-  O334  1  0.93704166  0.92273010  0.22449513  1
  O2-  O335  1  0.08046217  0.05591836  0.26483773  1
  O2-  O336  1  0.56122774  0.42120052  0.96093687  1
  O2-  O337  1  0.56250917  0.26284521  0.02969646  1
  O2-  O338  1  0.55980160  0.41233259  0.72007332  1
  O2-  O339  1  0.43802526  0.40537283  0.03162838  1
  O2-  O340  1  0.91385063  0.70999663  0.97779088  1
  O2-  O341  1  0.56590695  0.24334279  0.43311946  1
  O2-  O342  1  0.94098424  0.40403214  0.82985908  1
  O2-  O343  1  0.44018651  0.39066960  0.67680673  1
  O2-  O344  1  0.56346202  0.59640759  0.03415641  1
  O2-  O345  1  0.56377390  0.73561039  0.21431603  1
  O2-  O346  1  0.43163343  0.95372062  0.93311559  1
  O2-  O347  1  0.93617621  0.26999441  0.91867359  1
  O2-  O348  1  0.43314452  0.90823471  0.17933546  1
  O2-  O349  1  0.93602835  0.71334585  0.43060314  1
  O2-  O350  1  0.92557859  0.08869987  0.92890305  1
  O2-  O351  1  0.05960087  0.74030347  0.28361372  1
  O2-  O352  1  0.09198840  0.25398867  0.16087317  1
  O2-  O353  1  0.42176859  0.27316539  0.48200436  1
  O2-  O354  1  0.07442218  0.27694420  0.56783473  1
  O2-  O355  1  0.55783465  0.25840735  0.26352234  1
  O2-  O356  1  0.56113591  0.73469459  0.45938088  1
  O2-  O357  1  0.06160483  0.40592738  0.95859568  1
  O2-  O358  1  0.43595736  0.58767626  0.52319160  1
  O2-  O359  1  0.05657555  0.58781592  0.51576286  1
  O2-  O360  1  0.92838589  0.28561926  0.43117852  1
  O2-  O361  1  0.43621715  0.92873435  0.33001641  1
  O2-  O362  1  0.08498016  0.25166598  0.33522733  1
  O2-  O363  1  0.05964043  0.59240498  0.02570226  1
  O2-  O364  1  0.92688286  0.41913197  0.67876047  1
  O2-  O365  1  0.56188489  0.93088521  0.03426508  1
  O2-  O366  1  0.92338021  0.08590303  0.07877001  1
  O2-  O367  1  0.43784016  0.07074282  0.46885715  1
  O2-  O368  1  0.55932253  0.74865894  0.96041629  1
  O2-  O369  1  0.07122314  0.01092453  0.69283771  1
  O2-  O370  1  0.06312027  0.59592496  0.21411880  1
  O2-  O371  1  0.07784905  0.94749479  0.56002744  1
  O2-  O372  1  0.74945441  0.32561619  0.17021902  1
  O2-  O373  1  0.24950536  0.03927634  0.92555976  1
  O2-  O374  1  0.24912169  0.67058447  0.84258015  1
  O2-  O375  1  0.74913417  0.67610344  0.32942071  1
  O2-  O376  1  0.74868833  0.33632481  0.34159568  1
  O2-  O377  1  0.74902915  -0.00046279  0.88393313  1
  O2-  O378  1  0.24861145  0.01071563  0.08472890  1
  O2-  O379  1  0.24938595  0.32997124  0.37389981  1
  O2-  O380  1  0.75084226  0.66618499  0.05513120  1
  O2-  O381  1  0.75131086  0.66298901  0.66251338  1
  O2-  O382  1  0.74907824  0.33150673  0.88621864  1
  O2-  O383  1  0.25631351  -0.00040632  0.59872830  1
  O2-  O384  1  0.24780286  -0.01516472  0.79890518  1
  O2-  O385  1  0.74969623  -0.00244149  0.39189527  1
  O2-  O386  1  0.74906089  0.01707750  0.16764731  1
  O2-  O387  1  0.24939554  0.34167752  0.88225947  1
  O2-  O388  1  0.25085640  -0.00975332  0.36700273  1
  O2-  O389  1  0.75019329  0.34268496  0.07978427  1
  O2-  O390  1  0.74967897  0.33732364  0.65688824  1
  O2-  O391  1  0.25052982  -0.01614576  0.17193029  1
  O2-  O392  1  0.74946877  0.66039347  0.18355488  1
  O2-  O393  1  0.75050129  0.65437964  0.41928473  1
  O2-  O394  1  0.74858841  -0.00739947  0.07873416  1
  O2-  O395  1  0.24885940  0.67112566  0.64151825  1
  O2-  O396  1  0.74940697  0.16478847  0.04187639  1
  O2-  O397  1  0.25026160  0.20135098  0.88632527  1
  O2-  O398  1  0.24995988  0.19433651  0.57934284  1
  O2-  O399  1  0.75073524  0.51176580  0.89338092  1
  O2-  O400  1  0.24704368  0.20641595  0.66885860  1
  O2-  O401  1  0.74870546  0.50219746  0.67209698  1
  O2-  O402  1  0.74950934  0.48847937  0.15970044  1
  O2-  O403  1  0.75058117  0.16535045  0.12859468  1
  O2-  O404  1  0.74960172  0.50685336  0.33169626  1
  O2-  O405  1  0.74934150  0.83750207  0.90227453  1
  O2-  O406  1  0.74987599  0.15937162  0.38946110  1
  O2-  O407  1  0.24941010  0.83505954  0.64304339  1
  O2-  O408  1  0.25132853  0.51695034  0.34142343  1
  O2-  O409  1  0.74798126  0.15379219  0.65491129  1
  O2-  O410  1  0.74922612  0.49447275  0.41473244  1
  O2-  O411  1  0.74968102  0.50284114  0.58548475  1
  O2-  O412  1  0.25249218  0.17089945  0.35759513  1
  O2-  O413  1  0.24997975  0.84884350  0.88637226  1
  O2-  O414  1  0.75023791  0.78581502  0.59959253  1
  O2-  O415  1  0.74946772  0.85152401  0.33228409  1
  O2-  O416  1  0.74826935  0.88588891  0.67285833  1
  O2-  O417  1  0.24990576  0.51975676  0.86598700  1
  O2-  O418  1  0.24987330  0.50637800  0.67119394  1
  O2-  O419  1  0.74886122  0.83756491  0.07880424  1
  O2-  O420  1  0.02749407  -0.00943820  0.38083192  1
  O2-  O421  1  0.98211341  0.65466142  0.86797534  1
  O2-  O422  1  0.47021284  0.66612312  0.11821188  1
  O2-  O423  1  0.02006766  0.35762863  0.38330136  1
  O2-  O424  1  0.54954977  0.31112541  0.84347109  1
  O2-  O425  1  0.95400890  0.65247763  0.62159566  1
  O2-  O426  1  0.97470884  0.34477191  0.14057977  1
  O2-  O427  1  0.97445588  0.00859593  0.62583030  1
  O2-  O428  1  0.94970433  -0.00057296  0.36272800  1
  O2-  O429  1  0.45051428  0.69419434  0.63722395  1
  O2-  O430  1  0.54647389  0.65358729  0.62801166  1
  O2-  O431  1  0.55002141  0.37867336  0.37802679  1
  O2-  O432  1  0.45677784  0.31205407  0.88288405  1
  O2-  O433  1  0.04619627  0.68737536  0.64362549  1
  O2-  O434  1  0.48338008  0.02121700  0.12847075  1
  O2-  O435  1  0.98906644  0.32510703  0.62428927  1
  O2-  O436  1  0.97829653  -0.01711702  0.86952259  1
  O2-  O437  1  0.47172335  0.32958253  0.36590846  1
  O2-  O438  1  0.47166906  0.68011904  0.88104693  1
  O2-  O439  1  0.53078278  -0.00960813  0.36635904  1
  O2-  O440  1  0.03558773  -0.00883429  0.87291916  1
  O2-  O441  1  0.99816200  -0.00114962  0.12933150  1
  O2-  O442  1  0.02936573  0.35526041  0.10031167  1
  O2-  O443  1  0.97204807  0.67442895  0.11857193  1
