# generated using pymatgen
data_La7(Ru4O11)2
_symmetry_space_group_name_H-M   'P 1'
_cell_length_a   23.98965819
_cell_length_b   16.82944473
_cell_length_c   15.42646703
_cell_angle_alpha   90.00041637
_cell_angle_beta   89.99984506
_cell_angle_gamma   89.99960878
_symmetry_Int_Tables_number   1
_chemical_formula_structural   La7(Ru4O11)2
_chemical_formula_sum   'La84 Ru96 O264'
_cell_volume   6228.16805405
_cell_formula_units_Z   12
loop_
 _symmetry_equiv_pos_site_id
 _symmetry_equiv_pos_as_xyz
  1  'x, y, z'
loop_
 _atom_type_symbol
 _atom_type_oxidation_number
  La3+  3.0
  Ru4+  4.0
  O2-  -2.0
loop_
 _atom_site_type_symbol
 _atom_site_label
 _atom_site_symmetry_multiplicity
 _atom_site_fract_x
 _atom_site_fract_y
 _atom_site_fract_z
 _atom_site_occupancy
  La3+  La0  1  0.13902107  -0.00114273  0.12270377  1
  La3+  La1  1  0.13695729  -0.00082137  0.37632264  1
  La3+  La2  1  0.13654489  0.00102456  0.62327179  1
  La3+  La3  1  0.13780286  0.00019512  0.87639596  1
  La3+  La4  1  0.13840204  0.33397857  0.12460345  1
  La3+  La5  1  0.13876101  0.33478516  0.37366493  1
  La3+  La6  1  0.13858814  0.33331398  0.62563552  1
  La3+  La7  1  0.13966956  0.33358066  0.87627397  1
  La3+  La8  1  0.13777096  0.66740983  0.12538072  1
  La3+  La9  1  0.13993343  0.66553458  0.37603073  1
  La3+  La10  1  0.13679735  0.66629211  0.62516709  1
  La3+  La11  1  0.13818963  0.66745341  0.87457889  1
  La3+  La12  1  0.64119123  0.00063406  0.12686677  1
  La3+  La13  1  0.64072958  0.00090760  0.37420735  1
  La3+  La14  1  0.63964120  0.00107836  0.62497408  1
  La3+  La15  1  0.64069761  0.00166365  0.87602584  1
  La3+  La16  1  0.63862713  0.33379190  0.12611275  1
  La3+  La17  1  0.63958897  0.33497685  0.37470056  1
  La3+  La18  1  0.63954940  0.33525888  0.62621230  1
  La3+  La19  1  0.63919930  0.33378708  0.87396582  1
  La3+  La20  1  0.63770378  0.66661507  0.12672608  1
  La3+  La21  1  0.64095758  0.66688128  0.37673666  1
  La3+  La22  1  0.63996634  0.66581691  0.62378901  1
  La3+  La23  1  0.63774332  0.66520376  0.87345753  1
  La3+  La24  1  0.36177733  -0.00062348  0.12352574  1
  La3+  La25  1  0.36266879  0.00045553  0.37567455  1
  La3+  La26  1  0.36124217  0.00063121  0.62437644  1
  La3+  La27  1  0.36165327  0.00112396  0.87677474  1
  La3+  La28  1  0.36178259  0.33365648  0.12520923  1
  La3+  La29  1  0.36146828  0.33461766  0.37469223  1
  La3+  La30  1  0.36166745  0.33229137  0.62714027  1
  La3+  La31  1  0.36250064  0.33204744  0.87351473  1
  La3+  La32  1  0.36235556  0.66683934  0.12597793  1
  La3+  La33  1  0.36093496  0.66671096  0.37509038  1
  La3+  La34  1  0.36248196  0.66563742  0.62513054  1
  La3+  La35  1  0.36168700  0.66662246  0.87465419  1
  La3+  La36  1  0.85909782  0.00061352  0.12653322  1
  La3+  La37  1  0.86050276  0.00093675  0.37361249  1
  La3+  La38  1  0.86209057  0.00079493  0.62540129  1
  La3+  La39  1  0.85986374  0.00129506  0.87582157  1
  La3+  La40  1  0.86312264  0.33371755  0.12689147  1
  La3+  La41  1  0.86220946  0.33420167  0.37526682  1
  La3+  La42  1  0.86186802  0.33570244  0.62549179  1
  La3+  La43  1  0.86183457  0.33470538  0.87253536  1
  La3+  La44  1  0.86123724  0.66651006  0.12605128  1
  La3+  La45  1  0.86215024  0.66860784  0.38069153  1
  La3+  La46  1  0.86396443  0.66825804  0.61903394  1
  La3+  La47  1  0.86217596  0.66636112  0.87394323  1
  La3+  La48  1  -0.00035142  0.16581691  0.88633845  1
  La3+  La49  1  0.00082157  0.50164102  0.86587041  1
  La3+  La50  1  0.49934180  0.50081640  0.86445024  1
  La3+  La51  1  0.50020107  0.49987908  0.61704256  1
  La3+  La52  1  -0.00147960  0.83336661  0.38516923  1
  La3+  La53  1  0.50082593  0.83269269  0.38355119  1
  La3+  La54  1  0.50037454  0.16919651  0.36366226  1
  La3+  La55  1  -0.00401653  0.49742304  0.36299177  1
  La3+  La56  1  0.49566813  0.83144015  0.88551110  1
  La3+  La57  1  -0.00226017  0.16965513  0.12390027  1
  La3+  La58  1  0.50054082  0.16749255  0.38023799  1
  La3+  La59  1  0.49932936  0.16399734  0.61921381  1
  La3+  La60  1  0.49860160  0.49993160  0.36004274  1
  La3+  La61  1  -0.00061365  0.83377447  0.11338261  1
  La3+  La62  1  0.00203559  0.50009285  0.38341811  1
  La3+  La63  1  -0.00228406  0.83137178  0.36242284  1
  La3+  La64  1  -0.00323741  0.83419493  0.62068322  1
  La3+  La65  1  0.49953387  0.83382962  0.11799852  1
  La3+  La66  1  0.49437809  0.83742343  0.62988370  1
  La3+  La67  1  0.00051641  0.83330005  0.88272279  1
  La3+  La68  1  0.50125723  0.82851410  0.86506629  1
  La3+  La69  1  0.50044367  0.16455104  0.63903224  1
  La3+  La70  1  0.50117575  0.50449506  0.37587540  1
  La3+  La71  1  0.50284591  0.83479714  0.61193829  1
  La3+  La72  1  0.24990064  0.20254181  0.77412916  1
  La3+  La73  1  0.75019967  0.79980122  0.70902831  1
  La3+  La74  1  0.74980314  0.87787662  0.03095194  1
  La3+  La75  1  0.74988841  0.13324923  0.02207563  1
  La3+  La76  1  0.25008397  0.79246678  0.50641550  1
  La3+  La77  1  0.25006826  0.16835926  0.19707556  1
  La3+  La78  1  0.24991080  0.83427560  -0.00759060  1
  La3+  La79  1  0.74981923  0.83517969  0.27494294  1
  La3+  La80  1  0.24999010  0.49963443  0.74527866  1
  La3+  La81  1  0.25018106  0.82525809  0.74996656  1
  La3+  La82  1  0.74987370  0.13612018  0.49769958  1
  La3+  La83  1  0.24986862  0.49296720  0.00346493  1
  Ru4+  Ru84  1  -0.00079721  -0.00310416  -0.00119178  1
  Ru4+  Ru85  1  -0.00072869  0.00056920  0.24930154  1
  Ru4+  Ru86  1  -0.00413169  0.00692622  0.50355738  1
  Ru4+  Ru87  1  0.00052629  0.00015971  0.75009661  1
  Ru4+  Ru88  1  -0.00131204  0.33522850  0.00078065  1
  Ru4+  Ru89  1  -0.00076740  0.33639520  0.24894288  1
  Ru4+  Ru90  1  -0.00157925  0.32915391  0.49705024  1
  Ru4+  Ru91  1  0.00311333  0.32775754  0.75079379  1
  Ru4+  Ru92  1  -0.00088331  0.66801741  0.00094711  1
  Ru4+  Ru93  1  -0.00055560  0.66666794  0.24700015  1
  Ru4+  Ru94  1  -0.00069437  0.66776777  0.50317221  1
  Ru4+  Ru95  1  -0.00130953  0.66646626  0.74886438  1
  Ru4+  Ru96  1  0.49721237  0.00431681  0.00295893  1
  Ru4+  Ru97  1  0.49779351  -0.00013943  0.24946705  1
  Ru4+  Ru98  1  0.50146509  -0.00140400  0.49714650  1
  Ru4+  Ru99  1  0.50033612  0.00356175  0.75533860  1
  Ru4+  Ru100  1  0.49963966  0.32865716  -0.00010134  1
  Ru4+  Ru101  1  0.49965587  0.33318505  0.25127271  1
  Ru4+  Ru102  1  0.50010479  0.33001900  0.49669224  1
  Ru4+  Ru103  1  0.50207820  0.34034751  0.75400681  1
  Ru4+  Ru104  1  0.50054606  0.66517865  0.00117309  1
  Ru4+  Ru105  1  0.50003486  0.66811209  0.24671004  1
  Ru4+  Ru106  1  0.50222675  0.66518661  0.49902903  1
  Ru4+  Ru107  1  0.49805260  0.66396923  0.75135360  1
  Ru4+  Ru108  1  0.11512865  0.16822726  -0.00064336  1
  Ru4+  Ru109  1  0.11448862  0.16334941  0.24972419  1
  Ru4+  Ru110  1  0.11230799  0.16686632  0.49942146  1
  Ru4+  Ru111  1  0.11056172  0.16739068  0.74996404  1
  Ru4+  Ru112  1  0.11158627  0.49942796  -0.00008712  1
  Ru4+  Ru113  1  0.11398282  0.49803259  0.24862563  1
  Ru4+  Ru114  1  0.11376399  0.50079153  0.50056932  1
  Ru4+  Ru115  1  0.11151947  0.49966583  0.74959696  1
  Ru4+  Ru116  1  0.11136986  0.83330890  0.00016319  1
  Ru4+  Ru117  1  0.11360332  0.83580457  0.24958205  1
  Ru4+  Ru118  1  0.11549290  0.83058638  0.49978947  1
  Ru4+  Ru119  1  0.11109321  0.83406896  0.75006000  1
  Ru4+  Ru120  1  0.61186707  0.16662309  -0.00083738  1
  Ru4+  Ru121  1  0.61354469  0.16550508  0.25023678  1
  Ru4+  Ru122  1  0.61257509  0.16484002  0.49949726  1
  Ru4+  Ru123  1  0.61432952  0.16352980  0.75097204  1
  Ru4+  Ru124  1  0.61463434  0.50257374  0.00135690  1
  Ru4+  Ru125  1  0.61337832  0.49846184  0.25025792  1
  Ru4+  Ru126  1  0.61607842  0.50146682  0.50059027  1
  Ru4+  Ru127  1  0.61460111  0.49677004  0.74867361  1
  Ru4+  Ru128  1  0.61473402  0.83204411  0.00112712  1
  Ru4+  Ru129  1  0.61302125  0.83178328  0.24998362  1
  Ru4+  Ru130  1  0.61411230  0.83162224  0.49942775  1
  Ru4+  Ru131  1  0.61476801  0.83393209  0.75072570  1
  Ru4+  Ru132  1  0.38605446  0.16639949  -0.00012509  1
  Ru4+  Ru133  1  0.38885435  0.16697265  0.25048246  1
  Ru4+  Ru134  1  0.38454681  0.16558019  0.49970985  1
  Ru4+  Ru135  1  0.38596518  0.16311140  0.75222229  1
  Ru4+  Ru136  1  0.38888937  0.49910832  -0.00001408  1
  Ru4+  Ru137  1  0.38717619  0.49918278  0.24981377  1
  Ru4+  Ru138  1  0.38530990  0.50103962  0.50056538  1
  Ru4+  Ru139  1  0.38863303  0.50017098  0.74925852  1
  Ru4+  Ru140  1  0.38743032  0.83445323  0.00063187  1
  Ru4+  Ru141  1  0.38718270  0.83450529  0.25034930  1
  Ru4+  Ru142  1  0.38814788  0.83411453  0.49951012  1
  Ru4+  Ru143  1  0.38820856  0.83114929  0.74981648  1
  Ru4+  Ru144  1  0.88775770  0.16457693  -0.00081372  1
  Ru4+  Ru145  1  0.88520002  0.16157411  0.25080001  1
  Ru4+  Ru146  1  0.89181720  0.16683390  0.50029102  1
  Ru4+  Ru147  1  0.88602585  0.16514176  0.75009164  1
  Ru4+  Ru148  1  0.88790083  0.49983517  -0.00028713  1
  Ru4+  Ru149  1  0.88617363  0.49826298  0.24857652  1
  Ru4+  Ru150  1  0.88351858  0.49788950  0.50115763  1
  Ru4+  Ru151  1  0.88376245  0.50068158  0.74947337  1
  Ru4+  Ru152  1  0.88877603  0.83473265  0.00001518  1
  Ru4+  Ru153  1  0.88835398  0.83395949  0.25077209  1
  Ru4+  Ru154  1  0.88772105  0.83058265  0.49977214  1
  Ru4+  Ru155  1  0.88871666  0.83349366  0.74886784  1
  Ru4+  Ru156  1  0.74986679  0.58041870  0.25584664  1
  Ru4+  Ru157  1  0.74991435  0.58167383  0.00223502  1
  Ru4+  Ru158  1  0.25016821  0.93585940  0.51080979  1
  Ru4+  Ru159  1  0.75014140  0.94219143  0.75741909  1
  Ru4+  Ru160  1  0.74981648  0.91502493  0.49910773  1
  Ru4+  Ru161  1  0.74986858  0.24823027  0.75547609  1
  Ru4+  Ru162  1  0.25005100  0.42183090  0.50114574  1
  Ru4+  Ru163  1  0.25003990  0.69920132  0.74951894  1
  Ru4+  Ru164  1  0.74997584  0.24172627  0.25159342  1
  Ru4+  Ru165  1  0.74987942  0.27665054  0.50267957  1
  Ru4+  Ru166  1  0.74996720  0.27515900  -0.00357081  1
  Ru4+  Ru167  1  0.25004775  0.36835686  -0.00028421  1
  Ru4+  Ru168  1  0.75006547  0.41544183  0.00001834  1
  Ru4+  Ru169  1  0.24995061  0.74664000  0.25372072  1
  Ru4+  Ru170  1  0.25000204  0.07558765  0.74151497  1
  Ru4+  Ru171  1  0.25027931  0.05554132  0.25463093  1
  Ru4+  Ru172  1  0.24979854  0.61595900  -0.00798090  1
  Ru4+  Ru173  1  0.24983237  0.57989342  0.49820987  1
  Ru4+  Ru174  1  0.24979702  0.24748505  0.50580892  1
  Ru4+  Ru175  1  0.25016525  0.28424724  0.24774692  1
  Ru4+  Ru176  1  0.25034367  0.57989239  0.25189902  1
  Ru4+  Ru177  1  0.24998364  0.94897305  0.74161297  1
  Ru4+  Ru178  1  0.75018153  0.73492415  0.00401037  1
  Ru4+  Ru179  1  0.74994883  0.57912167  0.74422113  1
  O2-  O180  1  0.16784180  0.08176424  0.00059066  1
  O2-  O181  1  0.16600611  0.07869368  0.25034179  1
  O2-  O182  1  0.16611310  0.08133183  0.50080159  1
  O2-  O183  1  0.16659639  0.08019559  0.74903897  1
  O2-  O184  1  0.16591611  0.41304000  0.00041872  1
  O2-  O185  1  0.16681444  0.41526827  0.24963639  1
  O2-  O186  1  0.16726364  0.41440574  0.50023003  1
  O2-  O187  1  0.16853646  0.41429761  0.74983460  1
  O2-  O188  1  0.16686900  0.74641176  -0.00002236  1
  O2-  O189  1  0.16791647  0.74694004  0.24954541  1
  O2-  O190  1  0.16610923  0.74602245  0.50149718  1
  O2-  O191  1  0.16701748  0.74578046  0.74963106  1
  O2-  O192  1  0.66608765  0.08077748  0.00073886  1
  O2-  O193  1  0.66587181  0.08258645  0.25048360  1
  O2-  O194  1  0.66695756  0.08032716  0.50035777  1
  O2-  O195  1  0.66737571  0.08297358  0.74960609  1
  O2-  O196  1  0.66829335  0.41369633  -0.00017388  1
  O2-  O197  1  0.66693951  0.41432246  0.24982343  1
  O2-  O198  1  0.66745883  0.41479882  0.49941454  1
  O2-  O199  1  0.66743387  0.41533048  0.74975815  1
  O2-  O200  1  0.66665048  0.74613915  0.00042645  1
  O2-  O201  1  0.66842326  0.74767268  0.25055089  1
  O2-  O202  1  0.66746851  0.74894133  0.50108024  1
  O2-  O203  1  0.66705430  0.74726978  0.74995367  1
  O2-  O204  1  0.33254061  0.25275680  -0.00034072  1
  O2-  O205  1  0.33439665  0.25411653  0.25008036  1
  O2-  O206  1  0.33280922  0.25253164  0.50052578  1
  O2-  O207  1  0.33329044  0.25391923  0.75015009  1
  O2-  O208  1  0.33491721  0.58784957  -0.00020077  1
  O2-  O209  1  0.33096661  0.58591432  0.25022885  1
  O2-  O210  1  0.33241628  0.58558395  0.50020509  1
  O2-  O211  1  0.33028093  0.58710792  0.75059462  1
  O2-  O212  1  0.33311122  0.91966943  -0.00073172  1
  O2-  O213  1  0.33351847  0.91885502  0.24998351  1
  O2-  O214  1  0.33279101  0.91993270  0.50011311  1
  O2-  O215  1  0.33413516  0.92105298  0.75022744  1
  O2-  O216  1  0.83325947  0.25391737  0.00059118  1
  O2-  O217  1  0.83233703  0.25290811  0.24943015  1
  O2-  O218  1  0.83299230  0.25284062  0.50047105  1
  O2-  O219  1  0.83192808  0.25236221  0.74936151  1
  O2-  O220  1  0.83351680  0.58582418  0.00005352  1
  O2-  O221  1  0.83214897  0.58601942  0.24999796  1
  O2-  O222  1  0.83400576  0.58521597  0.50093600  1
  O2-  O223  1  0.83357184  0.58536687  0.75009932  1
  O2-  O224  1  0.83513778  0.92002787  -0.00002857  1
  O2-  O225  1  0.83357474  0.91880281  0.25010915  1
  O2-  O226  1  0.83266298  0.91839619  0.50048126  1
  O2-  O227  1  0.83208558  0.92015374  0.75037254  1
  O2-  O228  1  0.16827973  0.25156904  0.00047877  1
  O2-  O229  1  0.16706961  0.25424990  0.25032270  1
  O2-  O230  1  0.16852205  0.25234545  0.50103672  1
  O2-  O231  1  0.16789734  0.25336422  0.74925883  1
  O2-  O232  1  0.16622922  0.58825419  -0.00027771  1
  O2-  O233  1  0.16815597  0.58536747  0.24984809  1
  O2-  O234  1  0.16850378  0.58540657  0.50128628  1
  O2-  O235  1  0.16852110  0.58712828  0.74979937  1
  O2-  O236  1  0.16685991  0.91972789  0.00003729  1
  O2-  O237  1  0.16637801  0.91853092  0.24990260  1
  O2-  O238  1  0.16686732  0.92034732  0.50078972  1
  O2-  O239  1  0.16535763  0.92034326  0.74932493  1
  O2-  O240  1  0.66695062  0.25283225  0.00053173  1
  O2-  O241  1  0.66763221  0.25288085  0.24993660  1
  O2-  O242  1  0.66727986  0.25364506  0.50000529  1
  O2-  O243  1  0.66882577  0.25156049  0.74972485  1
  O2-  O244  1  0.66649174  0.58556613  0.00025883  1
  O2-  O245  1  0.66823465  0.58605904  0.25007372  1
  O2-  O246  1  0.66570524  0.58466186  0.50063772  1
  O2-  O247  1  0.66782396  0.58559880  0.74973004  1
  O2-  O248  1  0.66642149  0.91937734  -0.00039978  1
  O2-  O249  1  0.66756584  0.91766170  0.25061932  1
  O2-  O250  1  0.66858443  0.91868735  0.50050567  1
  O2-  O251  1  0.66741339  0.91958587  0.74974242  1
  O2-  O252  1  0.33332324  0.08170222  -0.00067606  1
  O2-  O253  1  0.33331066  0.07893884  0.24984559  1
  O2-  O254  1  0.33183916  0.08132926  0.49961036  1
  O2-  O255  1  0.33329749  0.08027342  0.75029180  1
  O2-  O256  1  0.33284991  0.41153453  -0.00027754  1
  O2-  O257  1  0.33369202  0.41473137  0.25053691  1
  O2-  O258  1  0.33179578  0.41437695  0.49977125  1
  O2-  O259  1  0.33172930  0.41338140  0.75083830  1
  O2-  O260  1  0.33299707  0.74619717  -0.00025869  1
  O2-  O261  1  0.33306777  0.74665930  0.25001174  1
  O2-  O262  1  0.33446363  0.74517689  0.50029217  1
  O2-  O263  1  0.33358174  0.74554292  0.75001761  1
  O2-  O264  1  0.83403266  0.08036858  0.00055239  1
  O2-  O265  1  0.83504307  0.08287351  0.25005204  1
  O2-  O266  1  0.83335515  0.08026229  0.50042583  1
  O2-  O267  1  0.83375917  0.08200622  0.75010991  1
  O2-  O268  1  0.83267218  0.41389813  0.00007437  1
  O2-  O269  1  0.83284183  0.41421239  0.24988005  1
  O2-  O270  1  0.83313259  0.41519726  0.50093033  1
  O2-  O271  1  0.83171616  0.41499570  0.74993031  1
  O2-  O272  1  0.83350467  0.74536685  0.00000653  1
  O2-  O273  1  0.83228205  0.74592871  0.24946258  1
  O2-  O274  1  0.83114851  0.74870521  0.50116914  1
  O2-  O275  1  0.83409573  0.74696390  0.75084867  1
  O2-  O276  1  0.45191932  0.76279870  0.01457998  1
  O2-  O277  1  0.95480241  0.09626433  0.51395739  1
  O2-  O278  1  0.95544359  0.56747579  0.52084528  1
  O2-  O279  1  0.04721920  0.90415774  0.48137677  1
  O2-  O280  1  0.54137773  0.77298831  0.72277342  1
  O2-  O281  1  0.55932528  0.58663106  0.77603416  1
  O2-  O282  1  0.45395058  0.56956167  0.48800557  1
  O2-  O283  1  0.04273296  0.22814851  0.25718476  1
  O2-  O284  1  0.45312861  0.90374412  0.76353586  1
  O2-  O285  1  0.04494712  0.90089483  0.76403587  1
  O2-  O286  1  0.04683446  0.42979680  0.23491102  1
  O2-  O287  1  0.94966215  0.23704369  0.48626764  1
  O2-  O288  1  0.54802516  0.76509624  0.01419860  1
  O2-  O289  1  0.45319394  0.76598581  0.51137821  1
  O2-  O290  1  0.54128804  0.22610000  0.78085421  1
  O2-  O291  1  0.04556360  0.90509437  0.52041702  1
  O2-  O292  1  0.55196406  0.42085951  0.96110464  1
  O2-  O293  1  0.54859558  0.90733841  0.20849057  1
  O2-  O294  1  0.95383148  0.23366199  0.01293237  1
  O2-  O295  1  0.95065520  0.23521773  0.26797231  1
  O2-  O296  1  0.04639747  0.57075299  0.26336485  1
  O2-  O297  1  0.95504242  0.09670630  0.26280587  1
  O2-  O298  1  0.94941995  0.23660681  0.22921875  1
  O2-  O299  1  0.04702200  0.42935275  0.48945512  1
  O2-  O300  1  0.02367782  0.20482834  0.76367462  1
  O2-  O301  1  0.95920280  0.44044833  0.77659680  1
  O2-  O302  1  0.03457697  0.20975798  0.49890184  1
  O2-  O303  1  0.45181308  0.09175357  0.45783965  1
  O2-  O304  1  0.54667013  0.56719205  0.26297443  1
  O2-  O305  1  0.04010259  0.10693211  0.02803829  1
  O2-  O306  1  0.55440338  0.90906746  0.95509487  1
  O2-  O307  1  0.95494327  0.43343169  0.98549405  1
  O2-  O308  1  0.04535413  0.56753535  0.73556180  1
  O2-  O309  1  0.05282656  0.74531850  0.72588027  1
  O2-  O310  1  0.54300128  0.44156126  0.47310500  1
  O2-  O311  1  0.03805218  0.77998168  0.21765851  1
  O2-  O312  1  0.45060712  0.23634346  0.73603575  1
  O2-  O313  1  0.96623045  0.44758414  0.74015729  1
  O2-  O314  1  0.95572530  0.77400143  0.48932294  1
  O2-  O315  1  0.95086645  0.76041433  0.51254239  1
  O2-  O316  1  0.04276919  0.22810300  0.25723745  1
  O2-  O317  1  0.45246656  0.23636508  0.51132255  1
  O2-  O318  1  0.54776694  0.23555981  0.51145845  1
  O2-  O319  1  0.95246224  0.57228632  0.48211821  1
  O2-  O320  1  0.54626160  0.09966427  0.26278286  1
  O2-  O321  1  0.95231787  0.43297126  0.23508085  1
  O2-  O322  1  0.45745876  0.43861334  0.47198845  1
  O2-  O323  1  0.04199209  0.76984740  0.53023688  1
  O2-  O324  1  0.06577995  0.59407186  0.04892389  1
  O2-  O325  1  0.93492350  0.40327877  0.47247956  1
  O2-  O326  1  0.06342248  0.26445437  0.96867614  1
  O2-  O327  1  0.07158751  0.72320977  0.30069785  1
  O2-  O328  1  0.44561801  0.08394191  0.45096974  1
  O2-  O329  1  0.06559783  0.07117631  0.77797601  1
  O2-  O330  1  0.43569600  0.26116418  0.71962733  1
  O2-  O331  1  0.56523610  0.73845317  0.22154403  1
  O2-  O332  1  0.93570737  0.06858901  0.96729799  1
  O2-  O333  1  0.07025882  0.72725446  0.45123144  1
  O2-  O334  1  0.07754330  0.28779281  0.45622428  1
  O2-  O335  1  0.55138400  0.42157788  0.95992796  1
  O2-  O336  1  0.06904221  0.27438421  0.68323793  1
  O2-  O337  1  0.56547627  0.92798321  0.52884713  1
  O2-  O338  1  0.06430486  0.59647364  0.46797533  1
  O2-  O339  1  0.57276491  0.39672515  0.54357958  1
  O2-  O340  1  0.55095025  0.57485302  0.76689977  1
  O2-  O341  1  0.43597970  0.06924215  0.28305848  1
  O2-  O342  1  0.43657339  0.40196927  0.05697926  1
  O2-  O343  1  0.55433006  0.91521918  0.20433571  1
  O2-  O344  1  0.57192857  0.26665391  0.70892440  1
  O2-  O345  1  0.42417807  0.06534173  0.56993151  1
  O2-  O346  1  0.56305792  0.26369532  0.96844298  1
  O2-  O347  1  0.56505171  0.92978327  0.80623979  1
  O2-  O348  1  0.07507438  0.28822543  0.81251082  1
  O2-  O349  1  0.57059030  0.93867947  0.07199235  1
  O2-  O350  1  0.07449866  0.27998699  0.20448220  1
  O2-  O351  1  0.92233217  0.37669841  0.69909631  1
  O2-  O352  1  0.43551365  0.59826300  0.21810088  1
  O2-  O353  1  0.55025297  0.91806805  0.95898122  1
  O2-  O354  1  0.56479809  0.73954961  0.47056018  1
  O2-  O355  1  0.93086866  0.73275266  0.46840179  1
  O2-  O356  1  0.43553873  0.06850741  0.78241939  1
  O2-  O357  1  0.43545428  0.40182559  0.94239351  1
  O2-  O358  1  0.57319098  0.93567039  0.31857277  1
  O2-  O359  1  0.56403148  0.07049387  0.95031691  1
  O2-  O360  1  0.07237642  0.06294066  0.95628258  1
  O2-  O361  1  0.05601610  0.75337562  0.72647230  1
  O2-  O362  1  0.06400246  0.59646779  0.94552879  1
  O2-  O363  1  0.56372882  0.40652847  0.72223254  1
  O2-  O364  1  0.56391636  0.07027352  0.78177579  1
  O2-  O365  1  0.56412316  0.07186536  0.04902669  1
  O2-  O366  1  0.57265643  0.72838690  0.79512897  1
  O2-  O367  1  0.43463758  0.59410309  0.72162291  1
  O2-  O368  1  0.93467690  0.92831416  0.72237177  1
  O2-  O369  1  0.42614963  0.39680947  0.54366525  1
  O2-  O370  1  0.56925078  0.39543410  0.06238753  1
  O2-  O371  1  0.56689443  0.92718013  0.69974799  1
  O2-  O372  1  0.75029543  -0.00125928  0.15318431  1
  O2-  O373  1  0.24997487  0.34880715  0.33860460  1
  O2-  O374  1  0.74994806  0.66615717  0.65774910  1
  O2-  O375  1  0.25000336  0.67302194  0.89741057  1
  O2-  O376  1  0.75001288  0.00056637  0.65357245  1
  O2-  O377  1  0.24995976  0.68006825  0.08398800  1
  O2-  O378  1  0.24993180  0.66419101  0.17561616  1
  O2-  O379  1  0.75001727  0.66048816  0.91496326  1
  O2-  O380  1  0.75017765  0.00058696  0.42224676  1
  O2-  O381  1  0.74994984  0.33359777  0.40364554  1
  O2-  O382  1  0.25019471  0.66562357  0.40691901  1
  O2-  O383  1  0.24985640  -0.01901814  0.33887843  1
  O2-  O384  1  0.24991353  0.00083254  0.07525393  1
  O2-  O385  1  0.24979125  0.00939712  0.42210627  1
  O2-  O386  1  0.75000276  0.66864054  0.82191719  1
  O2-  O387  1  0.25003219  0.33304029  0.42858606  1
  O2-  O388  1  0.75020368  -0.00216892  0.90421864  1
  O2-  O389  1  0.24988761  -0.01345856  0.16163652  1
  O2-  O390  1  0.75017922  -0.00240589  0.33105010  1
  O2-  O391  1  0.75004339  0.33148543  0.84210164  1
  O2-  O392  1  0.24997253  0.33884283  0.14628028  1
  O2-  O393  1  0.75007082  0.66553201  0.40077112  1
  O2-  O394  1  0.25013462  0.00231281  0.85515450  1
  O2-  O395  1  0.75018807  0.66337340  0.09927800  1
  O2-  O396  1  0.25003196  0.50067563  0.87565596  1
  O2-  O397  1  0.25004554  0.50082121  0.59278745  1
  O2-  O398  1  0.25009435  0.84103918  0.62144130  1
  O2-  O399  1  0.24991305  0.16703899  0.34534289  1
  O2-  O400  1  0.74997399  0.49904333  0.17262947  1
  O2-  O401  1  0.24990244  0.83869825  0.18760613  1
  O2-  O402  1  0.74999126  0.49979670  0.08245188  1
  O2-  O403  1  0.25011398  0.16320797  0.43406385  1
  O2-  O404  1  0.25001006  0.83395340  0.87525933  1
  O2-  O405  1  0.74988477  0.50197111  0.40629896  1
  O2-  O406  1  0.25005619  0.50194415  0.12765602  1
  O2-  O407  1  0.74999420  0.49921666  0.82861627  1
  O2-  O408  1  0.24990548  0.83902700  0.39475008  1
  O2-  O409  1  0.75006989  0.50000247  0.91783977  1
  O2-  O410  1  0.74999898  0.17243355  0.88644619  1
  O2-  O411  1  0.25001563  0.16454379  0.63857469  1
  O2-  O412  1  0.74981598  0.83887571  0.83177598  1
  O2-  O413  1  0.74992675  0.50136597  0.59418515  1
  O2-  O414  1  0.24994634  0.83905501  0.31415035  1
  O2-  O415  1  0.25005406  0.83194855  0.10902039  1
  O2-  O416  1  0.75004088  0.82791666  0.14689445  1
  O2-  O417  1  0.74992719  0.16980426  0.34012444  1
  O2-  O418  1  0.74984893  0.82595093  0.91641830  1
  O2-  O419  1  0.74995441  0.17083554  0.16254058  1
  O2-  O420  1  0.52582527  0.66340027  0.12199379  1
  O2-  O421  1  0.47075204  -0.00033626  0.12492645  1
  O2-  O422  1  0.96494498  -0.00206393  0.37659527  1
  O2-  O423  1  0.52355925  0.66647720  0.88335994  1
  O2-  O424  1  0.97184994  0.66672032  0.62756148  1
  O2-  O425  1  0.03541851  0.00139414  0.37339984  1
  O2-  O426  1  0.97426071  0.33334677  0.37083354  1
  O2-  O427  1  0.46394359  0.66893275  0.62246794  1
  O2-  O428  1  0.97235906  0.33135240  0.87536135  1
  O2-  O429  1  0.97222500  0.66681741  0.87499742  1
  O2-  O430  1  0.53818806  0.66537981  0.62251980  1
  O2-  O431  1  0.52505802  0.00378995  0.38047625  1
  O2-  O432  1  0.46994703  0.33356228  0.62621789  1
  O2-  O433  1  0.53217394  0.00817125  0.62158043  1
  O2-  O434  1  0.46750768  -0.00793905  0.63172470  1
  O2-  O435  1  0.97345085  0.33285835  0.12269014  1
  O2-  O436  1  0.52757995  0.33095104  0.62348314  1
  O2-  O437  1  0.52817359  0.33230497  0.37445245  1
  O2-  O438  1  0.97461782  0.00074866  0.62280987  1
  O2-  O439  1  0.02533455  0.67012859  0.12803123  1
  O2-  O440  1  0.53483700  0.66457929  0.37307345  1
  O2-  O441  1  0.97318207  0.66436615  0.36908049  1
  O2-  O442  1  0.02277841  -0.00679786  0.87472755  1
  O2-  O443  1  0.46280012  0.66769678  0.37382427  1
