# generated using pymatgen
data_La7(Ru4O11)2
_symmetry_space_group_name_H-M   'P 1'
_cell_length_a   23.99534707
_cell_length_b   16.83603101
_cell_length_c   15.43057778
_cell_angle_alpha   90.00282143
_cell_angle_beta   89.99972298
_cell_angle_gamma   89.99591238
_symmetry_Int_Tables_number   1
_chemical_formula_structural   La7(Ru4O11)2
_chemical_formula_sum   'La84 Ru96 O264'
_cell_volume   6233.74365766
_cell_formula_units_Z   12
loop_
 _symmetry_equiv_pos_site_id
 _symmetry_equiv_pos_as_xyz
  1  'x, y, z'
loop_
 _atom_type_symbol
 _atom_type_oxidation_number
  La3+  3.0
  Ru4+  4.0
  O2-  -2.0
loop_
 _atom_site_type_symbol
 _atom_site_label
 _atom_site_symmetry_multiplicity
 _atom_site_fract_x
 _atom_site_fract_y
 _atom_site_fract_z
 _atom_site_occupancy
  La3+  La0  1  0.13773302  -0.00062559  0.12967812  1
  La3+  La1  1  0.15012317  -0.00479274  0.37808436  1
  La3+  La2  1  0.13743917  -0.00304655  0.61886335  1
  La3+  La3  1  0.13397254  -0.00014726  0.87322001  1
  La3+  La4  1  0.13172460  0.33353318  0.12866312  1
  La3+  La5  1  0.14027564  0.33816949  0.37237355  1
  La3+  La6  1  0.14100201  0.33102660  0.62389142  1
  La3+  La7  1  0.13733289  0.33246252  0.87332731  1
  La3+  La8  1  0.13532937  0.67522965  0.13089663  1
  La3+  La9  1  0.14350024  0.67289901  0.38133055  1
  La3+  La10  1  0.14014198  0.66765943  0.61654245  1
  La3+  La11  1  0.13444863  0.66583938  0.87589861  1
  La3+  La12  1  0.63559786  0.00406561  0.12106966  1
  La3+  La13  1  0.62748956  -0.00489151  0.37552053  1
  La3+  La14  1  0.64447810  0.00200828  0.63743979  1
  La3+  La15  1  0.63226904  0.00749889  0.87912845  1
  La3+  La16  1  0.64389378  0.34082160  0.12314833  1
  La3+  La17  1  0.63847313  0.33617404  0.37269399  1
  La3+  La18  1  0.63550506  0.32969703  0.62337172  1
  La3+  La19  1  0.64245219  0.33491556  0.87858039  1
  La3+  La20  1  0.63784912  0.66285675  0.12264019  1
  La3+  La21  1  0.64557479  0.67328848  0.37220343  1
  La3+  La22  1  0.62878365  0.67090739  0.63189722  1
  La3+  La23  1  0.64065838  0.66925674  0.87089242  1
  La3+  La24  1  0.36720387  0.00077671  0.12466860  1
  La3+  La25  1  0.35972078  -0.00512890  0.38024312  1
  La3+  La26  1  0.36986359  0.00337983  0.61447270  1
  La3+  La27  1  0.35993099  0.00347115  0.87629778  1
  La3+  La28  1  0.37023172  0.33567378  0.12808383  1
  La3+  La29  1  0.35827777  0.33435283  0.37375966  1
  La3+  La30  1  0.37278638  0.33070633  0.62164219  1
  La3+  La31  1  0.35687546  0.33635204  0.87184438  1
  La3+  La32  1  0.36798482  0.67081296  0.12785265  1
  La3+  La33  1  0.34873011  0.67375049  0.37689492  1
  La3+  La34  1  0.36189306  0.67332812  0.61946537  1
  La3+  La35  1  0.36526075  0.66692614  0.87768138  1
  La3+  La36  1  0.85445242  0.00017101  0.12152040  1
  La3+  La37  1  0.86104217  -0.01018352  0.37962705  1
  La3+  La38  1  0.85418755  -0.00792973  0.63027601  1
  La3+  La39  1  0.85924325  0.00037475  0.87618844  1
  La3+  La40  1  0.85835823  0.33234203  0.12772635  1
  La3+  La41  1  0.85845734  0.33836827  0.37411065  1
  La3+  La42  1  0.86758189  0.33161308  0.62224391  1
  La3+  La43  1  0.85204855  0.32917678  0.87825883  1
  La3+  La44  1  0.84903334  0.65835373  0.12262049  1
  La3+  La45  1  0.85716384  0.66511127  0.37602124  1
  La3+  La46  1  0.86022231  0.66562011  0.63086719  1
  La3+  La47  1  0.85656987  0.66750327  0.87687820  1
  La3+  La48  1  0.00410253  0.51301410  0.61141125  1
  La3+  La49  1  0.00181673  0.15964739  0.12029400  1
  La3+  La50  1  0.50334662  0.50670151  0.37036694  1
  La3+  La51  1  0.00418631  0.50765421  0.13763998  1
  La3+  La52  1  0.48972956  0.83181028  0.36290172  1
  La3+  La53  1  0.49355113  0.49560965  0.62937525  1
  La3+  La54  1  0.50283648  0.49837992  0.88580904  1
  La3+  La55  1  -0.00667783  0.52140536  0.37209580  1
  La3+  La56  1  -0.00367572  0.17159484  0.36525959  1
  La3+  La57  1  0.50559734  0.16847965  0.88946138  1
  La3+  La58  1  -0.00086193  0.50127121  0.87195405  1
  La3+  La59  1  0.49931890  0.16945884  0.62069007  1
  La3+  La60  1  0.49947993  0.15944827  0.38103622  1
  La3+  La61  1  0.49557957  0.15683010  0.87930701  1
  La3+  La62  1  0.00146754  0.49862098  0.11795165  1
  La3+  La63  1  0.51203280  0.83289301  0.13877144  1
  La3+  La64  1  0.00494509  0.82028095  0.35961052  1
  La3+  La65  1  -0.00193679  0.16594230  0.64598777  1
  La3+  La66  1  -0.00622387  0.17048171  0.62526467  1
  La3+  La67  1  0.00672990  0.83903632  0.87267744  1
  La3+  La68  1  0.00671077  0.82744522  0.63181127  1
  La3+  La69  1  0.50493996  0.83751381  0.62000054  1
  La3+  La70  1  -0.00459802  0.17008081  0.11207051  1
  La3+  La71  1  0.50431093  0.82972739  0.87198769  1
  La3+  La72  1  0.75053870  0.20476993  0.50960767  1
  La3+  La73  1  0.24746191  0.89175590  0.02700801  1
  La3+  La74  1  0.25071586  0.22933621  0.24006970  1
  La3+  La75  1  0.74871657  0.43677077  0.75518397  1
  La3+  La76  1  0.24982839  0.82512245  0.76263701  1
  La3+  La77  1  0.24726961  0.21776304  0.72250429  1
  La3+  La78  1  0.74817406  0.49927595  0.21194398  1
  La3+  La79  1  0.24976868  0.50638900  0.10617905  1
  La3+  La80  1  0.24944900  0.53943659  0.49472491  1
  La3+  La81  1  0.24838548  0.09666981  -0.00867369  1
  La3+  La82  1  0.74890681  0.12715420  0.28510687  1
  La3+  La83  1  0.75109499  0.49442315  0.58325519  1
  Ru4+  Ru84  1  -0.00040527  -0.00420330  -0.00338175  1
  Ru4+  Ru85  1  -0.00394876  -0.00621558  0.24511209  1
  Ru4+  Ru86  1  -0.00109390  -0.00629827  0.49078090  1
  Ru4+  Ru87  1  -0.00122844  0.00450460  0.75464689  1
  Ru4+  Ru88  1  0.00886610  0.32801701  -0.00680577  1
  Ru4+  Ru89  1  -0.00210498  0.33211957  0.25145700  1
  Ru4+  Ru90  1  0.00694317  0.33962644  0.51205435  1
  Ru4+  Ru91  1  -0.00488897  0.34376936  0.76100343  1
  Ru4+  Ru92  1  -0.00878626  0.68648753  0.00329996  1
  Ru4+  Ru93  1  -0.00479353  0.68926382  0.25327187  1
  Ru4+  Ru94  1  -0.00665092  0.67976791  0.51304370  1
  Ru4+  Ru95  1  0.00105559  0.66390473  0.74419277  1
  Ru4+  Ru96  1  0.49541323  -0.01149576  0.00912785  1
  Ru4+  Ru97  1  0.49842746  0.01129302  0.25232742  1
  Ru4+  Ru98  1  0.50272834  -0.00688390  0.49936987  1
  Ru4+  Ru99  1  0.49459044  -0.00755233  0.74328198  1
  Ru4+  Ru100  1  0.49153324  0.32895471  0.00132516  1
  Ru4+  Ru101  1  0.49814008  0.34386973  0.26539173  1
  Ru4+  Ru102  1  0.50478873  0.33541552  0.48576308  1
  Ru4+  Ru103  1  0.49518795  0.33613710  0.74701220  1
  Ru4+  Ru104  1  0.50168611  0.66301278  0.00053325  1
  Ru4+  Ru105  1  0.50550901  0.64297919  0.23482716  1
  Ru4+  Ru106  1  0.50080727  0.65805667  0.51195108  1
  Ru4+  Ru107  1  0.49826293  0.66423301  0.74637852  1
  Ru4+  Ru108  1  0.10571497  0.17310229  0.00102612  1
  Ru4+  Ru109  1  0.11248721  0.16077867  0.24657267  1
  Ru4+  Ru110  1  0.11013692  0.17234942  0.49614483  1
  Ru4+  Ru111  1  0.10272676  0.16348597  0.74979641  1
  Ru4+  Ru112  1  0.10948167  0.49360836  -0.00015965  1
  Ru4+  Ru113  1  0.11454025  0.50173005  0.24761257  1
  Ru4+  Ru114  1  0.10769734  0.48856593  0.50038773  1
  Ru4+  Ru115  1  0.11029843  0.50125173  0.75832972  1
  Ru4+  Ru116  1  0.10679736  0.83066734  -0.00378163  1
  Ru4+  Ru117  1  0.11370975  0.82708076  0.24747134  1
  Ru4+  Ru118  1  0.11430315  0.83472629  0.50367554  1
  Ru4+  Ru119  1  0.10726001  0.83479072  0.74607429  1
  Ru4+  Ru120  1  0.61960140  0.16569639  0.00199949  1
  Ru4+  Ru121  1  0.61067883  0.17085490  0.24593078  1
  Ru4+  Ru122  1  0.61430572  0.16554164  0.50175529  1
  Ru4+  Ru123  1  0.61834632  0.17072955  0.74487287  1
  Ru4+  Ru124  1  0.61323390  0.49834024  0.00244542  1
  Ru4+  Ru125  1  0.60310885  0.50937820  0.24920109  1
  Ru4+  Ru126  1  0.61484664  0.49849667  0.49811212  1
  Ru4+  Ru127  1  0.60931496  0.50230109  0.75181791  1
  Ru4+  Ru128  1  0.61492392  0.83686326  -0.00356262  1
  Ru4+  Ru129  1  0.61899907  0.83414387  0.24943635  1
  Ru4+  Ru130  1  0.61598138  0.84280404  0.50934375  1
  Ru4+  Ru131  1  0.62038208  0.84180391  0.75081885  1
  Ru4+  Ru132  1  0.39604859  0.17294567  0.01308287  1
  Ru4+  Ru133  1  0.38833035  0.16617349  0.24681253  1
  Ru4+  Ru134  1  0.37931359  0.16463236  0.49911564  1
  Ru4+  Ru135  1  0.38572224  0.16879387  0.74662749  1
  Ru4+  Ru136  1  0.38952747  0.50009329  0.00180170  1
  Ru4+  Ru137  1  0.38801514  0.49487707  0.24084241  1
  Ru4+  Ru138  1  0.39080812  0.49614937  0.49892261  1
  Ru4+  Ru139  1  0.38753407  0.50220393  0.74978205  1
  Ru4+  Ru140  1  0.39360748  0.83468025  -0.00235059  1
  Ru4+  Ru141  1  0.38308494  0.83786405  0.25141087  1
  Ru4+  Ru142  1  0.38413735  0.83423757  0.50105207  1
  Ru4+  Ru143  1  0.39120239  0.83760131  0.74940005  1
  Ru4+  Ru144  1  0.88655018  0.16208119  -0.00206531  1
  Ru4+  Ru145  1  0.88671141  0.16723950  0.25135133  1
  Ru4+  Ru146  1  0.89123760  0.16111200  0.50444747  1
  Ru4+  Ru147  1  0.88957504  0.16269433  0.74724485  1
  Ru4+  Ru148  1  0.88211573  0.50004482  -0.00258546  1
  Ru4+  Ru149  1  0.88521527  0.50316225  0.25258539  1
  Ru4+  Ru150  1  0.88681747  0.49853992  0.50038485  1
  Ru4+  Ru151  1  0.89435091  0.49460422  0.75673394  1
  Ru4+  Ru152  1  0.89308919  0.82441035  0.00510666  1
  Ru4+  Ru153  1  0.89494754  0.82740646  0.24170797  1
  Ru4+  Ru154  1  0.89244466  0.83049731  0.50324655  1
  Ru4+  Ru155  1  0.88482162  0.83433747  0.75107482  1
  Ru4+  Ru156  1  0.74884036  0.27759275  0.24610911  1
  Ru4+  Ru157  1  0.24971624  0.24858979  0.01112560  1
  Ru4+  Ru158  1  0.24958630  0.24465671  0.49752430  1
  Ru4+  Ru159  1  0.75194476  0.23859432  0.76012915  1
  Ru4+  Ru160  1  0.25064856  0.57630730  0.25820388  1
  Ru4+  Ru161  1  0.24985618  0.39669232  0.00939163  1
  Ru4+  Ru162  1  0.24901310  0.60189304  -0.01188857  1
  Ru4+  Ru163  1  0.74920869  0.38240906  0.48342668  1
  Ru4+  Ru164  1  0.75111757  0.74717305  0.22865504  1
  Ru4+  Ru165  1  0.74847426  0.76380658  -0.01839960  1
  Ru4+  Ru166  1  0.75042204  0.24729230  -0.01036103  1
  Ru4+  Ru167  1  0.24970355  0.68564100  0.76459392  1
  Ru4+  Ru168  1  0.24832095  0.08533802  0.77324920  1
  Ru4+  Ru169  1  0.75108836  0.91692463  0.23223871  1
  Ru4+  Ru170  1  0.25102236  0.05340963  0.24848545  1
  Ru4+  Ru171  1  0.25129080  0.56367689  0.71785402  1
  Ru4+  Ru172  1  0.74894841  0.77349348  0.52708300  1
  Ru4+  Ru173  1  0.75016614  0.60139827  0.74441680  1
  Ru4+  Ru174  1  0.24912070  0.42036873  0.72660433  1
  Ru4+  Ru175  1  0.74906488  0.60883635  0.49397455  1
  Ru4+  Ru176  1  0.25071218  0.74518245  0.00567544  1
  Ru4+  Ru177  1  0.25146161  0.95831230  0.73562733  1
  Ru4+  Ru178  1  0.25153498  0.38426029  0.49075105  1
  Ru4+  Ru179  1  0.75113997  0.05389159  0.52899754  1
  O2-  O180  1  0.15290555  0.07553467  -0.00041349  1
  O2-  O181  1  0.17022049  0.08103344  0.24791364  1
  O2-  O182  1  0.15795634  0.08387753  0.49926987  1
  O2-  O183  1  0.16470354  0.08228880  0.75139483  1
  O2-  O184  1  0.16563575  0.41007388  0.00489294  1
  O2-  O185  1  0.16696441  0.41267327  0.23933259  1
  O2-  O186  1  0.17132095  0.41458238  0.49679941  1
  O2-  O187  1  0.16197258  0.41588430  0.74612423  1
  O2-  O188  1  0.16798645  0.74997179  0.00681229  1
  O2-  O189  1  0.17000691  0.74891661  0.24627667  1
  O2-  O190  1  0.16750559  0.75172224  0.50205013  1
  O2-  O191  1  0.16136701  0.74461696  0.75378718  1
  O2-  O192  1  0.66739599  0.07957448  -0.00213235  1
  O2-  O193  1  0.66414283  0.07798728  0.25152275  1
  O2-  O194  1  0.67120335  0.08028368  0.50320458  1
  O2-  O195  1  0.66633711  0.08439468  0.75701199  1
  O2-  O196  1  0.66342025  0.41194869  -0.00180494  1
  O2-  O197  1  0.66151568  0.41859039  0.24879325  1
  O2-  O198  1  0.66631490  0.41036967  0.50132509  1
  O2-  O199  1  0.65655300  0.40707556  0.74805135  1
  O2-  O200  1  0.66624665  0.74919556  -0.00148405  1
  O2-  O201  1  0.66766596  0.74844397  0.23868688  1
  O2-  O202  1  0.66339761  0.75063358  0.51031251  1
  O2-  O203  1  0.66471342  0.75199106  0.75208795  1
  O2-  O204  1  0.33223443  0.24920564  0.00664505  1
  O2-  O205  1  0.34339007  0.26027974  0.24689543  1
  O2-  O206  1  0.33300528  0.25403988  0.50054342  1
  O2-  O207  1  0.33783429  0.25976634  0.74377637  1
  O2-  O208  1  0.33331047  0.58944854  0.00423494  1
  O2-  O209  1  0.33433628  0.58444486  0.24761105  1
  O2-  O210  1  0.33831792  0.58894380  0.50226361  1
  O2-  O211  1  0.33521828  0.58638167  0.75164452  1
  O2-  O212  1  0.33730213  0.92259968  0.00523597  1
  O2-  O213  1  0.33155528  0.91772894  0.24584798  1
  O2-  O214  1  0.33295678  0.92091228  0.50271184  1
  O2-  O215  1  0.33487498  0.92294822  0.74692104  1
  O2-  O216  1  0.83316094  0.25130398  0.00264579  1
  O2-  O217  1  0.83125607  0.25224642  0.25425228  1
  O2-  O218  1  0.83554695  0.25522520  0.50016990  1
  O2-  O219  1  0.83389646  0.25156438  0.74472838  1
  O2-  O220  1  0.83429505  0.58537371  -0.00557905  1
  O2-  O221  1  0.83106794  0.58229853  0.25135425  1
  O2-  O222  1  0.83124941  0.58677345  0.50336045  1
  O2-  O223  1  0.83181049  0.58028007  0.75355945  1
  O2-  O224  1  0.84330287  0.91450668  -0.00188881  1
  O2-  O225  1  0.83838469  0.91468289  0.24666798  1
  O2-  O226  1  0.83883251  0.91298226  0.50503582  1
  O2-  O227  1  0.83598890  0.92068705  0.75556759  1
  O2-  O228  1  0.16408157  0.25140441  0.00102458  1
  O2-  O229  1  0.15742471  0.25806993  0.24983208  1
  O2-  O230  1  0.16759784  0.25366044  0.49675808  1
  O2-  O231  1  0.15338005  0.25595587  0.75449486  1
  O2-  O232  1  0.16525478  0.58997022  0.00315076  1
  O2-  O233  1  0.16672456  0.58740750  0.24361184  1
  O2-  O234  1  0.15965776  0.58068060  0.49913536  1
  O2-  O235  1  0.16809202  0.58474877  0.74522383  1
  O2-  O236  1  0.15327456  0.92309157  -0.00021057  1
  O2-  O237  1  0.15962382  0.91816301  0.24770669  1
  O2-  O238  1  0.16679754  0.92096296  0.50025052  1
  O2-  O239  1  0.16913389  0.92396618  0.75036485  1
  O2-  O240  1  0.66816952  0.25488567  0.00004037  1
  O2-  O241  1  0.66606705  0.25354504  0.25138731  1
  O2-  O242  1  0.66608533  0.25620070  0.50341564  1
  O2-  O243  1  0.67008343  0.25472699  0.74529947  1
  O2-  O244  1  0.66165112  0.58609244  -0.00137143  1
  O2-  O245  1  0.66531100  0.58292494  0.24098301  1
  O2-  O246  1  0.66743512  0.58749526  0.50437450  1
  O2-  O247  1  0.66808556  0.58569777  0.74740725  1
  O2-  O248  1  0.66655316  0.92207833  -0.00263218  1
  O2-  O249  1  0.66671659  0.92126654  0.24677240  1
  O2-  O250  1  0.66610521  0.91923345  0.49948112  1
  O2-  O251  1  0.67038473  0.92237855  0.75953105  1
  O2-  O252  1  0.34208370  0.08430026  0.00047867  1
  O2-  O253  1  0.33148460  0.07875875  0.24690580  1
  O2-  O254  1  0.33449238  0.07659428  0.50176664  1
  O2-  O255  1  0.33202571  0.08172557  0.74425805  1
  O2-  O256  1  0.33312242  0.41253221  0.00933068  1
  O2-  O257  1  0.33130428  0.41561634  0.24226155  1
  O2-  O258  1  0.33299959  0.41301418  0.50457775  1
  O2-  O259  1  0.33231381  0.41526621  0.73706971  1
  O2-  O260  1  0.33369679  0.75057006  0.00213427  1
  O2-  O261  1  0.33836835  0.74565249  0.24286948  1
  O2-  O262  1  0.33363594  0.75014910  0.49950951  1
  O2-  O263  1  0.33587784  0.74218214  0.75474909  1
  O2-  O264  1  0.83608154  0.07846067  -0.00374939  1
  O2-  O265  1  0.83900268  0.07896525  0.25372517  1
  O2-  O266  1  0.83376279  0.07905071  0.50157125  1
  O2-  O267  1  0.83848101  0.07902283  0.75278977  1
  O2-  O268  1  0.83738704  0.41023397  0.00141596  1
  O2-  O269  1  0.83391210  0.41262387  0.24773802  1
  O2-  O270  1  0.83019791  0.41209596  0.50476169  1
  O2-  O271  1  0.84000646  0.40895000  0.74201905  1
  O2-  O272  1  0.82839109  0.75523830  -0.00379512  1
  O2-  O273  1  0.83319952  0.74988536  0.23990308  1
  O2-  O274  1  0.82709062  0.75625101  0.50638524  1
  O2-  O275  1  0.83847821  0.74803089  0.75263465  1
  O2-  O276  1  0.54216582  0.75303403  0.25073848  1
  O2-  O277  1  0.96916966  0.45019911  0.72203857  1
  O2-  O278  1  0.04038035  0.42927692  0.44465353  1
  O2-  O279  1  0.04518020  0.57306695  0.00132141  1
  O2-  O280  1  0.94896425  0.90829690  0.26673069  1
  O2-  O281  1  0.44503839  0.58218825  0.98102907  1
  O2-  O282  1  0.55064532  0.10115393  0.25761127  1
  O2-  O283  1  0.96575688  0.77613735  0.18804143  1
  O2-  O284  1  0.45174568  0.56935242  0.47852386  1
  O2-  O285  1  0.45011444  0.09669419  0.73231681  1
  O2-  O286  1  0.55324600  0.90791604  -0.00650328  1
  O2-  O287  1  0.55424131  0.77271567  0.74164070  1
  O2-  O288  1  0.55213281  0.09659065  0.73035383  1
  O2-  O289  1  0.53997273  0.54190919  0.18701186  1
  O2-  O290  1  0.54539695  0.56846909  0.54860003  1
  O2-  O291  1  0.55232415  0.42126360  0.25399176  1
  O2-  O292  1  0.54951265  0.24164702  0.75679343  1
  O2-  O293  1  0.44467737  0.57477070  0.24152392  1
  O2-  O294  1  0.54616449  0.43181166  0.49564682  1
  O2-  O295  1  0.55481970  0.57554266  0.98348223  1
  O2-  O296  1  0.04474508  0.09531682  0.01290499  1
  O2-  O297  1  0.54829989  0.10343031  0.23768125  1
  O2-  O298  1  0.54635932  0.42904539  0.75225838  1
  O2-  O299  1  0.45637911  0.88405396  0.04817060  1
  O2-  O300  1  0.04009217  0.58155872  0.48924782  1
  O2-  O301  1  0.55098301  0.41359007  0.01538284  1
  O2-  O302  1  0.45363762  0.76580738  0.74981965  1
  O2-  O303  1  0.97727400  0.80447814  0.49614207  1
  O2-  O304  1  0.95418567  0.89997078  0.74198252  1
  O2-  O305  1  0.95383721  0.09970255  0.23796679  1
  O2-  O306  1  0.05728945  0.57685969  0.51747659  1
  O2-  O307  1  0.94685907  0.23881912  0.20640456  1
  O2-  O308  1  0.97416856  0.81187790  -0.00092310  1
  O2-  O309  1  0.55465210  0.09388371  0.98586844  1
  O2-  O310  1  0.55224609  0.89747703  0.26952339  1
  O2-  O311  1  0.44533556  0.42397379  0.99394786  1
  O2-  O312  1  0.54011289  0.89507143  0.45693622  1
  O2-  O313  1  0.95534828  0.42821989  0.00430656  1
  O2-  O314  1  0.54773216  0.76252556  0.00638608  1
  O2-  O315  1  0.54956119  0.09172147  0.76923461  1
  O2-  O316  1  0.44836949  0.10185314  0.50988451  1
  O2-  O317  1  0.94954300  0.42796753  0.23640999  1
  O2-  O318  1  0.47424680  0.22312629  0.05517556  1
  O2-  O319  1  0.04663534  0.23407923  0.24169994  1
  O2-  O320  1  0.45748410  0.23963882  0.49010519  1
  O2-  O321  1  0.05020880  0.42660690  0.26895054  1
  O2-  O322  1  0.44427246  0.09600657  0.24797875  1
  O2-  O323  1  0.04225145  0.09632312  0.51167105  1
  O2-  O324  1  0.93878963  0.41154310  0.52691234  1
  O2-  O325  1  0.06080150  0.59186891  0.79328969  1
  O2-  O326  1  0.43381055  0.25007298  0.48299145  1
  O2-  O327  1  0.44389327  0.74654630  0.51620225  1
  O2-  O328  1  0.06044771  0.07004577  0.21283456  1
  O2-  O329  1  0.44063399  0.06810032  0.51622676  1
  O2-  O330  1  0.91219461  0.71802002  0.52554370  1
  O2-  O331  1  0.43990867  0.25284091  0.77588765  1
  O2-  O332  1  0.94273409  0.57993891  0.04151602  1
  O2-  O333  1  0.56116633  0.90166946  0.43654224  1
  O2-  O334  1  0.92979943  0.37823824  0.82676717  1
  O2-  O335  1  0.56161802  0.24858617  0.48909930  1
  O2-  O336  1  0.57305484  0.61862542  0.29140645  1
  O2-  O337  1  0.56040542  0.93118121  0.27372425  1
  O2-  O338  1  0.06586371  0.24766308  0.57823918  1
  O2-  O339  1  0.43501850  0.73463915  0.03110045  1
  O2-  O340  1  0.94360370  0.24958488  0.52165444  1
  O2-  O341  1  0.93855961  0.57828382  0.53200049  1
  O2-  O342  1  0.93484270  0.92988576  0.47552782  1
  O2-  O343  1  0.94123109  0.59308249  0.25856242  1
  O2-  O344  1  0.43989134  0.92352658  0.28364496  1
  O2-  O345  1  0.56269250  0.73886962  0.73982226  1
  O2-  O346  1  0.42267237  0.26707811  0.94343490  1
  O2-  O347  1  0.05928254  0.92711417  0.53582605  1
  O2-  O348  1  0.56144598  0.08000541  0.48481258  1
  O2-  O349  1  0.42430511  0.92106336  0.92544600  1
  O2-  O350  1  0.93383011  0.58862706  0.73403652  1
  O2-  O351  1  0.94019369  0.27868621  0.34806194  1
  O2-  O352  1  0.43804280  0.07336918  0.02120821  1
  O2-  O353  1  0.56965035  0.94190709  0.58496464  1
  O2-  O354  1  0.91648368  0.71437829  0.04116791  1
  O2-  O355  1  0.55891929  0.07246387  0.95512159  1
  O2-  O356  1  0.56309086  0.75146491  0.22874720  1
  O2-  O357  1  0.55755642  0.58825465  0.72722571  1
  O2-  O358  1  0.06381440  0.73541693  0.20904703  1
  O2-  O359  1  0.93960472  0.25493383  0.17310259  1
  O2-  O360  1  0.56905229  0.57155993  0.56204048  1
  O2-  O361  1  0.55302939  0.62869479  0.42235396  1
  O2-  O362  1  0.43849650  0.40220300  0.20813794  1
  O2-  O363  1  0.07021883  0.40342700  0.57759125  1
  O2-  O364  1  0.55580708  0.91824107  0.74349479  1
  O2-  O365  1  0.43579611  0.41510250  0.72300321  1
  O2-  O366  1  0.06246331  0.25986288  0.42453399  1
  O2-  O367  1  0.06310588  0.92926814  0.71709554  1
  O2-  O368  1  0.06358757  0.73487472  0.96176885  1
  O2-  O369  1  0.43880644  0.92227245  0.46743352  1
  O2-  O370  1  0.06532223  0.74204228  0.47443732  1
  O2-  O371  1  0.92348221  0.74403716  0.31427410  1
  O2-  O372  1  0.25027527  -0.00377877  0.35300862  1
  O2-  O373  1  0.24767028  0.33240163  0.79027731  1
  O2-  O374  1  0.24869407  -0.01040767  0.88777733  1
  O2-  O375  1  0.25063672  0.65862477  0.63245125  1
  O2-  O376  1  0.75201686  -0.00360490  0.30794867  1
  O2-  O377  1  0.25036362  0.66152522  0.41944230  1
  O2-  O378  1  0.74853917  0.68786755  0.10611520  1
  O2-  O379  1  0.75023512  0.68031219  0.83320824  1
  O2-  O380  1  0.75130241  -0.00244568  0.14303508  1
  O2-  O381  1  0.24936564  0.67122482  0.32765994  1
  O2-  O382  1  0.74964545  0.65724214  0.28539474  1
  O2-  O383  1  0.74931316  0.66510963  0.61428395  1
  O2-  O384  1  0.74976281  0.66110429  0.92132740  1
  O2-  O385  1  0.24943105  0.32178192  0.91844257  1
  O2-  O386  1  0.74927074  0.33624194  0.14064762  1
  O2-  O387  1  0.24869278  0.32778922  0.37204981  1
  O2-  O388  1  0.74888309  0.33018669  0.61378884  1
  O2-  O389  1  0.25131404  0.67575306  0.88869895  1
  O2-  O390  1  0.75304616  0.01060246  0.63858067  1
  O2-  O391  1  0.24833409  0.00392332  0.11947281  1
  O2-  O392  1  0.74916908  0.30929063  0.37525970  1
  O2-  O393  1  0.75242440  -0.00673992  0.43717486  1
  O2-  O394  1  0.74874306  0.69699358  0.42037746  1
  O2-  O395  1  0.74847677  0.33322322  0.85130562  1
  O2-  O396  1  0.24966302  0.50328762  0.34591642  1
  O2-  O397  1  0.74881540  0.50096139  0.43741830  1
  O2-  O398  1  0.24937216  0.17050330  0.58981687  1
  O2-  O399  1  0.74998376  0.82890342  0.30954509  1
  O2-  O400  1  0.24967186  0.82036248  0.90476451  1
  O2-  O401  1  0.74998193  0.52293204  0.85522807  1
  O2-  O402  1  0.74998242  0.16420514  0.06367281  1
  O2-  O403  1  0.24987892  0.17071422  0.86676212  1
  O2-  O404  1  0.75108140  0.17053224  0.84666193  1
  O2-  O405  1  0.24983185  0.14768023  0.43864460  1
  O2-  O406  1  0.74785347  0.84556930  0.44983525  1
  O2-  O407  1  0.24946963  0.49709972  0.81305031  1
  O2-  O408  1  0.75122824  0.50171621  0.08669804  1
  O2-  O409  1  0.75025877  0.82198699  0.62673898  1
  O2-  O410  1  0.75005381  0.49862898  0.93799130  1
  O2-  O411  1  0.25040536  0.83368047  0.53609267  1
  O2-  O412  1  0.25006082  0.49722912  0.94248760  1
  O2-  O413  1  0.75012148  0.49949064  0.35040370  1
  O2-  O414  1  0.25017179  0.83835848  0.61969019  1
  O2-  O415  1  0.24833593  0.17604425  0.11080054  1
  O2-  O416  1  0.75005012  0.81921536  0.88607585  1
  O2-  O417  1  0.25085403  0.83474150  0.34202826  1
  O2-  O418  1  0.24957519  0.14740674  0.35079645  1
  O2-  O419  1  0.75041698  0.17916003  0.15257574  1
  O2-  O420  1  0.02963671  0.34389515  0.11863970  1
  O2-  O421  1  0.97625620  0.31801483  0.64173805  1
  O2-  O422  1  0.53878152  0.70865397  0.59904916  1
  O2-  O423  1  0.04967298  0.67320796  0.63340970  1
  O2-  O424  1  0.47876678  0.32519572  0.61189064  1
  O2-  O425  1  0.54285921  -0.00720682  0.10846901  1
  O2-  O426  1  0.54376878  0.32255342  0.36771376  1
  O2-  O427  1  0.04888144  0.65209318  0.33840605  1
  O2-  O428  1  0.47125522  -0.01828209  0.62236152  1
  O2-  O429  1  0.97399891  0.00104918  0.11592162  1
  O2-  O430  1  0.96065471  0.69093486  0.64485942  1
  O2-  O431  1  0.52127475  0.67619969  0.87031895  1
  O2-  O432  1  0.03047392  0.33682408  0.87490146  1
  O2-  O433  1  0.49098239  0.35327538  0.87200122  1
  O2-  O434  1  0.96974100  0.66731016  0.87166270  1
  O2-  O435  1  0.98159038  0.02062514  0.37064163  1
  O2-  O436  1  0.45342277  0.63508123  0.64310103  1
  O2-  O437  1  0.52005033  0.67022999  0.11926334  1
  O2-  O438  1  0.96200225  0.65739362  0.40486684  1
  O2-  O439  1  0.45085826  0.34530524  0.36720318  1
  O2-  O440  1  0.02743824  -0.00846635  0.87899006  1
  O2-  O441  1  0.48448794  0.01026729  0.86769042  1
  O2-  O442  1  0.46093257  -0.00877513  0.14675225  1
  O2-  O443  1  0.51214732  0.01511807  0.37610758  1
