# generated using pymatgen
data_La7(Ru4O11)2
_symmetry_space_group_name_H-M   'P 1'
_cell_length_a   23.98924528
_cell_length_b   16.82908323
_cell_length_c   15.42600076
_cell_angle_alpha   90.00098568
_cell_angle_beta   89.99988830
_cell_angle_gamma   89.99971080
_symmetry_Int_Tables_number   1
_chemical_formula_structural   La7(Ru4O11)2
_chemical_formula_sum   'La84 Ru96 O264'
_cell_volume   6227.73882904
_cell_formula_units_Z   12
loop_
 _symmetry_equiv_pos_site_id
 _symmetry_equiv_pos_as_xyz
  1  'x, y, z'
loop_
 _atom_type_symbol
 _atom_type_oxidation_number
  La3+  3.0
  Ru4+  4.0
  O2-  -2.0
loop_
 _atom_site_type_symbol
 _atom_site_label
 _atom_site_symmetry_multiplicity
 _atom_site_fract_x
 _atom_site_fract_y
 _atom_site_fract_z
 _atom_site_occupancy
  La3+  La0  1  0.13885430  0.00070510  0.12772676  1
  La3+  La1  1  0.14070026  -0.00065735  0.37513663  1
  La3+  La2  1  0.13868623  -0.00102255  0.62291587  1
  La3+  La3  1  0.13773065  -0.00066157  0.87373092  1
  La3+  La4  1  0.14107978  0.33332781  0.12557093  1
  La3+  La5  1  0.14060219  0.33342145  0.37379845  1
  La3+  La6  1  0.13784739  0.33523065  0.62484002  1
  La3+  La7  1  0.13849785  0.33503292  0.87490955  1
  La3+  La8  1  0.13925684  0.66754757  0.12510154  1
  La3+  La9  1  0.13812343  0.66720748  0.37406927  1
  La3+  La10  1  0.13770016  0.66583622  0.62517562  1
  La3+  La11  1  0.13955574  0.66639349  0.87547902  1
  La3+  La12  1  0.63843051  -0.00036857  0.12541479  1
  La3+  La13  1  0.63767693  -0.00110729  0.37539959  1
  La3+  La14  1  0.63718307  0.00046416  0.62545222  1
  La3+  La15  1  0.63723087  0.00113030  0.87393700  1
  La3+  La16  1  0.63918986  0.33561008  0.12366956  1
  La3+  La17  1  0.63801632  0.33431540  0.37512676  1
  La3+  La18  1  0.63782753  0.33335037  0.62440620  1
  La3+  La19  1  0.63848563  0.33443891  0.87720677  1
  La3+  La20  1  0.63901710  0.66506090  0.12307154  1
  La3+  La21  1  0.64224380  0.66679532  0.37610606  1
  La3+  La22  1  0.63942577  0.66594068  0.62384947  1
  La3+  La23  1  0.63833926  0.66488773  0.87762303  1
  La3+  La24  1  0.36125837  0.00056456  0.12681744  1
  La3+  La25  1  0.35899828  -0.00000141  0.37361928  1
  La3+  La26  1  0.36098152  -0.00146822  0.62441898  1
  La3+  La27  1  0.36200424  -0.00072537  0.87471201  1
  La3+  La28  1  0.36067345  0.33292564  0.12416723  1
  La3+  La29  1  0.36086619  0.33340351  0.37359278  1
  La3+  La30  1  0.36181340  0.33429741  0.62503169  1
  La3+  La31  1  0.36168548  0.33566683  0.87861150  1
  La3+  La32  1  0.36165098  0.66771134  0.12526405  1
  La3+  La33  1  0.36180331  0.66717018  0.37493610  1
  La3+  La34  1  0.36213255  0.66599614  0.62453022  1
  La3+  La35  1  0.36154835  0.66623963  0.87577363  1
  La3+  La36  1  0.86303207  -0.00104906  0.12591875  1
  La3+  La37  1  0.86236158  -0.00179130  0.37417097  1
  La3+  La38  1  0.86232461  0.00031234  0.62603285  1
  La3+  La39  1  0.86169767  0.00125424  0.87427207  1
  La3+  La40  1  0.86134638  0.33498420  0.12416109  1
  La3+  La41  1  0.86132262  0.33505613  0.37530562  1
  La3+  La42  1  0.86174449  0.33353703  0.62448351  1
  La3+  La43  1  0.86057867  0.33410588  0.87566209  1
  La3+  La44  1  0.86088993  0.66610701  0.12489133  1
  La3+  La45  1  0.86001931  0.66694299  0.37645673  1
  La3+  La46  1  0.86074542  0.66561665  0.62213404  1
  La3+  La47  1  0.86082740  0.66453265  0.87640788  1
  La3+  La48  1  0.49926507  0.16825651  0.13720754  1
  La3+  La49  1  0.49872052  0.16811641  0.88292777  1
  La3+  La50  1  -0.00016308  0.49954340  0.13462385  1
  La3+  La51  1  0.49711705  0.49883952  0.61701006  1
  La3+  La52  1  -0.00070503  0.49952828  0.37180704  1
  La3+  La53  1  0.49994727  0.16585215  0.11551781  1
  La3+  La54  1  0.49797965  0.49647281  0.11388101  1
  La3+  La55  1  0.49734784  0.83374068  0.13075545  1
  La3+  La56  1  -0.00051765  0.16551497  0.63761460  1
  La3+  La57  1  -0.00047715  0.83157416  0.86727156  1
  La3+  La58  1  0.49906331  0.83384674  0.11404470  1
  La3+  La59  1  0.50001606  0.16803781  0.61179245  1
  La3+  La60  1  0.50015197  0.83300464  0.61686347  1
  La3+  La61  1  0.49789009  0.82997418  0.87979270  1
  La3+  La62  1  0.00084597  0.16672308  0.38367175  1
  La3+  La63  1  0.49985549  0.49907965  0.36570680  1
  La3+  La64  1  -0.00060990  0.83411556  0.13186948  1
  La3+  La65  1  0.49960190  0.83393305  0.38433521  1
  La3+  La66  1  -0.00131495  0.16798798  0.13149425  1
  La3+  La67  1  -0.00077345  0.83370002  0.63493086  1
  La3+  La68  1  -0.00114948  0.16988151  0.88158860  1
  La3+  La69  1  0.00193638  0.50074068  0.86650143  1
  La3+  La70  1  0.50061105  0.16131826  0.63121917  1
  La3+  La71  1  -0.00137678  0.83164836  0.36303403  1
  La3+  La72  1  0.24986562  0.79070878  0.00190554  1
  La3+  La73  1  0.24999398  0.46673462  0.24886699  1
  La3+  La74  1  0.75005607  0.16474728  0.20970093  1
  La3+  La75  1  0.24957639  0.16931830  0.77854792  1
  La3+  La76  1  0.74956911  0.83919520  0.74702667  1
  La3+  La77  1  0.25001848  0.16772805  0.01818164  1
  La3+  La78  1  0.24988378  0.16790228  0.26787104  1
  La3+  La79  1  0.24989166  0.16671966  0.51509279  1
  La3+  La80  1  0.74990871  0.21371851  0.51834232  1
  La3+  La81  1  0.25013782  0.86342168  0.46625529  1
  La3+  La82  1  0.75012827  0.50314233  0.49908447  1
  La3+  La83  1  0.74998809  0.19619791  -0.02640817  1
  Ru4+  Ru84  1  0.00013439  0.00002220  0.00166472  1
  Ru4+  Ru85  1  -0.00090396  0.00431013  0.24887452  1
  Ru4+  Ru86  1  -0.00209187  0.00675245  0.49597440  1
  Ru4+  Ru87  1  -0.00142521  0.00343509  0.75481933  1
  Ru4+  Ru88  1  0.00066992  0.33368886  -0.00113429  1
  Ru4+  Ru89  1  0.00050682  0.33369768  0.25005392  1
  Ru4+  Ru90  1  0.00069206  0.33707730  0.50069309  1
  Ru4+  Ru91  1  0.00436450  0.33094539  0.75246214  1
  Ru4+  Ru92  1  0.00030244  0.66636477  0.00197506  1
  Ru4+  Ru93  1  -0.00158826  0.66817872  0.25014367  1
  Ru4+  Ru94  1  0.00101636  0.66582774  0.49784405  1
  Ru4+  Ru95  1  0.00063147  0.66192172  0.74842353  1
  Ru4+  Ru96  1  0.49802003  0.00142207  -0.00062381  1
  Ru4+  Ru97  1  0.50005524  0.00127315  0.24992025  1
  Ru4+  Ru98  1  0.49998456  -0.00069481  0.50042814  1
  Ru4+  Ru99  1  0.50100686  -0.00011677  0.75167757  1
  Ru4+  Ru100  1  0.50243817  0.33807975  -0.00361636  1
  Ru4+  Ru101  1  0.49888224  0.33403141  0.25341401  1
  Ru4+  Ru102  1  0.49932348  0.33441361  0.49823668  1
  Ru4+  Ru103  1  0.50053908  0.33619561  0.75369566  1
  Ru4+  Ru104  1  0.49698008  0.66779914  0.00052630  1
  Ru4+  Ru105  1  0.49922977  0.66534840  0.24858280  1
  Ru4+  Ru106  1  0.49952387  0.66954194  0.49670593  1
  Ru4+  Ru107  1  0.50043299  0.66543552  0.75288589  1
  Ru4+  Ru108  1  0.11325719  0.16783307  0.00066179  1
  Ru4+  Ru109  1  0.11383813  0.16861226  0.24973666  1
  Ru4+  Ru110  1  0.11331652  0.16531426  0.49989870  1
  Ru4+  Ru111  1  0.11080844  0.16714373  0.75054404  1
  Ru4+  Ru112  1  0.11339091  0.49834069  0.00048339  1
  Ru4+  Ru113  1  0.11268848  0.49771887  0.24972826  1
  Ru4+  Ru114  1  0.11088485  0.49905196  0.50088690  1
  Ru4+  Ru115  1  0.11296260  0.49777730  0.74987704  1
  Ru4+  Ru116  1  0.11159897  0.83326105  -0.00025503  1
  Ru4+  Ru117  1  0.11559011  0.83327033  0.24985670  1
  Ru4+  Ru118  1  0.11590352  0.83011391  0.50129895  1
  Ru4+  Ru119  1  0.11532636  0.83320118  0.75017373  1
  Ru4+  Ru120  1  0.61231250  0.16695870  -0.00014410  1
  Ru4+  Ru121  1  0.61088734  0.16703021  0.25076002  1
  Ru4+  Ru122  1  0.61124878  0.16745777  0.50024446  1
  Ru4+  Ru123  1  0.61362558  0.16456952  0.75057797  1
  Ru4+  Ru124  1  0.61481745  0.49644977  -0.00051910  1
  Ru4+  Ru125  1  0.61310850  0.49882473  0.25008086  1
  Ru4+  Ru126  1  0.61342827  0.49813972  0.49936496  1
  Ru4+  Ru127  1  0.61437749  0.50258257  0.75075534  1
  Ru4+  Ru128  1  0.61393297  0.83120371  -0.00029808  1
  Ru4+  Ru129  1  0.61394035  0.83418095  0.25030285  1
  Ru4+  Ru130  1  0.61424707  0.83357333  0.50025477  1
  Ru4+  Ru131  1  0.61053795  0.83396397  0.75025883  1
  Ru4+  Ru132  1  0.38590743  0.16404983  -0.00048899  1
  Ru4+  Ru133  1  0.38760548  0.16697562  0.24968962  1
  Ru4+  Ru134  1  0.38803351  0.16682918  0.50051002  1
  Ru4+  Ru135  1  0.38745028  0.16410880  0.75036384  1
  Ru4+  Ru136  1  0.38638909  0.49727064  -0.00061620  1
  Ru4+  Ru137  1  0.38889144  0.49815628  0.25036913  1
  Ru4+  Ru138  1  0.38689650  0.49821129  0.50008672  1
  Ru4+  Ru139  1  0.38624836  0.49828693  0.74950788  1
  Ru4+  Ru140  1  0.38843362  0.83239037  0.00052694  1
  Ru4+  Ru141  1  0.38537165  0.83237148  0.25008890  1
  Ru4+  Ru142  1  0.38850296  0.83405944  0.49984173  1
  Ru4+  Ru143  1  0.38676220  0.83477787  0.75048081  1
  Ru4+  Ru144  1  0.88879431  0.16765248  0.00008342  1
  Ru4+  Ru145  1  0.88916009  0.16590807  0.24983882  1
  Ru4+  Ru146  1  0.88857088  0.16819802  0.49985855  1
  Ru4+  Ru147  1  0.88644396  0.16552529  0.74994196  1
  Ru4+  Ru148  1  0.88612310  0.50011707  -0.00017854  1
  Ru4+  Ru149  1  0.88663169  0.50009750  0.25021935  1
  Ru4+  Ru150  1  0.88838084  0.50096642  0.49985361  1
  Ru4+  Ru151  1  0.88517592  0.50310349  0.74936520  1
  Ru4+  Ru152  1  0.88661601  0.83168953  -0.00015230  1
  Ru4+  Ru153  1  0.88509002  0.82955532  0.25105162  1
  Ru4+  Ru154  1  0.88641376  0.83110485  0.49983884  1
  Ru4+  Ru155  1  0.88778247  0.83591483  0.74973419  1
  Ru4+  Ru156  1  0.24990254  0.60725367  0.24925794  1
  Ru4+  Ru157  1  0.24991642  0.04820948  0.73809188  1
  Ru4+  Ru158  1  0.74985860  0.24558129  0.75109522  1
  Ru4+  Ru159  1  0.74992119  0.58285700  0.25297932  1
  Ru4+  Ru160  1  0.75003456  0.71421781  0.74879207  1
  Ru4+  Ru161  1  0.74996320  0.42275373  0.75473896  1
  Ru4+  Ru162  1  0.74993701  0.07215215  0.49536484  1
  Ru4+  Ru163  1  0.74997306  0.90408220  0.49667893  1
  Ru4+  Ru164  1  0.25007396  0.57361975  -0.00248765  1
  Ru4+  Ru165  1  0.75019171  0.91359342  0.00118061  1
  Ru4+  Ru166  1  0.74993976  0.29023393  0.25471462  1
  Ru4+  Ru167  1  0.25001181  0.29305839  0.74667490  1
  Ru4+  Ru168  1  0.25026036  0.72612666  0.50127531  1
  Ru4+  Ru169  1  0.25006427  0.93388250  0.00994227  1
  Ru4+  Ru170  1  0.75015549  0.05815231  0.00062505  1
  Ru4+  Ru171  1  0.75005986  0.96497200  0.76974077  1
  Ru4+  Ru172  1  0.25001520  0.58089282  0.50132428  1
  Ru4+  Ru173  1  0.74985332  0.03744152  0.25651081  1
  Ru4+  Ru174  1  0.25009397  0.74516791  0.74881107  1
  Ru4+  Ru175  1  0.24988998  0.41880748  0.49823992  1
  Ru4+  Ru176  1  0.74994495  0.75609972  0.00149965  1
  Ru4+  Ru177  1  0.75002417  0.90986943  0.25006616  1
  Ru4+  Ru178  1  0.75000542  0.75325490  0.25319774  1
  Ru4+  Ru179  1  0.25004599  0.57966796  0.74800755  1
  O2-  O180  1  0.16812687  0.08032766  -0.00027178  1
  O2-  O181  1  0.16761143  0.08112653  0.24919652  1
  O2-  O182  1  0.16744098  0.08095228  0.50053670  1
  O2-  O183  1  0.16664425  0.07994595  0.75026982  1
  O2-  O184  1  0.16596558  0.41509466  -0.00018343  1
  O2-  O185  1  0.16534383  0.41487290  0.24986067  1
  O2-  O186  1  0.16857580  0.41442621  0.50034135  1
  O2-  O187  1  0.16703097  0.41569715  0.74992295  1
  O2-  O188  1  0.16554755  0.74589422  0.00014413  1
  O2-  O189  1  0.16562409  0.74835393  0.24987263  1
  O2-  O190  1  0.16705522  0.74637311  0.49976590  1
  O2-  O191  1  0.16717739  0.74740227  0.74974597  1
  O2-  O192  1  0.66723613  0.07990784  -0.00000118  1
  O2-  O193  1  0.66619751  0.07916336  0.25013746  1
  O2-  O194  1  0.66680628  0.07895770  0.49967808  1
  O2-  O195  1  0.66761332  0.08114056  0.75005702  1
  O2-  O196  1  0.66773477  0.41525735  0.00102493  1
  O2-  O197  1  0.66640961  0.41470586  0.24996254  1
  O2-  O198  1  0.66929325  0.41443834  0.50052420  1
  O2-  O199  1  0.66766075  0.41423854  0.74847523  1
  O2-  O200  1  0.66756774  0.74859802  0.00056075  1
  O2-  O201  1  0.66850344  0.74822870  0.24961489  1
  O2-  O202  1  0.66628189  0.74881487  0.50034649  1
  O2-  O203  1  0.66584156  0.74580659  0.74985415  1
  O2-  O204  1  0.33176679  0.25313552  -0.00021644  1
  O2-  O205  1  0.33412224  0.25214821  0.24986001  1
  O2-  O206  1  0.33257611  0.25362343  0.50074714  1
  O2-  O207  1  0.33253023  0.25409476  0.74937866  1
  O2-  O208  1  0.33318394  0.58598751  0.00034515  1
  O2-  O209  1  0.33351939  0.58602953  0.24983109  1
  O2-  O210  1  0.33159133  0.58621931  0.50078743  1
  O2-  O211  1  0.33200841  0.58650825  0.75039398  1
  O2-  O212  1  0.33314071  0.92046263  0.00012981  1
  O2-  O213  1  0.33416179  0.91884697  0.24894737  1
  O2-  O214  1  0.33384647  0.92076174  0.50105957  1
  O2-  O215  1  0.33282885  0.91835517  0.74976207  1
  O2-  O216  1  0.83345800  0.25388520  0.00000605  1
  O2-  O217  1  0.83370200  0.25412224  0.25039489  1
  O2-  O218  1  0.83460067  0.25445734  0.49929358  1
  O2-  O219  1  0.83245605  0.25293484  0.74928257  1
  O2-  O220  1  0.83342411  0.58554188  0.00045607  1
  O2-  O221  1  0.83131193  0.58508234  0.24938957  1
  O2-  O222  1  0.83167717  0.58389218  0.50070518  1
  O2-  O223  1  0.83357075  0.58437660  0.74986977  1
  O2-  O224  1  0.83152530  0.92007752  0.00024519  1
  O2-  O225  1  0.83198390  0.91927901  0.24999749  1
  O2-  O226  1  0.83297388  0.91990465  0.49991530  1
  O2-  O227  1  0.83359232  0.92040113  0.75053190  1
  O2-  O228  1  0.16722034  0.25255114  -0.00004550  1
  O2-  O229  1  0.16658474  0.25095379  0.25059398  1
  O2-  O230  1  0.16820289  0.25285223  0.50087620  1
  O2-  O231  1  0.16683181  0.25349699  0.74951736  1
  O2-  O232  1  0.16715610  0.58624254  0.00017881  1
  O2-  O233  1  0.16758339  0.58682881  0.25046757  1
  O2-  O234  1  0.16758092  0.58580861  0.50011210  1
  O2-  O235  1  0.16777790  0.58627498  0.75029508  1
  O2-  O236  1  0.16708242  0.91982739  0.00047840  1
  O2-  O237  1  0.16725446  0.91799140  0.24911841  1
  O2-  O238  1  0.16797767  0.91929983  0.50025825  1
  O2-  O239  1  0.16767178  0.91823023  0.75098246  1
  O2-  O240  1  0.66690296  0.25357656  0.00098647  1
  O2-  O241  1  0.66715802  0.25420845  0.24974259  1
  O2-  O242  1  0.66562777  0.25503340  0.49958642  1
  O2-  O243  1  0.66765094  0.25292825  0.74861622  1
  O2-  O244  1  0.66672170  0.58504318  0.00094585  1
  O2-  O245  1  0.66824899  0.58590238  0.24956324  1
  O2-  O246  1  0.66821588  0.58427611  0.50112757  1
  O2-  O247  1  0.66756061  0.58389579  0.74889205  1
  O2-  O248  1  0.66808206  0.91933809  0.00045764  1
  O2-  O249  1  0.66777945  0.91886975  0.25009172  1
  O2-  O250  1  0.66717727  0.91942138  0.49969529  1
  O2-  O251  1  0.66603743  0.92053282  0.75009186  1
  O2-  O252  1  0.33274817  0.07985399  0.00052155  1
  O2-  O253  1  0.33348433  0.07989126  0.24920192  1
  O2-  O254  1  0.33267121  0.07926824  0.50049696  1
  O2-  O255  1  0.33429400  0.08010083  0.74998914  1
  O2-  O256  1  0.33245349  0.41484648  0.00046452  1
  O2-  O257  1  0.33346106  0.41426926  0.24966376  1
  O2-  O258  1  0.33163068  0.41414225  0.50111109  1
  O2-  O259  1  0.33405874  0.41511027  0.75003671  1
  O2-  O260  1  0.33366964  0.74614136  -0.00005387  1
  O2-  O261  1  0.33322697  0.74875591  0.25002474  1
  O2-  O262  1  0.33195714  0.74608185  0.50022020  1
  O2-  O263  1  0.33272995  0.74686780  0.74970349  1
  O2-  O264  1  0.83243806  0.07927854  -0.00018533  1
  O2-  O265  1  0.83347858  0.07958997  0.25068180  1
  O2-  O266  1  0.83309859  0.07903369  0.49951150  1
  O2-  O267  1  0.83321417  0.08104423  0.74989147  1
  O2-  O268  1  0.83303896  0.41359774  -0.00000171  1
  O2-  O269  1  0.83363614  0.41473179  0.25011060  1
  O2-  O270  1  0.83126340  0.41359212  0.49991536  1
  O2-  O271  1  0.83183170  0.41353958  0.74965099  1
  O2-  O272  1  0.83325838  0.74798984  0.00024619  1
  O2-  O273  1  0.83179328  0.74854563  0.24956985  1
  O2-  O274  1  0.83430012  0.74913542  0.50069197  1
  O2-  O275  1  0.83400754  0.74537610  0.75034987  1
  O2-  O276  1  0.44459543  0.57964080  0.47463304  1
  O2-  O277  1  0.04455028  0.76647695  0.98655407  1
  O2-  O278  1  0.04539530  0.56688307  0.73642883  1
  O2-  O279  1  0.55033470  0.23369853  0.73566193  1
  O2-  O280  1  0.04019582  0.22846539  0.52601614  1
  O2-  O281  1  0.04007254  0.89528860  0.49650719  1
  O2-  O282  1  0.95442720  0.43083717  0.26412752  1
  O2-  O283  1  0.04273117  0.10276429  0.97399393  1
  O2-  O284  1  0.95344389  0.76690089  0.48433735  1
  O2-  O285  1  0.04444466  0.56919785  0.01532030  1
  O2-  O286  1  0.54691750  0.56902250  0.01926506  1
  O2-  O287  1  0.53955650  0.89086665  0.97338096  1
  O2-  O288  1  0.04787723  0.76335532  0.51521893  1
  O2-  O289  1  0.05374850  0.91442550  0.80038429  1
  O2-  O290  1  0.54730970  0.90390274  0.23573145  1
  O2-  O291  1  0.95217914  0.90205513  0.23649401  1
  O2-  O292  1  0.04612706  0.56698599  0.51421716  1
  O2-  O293  1  0.04447673  0.43123891  0.01577715  1
  O2-  O294  1  0.44667834  0.42257782  0.26899339  1
  O2-  O295  1  0.95446845  0.43065059  0.48506296  1
  O2-  O296  1  0.54686469  0.76728888  0.76434921  1
  O2-  O297  1  0.95309390  0.09845645  0.48501757  1
  O2-  O298  1  0.45331440  0.90071278  0.26594783  1
  O2-  O299  1  0.04672582  0.09942869  0.51480896  1
  O2-  O300  1  0.54675775  0.23584525  0.98767578  1
  O2-  O301  1  0.45351920  0.76581981  0.76255725  1
  O2-  O302  1  0.95424847  0.23633320  0.76432281  1
  O2-  O303  1  0.96134582  0.44129197  0.76440792  1
  O2-  O304  1  0.04018372  0.89547258  0.49676823  1
  O2-  O305  1  0.44220129  0.41927271  0.97577718  1
  O2-  O306  1  0.05476256  0.08404816  0.20173429  1
  O2-  O307  1  0.03965078  0.55747929  0.27780450  1
  O2-  O308  1  0.46107863  0.22449559  0.73636806  1
  O2-  O309  1  0.95364752  0.23440363  0.23851544  1
  O2-  O310  1  0.46171017  0.21849220  0.74721537  1
  O2-  O311  1  0.54037578  0.43490561  0.72374644  1
  O2-  O312  1  0.95241333  0.10026851  0.01330854  1
  O2-  O313  1  0.53982859  0.77252575  0.22146318  1
  O2-  O314  1  0.04532058  0.76527180  0.23530993  1
  O2-  O315  1  0.04488561  0.23605106  0.01579959  1
  O2-  O316  1  0.45204551  0.23518782  0.01423466  1
  O2-  O317  1  0.54559767  0.09780840  0.98712952  1
  O2-  O318  1  0.54445543  0.56852520  0.98021747  1
  O2-  O319  1  0.95472537  0.09726277  0.76440138  1
  O2-  O320  1  0.54189325  0.56056894  0.52578483  1
  O2-  O321  1  0.04555088  0.76621024  0.73657526  1
  O2-  O322  1  0.96338358  0.44644154  0.75170864  1
  O2-  O323  1  0.52960148  0.55056002  0.75319203  1
  O2-  O324  1  0.43657258  0.93206371  0.78199592  1
  O2-  O325  1  0.91989577  0.37841198  0.69921064  1
  O2-  O326  1  0.06642714  0.40516030  0.52910593  1
  O2-  O327  1  0.56484387  0.07126540  0.77869580  1
  O2-  O328  1  0.04975856  0.09259902  0.21751522  1
  O2-  O329  1  0.57019718  0.72417775  0.30022026  1
  O2-  O330  1  0.56947592  0.60435241  0.45392763  1
  O2-  O331  1  0.56437110  0.73615903  0.96728189  1
  O2-  O332  1  0.56588896  0.74043785  0.54793163  1
  O2-  O333  1  0.56436045  0.73812581  0.44708532  1
  O2-  O334  1  0.41873376  0.29191092  0.80225811  1
  O2-  O335  1  0.93577702  0.59564426  0.28161637  1
  O2-  O336  1  0.44313443  0.58156467  0.47529284  1
  O2-  O337  1  0.43460004  0.73820761  0.22110609  1
  O2-  O338  1  0.06397329  0.26440780  0.21732138  1
  O2-  O339  1  0.56596426  0.40391359  0.97232028  1
  O2-  O340  1  0.43638485  0.73791825  0.46754456  1
  O2-  O341  1  0.93436859  0.92732887  0.04686575  1
  O2-  O342  1  0.07468241  0.94195626  0.53499180  1
  O2-  O343  1  0.56390633  0.26478757  0.28071563  1
  O2-  O344  1  0.06580831  0.92623475  0.29610000  1
  O2-  O345  1  0.93337425  0.74004790  0.70301822  1
  O2-  O346  1  0.57640298  0.62024931  0.79377736  1
  O2-  O347  1  0.93484406  0.92848959  0.72051691  1
  O2-  O348  1  0.07390088  0.93531561  0.68542337  1
  O2-  O349  1  0.93593759  0.93090645  0.94845023  1
  O2-  O350  1  0.44866054  0.41809635  0.97830129  1
  O2-  O351  1  0.06920208  0.06005563  0.04499101  1
  O2-  O352  1  0.43465007  0.40507381  0.47134425  1
  O2-  O353  1  0.93340323  0.73997904  0.79706374  1
  O2-  O354  1  0.93680251  0.92725916  0.22161390  1
  O2-  O355  1  0.06470781  0.26069142  0.77906817  1
  O2-  O356  1  0.43593364  0.73862647  0.02897750  1
  O2-  O357  1  0.56517222  0.92751729  0.52868926  1
  O2-  O358  1  0.04850631  0.90764956  0.78388996  1
  O2-  O359  1  0.93601284  0.73749650  0.28222100  1
  O2-  O360  1  0.07001408  0.26800088  0.45871299  1
  O2-  O361  1  0.07212752  0.06483043  0.31427185  1
  O2-  O362  1  0.57038155  0.39845380  0.78910614  1
  O2-  O363  1  0.06570959  0.40612490  0.78012945  1
  O2-  O364  1  0.07027461  0.60883288  0.20008629  1
  O2-  O365  1  0.43611338  0.25937643  0.02995997  1
  O2-  O366  1  0.56418517  0.40224756  0.46655734  1
  O2-  O367  1  0.06501530  0.92905911  0.19942414  1
  O2-  O368  1  0.93576504  0.59793275  0.46712955  1
  O2-  O369  1  0.06432215  0.07037418  0.78338700  1
  O2-  O370  1  0.44329847  0.41564694  0.27241442  1
  O2-  O371  1  0.57098510  0.94220973  0.04967702  1
  O2-  O372  1  0.74985771  0.33587211  0.15013785  1
  O2-  O373  1  0.75000247  0.65107029  0.65879529  1
  O2-  O374  1  0.74995619  0.66598538  0.57440517  1
  O2-  O375  1  0.75015353  0.65251856  0.84048358  1
  O2-  O376  1  0.74985623  0.66704060  0.17268229  1
  O2-  O377  1  0.24992335  0.00856322  0.92193109  1
  O2-  O378  1  0.75002500  0.66567155  0.07815427  1
  O2-  O379  1  0.24998310  0.66777446  0.34745457  1
  O2-  O380  1  0.75011891  -0.00830334  0.57923179  1
  O2-  O381  1  0.25011957  0.00049258  0.34493939  1
  O2-  O382  1  0.25027943  0.33786512  0.64631367  1
  O2-  O383  1  0.74990207  0.66368613  0.40111496  1
  O2-  O384  1  0.25022656  0.33605651  0.85007943  1
  O2-  O385  1  0.24996748  0.33552208  0.34631081  1
  O2-  O386  1  0.24988011  0.33396319  0.15627289  1
  O2-  O387  1  0.75024382  0.33257867  0.84270541  1
  O2-  O388  1  0.25000646  -0.01359451  0.83491660  1
  O2-  O389  1  0.24985292  0.66803320  0.15247857  1
  O2-  O390  1  0.25017627  -0.00628578  0.64550461  1
  O2-  O391  1  0.75023942  0.66457205  0.92675414  1
  O2-  O392  1  0.24980195  0.66696395  0.90646114  1
  O2-  O393  1  0.75012609  0.33823462  0.35373695  1
  O2-  O394  1  0.75012114  0.01270184  0.66630283  1
  O2-  O395  1  0.75005691  -0.00338561  0.40207424  1
  O2-  O396  1  0.25004629  0.84065491  0.89081079  1
  O2-  O397  1  0.24993529  0.83271145  0.34265984  1
  O2-  O398  1  0.75004188  0.16773189  0.83653921  1
  O2-  O399  1  0.25007764  0.16619774  0.64213702  1
  O2-  O400  1  0.25000164  0.49973115  0.40939272  1
  O2-  O401  1  0.24996663  0.84209225  0.10931761  1
  O2-  O402  1  0.24997251  0.16659721  0.89560094  1
  O2-  O403  1  0.74997799  0.15559634  0.40864657  1
  O2-  O404  1  0.75001065  0.16375362  0.09509093  1
  O2-  O405  1  0.75002738  0.15920260  0.62972802  1
  O2-  O406  1  0.25002000  0.16658788  0.39368678  1
  O2-  O407  1  0.75002617  0.83553834  0.59041545  1
  O2-  O408  1  0.25002872  0.50405794  0.66136252  1
  O2-  O409  1  0.74999334  0.16893618  0.33104488  1
  O2-  O410  1  0.24997142  0.83752843  0.80971303  1
  O2-  O411  1  0.74994691  0.83348411  0.90808773  1
  O2-  O412  1  0.24997854  0.50450829  0.91221233  1
  O2-  O413  1  0.24996029  0.83306468  0.19019403  1
  O2-  O414  1  0.24997633  0.83602465  0.68114281  1
  O2-  O415  1  0.75000525  0.49663076  0.83626170  1
  O2-  O416  1  0.24989014  0.82910690  0.59519978  1
  O2-  O417  1  0.24996094  0.16537617  0.14226640  1
  O2-  O418  1  0.74999362  0.83667629  0.40987364  1
  O2-  O419  1  0.24995405  0.50372676  0.08923028  1
  O2-  O420  1  0.02271873  -0.00015255  0.38308547  1
  O2-  O421  1  0.46296959  0.33400392  0.62455275  1
  O2-  O422  1  0.02830373  0.66780684  0.37678675  1
  O2-  O423  1  0.97128216  0.66248730  0.62098943  1
  O2-  O424  1  0.47202357  0.66667556  0.87542316  1
  O2-  O425  1  0.97465066  0.00531797  0.12738250  1
  O2-  O426  1  0.47535304  0.32726234  0.37583570  1
  O2-  O427  1  0.46714317  0.66687176  0.62643728  1
  O2-  O428  1  0.97171047  0.33441444  0.12356178  1
  O2-  O429  1  0.52434758  0.32714400  0.87462653  1
  O2-  O430  1  0.02524751  0.33639629  0.37130377  1
  O2-  O431  1  0.96840127  0.00197683  0.62040687  1
  O2-  O432  1  0.47535105  0.66029645  0.12521366  1
  O2-  O433  1  0.97017872  0.66213025  0.88004469  1
  O2-  O434  1  0.52588390  -0.00259632  0.87577687  1
  O2-  O435  1  0.52594938  0.00240210  0.62926389  1
  O2-  O436  1  0.02522962  0.33099284  0.62776176  1
  O2-  O437  1  0.02422022  0.33354860  0.88094183  1
  O2-  O438  1  0.03222137  0.66594657  0.87326705  1
  O2-  O439  1  0.02723668  0.00829139  0.62419286  1
  O2-  O440  1  0.53690571  0.33279508  0.62191656  1
  O2-  O441  1  0.53046632  0.66351443  0.63266280  1
  O2-  O442  1  0.03008898  0.66683152  0.62592782  1
  O2-  O443  1  0.47459657  0.33521991  0.12863865  1
