# generated using pymatgen
data_La7(Ru4O11)2
_symmetry_space_group_name_H-M   'P 1'
_cell_length_a   23.98946794
_cell_length_b   16.82919740
_cell_length_c   15.42573056
_cell_angle_alpha   90.00101679
_cell_angle_beta   89.99970626
_cell_angle_gamma   89.99983438
_symmetry_Int_Tables_number   1
_chemical_formula_structural   La7(Ru4O11)2
_chemical_formula_sum   'La84 Ru96 O264'
_cell_volume   6227.72979624
_cell_formula_units_Z   12
loop_
 _symmetry_equiv_pos_site_id
 _symmetry_equiv_pos_as_xyz
  1  'x, y, z'
loop_
 _atom_type_symbol
 _atom_type_oxidation_number
  La3+  3.0
  Ru4+  4.0
  O2-  -2.0
loop_
 _atom_site_type_symbol
 _atom_site_label
 _atom_site_symmetry_multiplicity
 _atom_site_fract_x
 _atom_site_fract_y
 _atom_site_fract_z
 _atom_site_occupancy
  La3+  La0  1  0.13980919  0.00014677  0.12466552  1
  La3+  La1  1  0.13928995  0.00027323  0.37634871  1
  La3+  La2  1  0.14042866  -0.00046733  0.62394347  1
  La3+  La3  1  0.14086056  -0.00132924  0.87449303  1
  La3+  La4  1  0.13856170  0.33184958  0.12588934  1
  La3+  La5  1  0.13904388  0.33264623  0.37419134  1
  La3+  La6  1  0.13808244  0.33333052  0.62452529  1
  La3+  La7  1  0.13794700  0.33267997  0.87606029  1
  La3+  La8  1  0.13814472  0.66674127  0.12368478  1
  La3+  La9  1  0.14013155  0.66592428  0.37679421  1
  La3+  La10  1  0.14052437  0.66620914  0.62518954  1
  La3+  La11  1  0.13855547  0.66598499  0.87529917  1
  La3+  La12  1  0.63802871  -0.00177989  0.12430871  1
  La3+  La13  1  0.63780461  -0.00086465  0.37233078  1
  La3+  La14  1  0.63807721  0.00094076  0.62680375  1
  La3+  La15  1  0.63902160  0.00033821  0.87607986  1
  La3+  La16  1  0.63841528  0.33295682  0.12451790  1
  La3+  La17  1  0.63921282  0.33357314  0.37564019  1
  La3+  La18  1  0.63836415  0.33380489  0.62514837  1
  La3+  La19  1  0.63812638  0.33298493  0.87492385  1
  La3+  La20  1  0.63976894  0.66739158  0.12580185  1
  La3+  La21  1  0.63764544  0.66642078  0.37250665  1
  La3+  La22  1  0.63728913  0.66626466  0.62662054  1
  La3+  La23  1  0.63758413  0.66718624  0.87581896  1
  La3+  La24  1  0.36107871  0.00049438  0.12480388  1
  La3+  La25  1  0.36159476  0.00068560  0.37504775  1
  La3+  La26  1  0.35947324  -0.00142074  0.62473065  1
  La3+  La27  1  0.35937457  -0.00101542  0.87586594  1
  La3+  La28  1  0.36052341  0.33237867  0.12571526  1
  La3+  La29  1  0.36193822  0.33190908  0.37430057  1
  La3+  La30  1  0.36228645  0.33338542  0.62486571  1
  La3+  La31  1  0.36134064  0.33284149  0.87499133  1
  La3+  La32  1  0.36266618  0.66788919  0.12414677  1
  La3+  La33  1  0.36032646  0.66642298  0.37598894  1
  La3+  La34  1  0.35999945  0.66598168  0.62535818  1
  La3+  La35  1  0.36094087  0.66756442  0.87453933  1
  La3+  La36  1  0.86098207  -0.00148510  0.12399087  1
  La3+  La37  1  0.86213441  -0.00083072  0.37390999  1
  La3+  La38  1  0.86186392  0.00134526  0.62645681  1
  La3+  La39  1  0.86090558  0.00015302  0.87533471  1
  La3+  La40  1  0.86234674  0.33397536  0.12668779  1
  La3+  La41  1  0.86208331  0.33330069  0.37382959  1
  La3+  La42  1  0.86160422  0.33273243  0.62435635  1
  La3+  La43  1  0.86122957  0.33388736  0.87422055  1
  La3+  La44  1  0.86278646  0.66389883  0.12795450  1
  La3+  La45  1  0.86469728  0.66345889  0.36941727  1
  La3+  La46  1  0.86185708  0.66615412  0.62674190  1
  La3+  La47  1  0.86312245  0.66535629  0.87534814  1
  La3+  La48  1  -0.00041286  0.50200293  0.36785125  1
  La3+  La49  1  -0.00064855  0.49886921  0.63487712  1
  La3+  La50  1  0.49825014  0.50150338  0.86199728  1
  La3+  La51  1  0.49971648  0.49981276  0.36587026  1
  La3+  La52  1  -0.00057669  0.16809852  0.87814438  1
  La3+  La53  1  0.00286177  0.17290199  0.11789028  1
  La3+  La54  1  0.00001053  0.50099999  0.88262614  1
  La3+  La55  1  -0.00205558  0.83126474  0.86656604  1
  La3+  La56  1  0.00189101  0.16771929  0.36819157  1
  La3+  La57  1  -0.00345727  0.83224658  0.11765455  1
  La3+  La58  1  -0.00090686  0.16598685  0.13817238  1
  La3+  La59  1  -0.00031937  0.83237890  0.36515941  1
  La3+  La60  1  0.50200207  0.50735179  0.87992809  1
  La3+  La61  1  0.00416994  0.50221832  0.13238988  1
  La3+  La62  1  0.50050757  0.16151122  0.11795501  1
  La3+  La63  1  0.50042636  0.83316315  0.38329500  1
  La3+  La64  1  -0.00417559  0.50223477  0.11380915  1
  La3+  La65  1  0.50051797  0.16391263  0.61657485  1
  La3+  La66  1  0.00028376  0.83586129  0.61595374  1
  La3+  La67  1  0.50046475  0.16366960  0.36504675  1
  La3+  La68  1  0.49841273  0.17222212  0.63723688  1
  La3+  La69  1  0.49970312  0.50030965  0.11601624  1
  La3+  La70  1  -0.00101362  0.16735773  0.38866865  1
  La3+  La71  1  0.50033256  0.83341277  0.13379308  1
  La3+  La72  1  0.75011534  0.49953737  0.71664053  1
  La3+  La73  1  0.24995816  0.49864405  0.02478010  1
  La3+  La74  1  0.74981242  0.83345405  0.27706765  1
  La3+  La75  1  0.25011263  0.13506062  0.77162949  1
  La3+  La76  1  0.75006716  0.49983317  0.00680187  1
  La3+  La77  1  0.74992866  0.80562748  0.75060187  1
  La3+  La78  1  0.74991891  0.13596029  -0.00157046  1
  La3+  La79  1  0.75012246  0.19876092  0.47967056  1
  La3+  La80  1  0.25022822  0.83233447  0.24830221  1
  La3+  La81  1  0.74999154  0.19734045  0.27156765  1
  La3+  La82  1  0.75008900  0.46618387  0.47409167  1
  La3+  La83  1  0.75023672  0.83430214  0.50085809  1
  Ru4+  Ru84  1  -0.00281573  -0.00429543  -0.00207168  1
  Ru4+  Ru85  1  0.00096130  -0.00267629  0.24994640  1
  Ru4+  Ru86  1  -0.00050883  -0.00012961  0.49889478  1
  Ru4+  Ru87  1  -0.00170401  -0.00100224  0.74954162  1
  Ru4+  Ru88  1  0.00078453  0.33425752  -0.00110306  1
  Ru4+  Ru89  1  0.00522314  0.33468517  0.24951621  1
  Ru4+  Ru90  1  -0.00008765  0.33306314  0.50127364  1
  Ru4+  Ru91  1  0.00059801  0.33244337  0.74957269  1
  Ru4+  Ru92  1  -0.00171377  0.67433072  -0.00285884  1
  Ru4+  Ru93  1  -0.00154641  0.66586427  0.24952054  1
  Ru4+  Ru94  1  -0.00166257  0.66875864  0.50229549  1
  Ru4+  Ru95  1  -0.00042949  0.66699427  0.75141651  1
  Ru4+  Ru96  1  0.50096683  0.00045157  0.00102248  1
  Ru4+  Ru97  1  0.49651677  0.00359267  0.25046507  1
  Ru4+  Ru98  1  0.49781296  -0.00062170  0.49885331  1
  Ru4+  Ru99  1  0.50237645  -0.00397253  0.75190853  1
  Ru4+  Ru100  1  0.49999390  0.33575024  0.00482649  1
  Ru4+  Ru101  1  0.50098611  0.33547346  0.25063343  1
  Ru4+  Ru102  1  0.50105752  0.34089193  0.49876423  1
  Ru4+  Ru103  1  0.49924693  0.33417849  0.74945042  1
  Ru4+  Ru104  1  0.50006480  0.66965717  -0.00154853  1
  Ru4+  Ru105  1  0.49866279  0.66735042  0.25228762  1
  Ru4+  Ru106  1  0.50154404  0.66751479  0.50075195  1
  Ru4+  Ru107  1  0.50076610  0.66658723  0.74887143  1
  Ru4+  Ru108  1  0.11470412  0.16972354  -0.00065988  1
  Ru4+  Ru109  1  0.11453499  0.16607057  0.25028246  1
  Ru4+  Ru110  1  0.11236780  0.16641549  0.49985169  1
  Ru4+  Ru111  1  0.11238063  0.16728286  0.75005896  1
  Ru4+  Ru112  1  0.11419258  0.49655466  -0.00028311  1
  Ru4+  Ru113  1  0.11345452  0.49935734  0.25018090  1
  Ru4+  Ru114  1  0.11428054  0.50029153  0.50014094  1
  Ru4+  Ru115  1  0.11309425  0.50030210  0.74958365  1
  Ru4+  Ru116  1  0.11637127  0.83353815  -0.00033190  1
  Ru4+  Ru117  1  0.11228408  0.83514559  0.25010854  1
  Ru4+  Ru118  1  0.11371107  0.83539789  0.50015324  1
  Ru4+  Ru119  1  0.11476935  0.83329036  0.75004477  1
  Ru4+  Ru120  1  0.61391849  0.16238476  0.00005969  1
  Ru4+  Ru121  1  0.61170642  0.16675259  0.25025333  1
  Ru4+  Ru122  1  0.61390761  0.16680850  0.49974741  1
  Ru4+  Ru123  1  0.61409670  0.16583985  0.75011684  1
  Ru4+  Ru124  1  0.61228959  0.50090847  0.00055425  1
  Ru4+  Ru125  1  0.61405386  0.49941677  0.25010251  1
  Ru4+  Ru126  1  0.61107478  0.49903908  0.49946375  1
  Ru4+  Ru127  1  0.61220405  0.50065165  0.74983115  1
  Ru4+  Ru128  1  0.61196521  0.83382877  -0.00050646  1
  Ru4+  Ru129  1  0.61353014  0.83021636  0.25004613  1
  Ru4+  Ru130  1  0.61164977  0.83203506  0.50015709  1
  Ru4+  Ru131  1  0.61012193  0.83431246  0.74936619  1
  Ru4+  Ru132  1  0.38576564  0.16593034  -0.00113364  1
  Ru4+  Ru133  1  0.38401979  0.16343383  0.24931673  1
  Ru4+  Ru134  1  0.38416299  0.16311634  0.49943418  1
  Ru4+  Ru135  1  0.38641341  0.16784602  0.75027590  1
  Ru4+  Ru136  1  0.38739826  0.50158043  0.00092352  1
  Ru4+  Ru137  1  0.38799843  0.49992442  0.24947112  1
  Ru4+  Ru138  1  0.38591332  0.50005586  0.50010150  1
  Ru4+  Ru139  1  0.38653250  0.50044628  0.74976048  1
  Ru4+  Ru140  1  0.38553801  0.83231246  0.00010611  1
  Ru4+  Ru141  1  0.38844438  0.83276811  0.25038932  1
  Ru4+  Ru142  1  0.38654200  0.83464544  0.50005404  1
  Ru4+  Ru143  1  0.38539301  0.83309241  0.75031837  1
  Ru4+  Ru144  1  0.88632258  0.16677035  -0.00105791  1
  Ru4+  Ru145  1  0.88474600  0.16458094  0.25012602  1
  Ru4+  Ru146  1  0.88839687  0.16775328  0.50081784  1
  Ru4+  Ru147  1  0.88691232  0.16550696  0.75025943  1
  Ru4+  Ru148  1  0.88592868  0.49751040  0.00071819  1
  Ru4+  Ru149  1  0.88536903  0.50545685  0.25005875  1
  Ru4+  Ru150  1  0.88864634  0.49996087  0.49890310  1
  Ru4+  Ru151  1  0.88792459  0.50119851  0.75040517  1
  Ru4+  Ru152  1  0.88694126  0.83455328  -0.00003151  1
  Ru4+  Ru153  1  0.88796175  0.83344342  0.24970017  1
  Ru4+  Ru154  1  0.88905808  0.83437817  0.50017321  1
  Ru4+  Ru155  1  0.88823697  0.83198387  0.75017588  1
  Ru4+  Ru156  1  0.24990283  0.24760126  0.50132562  1
  Ru4+  Ru157  1  0.75016733  0.59141650  0.49765579  1
  Ru4+  Ru158  1  0.24998582  0.95619124  0.24935778  1
  Ru4+  Ru159  1  0.24982668  0.08435867  0.50359495  1
  Ru4+  Ru160  1  0.24998248  0.70682173  0.24950273  1
  Ru4+  Ru161  1  0.25005810  0.62307224  0.00168390  1
  Ru4+  Ru162  1  0.74990735  0.95484482  0.50014820  1
  Ru4+  Ru163  1  0.75016776  0.71385475  0.49111937  1
  Ru4+  Ru164  1  0.75011491  0.75145075  -0.00009386  1
  Ru4+  Ru165  1  0.25006876  0.41838419  0.49885656  1
  Ru4+  Ru166  1  0.74986392  0.06788245  0.25017828  1
  Ru4+  Ru167  1  0.75010566  0.26636245  0.00548939  1
  Ru4+  Ru168  1  0.74998029  0.93711550  0.75100669  1
  Ru4+  Ru169  1  0.25001329  0.75726363  0.75466139  1
  Ru4+  Ru170  1  0.25030682  0.41726428  0.25128014  1
  Ru4+  Ru171  1  0.24998071  0.58011581  0.25138884  1
  Ru4+  Ru172  1  0.24998430  0.75411963  0.49598871  1
  Ru4+  Ru173  1  0.25003829  0.26640888  0.74736246  1
  Ru4+  Ru174  1  0.75007301  0.24665988  0.74846461  1
  Ru4+  Ru175  1  0.25030411  0.42118911  0.75133527  1
  Ru4+  Ru176  1  0.24992154  0.08593945  -0.00400461  1
  Ru4+  Ru177  1  0.74969582  0.41736199  0.25378664  1
  Ru4+  Ru178  1  0.25018607  0.37485314  -0.00400815  1
  Ru4+  Ru179  1  0.75016952  0.07469103  0.50290061  1
  O2-  O180  1  0.16779352  0.08073976  0.00074521  1
  O2-  O181  1  0.16607356  0.08092641  0.25026421  1
  O2-  O182  1  0.16790354  0.08097224  0.49908711  1
  O2-  O183  1  0.16734984  0.07967564  0.74954052  1
  O2-  O184  1  0.16650904  0.41291054  0.00028684  1
  O2-  O185  1  0.16823048  0.41402710  0.24991712  1
  O2-  O186  1  0.16752338  0.41441415  0.50033783  1
  O2-  O187  1  0.16752654  0.41448596  0.75011919  1
  O2-  O188  1  0.16705520  0.74817078  0.00061543  1
  O2-  O189  1  0.16730571  0.74572892  0.24946291  1
  O2-  O190  1  0.16670619  0.74748711  0.49995613  1
  O2-  O191  1  0.16645114  0.74784052  0.74988475  1
  O2-  O192  1  0.66707501  0.08088509  -0.00117362  1
  O2-  O193  1  0.66654340  0.08006115  0.25035643  1
  O2-  O194  1  0.66650961  0.07964142  0.49971161  1
  O2-  O195  1  0.66674575  0.08142110  0.75017493  1
  O2-  O196  1  0.66722811  0.41322678  -0.00021448  1
  O2-  O197  1  0.66673260  0.41386093  0.24947449  1
  O2-  O198  1  0.66614912  0.41329624  0.50098019  1
  O2-  O199  1  0.66784846  0.41330226  0.75002431  1
  O2-  O200  1  0.66807672  0.74775469  -0.00111168  1
  O2-  O201  1  0.66835250  0.74826985  0.25158649  1
  O2-  O202  1  0.66499184  0.74648037  0.50025621  1
  O2-  O203  1  0.66747366  0.74677804  0.74978445  1
  O2-  O204  1  0.33198915  0.25247325  0.00021841  1
  O2-  O205  1  0.33216118  0.25261936  0.25040134  1
  O2-  O206  1  0.33182368  0.25282705  0.50011616  1
  O2-  O207  1  0.33316519  0.25314463  0.75030968  1
  O2-  O208  1  0.33366284  0.58698505  0.00045560  1
  O2-  O209  1  0.33282103  0.58616167  0.24988885  1
  O2-  O210  1  0.33231497  0.58488061  0.50028936  1
  O2-  O211  1  0.33241974  0.58500564  0.75025128  1
  O2-  O212  1  0.33321271  0.91835388  -0.00023284  1
  O2-  O213  1  0.33404453  0.92031386  0.24988342  1
  O2-  O214  1  0.33340857  0.91852821  0.49962529  1
  O2-  O215  1  0.33231361  0.91909014  0.74973945  1
  O2-  O216  1  0.83356835  0.25348144  -0.00002961  1
  O2-  O217  1  0.83318112  0.25349714  0.24921231  1
  O2-  O218  1  0.83296732  0.25414295  0.50033675  1
  O2-  O219  1  0.83197636  0.25247151  0.74965892  1
  O2-  O220  1  0.83195415  0.58641207  -0.00044672  1
  O2-  O221  1  0.83186398  0.58509412  0.25049895  1
  O2-  O222  1  0.83267176  0.58714681  0.50028831  1
  O2-  O223  1  0.83118750  0.58625130  0.74936059  1
  O2-  O224  1  0.83320452  0.91853084  -0.00055168  1
  O2-  O225  1  0.83201525  0.91906888  0.25053015  1
  O2-  O226  1  0.83470300  0.92052929  0.49984468  1
  O2-  O227  1  0.83377044  0.91988713  0.74904812  1
  O2-  O228  1  0.16768781  0.25221812  0.00029670  1
  O2-  O229  1  0.16793694  0.25325788  0.25020348  1
  O2-  O230  1  0.16797617  0.25308299  0.50031143  1
  O2-  O231  1  0.16613004  0.25324985  0.74998045  1
  O2-  O232  1  0.16705988  0.58754941  0.00059665  1
  O2-  O233  1  0.16739974  0.58609023  0.25006390  1
  O2-  O234  1  0.16751381  0.58453244  0.50038638  1
  O2-  O235  1  0.16729017  0.58541618  0.75009013  1
  O2-  O236  1  0.16673544  0.91787690  0.00082259  1
  O2-  O237  1  0.16579975  0.91983695  0.25027534  1
  O2-  O238  1  0.16705166  0.91830715  0.49884462  1
  O2-  O239  1  0.16802451  0.91881377  0.75029320  1
  O2-  O240  1  0.66660550  0.25391933  -0.00022821  1
  O2-  O241  1  0.66650008  0.25443665  0.24948154  1
  O2-  O242  1  0.66696299  0.25360425  0.49982740  1
  O2-  O243  1  0.66810800  0.25220547  0.74983689  1
  O2-  O244  1  0.66770833  0.58637780  -0.00098005  1
  O2-  O245  1  0.66774087  0.58543839  0.25041442  1
  O2-  O246  1  0.66646710  0.58707172  0.49990219  1
  O2-  O247  1  0.66789215  0.58648284  0.74966817  1
  O2-  O248  1  0.66665584  0.91831767  -0.00090663  1
  O2-  O249  1  0.66757449  0.91885103  0.25090664  1
  O2-  O250  1  0.66617331  0.92088542  0.50040326  1
  O2-  O251  1  0.66660146  0.92008612  0.74999430  1
  O2-  O252  1  0.33300785  0.08122509  0.00069237  1
  O2-  O253  1  0.33268963  0.08131771  0.24962961  1
  O2-  O254  1  0.33233226  0.08149763  0.49956042  1
  O2-  O255  1  0.33286005  0.07925836  0.75051314  1
  O2-  O256  1  0.33244417  0.41246108  -0.00045101  1
  O2-  O257  1  0.33140200  0.41367974  0.25037081  1
  O2-  O258  1  0.33245889  0.41447992  0.50009431  1
  O2-  O259  1  0.33173549  0.41456779  0.74993543  1
  O2-  O260  1  0.33352105  0.74777271  0.00048919  1
  O2-  O261  1  0.33294415  0.74596941  0.24945809  1
  O2-  O262  1  0.33328122  0.74760502  0.50023035  1
  O2-  O263  1  0.33380944  0.74799479  0.75009208  1
  O2-  O264  1  0.83251906  0.08033053  -0.00021252  1
  O2-  O265  1  0.83340758  0.07968326  0.25004658  1
  O2-  O266  1  0.83387719  0.07953600  0.49966289  1
  O2-  O267  1  0.83381595  0.08203789  0.74955983  1
  O2-  O268  1  0.83310428  0.41371750  -0.00035793  1
  O2-  O269  1  0.83305936  0.41352181  0.24978582  1
  O2-  O270  1  0.83406567  0.41270510  0.50141537  1
  O2-  O271  1  0.83266162  0.41354210  0.74958991  1
  O2-  O272  1  0.83242925  0.74704280  -0.00076847  1
  O2-  O273  1  0.83172677  0.74768014  0.25081332  1
  O2-  O274  1  0.83444399  0.74556011  0.50000112  1
  O2-  O275  1  0.83149625  0.74685403  0.74936478  1
  O2-  O276  1  0.45546165  0.76323794  0.99370705  1
  O2-  O277  1  0.54361848  0.22718229  0.46924189  1
  O2-  O278  1  0.95372367  0.09653852  0.26478951  1
  O2-  O279  1  0.95475173  0.23499956  0.76443171  1
  O2-  O280  1  0.95124016  0.57050330  0.26328665  1
  O2-  O281  1  0.45863079  0.10581478  0.77940228  1
  O2-  O282  1  0.95741487  0.56369240  0.23741017  1
  O2-  O283  1  0.45767668  0.89844523  0.97266170  1
  O2-  O284  1  0.04819597  0.56802436  0.98651962  1
  O2-  O285  1  0.95760880  0.10428757  0.02631315  1
  O2-  O286  1  0.54637500  0.09587586  0.51115453  1
  O2-  O287  1  0.45779739  0.43873985  0.97466146  1
  O2-  O288  1  0.04719964  0.76445177  0.51402688  1
  O2-  O289  1  0.54839077  0.90308230  0.23563420  1
  O2-  O290  1  0.04535319  0.56786568  0.73506003  1
  O2-  O291  1  0.95285620  0.76431204  0.51374755  1
  O2-  O292  1  0.04046485  0.89454519  0.02564220  1
  O2-  O293  1  0.45213024  0.23284296  0.48008209  1
  O2-  O294  1  0.45474257  0.09720624  0.98421200  1
  O2-  O295  1  0.44702771  0.24500130  0.28805715  1
  O2-  O296  1  0.54719627  0.23312011  0.97996465  1
  O2-  O297  1  0.95389919  0.42813978  0.27043204  1
  O2-  O298  1  0.45310497  0.90007796  0.48495808  1
  O2-  O299  1  0.54847238  0.90095839  0.73640539  1
  O2-  O300  1  0.95135417  0.56915164  0.98537609  1
  O2-  O301  1  0.54712882  0.23887763  0.01853892  1
  O2-  O302  1  0.95298232  0.23770399  0.26599413  1
  O2-  O303  1  0.45578014  0.22999312  0.02573516  1
  O2-  O304  1  0.45250740  0.23649904  0.51900929  1
  O2-  O305  1  0.95536401  0.43169973  0.76455395  1
  O2-  O306  1  0.04467190  0.43326527  0.51401422  1
  O2-  O307  1  0.03919672  0.77521483  0.22251667  1
  O2-  O308  1  0.95300281  0.42937774  0.23114383  1
  O2-  O309  1  0.54714556  0.90112617  0.01643588  1
  O2-  O310  1  0.04196759  0.10701676  0.97119143  1
  O2-  O311  1  0.54679584  0.43129786  0.76265540  1
  O2-  O312  1  0.95406757  0.23635902  0.98450385  1
  O2-  O313  1  0.54580408  0.23524943  0.23473550  1
  O2-  O314  1  0.54562809  0.56530005  0.48505584  1
  O2-  O315  1  0.54754540  0.09666683  0.73742600  1
  O2-  O316  1  0.45485534  0.76364890  0.00683457  1
  O2-  O317  1  0.05011435  0.90709926  0.78884379  1
  O2-  O318  1  0.04014270  0.10576766  0.72432534  1
  O2-  O319  1  0.95393368  0.90242321  0.73452885  1
  O2-  O320  1  0.45742761  0.89421832  0.72577925  1
  O2-  O321  1  0.04846778  0.56798402  0.26479932  1
  O2-  O322  1  0.54738651  0.43031512  0.98853190  1
  O2-  O323  1  0.54207911  0.89193253  0.52660057  1
  O2-  O324  1  0.56534420  0.59460084  0.29787573  1
  O2-  O325  1  0.06437796  0.40367577  0.21709784  1
  O2-  O326  1  0.93848467  0.59645274  0.96950376  1
  O2-  O327  1  0.93621119  0.73742840  0.78209014  1
  O2-  O328  1  0.56888156  0.93804216  0.45504391  1
  O2-  O329  1  0.42940643  0.26812653  0.95913296  1
  O2-  O330  1  0.56536032  0.59263068  0.20210109  1
  O2-  O331  1  0.43035807  0.39297815  0.04864376  1
  O2-  O332  1  0.05519866  0.91553647  0.79530264  1
  O2-  O333  1  0.43684655  0.40513388  0.21802607  1
  O2-  O334  1  0.43079554  0.93569793  0.03906614  1
  O2-  O335  1  0.56158109  0.92924074  0.21779042  1
  O2-  O336  1  0.93528620  0.59465559  0.47121856  1
  O2-  O337  1  0.43612099  0.59862950  0.78206947  1
  O2-  O338  1  0.06961739  0.94085182  0.67961621  1
  O2-  O339  1  0.06378304  0.59265885  0.97123349  1
  O2-  O340  1  0.93483739  0.74019910  0.28077100  1
  O2-  O341  1  0.43545116  0.40392538  0.71742876  1
  O2-  O342  1  0.43573778  0.26358761  0.71756138  1
  O2-  O343  1  0.06375288  0.93139873  0.53177528  1
  O2-  O344  1  0.06535383  0.73957090  0.95283821  1
  O2-  O345  1  0.92866951  0.06249083  0.95740760  1
  O2-  O346  1  0.06384527  0.26257143  0.21693066  1
  O2-  O347  1  0.56379648  0.06796992  0.03280061  1
  O2-  O348  1  0.43588844  0.59754474  0.45105143  1
  O2-  O349  1  0.07183030  0.73010780  0.29128850  1
  O2-  O350  1  0.43116557  0.26952759  0.18345576  1
  O2-  O351  1  0.06782409  0.06361522  0.79358160  1
  O2-  O352  1  0.43554010  0.07103223  0.27901314  1
  O2-  O353  1  0.06566123  0.59290101  0.45478787  1
  O2-  O354  1  0.06528083  0.26238848  0.97096666  1
  O2-  O355  1  0.06568137  0.73909624  0.04608049  1
  O2-  O356  1  0.43640317  0.73554708  0.28273705  1
  O2-  O357  1  0.06916186  0.93854428  0.95384751  1
  O2-  O358  1  0.57111903  0.27103144  0.54242786  1
  O2-  O359  1  0.43631178  0.59802227  0.54832126  1
  O2-  O360  1  0.93098286  0.60045898  0.21776141  1
  O2-  O361  1  0.93736288  0.26151277  0.28256189  1
  O2-  O362  1  0.93663270  0.26514500  0.53165725  1
  O2-  O363  1  0.42928565  0.06498638  0.70947092  1
  O2-  O364  1  0.43219346  0.93660228  0.79344153  1
  O2-  O365  1  0.56523413  0.73922085  0.22012664  1
  O2-  O366  1  0.07116905  0.06026943  0.04887567  1
  O2-  O367  1  0.06399856  0.59749390  0.55064849  1
  O2-  O368  1  0.56638308  0.73699591  0.97015390  1
  O2-  O369  1  0.93576425  0.59571525  0.78221687  1
  O2-  O370  1  0.44711788  0.24488369  0.28804211  1
  O2-  O371  1  0.93497325  0.92795971  0.22125790  1
  O2-  O372  1  0.74987273  0.33082262  0.32946609  1
  O2-  O373  1  0.25002266  0.66770959  0.40594728  1
  O2-  O374  1  0.25002586  0.00268865  0.90845056  1
  O2-  O375  1  0.25012029  0.33607466  0.84740498  1
  O2-  O376  1  0.25006700  0.33357975  0.40729699  1
  O2-  O377  1  0.74988192  0.34041241  0.91638985  1
  O2-  O378  1  0.74982762  0.33673302  0.09715800  1
  O2-  O379  1  0.74986256  0.00146163  0.65349460  1
  O2-  O380  1  0.75007850  -0.00791666  0.16583180  1
  O2-  O381  1  0.24998788  0.66615163  0.66996054  1
  O2-  O382  1  0.24985432  0.00349785  0.35134965  1
  O2-  O383  1  0.75011395  0.66493137  0.07947853  1
  O2-  O384  1  0.74997115  -0.00330210  0.34670008  1
  O2-  O385  1  0.75003157  0.66780637  0.16898071  1
  O2-  O386  1  0.75004772  0.00168635  0.07770631  1
  O2-  O387  1  0.25003008  0.66980418  0.90066903  1
  O2-  O388  1  0.24996955  0.33788625  0.65227633  1
  O2-  O389  1  0.75011633  0.66533521  0.60594857  1
  O2-  O390  1  0.25012561  0.00268583  0.59112895  1
  O2-  O391  1  0.74986732  0.33412234  0.82554414  1
  O2-  O392  1  0.74977820  0.00162084  0.84678451  1
  O2-  O393  1  0.74998470  0.33317874  0.42196113  1
  O2-  O394  1  0.25003548  0.66612186  0.58028242  1
  O2-  O395  1  0.24986575  0.00407270  0.14839510  1
  O2-  O396  1  0.24998733  0.16553520  0.91296891  1
  O2-  O397  1  0.24996050  0.16557918  0.41752869  1
  O2-  O398  1  0.74999720  0.16582481  0.61102767  1
  O2-  O399  1  0.75004534  0.50001370  0.89832020  1
  O2-  O400  1  0.24999869  0.16752900  0.33276878  1
  O2-  O401  1  0.24997361  0.16729539  0.08334282  1
  O2-  O402  1  0.25003170  0.16626809  0.16598220  1
  O2-  O403  1  0.25000602  0.83137640  0.41008265  1
  O2-  O404  1  0.75001693  0.83206724  0.15364517  1
  O2-  O405  1  0.24990230  0.83263554  0.09545457  1
  O2-  O406  1  0.74995379  0.49976783  0.11789277  1
  O2-  O407  1  0.24996541  0.49933488  0.34132554  1
  O2-  O408  1  0.74993986  0.50235510  0.60061922  1
  O2-  O409  1  0.24999712  0.49871131  0.88803948  1
  O2-  O410  1  0.25000656  0.83316267  0.58155231  1
  O2-  O411  1  0.74993098  0.49972369  0.33819739  1
  O2-  O412  1  0.74994480  0.50012098  0.82637506  1
  O2-  O413  1  0.74998133  0.50642724  0.19370463  1
  O2-  O414  1  0.24997835  0.82901185  0.83635620  1
  O2-  O415  1  0.24998366  0.49977147  0.16130326  1
  O2-  O416  1  0.75002469  0.83643303  0.06821924  1
  O2-  O417  1  0.24995367  0.17115933  0.63841092  1
  O2-  O418  1  0.25004525  0.83450111  0.66833867  1
  O2-  O419  1  0.75000844  0.16413784  0.14064649  1
  O2-  O420  1  0.96659450  0.67115895  0.11922682  1
  O2-  O421  1  0.47361296  0.00288378  0.12936773  1
  O2-  O422  1  0.97188276  0.33272669  0.12493069  1
  O2-  O423  1  0.97364579  0.00167040  0.12236128  1
  O2-  O424  1  0.97291724  -0.00248717  0.87140871  1
  O2-  O425  1  0.52648384  0.66404996  0.87201474  1
  O2-  O426  1  0.53138205  0.00079626  0.62384219  1
  O2-  O427  1  0.02816690  0.33302178  0.37475878  1
  O2-  O428  1  0.47028591  0.33606921  0.86899500  1
  O2-  O429  1  0.52776644  0.66704991  0.62628448  1
  O2-  O430  1  0.52607396  0.67163040  0.37883957  1
  O2-  O431  1  0.53164377  0.33259810  0.87176395  1
  O2-  O432  1  0.96975034  0.66853942  0.37577756  1
  O2-  O433  1  0.02534952  0.66726779  0.86796962  1
  O2-  O434  1  0.52936944  0.66794090  0.11678767  1
  O2-  O435  1  0.52655209  0.33603644  0.62838925  1
  O2-  O436  1  0.02622889  0.33639763  0.87172387  1
  O2-  O437  1  0.47037828  -0.00149359  0.61906691  1
  O2-  O438  1  0.47418772  0.34006924  0.37993611  1
  O2-  O439  1  0.46675634  0.66508953  0.12614604  1
  O2-  O440  1  0.02792812  0.66812752  0.37521541  1
  O2-  O441  1  0.03289495  0.66158544  0.13020051  1
  O2-  O442  1  0.02725069  0.33322862  0.62674265  1
  O2-  O443  1  0.47416522  -0.00173439  0.37751340  1
