# generated using pymatgen
data_La7(Ru4O11)2
_symmetry_space_group_name_H-M   'P 1'
_cell_length_a   23.99233392
_cell_length_b   16.83224635
_cell_length_c   15.42780815
_cell_angle_alpha   89.99719517
_cell_angle_beta   89.99918229
_cell_angle_gamma   89.99847372
_symmetry_Int_Tables_number   1
_chemical_formula_structural   La7(Ru4O11)2
_chemical_formula_sum   'La84 Ru96 O264'
_cell_volume   6230.44124300
_cell_formula_units_Z   12
loop_
 _symmetry_equiv_pos_site_id
 _symmetry_equiv_pos_as_xyz
  1  'x, y, z'
loop_
 _atom_type_symbol
 _atom_type_oxidation_number
  La3+  3.0
  Ru4+  4.0
  O2-  -2.0
loop_
 _atom_site_type_symbol
 _atom_site_label
 _atom_site_symmetry_multiplicity
 _atom_site_fract_x
 _atom_site_fract_y
 _atom_site_fract_z
 _atom_site_occupancy
  La3+  La0  1  0.14282186  -0.00273284  0.12654073  1
  La3+  La1  1  0.14050044  -0.00066325  0.37218653  1
  La3+  La2  1  0.13617175  0.00129362  0.62537172  1
  La3+  La3  1  0.14309236  -0.00376160  0.87427130  1
  La3+  La4  1  0.13649615  0.33777758  0.11994647  1
  La3+  La5  1  0.13868162  0.33236211  0.37476675  1
  La3+  La6  1  0.13787595  0.33363035  0.62703674  1
  La3+  La7  1  0.14437296  0.33207618  0.87626178  1
  La3+  La8  1  0.13799718  0.67416079  0.12307659  1
  La3+  La9  1  0.13700219  0.67133616  0.37682046  1
  La3+  La10  1  0.13739497  0.66810150  0.62369416  1
  La3+  La11  1  0.13715241  0.66657919  0.88063442  1
  La3+  La12  1  0.63826353  0.00370413  0.13073140  1
  La3+  La13  1  0.64123680  0.00567953  0.37324835  1
  La3+  La14  1  0.64041863  -0.00070053  0.62472546  1
  La3+  La15  1  0.63951646  -0.00351371  0.87054786  1
  La3+  La16  1  0.63902127  0.33842352  0.13621464  1
  La3+  La17  1  0.64248519  0.33421641  0.37255822  1
  La3+  La18  1  0.64161082  0.33406834  0.61753485  1
  La3+  La19  1  0.63841785  0.33559165  0.87649100  1
  La3+  La20  1  0.64426018  0.66746331  0.12887681  1
  La3+  La21  1  0.63993040  0.66543820  0.37486813  1
  La3+  La22  1  0.64262825  0.66807170  0.62589411  1
  La3+  La23  1  0.64068347  0.67205845  0.87617220  1
  La3+  La24  1  0.35813359  -0.00567205  0.12924961  1
  La3+  La25  1  0.35515719  0.00118035  0.37310214  1
  La3+  La26  1  0.35708955  -0.00319239  0.62636223  1
  La3+  La27  1  0.35480533  -0.00404415  0.87347673  1
  La3+  La28  1  0.35997410  0.33822334  0.11954776  1
  La3+  La29  1  0.36342439  0.33349574  0.37499006  1
  La3+  La30  1  0.36175428  0.33468785  0.62552866  1
  La3+  La31  1  0.35894840  0.33677475  0.87844569  1
  La3+  La32  1  0.36137232  0.66820632  0.12577561  1
  La3+  La33  1  0.35993948  0.66805659  0.37318159  1
  La3+  La34  1  0.35832496  0.66718376  0.62756256  1
  La3+  La35  1  0.35711734  0.66748277  0.87524310  1
  La3+  La36  1  0.86490841  0.00136209  0.12717414  1
  La3+  La37  1  0.86366000  0.00038016  0.37566903  1
  La3+  La38  1  0.86555510  0.00052295  0.62387675  1
  La3+  La39  1  0.86074542  -0.00296828  0.87190845  1
  La3+  La40  1  0.86489969  0.33431892  0.13462389  1
  La3+  La41  1  0.86373637  0.32781068  0.37941668  1
  La3+  La42  1  0.86974757  0.32247999  0.60830840  1
  La3+  La43  1  0.86246775  0.33404570  0.87427481  1
  La3+  La44  1  0.86448360  0.66479148  0.13163491  1
  La3+  La45  1  0.85670081  0.66960202  0.38540636  1
  La3+  La46  1  0.86639119  0.67011240  0.62420979  1
  La3+  La47  1  0.86189761  0.66945101  0.87042998  1
  La3+  La48  1  -0.00099905  0.82917690  0.37683230  1
  La3+  La49  1  -0.00011436  0.83647953  0.63605174  1
  La3+  La50  1  -0.00381560  0.50307976  0.38185555  1
  La3+  La51  1  0.00333725  0.82664260  0.61691003  1
  La3+  La52  1  0.50088838  0.17388928  0.86759352  1
  La3+  La53  1  -0.00492201  0.17259614  0.37719213  1
  La3+  La54  1  0.50140499  0.82518224  0.11220892  1
  La3+  La55  1  0.50225477  0.49321960  0.86692597  1
  La3+  La56  1  0.00031721  0.83534405  0.13808920  1
  La3+  La57  1  0.49661507  0.50659276  0.36800821  1
  La3+  La58  1  0.49803866  0.82976307  0.61103190  1
  La3+  La59  1  0.50560907  0.15841445  0.38902098  1
  La3+  La60  1  -0.00794832  0.17540348  0.60920864  1
  La3+  La61  1  0.49762016  0.83669683  0.36959532  1
  La3+  La62  1  0.00403698  0.49501809  0.36493859  1
  La3+  La63  1  0.49940679  0.49767034  0.61495635  1
  La3+  La64  1  0.49845940  0.16448311  0.62898885  1
  La3+  La65  1  0.50097084  0.83503643  0.63187672  1
  La3+  La66  1  0.49470271  0.16766186  0.87930672  1
  La3+  La67  1  0.00293860  0.83254163  0.87684312  1
  La3+  La68  1  0.49751010  0.83549416  0.86753946  1
  La3+  La69  1  -0.00222376  0.49245413  0.87443891  1
  La3+  La70  1  -0.00246720  0.49612481  0.12538516  1
  La3+  La71  1  0.49908670  0.17241480  0.12188941  1
  La3+  La72  1  0.74944750  0.79760062  0.51041050  1
  La3+  La73  1  0.75032731  0.80237732  0.24862421  1
  La3+  La74  1  0.75231928  0.78172107  -0.00231964  1
  La3+  La75  1  0.24861922  0.12408986  0.75489194  1
  La3+  La76  1  0.25012115  0.11477199  0.26282481  1
  La3+  La77  1  0.25013042  0.51694701  0.26878603  1
  La3+  La78  1  0.25063418  0.77936653  0.50098089  1
  La3+  La79  1  0.75057826  0.11929974  0.78729751  1
  La3+  La80  1  0.75096300  0.17014555  0.00029795  1
  La3+  La81  1  0.24900591  0.49550452  -0.00510695  1
  La3+  La82  1  0.25033247  0.23017368  0.00607741  1
  La3+  La83  1  0.75152674  0.57030375  0.00869936  1
  Ru4+  Ru84  1  -0.00069938  -0.00007510  -0.00508730  1
  Ru4+  Ru85  1  0.00009757  0.01053824  0.25152073  1
  Ru4+  Ru86  1  0.00105435  0.00195017  0.50067413  1
  Ru4+  Ru87  1  -0.00237913  0.00501184  0.75740762  1
  Ru4+  Ru88  1  0.00148218  0.33159133  0.00383801  1
  Ru4+  Ru89  1  0.00473315  0.32361945  0.25177669  1
  Ru4+  Ru90  1  0.00211497  0.32734881  0.50061326  1
  Ru4+  Ru91  1  0.00179913  0.32666131  0.75135158  1
  Ru4+  Ru92  1  0.00199036  0.65861999  -0.00467147  1
  Ru4+  Ru93  1  -0.00138136  0.66439514  0.24350234  1
  Ru4+  Ru94  1  0.00362776  0.65853693  0.50294624  1
  Ru4+  Ru95  1  0.00394160  0.65599945  0.75182270  1
  Ru4+  Ru96  1  0.49975529  -0.00061268  -0.00152095  1
  Ru4+  Ru97  1  0.50046897  -0.00422055  0.24648410  1
  Ru4+  Ru98  1  0.50032015  0.00658632  0.50437310  1
  Ru4+  Ru99  1  0.49466911  -0.00252562  0.75475447  1
  Ru4+  Ru100  1  0.49796344  0.33684795  -0.00059623  1
  Ru4+  Ru101  1  0.49643692  0.32571293  0.24295304  1
  Ru4+  Ru102  1  0.49969242  0.33546189  0.50470713  1
  Ru4+  Ru103  1  0.49906961  0.33653712  0.75489339  1
  Ru4+  Ru104  1  0.50732586  0.66749770  -0.00103546  1
  Ru4+  Ru105  1  0.49971003  0.67041153  0.26244519  1
  Ru4+  Ru106  1  0.49927083  0.66098760  0.49322922  1
  Ru4+  Ru107  1  0.49749295  0.66025458  0.74797353  1
  Ru4+  Ru108  1  0.11045487  0.16477339  0.00053306  1
  Ru4+  Ru109  1  0.10755677  0.16642738  0.24852398  1
  Ru4+  Ru110  1  0.11642940  0.17501918  0.50038877  1
  Ru4+  Ru111  1  0.10870633  0.16884271  0.75145789  1
  Ru4+  Ru112  1  0.10741495  0.50112507  0.00169368  1
  Ru4+  Ru113  1  0.11362495  0.49820648  0.24727603  1
  Ru4+  Ru114  1  0.11461134  0.49897453  0.50149736  1
  Ru4+  Ru115  1  0.11145964  0.50066089  0.74927387  1
  Ru4+  Ru116  1  0.11675984  0.83885162  0.00022580  1
  Ru4+  Ru117  1  0.11563719  0.83280806  0.25173487  1
  Ru4+  Ru118  1  0.11562733  0.84051748  0.49803289  1
  Ru4+  Ru119  1  0.11661352  0.83306458  0.75194670  1
  Ru4+  Ru120  1  0.61082207  0.17146365  0.00487065  1
  Ru4+  Ru121  1  0.61497050  0.16795697  0.25076634  1
  Ru4+  Ru122  1  0.61401280  0.16726278  0.49996570  1
  Ru4+  Ru123  1  0.61276601  0.16753371  0.74869539  1
  Ru4+  Ru124  1  0.60320675  0.51176819  0.00073922  1
  Ru4+  Ru125  1  0.61476894  0.50076467  0.24940957  1
  Ru4+  Ru126  1  0.61317795  0.49613411  0.49945517  1
  Ru4+  Ru127  1  0.61142977  0.49850328  0.74871918  1
  Ru4+  Ru128  1  0.60715414  0.82725560  0.00491121  1
  Ru4+  Ru129  1  0.60842806  0.83224051  0.24908664  1
  Ru4+  Ru130  1  0.61207475  0.83583347  0.50041621  1
  Ru4+  Ru131  1  0.61564998  0.83416663  0.75008001  1
  Ru4+  Ru132  1  0.39219001  0.16513083  0.00048796  1
  Ru4+  Ru133  1  0.39313037  0.17062424  0.24896555  1
  Ru4+  Ru134  1  0.38871762  0.16813724  0.49870398  1
  Ru4+  Ru135  1  0.38712117  0.16301153  0.74427169  1
  Ru4+  Ru136  1  0.39178223  0.50447975  0.00390577  1
  Ru4+  Ru137  1  0.39174388  0.50037055  0.25015192  1
  Ru4+  Ru138  1  0.39116716  0.49967598  0.50050634  1
  Ru4+  Ru139  1  0.39065008  0.50051539  0.74846739  1
  Ru4+  Ru140  1  0.38570524  0.83490702  0.00048346  1
  Ru4+  Ru141  1  0.38927017  0.83807361  0.24968960  1
  Ru4+  Ru142  1  0.38937567  0.83135482  0.49815196  1
  Ru4+  Ru143  1  0.38446190  0.83614608  0.75010726  1
  Ru4+  Ru144  1  0.89372277  0.17088806  0.00183378  1
  Ru4+  Ru145  1  0.88561953  0.16624826  0.25280095  1
  Ru4+  Ru146  1  0.88297140  0.16770805  0.49927821  1
  Ru4+  Ru147  1  0.89097295  0.16579647  0.74611896  1
  Ru4+  Ru148  1  0.88970590  0.50126935  -0.00041554  1
  Ru4+  Ru149  1  0.88073932  0.50236227  0.24923886  1
  Ru4+  Ru150  1  0.88326266  0.49240583  0.50412056  1
  Ru4+  Ru151  1  0.88772867  0.50169419  0.74753704  1
  Ru4+  Ru152  1  0.89065090  0.83350351  0.00030530  1
  Ru4+  Ru153  1  0.88628315  0.82877169  0.24901602  1
  Ru4+  Ru154  1  0.88137776  0.83301015  0.49985527  1
  Ru4+  Ru155  1  0.88164779  0.83522231  0.75237732  1
  Ru4+  Ru156  1  0.25002689  0.58083411  0.75666770  1
  Ru4+  Ru157  1  0.25048126  0.41905823  0.50348839  1
  Ru4+  Ru158  1  0.25034132  0.07332814  0.00120319  1
  Ru4+  Ru159  1  0.74934045  0.94704776  0.25276350  1
  Ru4+  Ru160  1  0.75091623  0.42453216  0.73212840  1
  Ru4+  Ru161  1  0.74958581  0.03970560  -0.00052960  1
  Ru4+  Ru162  1  0.25006254  0.94457235  0.48986549  1
  Ru4+  Ru163  1  0.24976621  0.65484800  0.25248942  1
  Ru4+  Ru164  1  0.24994206  0.76588023  -0.02495801  1
  Ru4+  Ru165  1  0.74952898  0.42027563  0.00808764  1
  Ru4+  Ru166  1  0.74889057  0.91328395  0.00013585  1
  Ru4+  Ru167  1  0.74995146  0.29099591  0.05535370  1
  Ru4+  Ru168  1  0.25027281  0.28009877  0.76204122  1
  Ru4+  Ru169  1  0.75084164  0.25390358  0.73952858  1
  Ru4+  Ru170  1  0.25086535  0.38275736  0.23804780  1
  Ru4+  Ru171  1  0.24971404  0.08594612  0.50188194  1
  Ru4+  Ru172  1  0.74988379  0.59342962  0.73175292  1
  Ru4+  Ru173  1  0.25071880  0.57832039  0.50311859  1
  Ru4+  Ru174  1  0.24936945  0.25239327  0.24399711  1
  Ru4+  Ru175  1  0.25060540  0.24901863  0.50767309  1
  Ru4+  Ru176  1  0.74907080  0.58178887  0.26303273  1
  Ru4+  Ru177  1  0.25053872  0.42385985  0.75385404  1
  Ru4+  Ru178  1  0.74974606  0.58321365  0.49700064  1
  Ru4+  Ru179  1  0.74994448  0.94137726  0.51345732  1
  O2-  O180  1  0.16535663  0.08062413  0.00021183  1
  O2-  O181  1  0.15992766  0.07754212  0.25075771  1
  O2-  O182  1  0.16611998  0.08117110  0.50153663  1
  O2-  O183  1  0.15860143  0.07823433  0.74582079  1
  O2-  O184  1  0.16757802  0.41707360  0.00460619  1
  O2-  O185  1  0.16919083  0.41167468  0.25243787  1
  O2-  O186  1  0.16743588  0.41383429  0.50201796  1
  O2-  O187  1  0.16731744  0.41747842  0.74802002  1
  O2-  O188  1  0.17160959  0.74882890  -0.00205791  1
  O2-  O189  1  0.17025078  0.74712715  0.25269394  1
  O2-  O190  1  0.15969223  0.74261217  0.50140939  1
  O2-  O191  1  0.16215039  0.74516722  0.74778698  1
  O2-  O192  1  0.66324355  0.07805768  -0.00046778  1
  O2-  O193  1  0.66709769  0.08008762  0.24722686  1
  O2-  O194  1  0.66309654  0.07929802  0.50174354  1
  O2-  O195  1  0.66412573  0.07734452  0.74750073  1
  O2-  O196  1  0.66210043  0.41680908  0.00126354  1
  O2-  O197  1  0.66590935  0.41634954  0.25179671  1
  O2-  O198  1  0.66634229  0.41730510  0.50145199  1
  O2-  O199  1  0.66466009  0.41470007  0.74801266  1
  O2-  O200  1  0.66629592  0.74471630  0.00032375  1
  O2-  O201  1  0.66719487  0.74719356  0.25715665  1
  O2-  O202  1  0.66083753  0.74500668  0.49850681  1
  O2-  O203  1  0.66475762  0.74746537  0.74727018  1
  O2-  O204  1  0.34371417  0.25615467  -0.00105609  1
  O2-  O205  1  0.33100840  0.25108220  0.25536771  1
  O2-  O206  1  0.33424084  0.25422615  0.50160884  1
  O2-  O207  1  0.33375081  0.25354478  0.75039058  1
  O2-  O208  1  0.33223358  0.58578953  -0.00361564  1
  O2-  O209  1  0.33376463  0.58933202  0.24998115  1
  O2-  O210  1  0.33327111  0.58490437  0.50053233  1
  O2-  O211  1  0.33258331  0.58523934  0.74880510  1
  O2-  O212  1  0.33545694  0.91678485  0.00106948  1
  O2-  O213  1  0.33288898  0.91627452  0.24629104  1
  O2-  O214  1  0.33194508  0.91972993  0.49924379  1
  O2-  O215  1  0.33324018  0.91799268  0.74886724  1
  O2-  O216  1  0.83680584  0.25377079  0.00058895  1
  O2-  O217  1  0.83750146  0.25121898  0.24808087  1
  O2-  O218  1  0.82942926  0.24784648  0.49882237  1
  O2-  O219  1  0.83607053  0.25289579  0.75165846  1
  O2-  O220  1  0.84082010  0.59070001  0.00190218  1
  O2-  O221  1  0.83058243  0.58802787  0.24816094  1
  O2-  O222  1  0.83286045  0.58376804  0.50213324  1
  O2-  O223  1  0.83378771  0.58620999  0.74902198  1
  O2-  O224  1  0.83147472  0.91896232  0.00040992  1
  O2-  O225  1  0.83207871  0.91947478  0.25271830  1
  O2-  O226  1  0.83188223  0.92097409  0.49872972  1
  O2-  O227  1  0.83529462  0.92095841  0.74883922  1
  O2-  O228  1  0.15658344  0.25403228  0.00144049  1
  O2-  O229  1  0.16543767  0.25137289  0.25095291  1
  O2-  O230  1  0.16889095  0.25424746  0.50095340  1
  O2-  O231  1  0.17022030  0.25239219  0.74646761  1
  O2-  O232  1  0.16952976  0.58604549  -0.00415103  1
  O2-  O233  1  0.16698858  0.59012912  0.25215944  1
  O2-  O234  1  0.16872404  0.58520982  0.50074854  1
  O2-  O235  1  0.16741228  0.58550330  0.74855087  1
  O2-  O236  1  0.16568224  0.91858445  -0.00054860  1
  O2-  O237  1  0.16329567  0.91804189  0.25040771  1
  O2-  O238  1  0.16798060  0.92339054  0.50190557  1
  O2-  O239  1  0.16254439  0.92115817  0.74537816  1
  O2-  O240  1  0.66736399  0.25303675  -0.00180667  1
  O2-  O241  1  0.66585167  0.25094972  0.24889573  1
  O2-  O242  1  0.66182773  0.25182801  0.49951096  1
  O2-  O243  1  0.66591758  0.25400962  0.74940880  1
  O2-  O244  1  0.66247285  0.58772168  -0.00202797  1
  O2-  O245  1  0.66557437  0.58384254  0.25349492  1
  O2-  O246  1  0.66601258  0.58453875  0.50137864  1
  O2-  O247  1  0.66539661  0.58699013  0.74731519  1
  O2-  O248  1  0.66268587  0.91617182  0.00161312  1
  O2-  O249  1  0.66761760  0.91945639  0.24970364  1
  O2-  O250  1  0.66902672  0.91927479  0.50085316  1
  O2-  O251  1  0.66363863  0.92052699  0.75021012  1
  O2-  O252  1  0.33410413  0.07957530  0.00102814  1
  O2-  O253  1  0.34137855  0.08161772  0.24814267  1
  O2-  O254  1  0.33023431  0.08230337  0.50303007  1
  O2-  O255  1  0.33549161  0.07796378  0.75030352  1
  O2-  O256  1  0.33421883  0.41870291  -0.00311959  1
  O2-  O257  1  0.33506692  0.41307493  0.25350343  1
  O2-  O258  1  0.33236912  0.41218756  0.50087102  1
  O2-  O259  1  0.33274975  0.41518573  0.74902772  1
  O2-  O260  1  0.32988647  0.74786637  -0.00124601  1
  O2-  O261  1  0.33397348  0.75028862  0.25173923  1
  O2-  O262  1  0.34140728  0.74225465  0.50143852  1
  O2-  O263  1  0.33551720  0.74853091  0.74945727  1
  O2-  O264  1  0.83409137  0.07816934  -0.00057322  1
  O2-  O265  1  0.83531307  0.07955185  0.25187219  1
  O2-  O266  1  0.83730844  0.07966435  0.50124087  1
  O2-  O267  1  0.83414135  0.07765619  0.74673594  1
  O2-  O268  1  0.83463767  0.41342996  0.00296359  1
  O2-  O269  1  0.83369591  0.41536087  0.24600913  1
  O2-  O270  1  0.83067236  0.41627880  0.50076115  1
  O2-  O271  1  0.83387450  0.41493493  0.75004247  1
  O2-  O272  1  0.84009062  0.74268607  0.00199203  1
  O2-  O273  1  0.83332128  0.74584512  0.25104790  1
  O2-  O274  1  0.83553462  0.74474312  0.50191130  1
  O2-  O275  1  0.83459913  0.74719246  0.74984041  1
  O2-  O276  1  0.05615394  0.57416846  0.24536088  1
  O2-  O277  1  0.95920437  0.55434043  0.24050845  1
  O2-  O278  1  0.05050816  0.42691670  0.04122665  1
  O2-  O279  1  0.45329479  0.90660437  0.19862942  1
  O2-  O280  1  0.95436786  0.42084394  0.26114729  1
  O2-  O281  1  0.54999120  0.76251549  0.94771606  1
  O2-  O282  1  0.94733985  0.42712103  0.98735555  1
  O2-  O283  1  0.95584179  0.23358475  0.49532732  1
  O2-  O284  1  0.55014325  0.09054827  0.75663772  1
  O2-  O285  1  0.94666413  0.76070364  0.51148722  1
  O2-  O286  1  0.44837626  0.75851161  0.98337291  1
  O2-  O287  1  0.94864489  0.90054731  0.26595859  1
  O2-  O288  1  0.54774094  0.43319830  0.23012097  1
  O2-  O289  1  0.95140175  0.10253648  0.24217504  1
  O2-  O290  1  0.54654940  0.09326130  0.99557287  1
  O2-  O291  1  0.45094015  0.55932566  0.94734612  1
  O2-  O292  1  0.54619531  0.41929941  0.26635367  1
  O2-  O293  1  0.04875703  0.57433753  0.95496857  1
  O2-  O294  1  0.54515553  0.56908971  0.75484329  1
  O2-  O295  1  0.95365113  0.76767927  0.76744428  1
  O2-  O296  1  0.54481409  0.76665737  0.48824958  1
  O2-  O297  1  0.54999215  0.24142686  0.73111883  1
  O2-  O298  1  0.05090496  0.09692412  0.48031745  1
  O2-  O299  1  0.95315198  0.56368455  0.22734159  1
  O2-  O300  1  0.95423185  0.23827819  0.00848948  1
  O2-  O301  1  0.45537358  0.56755858  0.24073595  1
  O2-  O302  1  0.04855935  0.76736585  0.48675350  1
  O2-  O303  1  0.94982292  0.90243186  0.51617607  1
  O2-  O304  1  0.94651217  0.57626514  0.49407182  1
  O2-  O305  1  0.04895772  0.56462107  0.75915028  1
  O2-  O306  1  0.45423037  0.90882362  0.00964912  1
  O2-  O307  1  0.45552071  0.90034169  0.48865270  1
  O2-  O308  1  0.44966971  0.23815712  0.73567023  1
  O2-  O309  1  0.04541301  0.76411171  0.01610171  1
  O2-  O310  1  0.46532412  0.22544778  0.29670534  1
  O2-  O311  1  0.45172927  0.09829720  0.78999372  1
  O2-  O312  1  0.04632884  0.90416265  0.26545162  1
  O2-  O313  1  0.94740622  0.09104949  0.50660684  1
  O2-  O314  1  0.94600061  0.23353388  0.51954888  1
  O2-  O315  1  0.03487733  0.21400794  0.71612127  1
  O2-  O316  1  0.95492043  0.90554113  0.47781498  1
  O2-  O317  1  0.05160472  0.09213496  0.51949478  1
  O2-  O318  1  0.45373832  0.09468533  0.22851183  1
  O2-  O319  1  0.53836666  0.23034113  0.97554566  1
  O2-  O320  1  0.04803793  0.09712986  0.24188689  1
  O2-  O321  1  0.53204579  0.51112709  0.02701281  1
  O2-  O322  1  0.95195541  0.76024337  0.72908689  1
  O2-  O323  1  0.54767235  0.76163330  0.74099610  1
  O2-  O324  1  0.93928077  0.73188406  0.53159080  1
  O2-  O325  1  0.43471507  0.93005876  0.82044030  1
  O2-  O326  1  0.43110641  0.61231017  0.06340939  1
  O2-  O327  1  0.92954819  0.41723254  0.43452057  1
  O2-  O328  1  0.92732051  0.26503761  0.47255889  1
  O2-  O329  1  0.56044080  0.40398268  0.46603308  1
  O2-  O330  1  0.93351213  0.07916865  0.05010690  1
  O2-  O331  1  0.93372117  0.07794458  0.95356914  1
  O2-  O332  1  0.93271484  0.41883363  0.56351339  1
  O2-  O333  1  0.93594299  0.59541686  0.71722113  1
  O2-  O334  1  0.56737016  0.59826788  0.91767336  1
  O2-  O335  1  0.43821070  0.73809577  0.71708096  1
  O2-  O336  1  0.06271598  0.74239706  0.22743121  1
  O2-  O337  1  0.44723371  0.91833713  0.19388615  1
  O2-  O338  1  0.07997307  0.41337448  0.91315158  1
  O2-  O339  1  0.56284627  0.07535601  0.27573224  1
  O2-  O340  1  0.43481272  0.07724422  0.47884632  1
  O2-  O341  1  0.93648810  0.59949330  0.96584680  1
  O2-  O342  1  0.41849047  0.91667073  0.33518725  1
  O2-  O343  1  0.57301042  0.28396196  0.06808889  1
  O2-  O344  1  0.94068618  0.93088915  0.28343722  1
  O2-  O345  1  0.93619136  0.92131868  0.02572734  1
  O2-  O346  1  0.05845281  0.58318678  0.94805058  1
  O2-  O347  1  0.05961355  0.74160304  0.46522589  1
  O2-  O348  1  0.93528652  0.59380522  0.46444586  1
  O2-  O349  1  0.06520798  0.59322843  0.46560295  1
  O2-  O350  1  0.93212657  0.41595280  0.27874989  1
  O2-  O351  1  0.93879990  0.74298797  0.21308291  1
  O2-  O352  1  0.57082217  0.60729737  0.07242164  1
  O2-  O353  1  0.42057538  0.27190290  0.19765757  1
  O2-  O354  1  0.93631785  0.07794300  0.72234998  1
  O2-  O355  1  0.55807566  0.75243782  0.94238073  1
  O2-  O356  1  0.57296867  0.74201512  0.08504694  1
  O2-  O357  1  0.92414672  0.62942573  0.31926638  1
  O2-  O358  1  0.07769309  0.27343765  0.79433962  1
  O2-  O359  1  0.43707018  0.92063671  0.67474825  1
  O2-  O360  1  0.42907245  0.06281263  0.67288859  1
  O2-  O361  1  0.56421438  0.26293487  0.28580085  1
  O2-  O362  1  0.08119145  0.58521614  0.08625421  1
  O2-  O363  1  0.43526038  0.40789489  0.02169886  1
  O2-  O364  1  0.05824930  0.41927564  0.05230554  1
  O2-  O365  1  0.56034577  0.73721411  0.22714772  1
  O2-  O366  1  0.06732762  0.74682968  0.02229567  1
  O2-  O367  1  0.06634275  0.40580843  0.22547471  1
  O2-  O368  1  0.43821233  0.73676461  0.21313117  1
  O2-  O369  1  0.93409332  0.40408853  0.80429861  1
  O2-  O370  1  0.56366829  0.93240539  0.53653607  1
  O2-  O371  1  0.93359259  0.41227237  0.70295349  1
  O2-  O372  1  0.75012808  -0.00287922  0.39754140  1
  O2-  O373  1  0.24956992  -0.01170689  0.91713495  1
  O2-  O374  1  0.74914571  0.00151125  0.85772222  1
  O2-  O375  1  0.25014029  0.66152298  0.84295181  1
  O2-  O376  1  0.75038828  0.33690252  0.65522292  1
  O2-  O377  1  0.75074955  0.32829598  0.93416949  1
  O2-  O378  1  0.24993936  0.33336477  0.11048721  1
  O2-  O379  1  0.74962496  0.66108640  0.59763792  1
  O2-  O380  1  0.25029715  0.34063840  0.64453607  1
  O2-  O381  1  0.24965787  0.00168807  0.17325247  1
  O2-  O382  1  0.25034876  0.66159471  0.59749787  1
  O2-  O383  1  0.74962924  0.34272621  0.81325006  1
  O2-  O384  1  0.24969014  0.00171905  0.82689616  1
  O2-  O385  1  0.74956382  0.66591239  0.40205673  1
  O2-  O386  1  0.24926746  0.66274694  0.40064646  1
  O2-  O387  1  0.75154519  0.66864997  0.15238477  1
  O2-  O388  1  0.75108251  0.67280689  0.82495525  1
  O2-  O389  1  0.24838260  0.00350324  0.36469374  1
  O2-  O390  1  0.75033822  0.67205419  0.91785440  1
  O2-  O391  1  0.75001628  0.33264679  0.33145438  1
  O2-  O392  1  0.24960459  -0.01233840  0.08338513  1
  O2-  O393  1  0.74943566  0.33209221  0.56852724  1
  O2-  O394  1  0.25068760  0.33001794  0.88929225  1
  O2-  O395  1  0.74968389  0.33292346  0.41621443  1
  O2-  O396  1  0.24991794  0.83319736  0.30040751  1
  O2-  O397  1  0.74998667  0.17362817  0.13759039  1
  O2-  O398  1  0.25057294  0.50264868  0.13026955  1
  O2-  O399  1  0.74997997  0.16687927  0.33401744  1
  O2-  O400  1  0.74999002  0.47688785  0.90884817  1
  O2-  O401  1  0.25001716  0.17062426  0.40975358  1
  O2-  O402  1  0.24989606  0.49593169  0.41161696  1
  O2-  O403  1  0.74954545  0.48173437  0.11066924  1
  O2-  O404  1  0.25013124  0.49943892  0.84872467  1
  O2-  O405  1  0.74984030  0.51056216  0.34833683  1
  O2-  O406  1  0.25028869  0.17468520  0.61440479  1
  O2-  O407  1  0.25000838  0.15482709  0.89126239  1
  O2-  O408  1  0.74977440  0.51244507  0.80587846  1
  O2-  O409  1  0.24972529  0.85381174  0.61688052  1
  O2-  O410  1  0.24986973  0.15261141  0.12038979  1
  O2-  O411  1  0.74996093  0.16716028  0.41348908  1
  O2-  O412  1  0.24966531  0.84909170  0.38228631  1
  O2-  O413  1  0.75000056  0.48968018  0.20061071  1
  O2-  O414  1  0.74963506  0.50794319  0.64915459  1
  O2-  O415  1  0.74949831  0.84572331  0.63499446  1
  O2-  O416  1  0.74974166  0.16955331  0.65260812  1
  O2-  O417  1  0.74957638  0.16691055  0.56818395  1
  O2-  O418  1  0.24979351  0.83306668  0.69749948  1
  O2-  O419  1  0.24989217  0.82072856  0.86974576  1
  O2-  O420  1  0.96569311  0.31459825  0.36065957  1
  O2-  O421  1  0.53036700  -0.00588447  0.87406211  1
  O2-  O422  1  0.04948167  0.33225623  0.37881724  1
  O2-  O423  1  0.54634338  0.65858068  0.36986928  1
  O2-  O424  1  0.97833218  -0.01074480  0.63057085  1
  O2-  O425  1  0.02075729  0.68768824  0.86853858  1
  O2-  O426  1  0.04723461  -0.00088858  0.87723412  1
  O2-  O427  1  0.48190280  0.33322509  0.11868780  1
  O2-  O428  1  0.47279579  0.33839625  0.62384595  1
  O2-  O429  1  0.04417656  -0.00404646  0.10962855  1
  O2-  O430  1  0.45314124  0.66904061  0.37758091  1
  O2-  O431  1  0.96691042  0.31350766  0.63232297  1
  O2-  O432  1  0.96740145  -0.01131871  0.14215372  1
  O2-  O433  1  0.01179130  0.67094688  0.12082895  1
  O2-  O434  1  0.03084414  0.67046103  0.62667997  1
  O2-  O435  1  0.47783095  0.01190249  0.37325823  1
  O2-  O436  1  0.02650074  0.30821701  0.12951448  1
  O2-  O437  1  0.53573783  -0.01105751  0.38650851  1
  O2-  O438  1  0.96705600  0.33560167  0.13097646  1
  O2-  O439  1  0.04671170  0.34072732  0.61687376  1
  O2-  O440  1  0.95812271  -0.01629501  0.86207099  1
  O2-  O441  1  0.01067799  0.32990708  0.87966469  1
  O2-  O442  1  0.54569083  0.34077177  0.87165317  1
  O2-  O443  1  0.45426842  0.33283993  0.87655367  1
