# generated using pymatgen
data_La7(Ru4O11)2
_symmetry_space_group_name_H-M   'P 1'
_cell_length_a   23.99456402
_cell_length_b   16.83407440
_cell_length_c   15.43169706
_cell_angle_alpha   89.99727298
_cell_angle_beta   90.00277437
_cell_angle_gamma   90.00062916
_symmetry_Int_Tables_number   1
_chemical_formula_structural   La7(Ru4O11)2
_chemical_formula_sum   'La84 Ru96 O264'
_cell_volume   6233.26790975
_cell_formula_units_Z   12
loop_
 _symmetry_equiv_pos_site_id
 _symmetry_equiv_pos_as_xyz
  1  'x, y, z'
loop_
 _atom_type_symbol
 _atom_type_oxidation_number
  La3+  3.0
  Ru4+  4.0
  O2-  -2.0
loop_
 _atom_site_type_symbol
 _atom_site_label
 _atom_site_symmetry_multiplicity
 _atom_site_fract_x
 _atom_site_fract_y
 _atom_site_fract_z
 _atom_site_occupancy
  La3+  La0  1  0.14457633  -0.00092505  0.12065320  1
  La3+  La1  1  0.14015966  -0.00076313  0.37811732  1
  La3+  La2  1  0.14476160  0.00250265  0.62945887  1
  La3+  La3  1  0.14453597  0.00307161  0.86752934  1
  La3+  La4  1  0.14294707  0.33437919  0.12732009  1
  La3+  La5  1  0.14063516  0.33381454  0.37247569  1
  La3+  La6  1  0.14216974  0.32397257  0.62718728  1
  La3+  La7  1  0.14267873  0.32824945  0.86645290  1
  La3+  La8  1  0.14565894  0.66467546  0.12989782  1
  La3+  La9  1  0.14452001  0.66163841  0.37122921  1
  La3+  La10  1  0.14130738  0.66520736  0.62781352  1
  La3+  La11  1  0.14222535  0.66465906  0.86885778  1
  La3+  La12  1  0.63663985  -0.00239024  0.12715826  1
  La3+  La13  1  0.63839088  0.00584326  0.36992101  1
  La3+  La14  1  0.63559034  -0.00344494  0.62793590  1
  La3+  La15  1  0.63257776  -0.00315420  0.87650066  1
  La3+  La16  1  0.64670583  0.33642132  0.12764673  1
  La3+  La17  1  0.62794450  0.33482198  0.37799659  1
  La3+  La18  1  0.63648151  0.33546590  0.61901428  1
  La3+  La19  1  0.64013746  0.33314872  0.87559555  1
  La3+  La20  1  0.65337288  0.66034986  0.12614854  1
  La3+  La21  1  0.64912288  0.66521240  0.37272683  1
  La3+  La22  1  0.63402778  0.66341307  0.62219271  1
  La3+  La23  1  0.63765713  0.66633748  0.87776984  1
  La3+  La24  1  0.35940402  -0.00096894  0.11941882  1
  La3+  La25  1  0.36219777  0.00058605  0.37648213  1
  La3+  La26  1  0.35083622  -0.00382094  0.63255751  1
  La3+  La27  1  0.36023943  -0.00346036  0.87483034  1
  La3+  La28  1  0.36055654  0.33158661  0.12579367  1
  La3+  La29  1  0.36445587  0.32869325  0.36781449  1
  La3+  La30  1  0.35785005  0.33098318  0.62827611  1
  La3+  La31  1  0.35631162  0.33166258  0.87375735  1
  La3+  La32  1  0.35441278  0.66264433  0.12949458  1
  La3+  La33  1  0.36041024  0.66330270  0.37729629  1
  La3+  La34  1  0.36593929  0.66337686  0.62419397  1
  La3+  La35  1  0.34741159  0.66412617  0.87546016  1
  La3+  La36  1  0.87043797  -0.01511623  0.11086861  1
  La3+  La37  1  0.85995119  0.00379968  0.37057128  1
  La3+  La38  1  0.85679736  -0.00386104  0.62979731  1
  La3+  La39  1  0.86736430  -0.00880606  0.88461846  1
  La3+  La40  1  0.85514912  0.33763946  0.12769154  1
  La3+  La41  1  0.87261724  0.34160101  0.36862058  1
  La3+  La42  1  0.86315200  0.33143986  0.62045258  1
  La3+  La43  1  0.85853015  0.33183658  0.87752631  1
  La3+  La44  1  0.85607882  0.66792641  0.12769486  1
  La3+  La45  1  0.85949724  0.66782863  0.37101460  1
  La3+  La46  1  0.86629088  0.66115524  0.62224016  1
  La3+  La47  1  0.86160656  0.66974647  0.88441850  1
  La3+  La48  1  0.00138376  0.16300565  0.11679468  1
  La3+  La49  1  -0.00173767  0.83342694  0.38479835  1
  La3+  La50  1  -0.00068585  0.83893072  0.65699325  1
  La3+  La51  1  0.00060554  0.17163441  0.36732795  1
  La3+  La52  1  0.50081681  0.49672097  0.62489919  1
  La3+  La53  1  0.50575319  0.83311857  0.62205870  1
  La3+  La54  1  -0.01456579  0.82686328  0.12541485  1
  La3+  La55  1  -0.00701112  0.51367941  0.88072388  1
  La3+  La56  1  0.00834175  0.48585654  0.62110429  1
  La3+  La57  1  0.50412485  0.16912524  0.37336523  1
  La3+  La58  1  -0.01907364  0.83285450  0.13960329  1
  La3+  La59  1  -0.00148527  0.49950404  0.37856811  1
  La3+  La60  1  0.49988961  0.16867759  0.85991948  1
  La3+  La61  1  0.50058214  0.49215808  0.87850357  1
  La3+  La62  1  0.50129781  0.16648411  0.88219969  1
  La3+  La63  1  0.50310896  0.17470087  0.60787981  1
  La3+  La64  1  -0.00028199  0.84631554  0.88963960  1
  La3+  La65  1  0.49590753  0.49783332  0.38742493  1
  La3+  La66  1  -0.00262028  0.49816935  0.12096438  1
  La3+  La67  1  0.49691064  0.83772843  0.39162496  1
  La3+  La68  1  0.49715235  0.82428582  0.11203915  1
  La3+  La69  1  0.00183435  0.16090267  0.86823260  1
  La3+  La70  1  0.49594821  0.84389426  0.37030242  1
  La3+  La71  1  0.49948799  0.50678702  0.36807515  1
  La3+  La72  1  0.24883324  0.44188903  0.00420139  1
  La3+  La73  1  0.74924745  0.22362578  0.28276607  1
  La3+  La74  1  0.75017856  0.77914900  -0.01764629  1
  La3+  La75  1  0.75205587  0.77488780  0.72125153  1
  La3+  La76  1  0.75304732  0.14153060  0.03071708  1
  La3+  La77  1  0.75216752  0.78825751  0.44896151  1
  La3+  La78  1  0.25011505  0.52126177  0.52280167  1
  La3+  La79  1  0.74175427  0.17254048  0.71730668  1
  La3+  La80  1  0.24916702  0.84154216  0.50860373  1
  La3+  La81  1  0.74990676  0.50965128  0.28203669  1
  La3+  La82  1  0.24873089  0.79559025  0.23401294  1
  La3+  La83  1  0.75137750  0.23526924  0.46311309  1
  Ru4+  Ru84  1  -0.00020513  -0.00697947  0.01053059  1
  Ru4+  Ru85  1  0.00105980  0.00206600  0.24903842  1
  Ru4+  Ru86  1  -0.00644377  0.00905128  0.50677440  1
  Ru4+  Ru87  1  0.00545070  0.00944038  0.75520699  1
  Ru4+  Ru88  1  0.00345268  0.33283565  -0.00108777  1
  Ru4+  Ru89  1  0.00417832  0.32829528  0.25037739  1
  Ru4+  Ru90  1  0.00274256  0.33422359  0.51110710  1
  Ru4+  Ru91  1  0.00456625  0.32897984  0.74150300  1
  Ru4+  Ru92  1  0.01035197  0.66151075  0.01636252  1
  Ru4+  Ru93  1  0.00410346  0.66293471  0.24880293  1
  Ru4+  Ru94  1  0.00678349  0.67516169  0.49323071  1
  Ru4+  Ru95  1  0.00352733  0.66609160  0.74765823  1
  Ru4+  Ru96  1  0.49790477  -0.00208004  0.00088915  1
  Ru4+  Ru97  1  0.50032677  -0.00384708  0.23687000  1
  Ru4+  Ru98  1  0.49652142  0.00715213  0.50783798  1
  Ru4+  Ru99  1  0.49583474  0.00146272  0.75141399  1
  Ru4+  Ru100  1  0.49151181  0.33018228  0.00131180  1
  Ru4+  Ru101  1  0.50457175  0.33660104  0.24493556  1
  Ru4+  Ru102  1  0.49756582  0.33538750  0.51344499  1
  Ru4+  Ru103  1  0.50193871  0.33588063  0.73670159  1
  Ru4+  Ru104  1  0.50595295  0.65615540  0.00207904  1
  Ru4+  Ru105  1  0.50630569  0.66687181  0.23964394  1
  Ru4+  Ru106  1  0.50543185  0.66735370  0.50893729  1
  Ru4+  Ru107  1  0.49418685  0.68144188  0.75410911  1
  Ru4+  Ru108  1  0.10974574  0.16805743  -0.00032181  1
  Ru4+  Ru109  1  0.10918441  0.16746937  0.24849844  1
  Ru4+  Ru110  1  0.10873002  0.16308237  0.50181592  1
  Ru4+  Ru111  1  0.11363386  0.16616083  0.75075010  1
  Ru4+  Ru112  1  0.10758520  0.50351032  0.00547491  1
  Ru4+  Ru113  1  0.11476984  0.50002237  0.25208009  1
  Ru4+  Ru114  1  0.10994555  0.49633305  0.49610813  1
  Ru4+  Ru115  1  0.11099963  0.49907233  0.75196337  1
  Ru4+  Ru116  1  0.11697075  0.84275426  -0.00316366  1
  Ru4+  Ru117  1  0.10649339  0.83472777  0.24850580  1
  Ru4+  Ru118  1  0.10586447  0.82504990  0.49460374  1
  Ru4+  Ru119  1  0.11204333  0.83166892  0.74780058  1
  Ru4+  Ru120  1  0.61257204  0.16708549  0.00359091  1
  Ru4+  Ru121  1  0.61491923  0.17007650  0.25244630  1
  Ru4+  Ru122  1  0.61594445  0.15941320  0.50212724  1
  Ru4+  Ru123  1  0.61408995  0.16685964  0.74905419  1
  Ru4+  Ru124  1  0.60975374  0.50942266  -0.00293150  1
  Ru4+  Ru125  1  0.60863254  0.49681722  0.24873685  1
  Ru4+  Ru126  1  0.61176314  0.50490410  0.50235760  1
  Ru4+  Ru127  1  0.60823341  0.50191700  0.74802258  1
  Ru4+  Ru128  1  0.60664345  0.83039970  0.00135119  1
  Ru4+  Ru129  1  0.61337182  0.83147739  0.24702432  1
  Ru4+  Ru130  1  0.61476845  0.82978958  0.50498632  1
  Ru4+  Ru131  1  0.61382822  0.82460163  0.75213189  1
  Ru4+  Ru132  1  0.38826043  0.17463428  0.01050682  1
  Ru4+  Ru133  1  0.38729423  0.15841264  0.24963872  1
  Ru4+  Ru134  1  0.38711286  0.16080804  0.50295521  1
  Ru4+  Ru135  1  0.38381053  0.16480753  0.74390063  1
  Ru4+  Ru136  1  0.39571734  0.49769664  0.00307552  1
  Ru4+  Ru137  1  0.38420062  0.50002304  0.24858145  1
  Ru4+  Ru138  1  0.38430522  0.49048718  0.49997969  1
  Ru4+  Ru139  1  0.38764169  0.50224466  0.75046346  1
  Ru4+  Ru140  1  0.38595048  0.83932176  -0.00061697  1
  Ru4+  Ru141  1  0.38628576  0.83375203  0.24382357  1
  Ru4+  Ru142  1  0.38516400  0.82777674  0.50437798  1
  Ru4+  Ru143  1  0.39014363  0.83900392  0.75240301  1
  Ru4+  Ru144  1  0.89314061  0.16171134  -0.00035866  1
  Ru4+  Ru145  1  0.88957928  0.16695345  0.24926328  1
  Ru4+  Ru146  1  0.89432390  0.15743055  0.50542469  1
  Ru4+  Ru147  1  0.89451892  0.16631755  0.74612068  1
  Ru4+  Ru148  1  0.88575590  0.49903498  0.00096008  1
  Ru4+  Ru149  1  0.88414573  0.50885005  0.24979172  1
  Ru4+  Ru150  1  0.88630688  0.50578000  0.49873693  1
  Ru4+  Ru151  1  0.88935022  0.50708136  0.74999245  1
  Ru4+  Ru152  1  0.88522230  0.83727688  -0.00505344  1
  Ru4+  Ru153  1  0.88168572  0.83683040  0.24798051  1
  Ru4+  Ru154  1  0.89381201  0.83869001  0.50190672  1
  Ru4+  Ru155  1  0.89536810  0.83220480  0.75572129  1
  Ru4+  Ru156  1  0.74646662  0.93395433  0.00225144  1
  Ru4+  Ru157  1  0.25089935  0.66474236  0.49759490  1
  Ru4+  Ru158  1  0.75155588  0.03831924  0.25666121  1
  Ru4+  Ru159  1  0.75244737  0.04545627  0.78105521  1
  Ru4+  Ru160  1  0.74847636  0.92719171  0.51127755  1
  Ru4+  Ru161  1  0.75022431  0.91496586  0.75220629  1
  Ru4+  Ru162  1  0.24907338  0.08932772  0.24814445  1
  Ru4+  Ru163  1  0.24918174  0.24267182  0.23993194  1
  Ru4+  Ru164  1  0.25029041  0.58544884  0.01651897  1
  Ru4+  Ru165  1  0.75229874  0.31515612  0.72765042  1
  Ru4+  Ru166  1  0.25042466  0.76971702  -0.00010932  1
  Ru4+  Ru167  1  0.75080157  0.41935730  0.50619947  1
  Ru4+  Ru168  1  0.25047849  0.42009939  0.75269712  1
  Ru4+  Ru169  1  0.25021209  0.38082802  0.51106478  1
  Ru4+  Ru170  1  0.25049791  0.22756042  0.50738455  1
  Ru4+  Ru171  1  0.24986253  0.09127156  -0.00163680  1
  Ru4+  Ru172  1  0.25024423  0.08913694  0.50087165  1
  Ru4+  Ru173  1  0.75010390  0.05814810  0.46878304  1
  Ru4+  Ru174  1  0.74802173  0.57957307  0.74971311  1
  Ru4+  Ru175  1  0.74891639  0.44373996  0.76972020  1
  Ru4+  Ru176  1  0.24835119  0.23887643  -0.00961263  1
  Ru4+  Ru177  1  0.25090041  0.76529850  0.75062624  1
  Ru4+  Ru178  1  0.24934493  0.94561552  0.25771083  1
  Ru4+  Ru179  1  0.74899795  0.42176941  -0.01275197  1
  O2-  O180  1  0.16677405  0.08238054  -0.00181670  1
  O2-  O181  1  0.16841500  0.08338159  0.24953680  1
  O2-  O182  1  0.16986848  0.08317118  0.49752452  1
  O2-  O183  1  0.16865262  0.08465511  0.74879941  1
  O2-  O184  1  0.15408390  0.41006812  -0.00357278  1
  O2-  O185  1  0.16321977  0.41265088  0.24713525  1
  O2-  O186  1  0.16924584  0.40935102  0.50030084  1
  O2-  O187  1  0.17103101  0.41646288  0.75442106  1
  O2-  O188  1  0.16600057  0.75048754  -0.00051558  1
  O2-  O189  1  0.15792276  0.74693933  0.25191475  1
  O2-  O190  1  0.16798771  0.74820968  0.50365093  1
  O2-  O191  1  0.16770645  0.74854927  0.74391904  1
  O2-  O192  1  0.66515207  0.08050139  0.00194963  1
  O2-  O193  1  0.66744494  0.07755825  0.25055925  1
  O2-  O194  1  0.66772273  0.07611665  0.50147233  1
  O2-  O195  1  0.66632373  0.07417503  0.75082318  1
  O2-  O196  1  0.66272835  0.41479779  -0.00026569  1
  O2-  O197  1  0.66859557  0.41394896  0.26036708  1
  O2-  O198  1  0.66795998  0.41113619  0.49688298  1
  O2-  O199  1  0.66790700  0.41743496  0.74828260  1
  O2-  O200  1  0.66115900  0.74417389  -0.00217673  1
  O2-  O201  1  0.66906198  0.75499246  0.26063176  1
  O2-  O202  1  0.66863898  0.74474225  0.50707701  1
  O2-  O203  1  0.66480568  0.74088500  0.75130885  1
  O2-  O204  1  0.32951608  0.25141780  -0.00083083  1
  O2-  O205  1  0.33250915  0.24653632  0.24718556  1
  O2-  O206  1  0.33340399  0.24907593  0.49935311  1
  O2-  O207  1  0.33635244  0.25242254  0.74671749  1
  O2-  O208  1  0.33470320  0.58071939  0.00387769  1
  O2-  O209  1  0.33887199  0.58625531  0.25055811  1
  O2-  O210  1  0.33312813  0.58876172  0.50058072  1
  O2-  O211  1  0.33780793  0.58204094  0.74858059  1
  O2-  O212  1  0.33193316  0.91931883  -0.00055434  1
  O2-  O213  1  0.33105498  0.92322786  0.24898406  1
  O2-  O214  1  0.33631549  0.92023230  0.49636981  1
  O2-  O215  1  0.33214332  0.91901949  0.75042755  1
  O2-  O216  1  0.83659355  0.25208980  -0.00096929  1
  O2-  O217  1  0.83674219  0.25469816  0.25302733  1
  O2-  O218  1  0.83919047  0.25012806  0.50055381  1
  O2-  O219  1  0.83519921  0.25451343  0.74920995  1
  O2-  O220  1  0.83659030  0.58463205  -0.00088152  1
  O2-  O221  1  0.83184825  0.58930128  0.25372478  1
  O2-  O222  1  0.83366505  0.58462370  0.50843435  1
  O2-  O223  1  0.82510722  0.58594578  0.74336682  1
  O2-  O224  1  0.82756253  0.91790557  -0.00139228  1
  O2-  O225  1  0.83431349  0.92172275  0.24870364  1
  O2-  O226  1  0.82867397  0.91685375  0.50227500  1
  O2-  O227  1  0.83461496  0.91518818  0.75304799  1
  O2-  O228  1  0.16575939  0.25194613  -0.00358320  1
  O2-  O229  1  0.16742099  0.24807854  0.24445284  1
  O2-  O230  1  0.16712125  0.24633542  0.49688347  1
  O2-  O231  1  0.16883049  0.24881375  0.75231150  1
  O2-  O232  1  0.16915087  0.58636505  0.00205915  1
  O2-  O233  1  0.16524460  0.58197592  0.24825773  1
  O2-  O234  1  0.16640942  0.58752359  0.50179916  1
  O2-  O235  1  0.16607940  0.57852973  0.74635934  1
  O2-  O236  1  0.17209551  0.91656611  0.00162437  1
  O2-  O237  1  0.16682017  0.92151199  0.24928523  1
  O2-  O238  1  0.15921139  0.91499436  0.49897435  1
  O2-  O239  1  0.16436130  0.91496470  0.74960979  1
  O2-  O240  1  0.66420973  0.25152828  0.00107510  1
  O2-  O241  1  0.66133279  0.25921772  0.25324103  1
  O2-  O242  1  0.66086702  0.25439246  0.49737675  1
  O2-  O243  1  0.66708924  0.25978327  0.74575409  1
  O2-  O244  1  0.66650706  0.58312310  -0.00492048  1
  O2-  O245  1  0.66377758  0.58302714  0.25673176  1
  O2-  O246  1  0.66207077  0.58688724  0.50544914  1
  O2-  O247  1  0.66841188  0.58603060  0.74790795  1
  O2-  O248  1  0.66489970  0.91880577  0.00040845  1
  O2-  O249  1  0.66604121  0.91780117  0.24756293  1
  O2-  O250  1  0.66581681  0.91960176  0.49879467  1
  O2-  O251  1  0.66558790  0.91564047  0.75009430  1
  O2-  O252  1  0.33503204  0.08383767  -0.00128960  1
  O2-  O253  1  0.33113576  0.08344651  0.24977773  1
  O2-  O254  1  0.33270852  0.08029299  0.49708760  1
  O2-  O255  1  0.33563196  0.08104355  0.75235281  1
  O2-  O256  1  0.33880732  0.41121683  0.00186247  1
  O2-  O257  1  0.33884576  0.41129807  0.25132038  1
  O2-  O258  1  0.33306851  0.40449943  0.49613344  1
  O2-  O259  1  0.33416222  0.41415779  0.74853690  1
  O2-  O260  1  0.33464781  0.75024174  0.00423156  1
  O2-  O261  1  0.33808823  0.74418226  0.25203057  1
  O2-  O262  1  0.32670406  0.74327433  0.50134439  1
  O2-  O263  1  0.33513106  0.75182157  0.74394041  1
  O2-  O264  1  0.83936618  0.07927001  0.00124081  1
  O2-  O265  1  0.83614555  0.07809483  0.24564980  1
  O2-  O266  1  0.83108232  0.08192810  0.49308626  1
  O2-  O267  1  0.83635595  0.07824820  0.75369225  1
  O2-  O268  1  0.83208672  0.41311730  -0.00330479  1
  O2-  O269  1  0.83134956  0.41566997  0.25455840  1
  O2-  O270  1  0.83445906  0.41345964  0.50178523  1
  O2-  O271  1  0.83493677  0.42035767  0.74982225  1
  O2-  O272  1  0.84086932  0.74305495  0.00488134  1
  O2-  O273  1  0.83440227  0.74918577  0.25319028  1
  O2-  O274  1  0.84083709  0.74710479  0.50645522  1
  O2-  O275  1  0.84192692  0.74111880  0.74855233  1
  O2-  O276  1  0.03063259  0.43274875  0.79274610  1
  O2-  O277  1  0.95112330  0.90043363  1.00766823  1
  O2-  O278  1  0.44870864  0.92305756  0.68793120  1
  O2-  O279  1  0.45454519  0.09743389  0.72468002  1
  O2-  O280  1  0.45745288  0.57105265  0.50556127  1
  O2-  O281  1  0.55444021  0.91090314  0.72988379  1
  O2-  O282  1  0.94100854  0.91306235  0.02661913  1
  O2-  O283  1  0.55090988  0.90719621  0.76835278  1
  O2-  O284  1  0.54705016  0.89906026  0.19493818  1
  O2-  O285  1  0.95570755  0.77019471  0.25983946  1
  O2-  O286  1  0.94820203  0.76300714  0.98479455  1
  O2-  O287  1  0.45047145  0.24234006  0.27293527  1
  O2-  O288  1  0.95408806  0.24254407  0.74934068  1
  O2-  O289  1  0.44869417  0.75602249  0.24977944  1
  O2-  O290  1  0.44848937  0.09738863  0.99533028  1
  O2-  O291  1  0.55501768  0.23450081  0.48950545  1
  O2-  O292  1  0.96227712  0.55789801  0.70719607  1
  O2-  O293  1  0.44571198  0.91441865  0.49255699  1
  O2-  O294  1  0.45257247  0.23812863  0.23422635  1
  O2-  O295  1  0.55378249  0.91137145  0.49383198  1
  O2-  O296  1  0.44594118  0.58347680  0.00732593  1
  O2-  O297  1  0.05221822  0.23483306  0.50357532  1
  O2-  O298  1  0.96724818  0.88490351  0.53610602  1
  O2-  O299  1  0.54900012  0.76256670  0.29929875  1
  O2-  O300  1  0.94868270  0.42753768  0.22746878  1
  O2-  O301  1  0.04841474  0.87351632  0.04743191  1
  O2-  O302  1  0.03403999  0.77905800  0.53838369  1
  O2-  O303  1  0.95169743  0.74778414  0.01981052  1
  O2-  O304  1  0.54525535  0.53345413  0.04720566  1
  O2-  O305  1  0.95766977  0.23316317  0.98720169  1
  O2-  O306  1  0.97736558  0.11762130  0.48542570  1
  O2-  O307  1  0.94848259  0.43255639  0.26647997  1
  O2-  O308  1  0.95151330  0.57109793  0.99820263  1
  O2-  O309  1  0.45520303  0.43860887  0.25734002  1
  O2-  O310  1  0.95850122  0.11008500  0.23420309  1
  O2-  O311  1  0.56052490  0.74504806  0.72699455  1
  O2-  O312  1  0.44920746  0.08611085  0.27494433  1
  O2-  O313  1  0.05057983  0.42653846  0.22844889  1
  O2-  O314  1  0.95206946  0.09381577  0.73299933  1
  O2-  O315  1  0.45169615  0.23171471  0.49348519  1
  O2-  O316  1  0.45788515  0.78246194  0.74568803  1
  O2-  O317  1  0.45757387  0.77977036  0.73686864  1
  O2-  O318  1  0.95408821  0.43792327  0.50704674  1
  O2-  O319  1  0.54669032  0.23903529  0.99933177  1
  O2-  O320  1  0.44494368  0.91245522  0.24098378  1
  O2-  O321  1  0.55252565  0.09898888  0.25863516  1
  O2-  O322  1  0.46904992  0.43796138  0.04933883  1
  O2-  O323  1  0.95272402  0.24193589  0.53501527  1
  O2-  O324  1  0.55631406  0.74690349  0.97025765  1
  O2-  O325  1  0.56241117  0.07074026  0.77760306  1
  O2-  O326  1  0.92116234  0.04456109  0.55240055  1
  O2-  O327  1  0.56018088  0.25951868  0.46221566  1
  O2-  O328  1  0.06060183  0.59381282  0.28169916  1
  O2-  O329  1  0.55822633  0.41816537  0.51700571  1
  O2-  O330  1  0.43395711  0.58212933  0.51357130  1
  O2-  O331  1  0.05778166  0.58407561  0.47362238  1
  O2-  O332  1  0.06470016  0.58996231  0.77214195  1
  O2-  O333  1  0.56363105  0.60284374  0.92455623  1
  O2-  O334  1  0.57002743  0.93161482  0.32963526  1
  O2-  O335  1  0.42926053  0.67232643  0.82127417  1
  O2-  O336  1  0.56202905  0.40447413  0.22113051  1
  O2-  O337  1  0.92779302  0.25515636  0.45340609  1
  O2-  O338  1  0.56029858  0.07346549  0.53408358  1
  O2-  O339  1  0.58324249  0.73285729  0.17843583  1
  O2-  O340  1  0.07054029  0.42420285  0.41824569  1
  O2-  O341  1  0.08447497  0.40516018  0.69744910  1
  O2-  O342  1  0.43012325  0.75490586  0.57137717  1
  O2-  O343  1  0.05627830  0.91651672  0.77285747  1
  O2-  O344  1  0.06433151  0.25131838  0.73953559  1
  O2-  O345  1  0.93720828  0.40300591  0.03492261  1
  O2-  O346  1  0.55711105  0.07299584  0.28509714  1
  O2-  O347  1  0.07234740  0.57570732  0.93472827  1
  O2-  O348  1  0.08138377  0.93094584  0.93617763  1
  O2-  O349  1  0.56421233  0.73787183  0.53159953  1
  O2-  O350  1  0.55907441  0.92236613  0.03117423  1
  O2-  O351  1  0.94182212  0.74452744  0.27679577  1
  O2-  O352  1  0.07059357  0.76487169  0.82286517  1
  O2-  O353  1  0.94010081  0.25775670  0.27233666  1
  O2-  O354  1  0.06573758  0.07915355  0.72285692  1
  O2-  O355  1  0.06870760  0.06485403  0.52105304  1
  O2-  O356  1  0.42915912  0.24579703  0.93015814  1
  O2-  O357  1  0.94205119  0.60326580  0.46896202  1
  O2-  O358  1  0.07193374  0.41142396  0.55529653  1
  O2-  O359  1  0.06496119  0.59196072  0.08362660  1
  O2-  O360  1  0.42961716  0.40348067  0.94336687  1
  O2-  O361  1  0.44004944  0.26805220  0.07607011  1
  O2-  O362  1  0.56347025  0.07059414  0.96929992  1
  O2-  O363  1  0.06069435  0.72914253  0.67838729  1
  O2-  O364  1  0.92843166  0.93550529  0.97226618  1
  O2-  O365  1  0.43760419  0.92304022  0.98045172  1
  O2-  O366  1  0.06873004  0.72936868  0.41923947  1
  O2-  O367  1  0.91723254  0.92181240  0.43164616  1
  O2-  O368  1  0.56313544  0.25645078  0.77636247  1
  O2-  O369  1  0.91432436  0.59964849  0.80556792  1
  O2-  O370  1  0.42827148  0.93343466  0.80302088  1
  O2-  O371  1  0.42634466  0.75208486  0.42335238  1
  O2-  O372  1  0.75195552  0.66937925  0.07834852  1
  O2-  O373  1  0.25069076  0.66597678  0.79284466  1
  O2-  O374  1  0.25024138  0.66889796  0.62013583  1
  O2-  O375  1  0.74780224  0.00602976  0.10270965  1
  O2-  O376  1  0.25097193  0.30606628  0.41805502  1
  O2-  O377  1  0.24834044  0.32558026  0.09224684  1
  O2-  O378  1  0.25091725  0.00546292  0.66262846  1
  O2-  O379  1  0.25021952  -0.00610518  0.57271658  1
  O2-  O380  1  0.74908392  -0.00067670  0.65125983  1
  O2-  O381  1  0.75074703  0.33964594  0.59756677  1
  O2-  O382  1  0.75169934  0.66461970  0.17015806  1
  O2-  O383  1  0.75164093  0.33605665  0.86187867  1
  O2-  O384  1  0.25133334  0.01261614  0.09541434  1
  O2-  O385  1  0.25078443  0.67455704  0.37526036  1
  O2-  O386  1  0.24943795  0.34487610  0.85240710  1
  O2-  O387  1  0.24972209  0.31381631  0.61656087  1
  O2-  O388  1  0.74928856  0.34193615  0.16963118  1
  O2-  O389  1  0.24880918  0.67419349  0.93197836  1
  O2-  O390  1  0.75000236  0.33252737  0.07712664  1
  O2-  O391  1  0.25085998  0.66894948  0.17996485  1
  O2-  O392  1  0.24983231  0.33597639  0.29254716  1
  O2-  O393  1  0.25090970  0.68183703  0.08599825  1
  O2-  O394  1  0.74887230  0.00743804  0.90593887  1
  O2-  O395  1  0.74948150  0.67066486  0.39249097  1
  O2-  O396  1  0.25013543  0.83576616  0.09169839  1
  O2-  O397  1  0.74912047  0.49399610  0.14299123  1
  O2-  O398  1  0.75069303  0.83434811  0.18533985  1
  O2-  O399  1  0.24970405  0.82392400  0.65205875  1
  O2-  O400  1  0.25000408  0.82735826  0.84170666  1
  O2-  O401  1  0.74982900  0.21787676  0.14342327  1
  O2-  O402  1  0.25069901  0.48545554  0.66081582  1
  O2-  O403  1  0.75030776  0.49280715  0.42442699  1
  O2-  O404  1  0.24983018  0.16917278  0.09252934  1
  O2-  O405  1  0.25057054  0.50210503  0.29784049  1
  O2-  O406  1  0.73734377  0.19000387  0.90690186  1
  O2-  O407  1  0.74986780  0.84078580  0.59919799  1
  O2-  O408  1  0.74555801  0.12743815  0.56158572  1
  O2-  O409  1  0.75083810  0.12127735  0.18841123  1
  O2-  O410  1  0.25030365  0.51279469  0.12142473  1
  O2-  O411  1  0.75035477  0.50972971  0.05765580  1
  O2-  O412  1  0.75014597  0.85067831  0.10209378  1
  O2-  O413  1  0.24959843  0.48860844  0.38106844  1
  O2-  O414  1  0.76109128  0.21478307  0.59558379  1
  O2-  O415  1  0.25021023  0.85572752  0.36433187  1
  O2-  O416  1  0.74964309  0.85031514  0.85758084  1
  O2-  O417  1  0.76503560  0.14104159  0.84803968  1
  O2-  O418  1  0.74970290  0.49301311  0.89235127  1
  O2-  O419  1  0.25014279  0.16421566  0.89313890  1
  O2-  O420  1  0.45413330  0.33793896  0.82519670  1
  O2-  O421  1  0.47074528  -0.00096293  0.11953282  1
  O2-  O422  1  0.02982025  0.31064818  0.62493244  1
  O2-  O423  1  0.95072363  0.35445308  0.63352497  1
  O2-  O424  1  0.48234046  0.64201685  0.36666176  1
  O2-  O425  1  0.01890941  -0.01710829  0.62713830  1
  O2-  O426  1  0.04312763  0.30178065  0.34906458  1
  O2-  O427  1  0.54439960  0.31934778  0.62860991  1
  O2-  O428  1  0.96832330  0.35876908  0.38718299  1
  O2-  O429  1  0.54428382  0.36088947  0.89682468  1
  O2-  O430  1  0.95374490  0.00519216  0.85241276  1
  O2-  O431  1  0.02247964  0.67455602  0.89287374  1
  O2-  O432  1  0.04060319  0.03805367  0.87877910  1
  O2-  O433  1  0.51095172  0.66204513  0.12106234  1
  O2-  O434  1  0.47874290  0.01657083  0.87936703  1
  O2-  O435  1  0.97230869  0.66562647  0.13360180  1
  O2-  O436  1  0.96681166  0.68540230  0.86984445  1
  O2-  O437  1  0.95800607  0.00416742  0.13536310  1
  O2-  O438  1  0.45197122  0.34097928  0.63028269  1
  O2-  O439  1  0.47392619  0.34640006  0.38599435  1
  O2-  O440  1  0.04964611  -0.00796413  0.36442653  1
  O2-  O441  1  0.48607303  0.64328447  0.63483161  1
  O2-  O442  1  0.95664706  0.01651414  0.35070442  1
  O2-  O443  1  0.04952263  0.01068845  0.12982271  1
