# generated using pymatgen
data_La7(Ru4O11)2
_symmetry_space_group_name_H-M   'P 1'
_cell_length_a   23.98897128
_cell_length_b   16.82856649
_cell_length_c   15.42556221
_cell_angle_alpha   90.00024688
_cell_angle_beta   89.99980934
_cell_angle_gamma   89.99957878
_symmetry_Int_Tables_number   1
_chemical_formula_structural   La7(Ru4O11)2
_chemical_formula_sum   'La84 Ru96 O264'
_cell_volume   6227.29943339
_cell_formula_units_Z   12
loop_
 _symmetry_equiv_pos_site_id
 _symmetry_equiv_pos_as_xyz
  1  'x, y, z'
loop_
 _atom_type_symbol
 _atom_type_oxidation_number
  La3+  3.0
  Ru4+  4.0
  O2-  -2.0
loop_
 _atom_site_type_symbol
 _atom_site_label
 _atom_site_symmetry_multiplicity
 _atom_site_fract_x
 _atom_site_fract_y
 _atom_site_fract_z
 _atom_site_occupancy
  La3+  La0  1  0.13807345  -0.00097195  0.12565700  1
  La3+  La1  1  0.13724055  -0.00047150  0.37405231  1
  La3+  La2  1  0.13808988  -0.00078496  0.62583496  1
  La3+  La3  1  0.13869377  -0.00072330  0.87436819  1
  La3+  La4  1  0.13855160  0.33440158  0.12538174  1
  La3+  La5  1  0.13862159  0.33417626  0.37442158  1
  La3+  La6  1  0.13846118  0.33408498  0.62626438  1
  La3+  La7  1  0.13880200  0.33445998  0.87406106  1
  La3+  La8  1  0.13902406  0.66681857  0.12526825  1
  La3+  La9  1  0.13811620  0.66632952  0.37520267  1
  La3+  La10  1  0.13803821  0.66521317  0.62634068  1
  La3+  La11  1  0.13900941  0.66641807  0.87283716  1
  La3+  La12  1  0.63728498  -0.00016825  0.12534449  1
  La3+  La13  1  0.63808476  -0.00013289  0.37402377  1
  La3+  La14  1  0.63887263  -0.00003585  0.62642519  1
  La3+  La15  1  0.63883448  0.00059110  0.87330652  1
  La3+  La16  1  0.63913210  0.33362631  0.12520964  1
  La3+  La17  1  0.63786230  0.33409247  0.37537326  1
  La3+  La18  1  0.63850958  0.33391705  0.62414918  1
  La3+  La19  1  0.63826670  0.33352749  0.87514618  1
  La3+  La20  1  0.63853473  0.66666615  0.12536468  1
  La3+  La21  1  0.63823269  0.66631732  0.37387943  1
  La3+  La22  1  0.63829086  0.66646768  0.62595964  1
  La3+  La23  1  0.63858162  0.66729460  0.87465309  1
  La3+  La24  1  0.36220817  -0.00121822  0.12537712  1
  La3+  La25  1  0.36203617  -0.00045644  0.37401658  1
  La3+  La26  1  0.36155754  -0.00088994  0.62577834  1
  La3+  La27  1  0.36158962  -0.00140891  0.87466960  1
  La3+  La28  1  0.36248205  0.33425090  0.12564903  1
  La3+  La29  1  0.36168414  0.33381076  0.37383081  1
  La3+  La30  1  0.36250568  0.33388762  0.62545581  1
  La3+  La31  1  0.36157123  0.33488106  0.87425505  1
  La3+  La32  1  0.36083999  0.66628189  0.12541434  1
  La3+  La33  1  0.36193304  0.66660212  0.37438155  1
  La3+  La34  1  0.36109979  0.66624898  0.62619553  1
  La3+  La35  1  0.35956434  0.66593962  0.87394195  1
  La3+  La36  1  0.86272416  -0.00011924  0.12544939  1
  La3+  La37  1  0.86226782  0.00043047  0.37419352  1
  La3+  La38  1  0.86141001  0.00033928  0.62546176  1
  La3+  La39  1  0.86096150  0.00017023  0.87397451  1
  La3+  La40  1  0.86061555  0.33356850  0.12537133  1
  La3+  La41  1  0.86153075  0.33396771  0.37430728  1
  La3+  La42  1  0.86149156  0.33383577  0.62475461  1
  La3+  La43  1  0.86164801  0.33312576  0.87503958  1
  La3+  La44  1  0.86140300  0.66679613  0.12560767  1
  La3+  La45  1  0.86192812  0.66620535  0.37413517  1
  La3+  La46  1  0.86182685  0.66625115  0.62639629  1
  La3+  La47  1  0.86101955  0.66678666  0.87457810  1
  La3+  La48  1  0.50074934  0.49820307  0.63232428  1
  La3+  La49  1  -0.00000845  0.16596650  0.11722753  1
  La3+  La50  1  0.50132674  0.16567798  0.13332302  1
  La3+  La51  1  0.00098907  0.83310923  0.88293545  1
  La3+  La52  1  0.50131188  0.16992519  0.61607786  1
  La3+  La53  1  0.50114799  0.83514387  0.11895257  1
  La3+  La54  1  -0.00013800  0.50021495  0.61466816  1
  La3+  La55  1  0.00062796  0.83317675  0.63116699  1
  La3+  La56  1  0.50037077  0.50002426  0.36472237  1
  La3+  La57  1  0.00030300  0.83364998  0.11475069  1
  La3+  La58  1  0.50008055  0.83387876  0.86538001  1
  La3+  La59  1  0.00027776  0.49995473  0.13675904  1
  La3+  La60  1  -0.00007407  0.16647445  0.61374855  1
  La3+  La61  1  -0.00053499  0.49860187  0.88432969  1
  La3+  La62  1  0.00040488  0.83298638  0.86519150  1
  La3+  La63  1  0.49899579  0.50036652  0.86645202  1
  La3+  La64  1  0.50046291  0.50063190  0.11521215  1
  La3+  La65  1  -0.00123647  0.49873975  0.86232641  1
  La3+  La66  1  0.50015965  0.83330714  0.61487122  1
  La3+  La67  1  -0.00009443  0.16717115  0.86461594  1
  La3+  La68  1  -0.00028319  0.50021467  0.11470003  1
  La3+  La69  1  0.00049896  0.50136503  0.36760244  1
  La3+  La70  1  0.49990989  0.16611522  0.88465702  1
  La3+  La71  1  0.00052961  0.83280425  0.36501206  1
  La3+  La72  1  0.74999702  0.14162402  0.52010132  1
  La3+  La73  1  0.74986846  0.19288889  0.24905946  1
  La3+  La74  1  0.74990688  0.83593864  0.47971926  1
  La3+  La75  1  0.24993302  0.50074063  0.50027701  1
  La3+  La76  1  0.24994390  0.86578517  0.50003858  1
  La3+  La77  1  0.74995795  0.83347433  0.26424020  1
  La3+  La78  1  0.25001557  0.19352630  0.76994827  1
  La3+  La79  1  0.74998314  0.47142043  -0.02435823  1
  La3+  La80  1  0.24968683  0.16575126  0.49937203  1
  La3+  La81  1  0.24990807  0.85849616  -0.02617288  1
  La3+  La82  1  0.25008866  0.16545297  0.00218099  1
  La3+  La83  1  0.75005574  0.79643019  -0.00864122  1
  Ru4+  Ru84  1  -0.00008624  0.00010230  0.00095831  1
  Ru4+  Ru85  1  0.00070444  0.00239110  0.25078294  1
  Ru4+  Ru86  1  0.00021196  -0.00001000  0.49904295  1
  Ru4+  Ru87  1  -0.00238714  0.00336729  0.75141781  1
  Ru4+  Ru88  1  -0.00025797  0.33245103  -0.00013433  1
  Ru4+  Ru89  1  -0.00026024  0.33239058  0.25015761  1
  Ru4+  Ru90  1  -0.00011646  0.33349152  0.49937590  1
  Ru4+  Ru91  1  -0.00011340  0.33288670  0.75147763  1
  Ru4+  Ru92  1  0.00083854  0.66740882  0.00080698  1
  Ru4+  Ru93  1  0.00034561  0.66702156  0.25029339  1
  Ru4+  Ru94  1  -0.00252479  0.66686399  0.49957093  1
  Ru4+  Ru95  1  -0.00219223  0.66528927  0.74871520  1
  Ru4+  Ru96  1  0.50110631  0.00321670  0.00064188  1
  Ru4+  Ru97  1  0.49942917  0.00061793  0.24999194  1
  Ru4+  Ru98  1  0.50207763  -0.00372194  0.50134925  1
  Ru4+  Ru99  1  0.50087172  -0.00140333  0.74781000  1
  Ru4+  Ru100  1  0.50424802  0.33386963  -0.00136874  1
  Ru4+  Ru101  1  0.50146879  0.33650710  0.25245995  1
  Ru4+  Ru102  1  0.50130233  0.33508989  0.49899515  1
  Ru4+  Ru103  1  0.49856816  0.33139255  0.74828016  1
  Ru4+  Ru104  1  0.50100012  0.66474160  0.00243842  1
  Ru4+  Ru105  1  0.49956778  0.66638249  0.24984678  1
  Ru4+  Ru106  1  0.49727417  0.67032532  0.49894945  1
  Ru4+  Ru107  1  0.50086222  0.66950367  0.74777702  1
  Ru4+  Ru108  1  0.11158163  0.16586473  0.00002896  1
  Ru4+  Ru109  1  0.11203837  0.16645892  0.25016164  1
  Ru4+  Ru110  1  0.11129743  0.16644122  0.49986214  1
  Ru4+  Ru111  1  0.11169177  0.16717982  0.75003346  1
  Ru4+  Ru112  1  0.11443143  0.49924663  0.00040577  1
  Ru4+  Ru113  1  0.11319245  0.50003535  0.25008605  1
  Ru4+  Ru114  1  0.11324020  0.49846403  0.49930049  1
  Ru4+  Ru115  1  0.11511290  0.49849384  0.74979328  1
  Ru4+  Ru116  1  0.11226925  0.83339809  0.00054342  1
  Ru4+  Ru117  1  0.11358254  0.83334931  0.24986173  1
  Ru4+  Ru118  1  0.11298060  0.83519680  0.49996218  1
  Ru4+  Ru119  1  0.11689858  0.83269995  0.74945561  1
  Ru4+  Ru120  1  0.61268613  0.16652767  0.00042418  1
  Ru4+  Ru121  1  0.61179355  0.16684363  0.24984065  1
  Ru4+  Ru122  1  0.61233158  0.16837022  0.49961119  1
  Ru4+  Ru123  1  0.61296795  0.16738285  0.75008378  1
  Ru4+  Ru124  1  0.61206342  0.49956476  0.00015628  1
  Ru4+  Ru125  1  0.61319120  0.49933570  0.24996772  1
  Ru4+  Ru126  1  0.61456783  0.49623460  0.49922209  1
  Ru4+  Ru127  1  0.61395853  0.50145854  0.75025624  1
  Ru4+  Ru128  1  0.61242486  0.83212237  -0.00090829  1
  Ru4+  Ru129  1  0.61211879  0.83333084  0.24996357  1
  Ru4+  Ru130  1  0.61182453  0.83344683  0.50011421  1
  Ru4+  Ru131  1  0.61357835  0.83375056  0.75016342  1
  Ru4+  Ru132  1  0.38610075  0.16309715  -0.00063688  1
  Ru4+  Ru133  1  0.38563749  0.16452430  0.24975719  1
  Ru4+  Ru134  1  0.38448678  0.16829444  0.49945151  1
  Ru4+  Ru135  1  0.38697031  0.16849420  0.75054395  1
  Ru4+  Ru136  1  0.38522403  0.50144339  0.00013552  1
  Ru4+  Ru137  1  0.38704292  0.49940544  0.24987400  1
  Ru4+  Ru138  1  0.38825126  0.49946035  0.50001656  1
  Ru4+  Ru139  1  0.38542211  0.49922097  0.75024093  1
  Ru4+  Ru140  1  0.38546047  0.83255343  -0.00074467  1
  Ru4+  Ru141  1  0.38599814  0.83310365  0.25000477  1
  Ru4+  Ru142  1  0.38757196  0.83342700  0.49984333  1
  Ru4+  Ru143  1  0.38640563  0.83319869  0.74997935  1
  Ru4+  Ru144  1  0.88750439  0.16726994  -0.00009998  1
  Ru4+  Ru145  1  0.88814863  0.16706113  0.25076314  1
  Ru4+  Ru146  1  0.88801369  0.16578192  0.50062665  1
  Ru4+  Ru147  1  0.88787783  0.16665056  0.75004468  1
  Ru4+  Ru148  1  0.88720569  0.49940886  0.00019313  1
  Ru4+  Ru149  1  0.88659263  0.49976666  0.24997150  1
  Ru4+  Ru150  1  0.88677442  0.49868061  0.49990492  1
  Ru4+  Ru151  1  0.88724207  0.49982324  0.74953265  1
  Ru4+  Ru152  1  0.88771179  0.83398953  0.00022648  1
  Ru4+  Ru153  1  0.88716616  0.83189684  0.25003441  1
  Ru4+  Ru154  1  0.88825347  0.83352895  0.50015898  1
  Ru4+  Ru155  1  0.88556389  0.83480149  0.75004200  1
  Ru4+  Ru156  1  0.74994474  0.60265309  0.00138909  1
  Ru4+  Ru157  1  0.24994958  0.58228779  0.24863869  1
  Ru4+  Ru158  1  0.24992730  0.72738748  -0.00107627  1
  Ru4+  Ru159  1  0.24994473  0.28327872  -0.00526268  1
  Ru4+  Ru160  1  0.74987881  0.93561870  -0.00375642  1
  Ru4+  Ru161  1  0.24991350  0.06216734  0.74674117  1
  Ru4+  Ru162  1  0.75009004  0.41860858  0.74926652  1
  Ru4+  Ru163  1  0.75001710  0.06130229  0.24817605  1
  Ru4+  Ru164  1  0.74992253  0.95076907  0.49910215  1
  Ru4+  Ru165  1  0.74993124  0.71922175  0.49205411  1
  Ru4+  Ru166  1  0.75014135  0.24819007  0.75055028  1
  Ru4+  Ru167  1  0.75004103  0.57437511  0.49816832  1
  Ru4+  Ru168  1  0.74993638  0.58146681  0.25107119  1
  Ru4+  Ru169  1  0.74986558  0.24956377  0.00102016  1
  Ru4+  Ru170  1  0.24990110  0.08672178  0.25058307  1
  Ru4+  Ru171  1  0.75008005  0.08514555  0.75180043  1
  Ru4+  Ru172  1  0.24993859  0.04556322  0.49521286  1
  Ru4+  Ru173  1  0.24994998  0.28529209  0.49014290  1
  Ru4+  Ru174  1  0.24985874  0.24707615  0.25183125  1
  Ru4+  Ru175  1  0.74988251  0.08521324  -0.00157263  1
  Ru4+  Ru176  1  0.74991123  0.27160419  0.49892412  1
  Ru4+  Ru177  1  0.75019579  0.57962846  0.74986499  1
  Ru4+  Ru178  1  0.24995842  0.04735658  -0.01109907  1
  Ru4+  Ru179  1  0.25000158  0.73420191  0.50395515  1
  O2-  O180  1  0.16625472  0.08008837  -0.00014976  1
  O2-  O181  1  0.16790407  0.08068456  0.25050958  1
  O2-  O182  1  0.16651611  0.08006007  0.49989188  1
  O2-  O183  1  0.16722761  0.07986406  0.74983585  1
  O2-  O184  1  0.16778455  0.41446581  0.00002845  1
  O2-  O185  1  0.16749522  0.41427811  0.24983276  1
  O2-  O186  1  0.16879289  0.41439682  0.49993190  1
  O2-  O187  1  0.16730995  0.41429325  0.75032826  1
  O2-  O188  1  0.16782157  0.74685527  -0.00028145  1
  O2-  O189  1  0.16695012  0.74789880  0.25044980  1
  O2-  O190  1  0.16749245  0.74712419  0.49973213  1
  O2-  O191  1  0.16735026  0.74841731  0.74981596  1
  O2-  O192  1  0.66811199  0.08111318  -0.00011503  1
  O2-  O193  1  0.66713036  0.07990205  0.24997690  1
  O2-  O194  1  0.66722278  0.07992182  0.49936151  1
  O2-  O195  1  0.66829603  0.08082426  0.74955487  1
  O2-  O196  1  0.66710876  0.41335727  -0.00037539  1
  O2-  O197  1  0.66739902  0.41448986  0.24987933  1
  O2-  O198  1  0.66769333  0.41432749  0.50022178  1
  O2-  O199  1  0.66828660  0.41396167  0.75002567  1
  O2-  O200  1  0.66697354  0.74728016  0.00075824  1
  O2-  O201  1  0.66758454  0.74720519  0.24973185  1
  O2-  O202  1  0.66675244  0.74638661  0.50006663  1
  O2-  O203  1  0.66707076  0.74762798  0.74987557  1
  O2-  O204  1  0.33328073  0.25374007  0.00020635  1
  O2-  O205  1  0.33185828  0.25202003  0.25053755  1
  O2-  O206  1  0.33311074  0.25383354  0.49950815  1
  O2-  O207  1  0.33267915  0.25233536  0.75012830  1
  O2-  O208  1  0.33259786  0.58537442  0.00026049  1
  O2-  O209  1  0.33216979  0.58534918  0.25033073  1
  O2-  O210  1  0.33181868  0.58570812  0.49974982  1
  O2-  O211  1  0.33233716  0.58502846  0.74916900  1
  O2-  O212  1  0.33203699  0.91958224  -0.00001219  1
  O2-  O213  1  0.33279030  0.91908610  0.25030189  1
  O2-  O214  1  0.33245696  0.91997329  0.49953783  1
  O2-  O215  1  0.33208328  0.91886748  0.75008730  1
  O2-  O216  1  0.83249018  0.25245937  -0.00043189  1
  O2-  O217  1  0.83223752  0.25289939  0.24995576  1
  O2-  O218  1  0.83283901  0.25329230  0.49986511  1
  O2-  O219  1  0.83172166  0.25307613  0.75018818  1
  O2-  O220  1  0.83278415  0.58661003  0.00009272  1
  O2-  O221  1  0.83168796  0.58623395  0.25024513  1
  O2-  O222  1  0.83242850  0.58654271  0.49984355  1
  O2-  O223  1  0.83159842  0.58603575  0.74997737  1
  O2-  O224  1  0.83218099  0.91978313  -0.00015668  1
  O2-  O225  1  0.83213853  0.91966645  0.24953253  1
  O2-  O226  1  0.83328949  0.91988233  0.49964928  1
  O2-  O227  1  0.83311417  0.91861155  0.74992559  1
  O2-  O228  1  0.16627499  0.25367114  0.00004739  1
  O2-  O229  1  0.16762566  0.25202625  0.24993351  1
  O2-  O230  1  0.16649759  0.25359116  0.49997473  1
  O2-  O231  1  0.16708085  0.25325638  0.75024668  1
  O2-  O232  1  0.16755777  0.58575401  -0.00004435  1
  O2-  O233  1  0.16793419  0.58543617  0.25028456  1
  O2-  O234  1  0.16830268  0.58529733  0.49982613  1
  O2-  O235  1  0.16756275  0.58507758  0.74981520  1
  O2-  O236  1  0.16775453  0.91993712  -0.00023573  1
  O2-  O237  1  0.16739212  0.91936897  0.25034411  1
  O2-  O238  1  0.16670823  0.92004645  0.49984342  1
  O2-  O239  1  0.16774247  0.91883946  0.74959825  1
  O2-  O240  1  0.66798585  0.25248563  -0.00067274  1
  O2-  O241  1  0.66758160  0.25292689  0.25009648  1
  O2-  O242  1  0.66781007  0.25286922  0.50009699  1
  O2-  O243  1  0.66791965  0.25226731  0.75031259  1
  O2-  O244  1  0.66691091  0.58677155  0.00019346  1
  O2-  O245  1  0.66830811  0.58606896  0.24996856  1
  O2-  O246  1  0.66778208  0.58651354  0.50017457  1
  O2-  O247  1  0.66756796  0.58548636  0.74964062  1
  O2-  O248  1  0.66801960  0.91936120  0.00039660  1
  O2-  O249  1  0.66840061  0.91944421  0.24995603  1
  O2-  O250  1  0.66684679  0.92025965  0.49974911  1
  O2-  O251  1  0.66776106  0.91861446  0.74942483  1
  O2-  O252  1  0.33372856  0.07994561  -0.00026292  1
  O2-  O253  1  0.33249666  0.08128819  0.25055147  1
  O2-  O254  1  0.33274638  0.08015004  0.49943129  1
  O2-  O255  1  0.33258557  0.07999696  0.74965323  1
  O2-  O256  1  0.33228392  0.41462203  0.00012758  1
  O2-  O257  1  0.33259553  0.41442724  0.25019012  1
  O2-  O258  1  0.33093294  0.41424070  0.49940833  1
  O2-  O259  1  0.33262667  0.41486825  0.75005928  1
  O2-  O260  1  0.33240558  0.74707559  0.00019778  1
  O2-  O261  1  0.33316096  0.74801607  0.25022010  1
  O2-  O262  1  0.33318178  0.74689591  0.49988203  1
  O2-  O263  1  0.33304664  0.74835601  0.74960182  1
  O2-  O264  1  0.83230803  0.08038929  -0.00009485  1
  O2-  O265  1  0.83267116  0.08011669  0.24962760  1
  O2-  O266  1  0.83251442  0.08006117  0.49921932  1
  O2-  O267  1  0.83188299  0.08063311  0.74996635  1
  O2-  O268  1  0.83264401  0.41345768  -0.00020681  1
  O2-  O269  1  0.83253134  0.41408467  0.25029365  1
  O2-  O270  1  0.83298044  0.41417271  0.50018407  1
  O2-  O271  1  0.83214095  0.41384568  0.75003781  1
  O2-  O272  1  0.83347982  0.74683514  0.00018973  1
  O2-  O273  1  0.83225648  0.74701121  0.24987200  1
  O2-  O274  1  0.83328170  0.74631744  0.49977688  1
  O2-  O275  1  0.83208761  0.74751956  0.74975123  1
  O2-  O276  1  0.04573978  0.56832756  0.98705971  1
  O2-  O277  1  0.45372584  0.43383757  0.23558880  1
  O2-  O278  1  0.04464525  0.90161291  0.48585989  1
  O2-  O279  1  0.45765266  0.56241802  0.72559009  1
  O2-  O280  1  0.95317679  0.90302082  0.29340777  1
  O2-  O281  1  0.55336390  0.58009230  0.53373599  1
  O2-  O282  1  0.45490711  0.76578455  0.51445801  1
  O2-  O283  1  0.54636695  0.09949651  0.74521876  1
  O2-  O284  1  0.45287552  0.09727070  0.23561632  1
  O2-  O285  1  0.95879649  0.77215105  0.72384077  1
  O2-  O286  1  0.04521728  0.09916133  0.26327708  1
  O2-  O287  1  0.95483661  0.09916236  0.01306625  1
  O2-  O288  1  0.04745127  0.76488133  0.76648525  1
  O2-  O289  1  0.45390373  0.43165365  0.73667850  1
  O2-  O290  1  0.95424966  0.89966455  0.20716617  1
  O2-  O291  1  0.04796194  0.56978180  0.51571380  1
  O2-  O292  1  0.55533185  0.41476470  0.79589482  1
  O2-  O293  1  0.44263085  0.24876809  0.52361134  1
  O2-  O294  1  0.95481786  0.76528192  0.98543480  1
  O2-  O295  1  0.05369042  0.91269738  0.71719505  1
  O2-  O296  1  0.54624145  0.43285231  0.23487568  1
  O2-  O297  1  0.05555937  0.74923116  0.45892727  1
  O2-  O298  1  0.55266854  0.91083315  0.22938121  1
  O2-  O299  1  0.04683505  0.90133272  0.23418182  1
  O2-  O300  1  0.46114758  0.10974278  0.49954159  1
  O2-  O301  1  0.45873433  0.77099804  0.02340986  1
  O2-  O302  1  0.95426734  0.56836525  0.48534902  1
  O2-  O303  1  0.44486673  0.91495056  0.02377498  1
  O2-  O304  1  0.04636375  0.43102341  0.26428444  1
  O2-  O305  1  0.45538548  0.43217446  0.97967741  1
  O2-  O306  1  0.46198619  0.22479417  0.23735731  1
  O2-  O307  1  0.44705824  0.24694966  0.03279267  1
  O2-  O308  1  0.54370820  0.10520417  0.47406664  1
  O2-  O309  1  0.95394911  0.76466121  0.51469204  1
  O2-  O310  1  0.95343621  0.43189027  0.26476119  1
  O2-  O311  1  0.46121104  0.10965368  0.49891239  1
  O2-  O312  1  0.53364552  0.88061608  0.99499394  1
  O2-  O313  1  0.45677595  0.23313329  0.27387727  1
  O2-  O314  1  0.45409946  0.43181425  0.01881965  1
  O2-  O315  1  0.54741921  0.09973079  0.23607756  1
  O2-  O316  1  0.45684544  0.10508095  0.72430844  1
  O2-  O317  1  0.45450089  0.56664331  0.48494926  1
  O2-  O318  1  0.04576088  0.56895620  0.76853894  1
  O2-  O319  1  0.04449029  0.56762059  0.72934926  1
  O2-  O320  1  0.04514386  0.23480811  0.01383994  1
  O2-  O321  1  0.54603416  0.09941856  0.75526422  1
  O2-  O322  1  0.54634253  0.56826283  0.76440796  1
  O2-  O323  1  0.04492507  0.23405597  0.48491513  1
  O2-  O324  1  0.43651812  0.93064473  0.71696477  1
  O2-  O325  1  0.42724105  0.05928041  0.44584216  1
  O2-  O326  1  0.06411437  0.40188697  0.03327593  1
  O2-  O327  1  0.56876242  0.39483350  0.68924690  1
  O2-  O328  1  0.44705862  0.24925915  0.52312153  1
  O2-  O329  1  0.93147123  0.72775918  0.79528908  1
  O2-  O330  1  0.56445407  0.40532934  0.46984539  1
  O2-  O331  1  0.93547533  0.07060036  0.52976620  1
  O2-  O332  1  0.57827082  0.94779211  0.95982334  1
  O2-  O333  1  0.05320656  0.91266702  0.71791153  1
  O2-  O334  1  0.44690754  0.24703138  0.03274742  1
  O2-  O335  1  0.43646807  0.26468373  0.78272252  1
  O2-  O336  1  0.55066135  0.42416308  0.78053582  1
  O2-  O337  1  0.06795222  0.93684136  0.80434718  1
  O2-  O338  1  0.43605288  0.92974978  0.54816153  1
  O2-  O339  1  0.06397378  0.40202717  0.46689173  1
  O2-  O340  1  0.43528266  0.40439838  0.52997915  1
  O2-  O341  1  0.56528170  0.26208633  0.47047001  1
  O2-  O342  1  0.56404525  0.92927520  0.77974367  1
  O2-  O343  1  0.06884736  0.72932684  0.56135540  1
  O2-  O344  1  0.42996754  0.60251444  0.79040349  1
  O2-  O345  1  0.42816350  0.05804812  0.55608000  1
  O2-  O346  1  0.56715347  0.60286749  0.44808031  1
  O2-  O347  1  0.56512959  0.73702407  0.96932061  1
  O2-  O348  1  0.44405528  0.91751202  0.02288159  1
  O2-  O349  1  0.93554010  0.59775766  0.21718827  1
  O2-  O350  1  0.43226376  0.26947470  0.94781379  1
  O2-  O351  1  0.06511636  0.73729994  0.03057490  1
  O2-  O352  1  0.43528617  0.92805444  0.45463504  1
  O2-  O353  1  0.56822759  0.06134365  0.54283366  1
  O2-  O354  1  0.42604462  0.27624740  0.21149344  1
  O2-  O355  1  0.93597753  0.40212253  0.03263219  1
  O2-  O356  1  0.43050527  0.06489550  0.79023066  1
  O2-  O357  1  0.93605086  0.59776450  0.71678524  1
  O2-  O358  1  0.06245744  0.73910826  0.78059543  1
  O2-  O359  1  0.93501659  0.92938713  0.02956716  1
  O2-  O360  1  0.56462855  0.26321904  0.02984223  1
  O2-  O361  1  0.06383078  0.93125704  0.03247277  1
  O2-  O362  1  0.06273460  0.59535576  0.53157158  1
  O2-  O363  1  0.55384406  0.58020635  0.53448950  1
  O2-  O364  1  0.56405920  0.59835543  0.28216641  1
  O2-  O365  1  0.55751519  0.91919842  0.22391646  1
  O2-  O366  1  0.93624139  0.26481890  0.28190569  1
  O2-  O367  1  0.93547533  0.59805690  0.96735268  1
  O2-  O368  1  0.93547552  0.06869396  0.28219985  1
  O2-  O369  1  0.56478856  0.07161945  0.03063981  1
  O2-  O370  1  0.42998798  0.73127774  0.95958404  1
  O2-  O371  1  0.04958340  0.75748461  0.46433567  1
  O2-  O372  1  0.24991263  0.34041163  0.58594438  1
  O2-  O373  1  0.25006989  -0.00121932  0.17383116  1
  O2-  O374  1  0.75002634  0.66092510  0.58606194  1
  O2-  O375  1  0.25005934  0.66521463  0.15803262  1
  O2-  O376  1  0.74998914  0.66818479  0.90493084  1
  O2-  O377  1  0.74996358  -0.00152754  0.34490056  1
  O2-  O378  1  0.24996028  0.66098728  0.41666113  1
  O2-  O379  1  0.25004694  -0.00104372  0.84481053  1
  O2-  O380  1  0.24992760  0.66748608  0.32812686  1
  O2-  O381  1  0.25011980  0.34090520  0.08658058  1
  O2-  O382  1  0.24998097  0.33678727  0.90086969  1
  O2-  O383  1  0.25010699  0.33229755  0.34276105  1
  O2-  O384  1  0.25004380  -0.00735511  0.08618410  1
  O2-  O385  1  0.74995001  0.00250897  0.59678051  1
  O2-  O386  1  0.75007034  0.00148156  0.84278613  1
  O2-  O387  1  0.24998529  0.66792041  0.84576287  1
  O2-  O388  1  0.24998991  -0.00290877  0.59666313  1
  O2-  O389  1  0.74999845  0.66728562  0.67432418  1
  O2-  O390  1  0.24995387  0.66489298  0.59414627  1
  O2-  O391  1  0.25009800  0.33450162  0.17333601  1
  O2-  O392  1  0.75002837  0.33260292  0.09137968  1
  O2-  O393  1  0.24989234  0.33303441  0.67233586  1
  O2-  O394  1  0.74996936  0.66899862  0.09579904  1
  O2-  O395  1  0.75001223  0.00109169  0.09516744  1
  O2-  O396  1  0.75002666  0.84211602  0.09007325  1
  O2-  O397  1  0.74999688  0.50015214  0.83886902  1
  O2-  O398  1  0.25003406  0.83377079  0.31739102  1
  O2-  O399  1  0.75005579  0.83318450  0.59822420  1
  O2-  O400  1  0.75001392  0.16700332  0.66116810  1
  O2-  O401  1  0.75000228  0.83320157  0.36820886  1
  O2-  O402  1  0.25001218  0.16455835  0.64267981  1
  O2-  O403  1  0.25005461  0.83356894  0.68323419  1
  O2-  O404  1  0.74999382  0.16653291  0.09063259  1
  O2-  O405  1  0.24999373  0.16680772  0.15949478  1
  O2-  O406  1  0.75000467  0.83352449  0.67673611  1
  O2-  O407  1  0.74999535  0.16848298  0.39061975  1
  O2-  O408  1  0.74996816  0.83183400  0.15985296  1
  O2-  O409  1  0.25003450  0.83163095  0.09638941  1
  O2-  O410  1  0.25006736  0.82866143  0.60651174  1
  O2-  O411  1  0.75006429  0.50263162  0.41041289  1
  O2-  O412  1  0.75006521  0.50145263  0.59009299  1
  O2-  O413  1  0.74991258  0.84021585  0.89103726  1
  O2-  O414  1  0.75005261  0.83267564  0.81594871  1
  O2-  O415  1  0.25002660  0.82868733  0.39376737  1
  O2-  O416  1  0.75000236  0.49859716  0.17863239  1
  O2-  O417  1  0.75002283  0.50305308  0.09552411  1
  O2-  O418  1  0.25001131  0.83344242  0.17700441  1
  O2-  O419  1  0.75003233  0.16682848  0.90922432  1
  O2-  O420  1  0.47020623  -0.00191082  0.87869671  1
  O2-  O421  1  0.47421615  0.33259340  0.62847946  1
  O2-  O422  1  0.47243387  0.66602863  0.12540312  1
  O2-  O423  1  0.47180012  -0.00048563  0.36902927  1
  O2-  O424  1  0.96723255  0.33330950  0.62474038  1
  O2-  O425  1  0.52982661  0.66574066  0.87345267  1
  O2-  O426  1  0.96965655  -0.00210845  0.62697914  1
  O2-  O427  1  0.02775946  -0.00017787  0.37557762  1
  O2-  O428  1  0.97345915  0.00223851  0.12797335  1
  O2-  O429  1  0.47026212  0.00139503  0.12696384  1
  O2-  O430  1  0.47103417  0.33608235  0.12516533  1
  O2-  O431  1  0.02672003  0.66492583  0.12664373  1
  O2-  O432  1  0.53047466  -0.00023714  0.37365914  1
  O2-  O433  1  0.03265697  0.33351017  0.62571331  1
  O2-  O434  1  0.52797786  0.00327651  0.87511968  1
  O2-  O435  1  0.97195234  0.33284079  0.87431850  1
  O2-  O436  1  0.47228948  0.66660835  0.87488410  1
  O2-  O437  1  0.52990199  0.33419919  0.12666040  1
  O2-  O438  1  0.02683385  0.66607299  0.87750544  1
  O2-  O439  1  0.47253857  0.66692239  0.37409070  1
  O2-  O440  1  0.52845190  -0.00040079  0.12410716  1
  O2-  O441  1  0.47241928  0.66706182  0.62577057  1
  O2-  O442  1  0.52564410  0.33366472  0.37040598  1
  O2-  O443  1  0.03067363  0.00277335  0.62126376  1
