# generated using pymatgen
data_La7(Ru4O11)2
_symmetry_space_group_name_H-M   'P 1'
_cell_length_a   23.99011989
_cell_length_b   16.83013708
_cell_length_c   15.42635647
_cell_angle_alpha   89.99998525
_cell_angle_beta   89.99984401
_cell_angle_gamma   90.00151519
_symmetry_Int_Tables_number   1
_chemical_formula_structural   La7(Ru4O11)2
_chemical_formula_sum   'La84 Ru96 O264'
_cell_volume   6228.49950449
_cell_formula_units_Z   12
loop_
 _symmetry_equiv_pos_site_id
 _symmetry_equiv_pos_as_xyz
  1  'x, y, z'
loop_
 _atom_type_symbol
 _atom_type_oxidation_number
  La3+  3.0
  Ru4+  4.0
  O2-  -2.0
loop_
 _atom_site_type_symbol
 _atom_site_label
 _atom_site_symmetry_multiplicity
 _atom_site_fract_x
 _atom_site_fract_y
 _atom_site_fract_z
 _atom_site_occupancy
  La3+  La0  1  0.13529750  -0.00295487  0.12286708  1
  La3+  La1  1  0.13681304  -0.00186443  0.37616873  1
  La3+  La2  1  0.13895776  -0.00353111  0.62362284  1
  La3+  La3  1  0.13506274  -0.00406038  0.87812940  1
  La3+  La4  1  0.13973613  0.33372790  0.12804672  1
  La3+  La5  1  0.13624193  0.33130873  0.37285959  1
  La3+  La6  1  0.13313489  0.32535794  0.63407394  1
  La3+  La7  1  0.12843095  0.32219225  0.86321757  1
  La3+  La8  1  0.14730432  0.67018795  0.12504181  1
  La3+  La9  1  0.13909946  0.67167339  0.37221352  1
  La3+  La10  1  0.13749336  0.67003009  0.63077573  1
  La3+  La11  1  0.13607926  0.66608137  0.87496929  1
  La3+  La12  1  0.63693207  0.00135904  0.12288369  1
  La3+  La13  1  0.63931180  0.00026488  0.37546042  1
  La3+  La14  1  0.64210067  -0.00247196  0.62777013  1
  La3+  La15  1  0.64489895  -0.00281619  0.87041251  1
  La3+  La16  1  0.62968325  0.34417836  0.11336814  1
  La3+  La17  1  0.63480319  0.33324894  0.37785641  1
  La3+  La18  1  0.63689945  0.33243851  0.62586023  1
  La3+  La19  1  0.63042625  0.33935720  0.88514852  1
  La3+  La20  1  0.64022401  0.66507905  0.12522086  1
  La3+  La21  1  0.63798851  0.66646599  0.37855987  1
  La3+  La22  1  0.64100047  0.66617193  0.62557695  1
  La3+  La23  1  0.64015241  0.66502867  0.87248233  1
  La3+  La24  1  0.35777149  -0.00598886  0.11667699  1
  La3+  La25  1  0.36492233  0.00034005  0.37754076  1
  La3+  La26  1  0.36247511  -0.00373800  0.61952582  1
  La3+  La27  1  0.36620799  -0.00151365  0.87797618  1
  La3+  La28  1  0.35994678  0.33568236  0.12918064  1
  La3+  La29  1  0.36528030  0.33259203  0.37331221  1
  La3+  La30  1  0.36263400  0.33232822  0.62575486  1
  La3+  La31  1  0.36383104  0.33351635  0.87287659  1
  La3+  La32  1  0.35757666  0.66830272  0.12861035  1
  La3+  La33  1  0.37199660  0.68016357  0.38231812  1
  La3+  La34  1  0.36953940  0.67861254  0.61887499  1
  La3+  La35  1  0.35872472  0.66785842  0.87406977  1
  La3+  La36  1  0.86564343  -0.00104394  0.12459440  1
  La3+  La37  1  0.86672756  -0.00645735  0.38510183  1
  La3+  La38  1  0.86455914  -0.01352438  0.61728326  1
  La3+  La39  1  0.85931826  -0.00222000  0.87092939  1
  La3+  La40  1  0.86657736  0.33459882  0.12472874  1
  La3+  La41  1  0.86530675  0.33485741  0.37183186  1
  La3+  La42  1  0.86179428  0.33338698  0.62766907  1
  La3+  La43  1  0.86352810  0.33161748  0.87434003  1
  La3+  La44  1  0.85966371  0.66619398  0.12604592  1
  La3+  La45  1  0.86417384  0.66689548  0.37880245  1
  La3+  La46  1  0.86122689  0.66539695  0.62150907  1
  La3+  La47  1  0.86094145  0.66544123  0.87301228  1
  La3+  La48  1  -0.00594969  0.49772087  0.86595768  1
  La3+  La49  1  -0.00539885  0.50211561  0.38307034  1
  La3+  La50  1  0.49724808  0.83760891  0.13548454  1
  La3+  La51  1  -0.00000609  0.16357729  0.86359162  1
  La3+  La52  1  0.49658738  0.82965418  0.38808090  1
  La3+  La53  1  0.00228239  0.16876743  0.63768303  1
  La3+  La54  1  -0.00393425  0.50000265  0.36627006  1
  La3+  La55  1  0.49933820  0.16771445  0.64036812  1
  La3+  La56  1  0.49514857  0.83024173  0.37130064  1
  La3+  La57  1  0.49652151  0.83305286  0.86011833  1
  La3+  La58  1  -0.00380664  0.83997389  0.60995378  1
  La3+  La59  1  0.49169338  0.82119340  0.61529479  1
  La3+  La60  1  0.49581257  0.83226105  0.88231137  1
  La3+  La61  1  0.49725316  0.82785376  0.11622369  1
  La3+  La62  1  0.50310232  0.49324004  0.11440924  1
  La3+  La63  1  0.00028097  0.50498575  0.61732284  1
  La3+  La64  1  -0.00682182  0.50540293  0.63678276  1
  La3+  La65  1  0.50647574  0.49250711  0.88029613  1
  La3+  La66  1  -0.00385837  0.83557838  0.37710957  1
  La3+  La67  1  0.50310596  0.49332363  0.13162396  1
  La3+  La68  1  -0.00113222  0.83220691  0.86999283  1
  La3+  La69  1  0.00020700  0.49932076  0.11456518  1
  La3+  La70  1  0.00220392  0.16758969  0.62031347  1
  La3+  La71  1  -0.00155332  0.49677844  0.13093788  1
  La3+  La72  1  0.25019103  0.49696370  0.44313351  1
  La3+  La73  1  0.24959790  0.19489228  0.51065110  1
  La3+  La74  1  0.74970191  0.49908804  0.22715111  1
  La3+  La75  1  0.24964761  0.21394604  0.24840786  1
  La3+  La76  1  0.24984220  0.15614927  -0.00738624  1
  La3+  La77  1  0.25066416  0.44568987  0.77461629  1
  La3+  La78  1  0.25085471  0.50210931  0.27094161  1
  La3+  La79  1  0.25096673  0.20115860  0.74879534  1
  La3+  La80  1  0.75032043  0.83737516  0.20775296  1
  La3+  La81  1  0.74998780  0.20224328  0.49877813  1
  La3+  La82  1  0.24969737  0.82529585  -0.00355756  1
  La3+  La83  1  0.74964111  0.16573104  -0.06336961  1
  Ru4+  Ru84  1  -0.00484418  0.00174901  0.01080381  1
  Ru4+  Ru85  1  0.00017506  -0.00662850  0.24495838  1
  Ru4+  Ru86  1  0.00005835  0.00019996  0.49297884  1
  Ru4+  Ru87  1  0.00029827  -0.00031405  0.75172014  1
  Ru4+  Ru88  1  0.00213923  0.33547248  0.00756326  1
  Ru4+  Ru89  1  0.00304407  0.32015480  0.24347339  1
  Ru4+  Ru90  1  -0.00137121  0.32588092  0.49423586  1
  Ru4+  Ru91  1  0.00475320  0.33322901  0.75281504  1
  Ru4+  Ru92  1  0.00518517  0.66221487  -0.00374655  1
  Ru4+  Ru93  1  -0.00210537  0.67289955  0.25016527  1
  Ru4+  Ru94  1  -0.00032874  0.67601417  0.50098448  1
  Ru4+  Ru95  1  -0.01058142  0.67118480  0.75399379  1
  Ru4+  Ru96  1  0.50364842  0.01584618  -0.00581712  1
  Ru4+  Ru97  1  0.50009413  0.00242288  0.25723618  1
  Ru4+  Ru98  1  0.49749040  -0.00224000  0.49701027  1
  Ru4+  Ru99  1  0.49996292  -0.00255578  0.74701204  1
  Ru4+  Ru100  1  0.50401145  0.33348113  0.00801344  1
  Ru4+  Ru101  1  0.50093655  0.33896047  0.24735375  1
  Ru4+  Ru102  1  0.49900796  0.33880772  0.50447048  1
  Ru4+  Ru103  1  0.49695806  0.33673755  0.74372606  1
  Ru4+  Ru104  1  0.50026170  0.66347859  0.00127678  1
  Ru4+  Ru105  1  0.50411160  0.65707309  0.25487370  1
  Ru4+  Ru106  1  0.49986781  0.66382494  0.49908660  1
  Ru4+  Ru107  1  0.50586368  0.65931147  0.74818429  1
  Ru4+  Ru108  1  0.10885483  0.16498655  -0.00167443  1
  Ru4+  Ru109  1  0.10894342  0.16933849  0.25181794  1
  Ru4+  Ru110  1  0.10857431  0.16558144  0.50323877  1
  Ru4+  Ru111  1  0.11215881  0.16572868  0.74922623  1
  Ru4+  Ru112  1  0.11600459  0.50260694  0.00329374  1
  Ru4+  Ru113  1  0.11336019  0.49512365  0.25006850  1
  Ru4+  Ru114  1  0.11275554  0.50436416  0.49661736  1
  Ru4+  Ru115  1  0.11465503  0.49232840  0.75301875  1
  Ru4+  Ru116  1  0.11231122  0.82649382  0.00104464  1
  Ru4+  Ru117  1  0.11083584  0.83288611  0.24886905  1
  Ru4+  Ru118  1  0.11515146  0.83323228  0.50020773  1
  Ru4+  Ru119  1  0.11876326  0.83510766  0.74928389  1
  Ru4+  Ru120  1  0.60640668  0.16620213  -0.00109074  1
  Ru4+  Ru121  1  0.61434809  0.16261125  0.24919805  1
  Ru4+  Ru122  1  0.61299679  0.16072014  0.49908214  1
  Ru4+  Ru123  1  0.61502965  0.16346908  0.75219888  1
  Ru4+  Ru124  1  0.61239079  0.49937178  0.00050733  1
  Ru4+  Ru125  1  0.60963958  0.50084200  0.24804508  1
  Ru4+  Ru126  1  0.60769326  0.50096247  0.49683764  1
  Ru4+  Ru127  1  0.61157346  0.50661520  0.75295621  1
  Ru4+  Ru128  1  0.61056210  0.83477717  -0.00150647  1
  Ru4+  Ru129  1  0.61081863  0.83761714  0.25127859  1
  Ru4+  Ru130  1  0.61546778  0.83132722  0.49957006  1
  Ru4+  Ru131  1  0.61095109  0.83528294  0.75165472  1
  Ru4+  Ru132  1  0.39176079  0.16396185  -0.00309235  1
  Ru4+  Ru133  1  0.38777737  0.16402655  0.24964243  1
  Ru4+  Ru134  1  0.39047637  0.16648430  0.50072717  1
  Ru4+  Ru135  1  0.38956128  0.16675482  0.74901608  1
  Ru4+  Ru136  1  0.38956552  0.50263340  -0.00044131  1
  Ru4+  Ru137  1  0.38933255  0.50040426  0.25214089  1
  Ru4+  Ru138  1  0.38950435  0.50236432  0.49959747  1
  Ru4+  Ru139  1  0.38992722  0.49998897  0.75103772  1
  Ru4+  Ru140  1  0.38613426  0.82797905  -0.00290924  1
  Ru4+  Ru141  1  0.38068063  0.83497829  0.25374120  1
  Ru4+  Ru142  1  0.38638469  0.83170001  0.49804446  1
  Ru4+  Ru143  1  0.38283669  0.83548215  0.74915520  1
  Ru4+  Ru144  1  0.88702274  0.16073633  0.00112761  1
  Ru4+  Ru145  1  0.88835715  0.16699299  0.24756864  1
  Ru4+  Ru146  1  0.88932665  0.16856393  0.49875977  1
  Ru4+  Ru147  1  0.88311900  0.15996698  0.75089039  1
  Ru4+  Ru148  1  0.88426314  0.49722692  0.00071952  1
  Ru4+  Ru149  1  0.88317456  0.50415810  0.24919938  1
  Ru4+  Ru150  1  0.88092850  0.49407191  0.49937109  1
  Ru4+  Ru151  1  0.88519304  0.50211781  0.75240550  1
  Ru4+  Ru152  1  0.88608403  0.83799653  0.00105197  1
  Ru4+  Ru153  1  0.89181501  0.83402531  0.25256568  1
  Ru4+  Ru154  1  0.88668125  0.83540316  0.49872855  1
  Ru4+  Ru155  1  0.88642349  0.83472405  0.74737300  1
  Ru4+  Ru156  1  0.74962454  0.75982766  -0.00813676  1
  Ru4+  Ru157  1  0.25001423  0.43007525  -0.01430884  1
  Ru4+  Ru158  1  0.25006318  0.05401223  0.50007969  1
  Ru4+  Ru159  1  0.75018365  0.57328562  -0.00104507  1
  Ru4+  Ru160  1  0.24999209  0.37238617  0.51639485  1
  Ru4+  Ru161  1  0.75000472  0.24216572  0.74562292  1
  Ru4+  Ru162  1  0.25006078  0.90998125  0.75138672  1
  Ru4+  Ru163  1  0.24962566  0.29011068  -0.00763608  1
  Ru4+  Ru164  1  0.74938197  0.75569524  0.75101183  1
  Ru4+  Ru165  1  0.74941108  0.42757705  0.74216838  1
  Ru4+  Ru166  1  0.75065020  0.04840060  0.02380619  1
  Ru4+  Ru167  1  0.75025189  0.28355988  0.02884721  1
  Ru4+  Ru168  1  0.24951329  0.06750561  0.27284411  1
  Ru4+  Ru169  1  0.24983268  0.90430715  0.26005208  1
  Ru4+  Ru170  1  0.74969537  0.58642995  0.50962572  1
  Ru4+  Ru171  1  0.24982757  0.02193054  -0.03337520  1
  Ru4+  Ru172  1  0.25043735  0.05744115  0.73792841  1
  Ru4+  Ru173  1  0.74967773  0.71602079  0.28438347  1
  Ru4+  Ru174  1  0.25097480  0.60443785  0.74142075  1
  Ru4+  Ru175  1  0.74932783  0.06206925  0.49411684  1
  Ru4+  Ru176  1  0.74915100  0.41178245  0.51666724  1
  Ru4+  Ru177  1  0.75035843  0.96940884  0.26247229  1
  Ru4+  Ru178  1  0.25012686  0.62974580  0.49841533  1
  Ru4+  Ru179  1  0.74943579  0.24617668  0.25524930  1
  O2-  O180  1  0.16681563  0.07796723  -0.00304594  1
  O2-  O181  1  0.16659951  0.08041135  0.25236400  1
  O2-  O182  1  0.17040551  0.07946131  0.49813789  1
  O2-  O183  1  0.16721227  0.07999828  0.75230622  1
  O2-  O184  1  0.16529803  0.41284474  -0.00196124  1
  O2-  O185  1  0.16734486  0.41409409  0.25428679  1
  O2-  O186  1  0.16775875  0.40946286  0.49955631  1
  O2-  O187  1  0.16378579  0.40776029  0.74997616  1
  O2-  O188  1  0.16636851  0.74977204  -0.00061005  1
  O2-  O189  1  0.16379293  0.74955174  0.25376792  1
  O2-  O190  1  0.16559314  0.74657990  0.49819934  1
  O2-  O191  1  0.16646387  0.74809130  0.74741971  1
  O2-  O192  1  0.66905447  0.08090581  0.00336973  1
  O2-  O193  1  0.66695300  0.08056670  0.24748777  1
  O2-  O194  1  0.66616536  0.08208009  0.49967004  1
  O2-  O195  1  0.66790314  0.08571947  0.75078656  1
  O2-  O196  1  0.66780923  0.41494407  0.00103299  1
  O2-  O197  1  0.66638244  0.41117810  0.25038686  1
  O2-  O198  1  0.66719985  0.41341065  0.50196412  1
  O2-  O199  1  0.66344847  0.41443450  0.74846657  1
  O2-  O200  1  0.66661198  0.74691427  0.00073864  1
  O2-  O201  1  0.66671201  0.74335457  0.25147385  1
  O2-  O202  1  0.66705341  0.74821866  0.49794513  1
  O2-  O203  1  0.66708862  0.74715325  0.75185107  1
  O2-  O204  1  0.33663110  0.25485214  -0.00090845  1
  O2-  O205  1  0.33814734  0.25610394  0.25587856  1
  O2-  O206  1  0.33362319  0.25519022  0.49717041  1
  O2-  O207  1  0.33319761  0.25586736  0.75435231  1
  O2-  O208  1  0.33804313  0.58408614  -0.00028388  1
  O2-  O209  1  0.33385261  0.58563139  0.25502121  1
  O2-  O210  1  0.33383810  0.58915097  0.49698502  1
  O2-  O211  1  0.33443218  0.58733789  0.74872181  1
  O2-  O212  1  0.33158946  0.91738022  -0.00464500  1
  O2-  O213  1  0.33253645  0.92100947  0.25108033  1
  O2-  O214  1  0.33300517  0.91876683  0.49715068  1
  O2-  O215  1  0.33331205  0.92150645  0.74985197  1
  O2-  O216  1  0.83192074  0.25570491  0.00061349  1
  O2-  O217  1  0.83316056  0.25365484  0.25043401  1
  O2-  O218  1  0.83370520  0.25533501  0.50015975  1
  O2-  O219  1  0.83409161  0.25106695  0.74963762  1
  O2-  O220  1  0.83371474  0.58718061  -0.00029529  1
  O2-  O221  1  0.83125246  0.58758459  0.25012275  1
  O2-  O222  1  0.83303701  0.58615589  0.49824026  1
  O2-  O223  1  0.83566062  0.58694756  0.75149237  1
  O2-  O224  1  0.83145595  0.91766839  0.00158245  1
  O2-  O225  1  0.83298631  0.92290335  0.24901157  1
  O2-  O226  1  0.83050031  0.91691402  0.49865898  1
  O2-  O227  1  0.83558462  0.91637023  0.75180858  1
  O2-  O228  1  0.16338651  0.25483220  -0.00106793  1
  O2-  O229  1  0.16105883  0.25360393  0.25151325  1
  O2-  O230  1  0.16334306  0.25410644  0.49787464  1
  O2-  O231  1  0.16746097  0.25365841  0.75423976  1
  O2-  O232  1  0.16645351  0.58376366  -0.00090210  1
  O2-  O233  1  0.16799190  0.58705812  0.25499510  1
  O2-  O234  1  0.16762653  0.58914324  0.49801356  1
  O2-  O235  1  0.16588768  0.58679923  0.74836552  1
  O2-  O236  1  0.16720389  0.91717417  -0.00334378  1
  O2-  O237  1  0.16722294  0.91834626  0.25253235  1
  O2-  O238  1  0.16682823  0.91901083  0.49811639  1
  O2-  O239  1  0.16646449  0.92090302  0.75066386  1
  O2-  O240  1  0.66725674  0.25370615  0.00192878  1
  O2-  O241  1  0.66603465  0.25410656  0.24920072  1
  O2-  O242  1  0.66568092  0.25751637  0.50020025  1
  O2-  O243  1  0.66525173  0.24924260  0.74902658  1
  O2-  O244  1  0.66463028  0.58503571  0.00035985  1
  O2-  O245  1  0.66431143  0.58490511  0.25116349  1
  O2-  O246  1  0.66494939  0.58495752  0.49974955  1
  O2-  O247  1  0.66840577  0.58600287  0.75271217  1
  O2-  O248  1  0.66521657  0.91988384  0.00433109  1
  O2-  O249  1  0.66750931  0.92287362  0.24713776  1
  O2-  O250  1  0.66403265  0.91807334  0.49929123  1
  O2-  O251  1  0.66399919  0.91595808  0.74914604  1
  O2-  O252  1  0.33204408  0.07884910  -0.00126780  1
  O2-  O253  1  0.33170836  0.08358435  0.25311437  1
  O2-  O254  1  0.33047215  0.08154010  0.50082620  1
  O2-  O255  1  0.33432259  0.08026857  0.75068303  1
  O2-  O256  1  0.33477644  0.41353564  -0.00231674  1
  O2-  O257  1  0.33124257  0.41550900  0.25622010  1
  O2-  O258  1  0.33345133  0.41143766  0.49801353  1
  O2-  O259  1  0.34109419  0.41060660  0.75009825  1
  O2-  O260  1  0.33246079  0.74644029  -0.00044315  1
  O2-  O261  1  0.33279417  0.74839244  0.25383881  1
  O2-  O262  1  0.33085260  0.74736692  0.49532985  1
  O2-  O263  1  0.33339569  0.74801714  0.74921483  1
  O2-  O264  1  0.83300083  0.08044485  0.00136038  1
  O2-  O265  1  0.83705617  0.08305329  0.24969774  1
  O2-  O266  1  0.83307813  0.07996352  0.49938881  1
  O2-  O267  1  0.83176725  0.08369957  0.74901459  1
  O2-  O268  1  0.83345760  0.41464447  0.00037977  1
  O2-  O269  1  0.83292168  0.41242577  0.24827475  1
  O2-  O270  1  0.83023258  0.40981854  0.49923564  1
  O2-  O271  1  0.83289377  0.41237968  0.75122617  1
  O2-  O272  1  0.83510226  0.74820393  0.00061047  1
  O2-  O273  1  0.83443212  0.74556639  0.25087570  1
  O2-  O274  1  0.83851966  0.74814341  0.49935695  1
  O2-  O275  1  0.83353709  0.74725283  0.75144074  1
  O2-  O276  1  0.05361465  0.57131475  0.95323109  1
  O2-  O277  1  0.54650977  0.23460490  0.48060187  1
  O2-  O278  1  0.46067462  0.24384775  0.28449440  1
  O2-  O279  1  0.45597596  0.11309808  0.28226994  1
  O2-  O280  1  0.95465077  0.43234805  0.26219076  1
  O2-  O281  1  0.04152641  0.56570311  0.24790079  1
  O2-  O282  1  0.95236330  0.10658980  0.45657508  1
  O2-  O283  1  0.03970450  0.11910553  0.45807790  1
  O2-  O284  1  0.05041027  0.90147404  0.97812826  1
  O2-  O285  1  0.55281368  0.23795042  0.76596115  1
  O2-  O286  1  0.53774672  0.10498663  0.78188253  1
  O2-  O287  1  0.45715403  0.76400113  0.74029748  1
  O2-  O288  1  0.04783967  0.76038673  0.48615580  1
  O2-  O289  1  0.95467262  0.90284879  0.24285674  1
  O2-  O290  1  0.94759940  0.90634855  0.51656049  1
  O2-  O291  1  0.04493777  0.76215393  0.23941501  1
  O2-  O292  1  0.46695168  0.11041070  0.24793355  1
  O2-  O293  1  0.45494900  0.76699464  0.24040369  1
  O2-  O294  1  0.04540364  0.56897570  0.25649427  1
  O2-  O295  1  0.05172222  0.23967189  0.76257831  1
  O2-  O296  1  0.54758659  0.76241285  0.26633506  1
  O2-  O297  1  0.95055146  0.22856233  0.24026578  1
  O2-  O298  1  0.04989550  0.57308189  0.72793842  1
  O2-  O299  1  0.54432232  0.43253219  0.26186829  1
  O2-  O300  1  0.95686896  0.24030631  0.01322633  1
  O2-  O301  1  0.45672525  0.56742836  0.26303471  1
  O2-  O302  1  0.52926671  0.12645002  1.00340224  1
  O2-  O303  1  0.54721974  0.43282477  0.01046847  1
  O2-  O304  1  0.95656959  0.89586972  0.74114801  1
  O2-  O305  1  0.95391418  0.56779922  0.50669299  1
  O2-  O306  1  0.04600142  0.76356043  0.75822826  1
  O2-  O307  1  0.54404679  0.89504409  0.50855735  1
  O2-  O308  1  0.04483361  0.76232035  0.01382282  1
  O2-  O309  1  0.95435756  0.89512840  0.49309312  1
  O2-  O310  1  0.95236997  0.56560407  0.99510814  1
  O2-  O311  1  0.94695949  0.23394428  0.76343981  1
  O2-  O312  1  0.04558408  0.56765962  0.76615763  1
  O2-  O313  1  0.04974546  0.90757287  0.48323815  1
  O2-  O314  1  0.54587769  0.23573638  0.52006231  1
  O2-  O315  1  0.45544018  0.90182095  0.01130811  1
  O2-  O316  1  0.54659626  0.57016485  0.48366425  1
  O2-  O317  1  0.95104907  0.23074384  0.97619650  1
  O2-  O318  1  0.55617472  0.10090259  0.26136378  1
  O2-  O319  1  0.45096091  0.76325399  0.48367612  1
  O2-  O320  1  0.03844006  0.10199769  0.27795832  1
  O2-  O321  1  0.04794416  0.42907833  0.50191532  1
  O2-  O322  1  0.04499505  0.22532741  0.74163657  1
  O2-  O323  1  0.04535359  0.90798892  0.01597597  1
  O2-  O324  1  0.56482656  0.26144053  0.96634105  1
  O2-  O325  1  0.56259862  0.40050066  0.46926910  1
  O2-  O326  1  0.43555751  0.41236763  0.22150203  1
  O2-  O327  1  0.43101997  0.26570744  0.21269067  1
  O2-  O328  1  0.43468727  0.92045355  0.52916271  1
  O2-  O329  1  0.56314525  0.26888337  0.77830529  1
  O2-  O330  1  0.06365047  0.07667391  0.72641093  1
  O2-  O331  1  0.05389119  0.56988530  0.95374117  1
  O2-  O332  1  0.06762365  0.06841450  0.20744129  1
  O2-  O333  1  0.55939432  0.41706947  0.02266989  1
  O2-  O334  1  0.43645415  0.74672765  0.22559110  1
  O2-  O335  1  0.93459978  0.40550212  0.53383879  1
  O2-  O336  1  0.43483220  0.25835240  0.72457999  1
  O2-  O337  1  0.93546011  0.59271732  0.27709417  1
  O2-  O338  1  0.93332593  0.92727468  0.02369754  1
  O2-  O339  1  0.06447679  0.60740466  0.09285672  1
  O2-  O340  1  0.57219208  0.06849539  0.71050298  1
  O2-  O341  1  0.92261031  0.08485616  0.58354132  1
  O2-  O342  1  0.93689898  0.07698787  0.77881184  1
  O2-  O343  1  0.43666562  0.74769402  0.72591089  1
  O2-  O344  1  0.06637535  0.92629450  0.22005313  1
  O2-  O345  1  0.07482571  0.06247175  0.55116911  1
  O2-  O346  1  0.43541126  0.07888446  0.47715781  1
  O2-  O347  1  0.43947515  0.74679826  0.47103443  1
  O2-  O348  1  0.57848033  0.04109486  0.95437320  1
  O2-  O349  1  0.93663955  0.26229604  0.46623627  1
  O2-  O350  1  0.43261996  0.73642813  0.53187894  1
  O2-  O351  1  0.94547922  0.07603512  0.43964563  1
  O2-  O352  1  0.06470559  0.26515622  0.28401459  1
  O2-  O353  1  0.44112593  0.92166893  0.03544176  1
  O2-  O354  1  0.06693096  0.41511714  0.68483761  1
  O2-  O355  1  0.94118923  0.41259249  0.28753782  1
  O2-  O356  1  0.43249026  0.07248934  0.97393925  1
  O2-  O357  1  0.06185485  0.40430916  0.82510337  1
  O2-  O358  1  0.56362102  0.73751890  0.46004069  1
  O2-  O359  1  0.56458504  0.40547172  0.96168143  1
  O2-  O360  1  0.06622406  0.74604070  0.77219283  1
  O2-  O361  1  0.93670077  0.40992443  0.02404099  1
  O2-  O362  1  0.56215747  0.59516405  0.82491036  1
  O2-  O363  1  0.56856178  0.58301175  0.68859221  1
  O2-  O364  1  0.06951440  0.26370897  0.71433326  1
  O2-  O365  1  0.06234238  0.07077745  0.02676741  1
  O2-  O366  1  0.42322549  0.02716025  0.18845681  1
  O2-  O367  1  0.93808677  0.26330738  0.78152450  1
  O2-  O368  1  0.93745084  0.58700203  0.52786759  1
  O2-  O369  1  0.93745554  0.40202471  0.72025632  1
  O2-  O370  1  0.43587492  0.25943232  0.52567701  1
  O2-  O371  1  0.93263300  0.93221063  0.46346324  1
  O2-  O372  1  0.24999860  0.32877776  0.64905987  1
  O2-  O373  1  0.75033888  0.66931393  0.05976442  1
  O2-  O374  1  0.74988801  0.34207041  0.93301516  1
  O2-  O375  1  0.25022307  0.35288894  0.09309646  1
  O2-  O376  1  0.75016841  0.66453707  0.67418318  1
  O2-  O377  1  0.25007325  0.66871645  0.92194055  1
  O2-  O378  1  0.25032355  0.34191653  0.87884841  1
  O2-  O379  1  0.75085973  -0.00503741  0.39511247  1
  O2-  O380  1  0.24996392  0.67696549  0.83222874  1
  O2-  O381  1  0.75010636  0.67599589  0.58368226  1
  O2-  O382  1  0.24997248  0.33503922  0.18349815  1
  O2-  O383  1  0.74994219  -0.01344054  0.58546693  1
  O2-  O384  1  0.74989272  -0.01239828  0.91823563  1
  O2-  O385  1  0.74967991  0.00425253  0.67118122  1
  O2-  O386  1  0.25003349  -0.00604104  0.18704314  1
  O2-  O387  1  0.75022701  0.00703596  0.82929319  1
  O2-  O388  1  0.25023865  0.67040495  0.08075330  1
  O2-  O389  1  0.74998345  0.33214757  0.81090791  1
  O2-  O390  1  0.24974781  0.67065627  0.60915611  1
  O2-  O391  1  0.25047759  0.66577976  0.17028581  1
  O2-  O392  1  0.24984855  -0.01765559  0.07153973  1
  O2-  O393  1  0.24946528  -0.00333749  0.84796767  1
  O2-  O394  1  0.74940974  0.33256495  0.65001811  1
  O2-  O395  1  0.74998446  0.65599323  0.18442108  1
  O2-  O396  1  0.75014178  0.16168007  0.18341578  1
  O2-  O397  1  0.74995729  0.49603907  0.65244920  1
  O2-  O398  1  0.74982274  0.50543860  0.83020247  1
  O2-  O399  1  0.75003425  0.49895768  0.35786082  1
  O2-  O400  1  0.74999059  0.16687449  0.09291497  1
  O2-  O401  1  0.75009563  0.83766579  0.66906046  1
  O2-  O402  1  0.74991508  0.17248281  0.34571764  1
  O2-  O403  1  0.24974231  0.51957609  0.65979193  1
  O2-  O404  1  0.74965042  0.82958751  0.58512441  1
  O2-  O405  1  0.24991475  0.14931837  0.37609532  1
  O2-  O406  1  0.25022276  0.49424530  0.57514696  1
  O2-  O407  1  0.25005547  0.83570545  0.34076693  1
  O2-  O408  1  0.25017840  0.50712696  0.89596663  1
  O2-  O409  1  0.24999706  0.83035962  0.66769751  1
  O2-  O410  1  0.75001596  0.49458477  0.91918008  1
  O2-  O411  1  0.75007752  0.50412811  0.09476459  1
  O2-  O412  1  0.75017023  0.82679795  0.90689522  1
  O2-  O413  1  0.24993961  0.83713590  0.58390730  1
  O2-  O414  1  0.74986548  0.49727443  0.44554724  1
  O2-  O415  1  0.25001228  0.49768311  0.14596285  1
  O2-  O416  1  0.25010476  0.15447065  0.12779061  1
  O2-  O417  1  0.25001580  0.51342208  0.06131796  1
  O2-  O418  1  0.24990304  0.83745178  0.84457317  1
  O2-  O419  1  0.74982827  0.82422528  0.35188939  1
  O2-  O420  1  0.47734998  0.34787765  0.62600136  1
  O2-  O421  1  0.47250651  0.66845229  0.87532544  1
  O2-  O422  1  0.97321224  0.01048436  0.12723247  1
  O2-  O423  1  0.96328972  -0.00648544  0.63830071  1
  O2-  O424  1  0.46284651  0.64895134  0.63240858  1
  O2-  O425  1  0.54571248  0.66553904  0.12406717  1
  O2-  O426  1  0.02121051  0.32510007  0.60993320  1
  O2-  O427  1  0.97782463  -0.00351913  0.88184129  1
  O2-  O428  1  0.97571043  0.67623522  0.62964888  1
  O2-  O429  1  0.53757442  0.68445000  0.61486683  1
  O2-  O430  1  0.54332962  0.32520793  0.13760154  1
  O2-  O431  1  0.45688516  0.65779576  0.11165961  1
  O2-  O432  1  0.45644595  0.33855645  0.09929337  1
  O2-  O433  1  0.03719186  -0.02208059  0.63330447  1
  O2-  O434  1  0.47408804  -0.01113389  0.86740381  1
  O2-  O435  1  0.95872964  0.33630974  0.13736981  1
  O2-  O436  1  0.03651197  0.67795610  0.87196282  1
  O2-  O437  1  0.04681870  0.33706813  0.11997785  1
  O2-  O438  1  0.95324435  0.67058031  0.87247718  1
  O2-  O439  1  0.54552599  -0.00462906  0.38019172  1
  O2-  O440  1  0.45738912  -0.01935395  0.37289250  1
  O2-  O441  1  0.53968582  -0.00711717  0.61314109  1
  O2-  O442  1  0.97602349  0.67242570  0.38094479  1
  O2-  O443  1  0.45765619  0.00985209  0.63552038  1
