# generated using pymatgen
data_La7(Ru4O11)2
_symmetry_space_group_name_H-M   'P 1'
_cell_length_a   23.98981262
_cell_length_b   16.82939981
_cell_length_c   15.42586587
_cell_angle_alpha   90.00097771
_cell_angle_beta   90.00078655
_cell_angle_gamma   90.00030770
_symmetry_Int_Tables_number   1
_chemical_formula_structural   La7(Ru4O11)2
_chemical_formula_sum   'La84 Ru96 O264'
_cell_volume   6227.94881437
_cell_formula_units_Z   12
loop_
 _symmetry_equiv_pos_site_id
 _symmetry_equiv_pos_as_xyz
  1  'x, y, z'
loop_
 _atom_type_symbol
 _atom_type_oxidation_number
  La3+  3.0
  Ru4+  4.0
  O2-  -2.0
loop_
 _atom_site_type_symbol
 _atom_site_label
 _atom_site_symmetry_multiplicity
 _atom_site_fract_x
 _atom_site_fract_y
 _atom_site_fract_z
 _atom_site_occupancy
  La3+  La0  1  0.13912374  0.00000391  0.12674781  1
  La3+  La1  1  0.13835231  -0.00033453  0.37390554  1
  La3+  La2  1  0.13658550  -0.00167041  0.62299711  1
  La3+  La3  1  0.13820455  -0.00000733  0.87619845  1
  La3+  La4  1  0.13470136  0.33747637  0.11976705  1
  La3+  La5  1  0.13948621  0.33420281  0.37453053  1
  La3+  La6  1  0.13732438  0.33481160  0.62413519  1
  La3+  La7  1  0.13590772  0.33654820  0.88115225  1
  La3+  La8  1  0.14065147  0.66569423  0.12376775  1
  La3+  La9  1  0.14019045  0.66438146  0.37519170  1
  La3+  La10  1  0.13989494  0.66574477  0.62413779  1
  La3+  La11  1  0.13934273  0.66483473  0.87666356  1
  La3+  La12  1  0.63938457  -0.00038598  0.12508602  1
  La3+  La13  1  0.63901380  -0.00041225  0.37478940  1
  La3+  La14  1  0.63833822  0.00150238  0.62635323  1
  La3+  La15  1  0.63897228  0.00021590  0.87523123  1
  La3+  La16  1  0.64043035  0.33380618  0.12533255  1
  La3+  La17  1  0.64022328  0.33229164  0.37360551  1
  La3+  La18  1  0.63857113  0.33181081  0.62492976  1
  La3+  La19  1  0.63898322  0.33300533  0.87581096  1
  La3+  La20  1  0.63997662  0.66606320  0.12358450  1
  La3+  La21  1  0.63808241  0.66752384  0.37414450  1
  La3+  La22  1  0.63756604  0.66721854  0.62526944  1
  La3+  La23  1  0.63968199  0.66635292  0.87912576  1
  La3+  La24  1  0.36038867  -0.00014929  0.12780573  1
  La3+  La25  1  0.36077848  -0.00014009  0.37244346  1
  La3+  La26  1  0.36285551  -0.00142383  0.62445800  1
  La3+  La27  1  0.36225862  -0.00022861  0.87638290  1
  La3+  La28  1  0.36116605  0.33380530  0.12269294  1
  La3+  La29  1  0.36101668  0.33341560  0.37632347  1
  La3+  La30  1  0.36181578  0.33477610  0.62437002  1
  La3+  La31  1  0.36064770  0.33343583  0.87712019  1
  La3+  La32  1  0.35911210  0.66629319  0.12442252  1
  La3+  La33  1  0.36089023  0.66601557  0.37519129  1
  La3+  La34  1  0.36013335  0.66554236  0.62476942  1
  La3+  La35  1  0.36158292  0.66560286  0.87594306  1
  La3+  La36  1  0.86030170  0.00050648  0.12519245  1
  La3+  La37  1  0.86124840  0.00199671  0.37327189  1
  La3+  La38  1  0.86201743  0.00176998  0.62633439  1
  La3+  La39  1  0.86122448  -0.00014714  0.87661896  1
  La3+  La40  1  0.86086497  0.33168066  0.12389973  1
  La3+  La41  1  0.86023190  0.33269122  0.37355998  1
  La3+  La42  1  0.86153841  0.33127379  0.62444155  1
  La3+  La43  1  0.86015204  0.33193624  0.87770813  1
  La3+  La44  1  0.86026707  0.66641916  0.12203395  1
  La3+  La45  1  0.86121719  0.66665706  0.37410239  1
  La3+  La46  1  0.86230147  0.66699547  0.62634778  1
  La3+  La47  1  0.85937001  0.66849302  0.87883415  1
  La3+  La48  1  -0.00144235  0.16712859  0.86706991  1
  La3+  La49  1  0.50066758  0.83106661  0.11239222  1
  La3+  La50  1  0.00009578  0.83368050  0.62605314  1
  La3+  La51  1  0.00080226  0.50100645  0.88722910  1
  La3+  La52  1  -0.00025860  0.16656589  0.63351250  1
  La3+  La53  1  0.00126322  0.50023497  0.60989873  1
  La3+  La54  1  0.49907902  0.16670508  0.13338074  1
  La3+  La55  1  0.49986389  0.49963887  0.38551119  1
  La3+  La56  1  0.00133782  0.49766764  0.13196551  1
  La3+  La57  1  0.00184268  0.49749741  0.87084935  1
  La3+  La58  1  -0.00007604  0.83269555  0.88373842  1
  La3+  La59  1  0.50101724  0.50136668  0.11195529  1
  La3+  La60  1  0.50162549  0.50065227  0.86531343  1
  La3+  La61  1  0.00076595  0.16609904  0.38410280  1
  La3+  La62  1  -0.00058854  0.83497554  0.36831271  1
  La3+  La63  1  0.00103824  0.83431453  0.38601552  1
  La3+  La64  1  0.50329122  0.17164176  0.63178617  1
  La3+  La65  1  0.50098902  0.16926701  0.87917211  1
  La3+  La66  1  0.50739693  0.83194621  0.13238821  1
  La3+  La67  1  0.00039088  0.83245764  0.12385420  1
  La3+  La68  1  -0.00122125  0.17031204  0.13144177  1
  La3+  La69  1  0.49839194  0.83604229  0.86265501  1
  La3+  La70  1  0.00161473  0.50326857  0.62644614  1
  La3+  La71  1  -0.00009546  0.16716640  0.88850042  1
  La3+  La72  1  0.74955159  0.49629374  0.78496957  1
  La3+  La73  1  0.25026265  0.13187099  0.24412595  1
  La3+  La74  1  0.74992334  0.20179335  0.47763120  1
  La3+  La75  1  0.74984058  0.79905823  0.51352577  1
  La3+  La76  1  0.25003040  0.20622920  0.73765296  1
  La3+  La77  1  0.24993084  0.79764227  0.74661140  1
  La3+  La78  1  0.24989399  0.53365195  0.22411123  1
  La3+  La79  1  0.75001245  0.46880467  0.49810105  1
  La3+  La80  1  0.24989143  0.79810783  0.02033949  1
  La3+  La81  1  0.24941282  0.17132286  0.49355337  1
  La3+  La82  1  0.24992318  0.83447973  0.26995831  1
  La3+  La83  1  0.74996955  0.79947066  0.75638318  1
  Ru4+  Ru84  1  0.00139706  0.00114517  -0.00033527  1
  Ru4+  Ru85  1  0.00424401  -0.00272394  0.24499649  1
  Ru4+  Ru86  1  0.00130533  0.00307642  0.50078855  1
  Ru4+  Ru87  1  -0.00122872  0.00045395  0.75002467  1
  Ru4+  Ru88  1  0.00311616  0.33779194  0.00295425  1
  Ru4+  Ru89  1  0.00041800  0.33585047  0.24497638  1
  Ru4+  Ru90  1  -0.00009964  0.33206087  0.50157113  1
  Ru4+  Ru91  1  -0.00016130  0.33087028  0.75186815  1
  Ru4+  Ru92  1  -0.00048258  0.66680699  0.00026884  1
  Ru4+  Ru93  1  -0.00121645  0.66454801  0.25033073  1
  Ru4+  Ru94  1  -0.00303764  0.66159825  0.50171626  1
  Ru4+  Ru95  1  0.00013227  0.66895294  0.74954604  1
  Ru4+  Ru96  1  0.50117864  -0.00125940  -0.00357086  1
  Ru4+  Ru97  1  0.50179129  0.00447575  0.25491512  1
  Ru4+  Ru98  1  0.50032734  -0.00046319  0.49852657  1
  Ru4+  Ru99  1  0.50104681  -0.00126641  0.74864677  1
  Ru4+  Ru100  1  0.49938766  0.33313463  -0.00077443  1
  Ru4+  Ru101  1  0.50043400  0.33319687  0.24921136  1
  Ru4+  Ru102  1  0.49963055  0.32918594  0.49821854  1
  Ru4+  Ru103  1  0.50145284  0.33245625  0.75207245  1
  Ru4+  Ru104  1  0.49897107  0.66308944  -0.00160088  1
  Ru4+  Ru105  1  0.50236226  0.66239785  0.25061224  1
  Ru4+  Ru106  1  0.49948649  0.66868795  0.49788835  1
  Ru4+  Ru107  1  0.50028992  0.66672547  0.75026426  1
  Ru4+  Ru108  1  0.11188826  0.16839674  -0.00059278  1
  Ru4+  Ru109  1  0.11192933  0.16569212  0.25012403  1
  Ru4+  Ru110  1  0.11051106  0.16668650  0.49944698  1
  Ru4+  Ru111  1  0.11228699  0.16760373  0.75067309  1
  Ru4+  Ru112  1  0.11262771  0.49830615  -0.00081399  1
  Ru4+  Ru113  1  0.11079228  0.50075303  0.24871133  1
  Ru4+  Ru114  1  0.11464794  0.49916333  0.49863145  1
  Ru4+  Ru115  1  0.11338919  0.50231246  0.75143521  1
  Ru4+  Ru116  1  0.11095208  0.83247803  -0.00012141  1
  Ru4+  Ru117  1  0.11282645  0.83474945  0.25007796  1
  Ru4+  Ru118  1  0.11450289  0.83676372  0.49913324  1
  Ru4+  Ru119  1  0.11093762  0.83197190  0.75026732  1
  Ru4+  Ru120  1  0.61301729  0.16703993  0.00003186  1
  Ru4+  Ru121  1  0.61324919  0.16676810  0.25075195  1
  Ru4+  Ru122  1  0.61202212  0.16796215  0.50028033  1
  Ru4+  Ru123  1  0.61408276  0.16652092  0.74985336  1
  Ru4+  Ru124  1  0.61558003  0.49981366  0.00011899  1
  Ru4+  Ru125  1  0.61274465  0.49972263  0.24947771  1
  Ru4+  Ru126  1  0.61195181  0.50053411  0.49964387  1
  Ru4+  Ru127  1  0.61036959  0.50079545  0.74940109  1
  Ru4+  Ru128  1  0.61663106  0.83406976  -0.00060016  1
  Ru4+  Ru129  1  0.61330723  0.83319601  0.25032507  1
  Ru4+  Ru130  1  0.61252032  0.83112578  0.50017465  1
  Ru4+  Ru131  1  0.61121576  0.83256107  0.75042609  1
  Ru4+  Ru132  1  0.38542593  0.16951051  0.00083970  1
  Ru4+  Ru133  1  0.38904557  0.16472761  0.25010771  1
  Ru4+  Ru134  1  0.38889704  0.16854362  0.49895303  1
  Ru4+  Ru135  1  0.38759939  0.16863536  0.75058152  1
  Ru4+  Ru136  1  0.38499025  0.49935568  0.00051769  1
  Ru4+  Ru137  1  0.38800573  0.50142607  0.25058201  1
  Ru4+  Ru138  1  0.38528311  0.50157627  0.49961772  1
  Ru4+  Ru139  1  0.38611877  0.50265339  0.74975859  1
  Ru4+  Ru140  1  0.38733911  0.83155666  -0.00150120  1
  Ru4+  Ru141  1  0.38466819  0.83374148  0.25296565  1
  Ru4+  Ru142  1  0.39085920  0.83290828  0.50090211  1
  Ru4+  Ru143  1  0.38931940  0.83285231  0.75010591  1
  Ru4+  Ru144  1  0.88484860  0.16343357  -0.00158681  1
  Ru4+  Ru145  1  0.88370158  0.17206931  0.24986762  1
  Ru4+  Ru146  1  0.88907950  0.16755960  0.50028607  1
  Ru4+  Ru147  1  0.88731867  0.16681260  0.75014959  1
  Ru4+  Ru148  1  0.88486542  0.50184628  0.00068882  1
  Ru4+  Ru149  1  0.88765699  0.49979005  0.25030036  1
  Ru4+  Ru150  1  0.88929218  0.49972563  0.49933818  1
  Ru4+  Ru151  1  0.88582034  0.50040455  0.75048166  1
  Ru4+  Ru152  1  0.88451438  0.83178791  -0.00013229  1
  Ru4+  Ru153  1  0.88655696  0.83120159  0.25019087  1
  Ru4+  Ru154  1  0.88664928  0.83222210  0.49949579  1
  Ru4+  Ru155  1  0.88856166  0.83176167  0.75101742  1
  Ru4+  Ru156  1  0.24979476  0.92908369  0.75128977  1
  Ru4+  Ru157  1  0.74996878  0.57948375  0.24793034  1
  Ru4+  Ru158  1  0.25005388  0.74837872  0.50323971  1
  Ru4+  Ru159  1  0.25007743  0.40400782  0.25786929  1
  Ru4+  Ru160  1  0.74996835  0.93215930  0.49276832  1
  Ru4+  Ru161  1  0.74988193  0.75429938  0.25129847  1
  Ru4+  Ru162  1  0.25009536  0.26675786  0.25425273  1
  Ru4+  Ru163  1  0.25006351  0.04643240  0.51635507  1
  Ru4+  Ru164  1  0.74999747  0.37709227  0.73019177  1
  Ru4+  Ru165  1  0.75015116  0.06928970  0.50050535  1
  Ru4+  Ru166  1  0.25016079  0.91039258  0.50216238  1
  Ru4+  Ru167  1  0.24995049  0.41947907  0.74989542  1
  Ru4+  Ru168  1  0.24998259  0.08840757  -0.00356232  1
  Ru4+  Ru169  1  0.74987034  0.09003427  0.00014395  1
  Ru4+  Ru170  1  0.75009664  0.93860029  0.75135872  1
  Ru4+  Ru171  1  0.25001426  0.29609913  0.50894307  1
  Ru4+  Ru172  1  0.75008461  0.24200968  0.00158871  1
  Ru4+  Ru173  1  0.74991749  0.41762248  0.25154678  1
  Ru4+  Ru174  1  0.74966795  0.08911570  0.25149256  1
  Ru4+  Ru175  1  0.24991938  0.93595853  -0.01182802  1
  Ru4+  Ru176  1  0.75003032  0.62464898  0.77033146  1
  Ru4+  Ru177  1  0.74993054  0.60271499  0.48696120  1
  Ru4+  Ru178  1  0.24987005  0.07242048  0.75357376  1
  Ru4+  Ru179  1  0.75017800  0.91200426  0.25242448  1
  O2-  O180  1  0.16814475  0.08034301  -0.00012637  1
  O2-  O181  1  0.16520363  0.08051229  0.24999802  1
  O2-  O182  1  0.16703109  0.07836161  0.50063192  1
  O2-  O183  1  0.16650414  0.07961456  0.74932185  1
  O2-  O184  1  0.16773465  0.41430169  -0.00029850  1
  O2-  O185  1  0.16733351  0.41256221  0.25004325  1
  O2-  O186  1  0.16837706  0.41566955  0.50205956  1
  O2-  O187  1  0.16757108  0.41259078  0.74999711  1
  O2-  O188  1  0.16506275  0.74578855  -0.00143278  1
  O2-  O189  1  0.16830862  0.74702725  0.25023362  1
  O2-  O190  1  0.16790373  0.74747249  0.49955485  1
  O2-  O191  1  0.16608503  0.74616007  0.75048054  1
  O2-  O192  1  0.66866754  0.08100214  -0.00037300  1
  O2-  O193  1  0.66925027  0.08165312  0.24867830  1
  O2-  O194  1  0.66642709  0.07954819  0.49988617  1
  O2-  O195  1  0.66688679  0.08092648  0.75086695  1
  O2-  O196  1  0.66527937  0.41492540  0.00044183  1
  O2-  O197  1  0.66766350  0.41424697  0.25008119  1
  O2-  O198  1  0.66744693  0.41179845  0.50027178  1
  O2-  O199  1  0.66642580  0.41259312  0.74957184  1
  O2-  O200  1  0.66737593  0.74860248  -0.00024026  1
  O2-  O201  1  0.66838337  0.74749467  0.25058272  1
  O2-  O202  1  0.66446255  0.74601407  0.49970250  1
  O2-  O203  1  0.66503032  0.74516057  0.74940078  1
  O2-  O204  1  0.33292641  0.25155885  -0.00016793  1
  O2-  O205  1  0.33293900  0.25297844  0.25013464  1
  O2-  O206  1  0.33376394  0.25296229  0.50126418  1
  O2-  O207  1  0.33448572  0.25489075  0.75009140  1
  O2-  O208  1  0.33397168  0.58590187  -0.00076023  1
  O2-  O209  1  0.33507921  0.58685959  0.25091494  1
  O2-  O210  1  0.33447036  0.58453513  0.49938459  1
  O2-  O211  1  0.33352867  0.58567478  0.74992098  1
  O2-  O212  1  0.33332043  0.92068381  -0.00007909  1
  O2-  O213  1  0.33270559  0.91826712  0.24970373  1
  O2-  O214  1  0.33317053  0.91914927  0.50110256  1
  O2-  O215  1  0.33375760  0.92021361  0.74947691  1
  O2-  O216  1  0.83259789  0.25131264  0.00063423  1
  O2-  O217  1  0.83318074  0.25071559  0.25018182  1
  O2-  O218  1  0.83450176  0.25550768  0.50108253  1
  O2-  O219  1  0.83306250  0.25308931  0.74904268  1
  O2-  O220  1  0.83308204  0.58414983  0.00103720  1
  O2-  O221  1  0.83284618  0.58620899  0.25043847  1
  O2-  O222  1  0.83312715  0.58708919  0.49993264  1
  O2-  O223  1  0.83299199  0.58701776  0.74894195  1
  O2-  O224  1  0.83229797  0.91848002  -0.00108344  1
  O2-  O225  1  0.83151207  0.91911092  0.24965224  1
  O2-  O226  1  0.83240732  0.91987579  0.50036190  1
  O2-  O227  1  0.83307504  0.92041656  0.74947530  1
  O2-  O228  1  0.16722634  0.25309823  -0.00036535  1
  O2-  O229  1  0.16672695  0.25291998  0.25002432  1
  O2-  O230  1  0.16573520  0.25429330  0.50133672  1
  O2-  O231  1  0.16570123  0.25519593  0.75006143  1
  O2-  O232  1  0.16600331  0.58551648  -0.00073779  1
  O2-  O233  1  0.16507631  0.58688024  0.25096009  1
  O2-  O234  1  0.16585684  0.58458585  0.49986703  1
  O2-  O235  1  0.16693917  0.58606045  0.75036858  1
  O2-  O236  1  0.16664442  0.92103587  -0.00006157  1
  O2-  O237  1  0.16577609  0.91877758  0.24961131  1
  O2-  O238  1  0.16800876  0.91984380  0.49977314  1
  O2-  O239  1  0.16646354  0.92044109  0.75000328  1
  O2-  O240  1  0.66725661  0.25140921  0.00002273  1
  O2-  O241  1  0.66521515  0.25049233  0.24922060  1
  O2-  O242  1  0.66541383  0.25469031  0.50064185  1
  O2-  O243  1  0.66705188  0.25231109  0.74981815  1
  O2-  O244  1  0.66773854  0.58496928  0.00090496  1
  O2-  O245  1  0.66670267  0.58581531  0.25091136  1
  O2-  O246  1  0.66622798  0.58691199  0.49978283  1
  O2-  O247  1  0.66659092  0.58768986  0.74993638  1
  O2-  O248  1  0.66659182  0.91918527  -0.00080191  1
  O2-  O249  1  0.66708139  0.91877512  0.24989973  1
  O2-  O250  1  0.66750668  0.91991783  0.50063948  1
  O2-  O251  1  0.66737651  0.92041474  0.75013583  1
  O2-  O252  1  0.33122170  0.08142692  -0.00082200  1
  O2-  O253  1  0.33382946  0.08106147  0.24986744  1
  O2-  O254  1  0.33343544  0.07864338  0.50183418  1
  O2-  O255  1  0.33298674  0.07956564  0.74873452  1
  O2-  O256  1  0.33287744  0.41437675  -0.00097736  1
  O2-  O257  1  0.33257046  0.41307948  0.24950916  1
  O2-  O258  1  0.33224953  0.41402995  0.50132286  1
  O2-  O259  1  0.33195603  0.41300112  0.74993185  1
  O2-  O260  1  0.33358405  0.74598936  -0.00088114  1
  O2-  O261  1  0.33193797  0.74724717  0.25036129  1
  O2-  O262  1  0.33326246  0.74786246  0.49942187  1
  O2-  O263  1  0.33338662  0.74524049  0.75022211  1
  O2-  O264  1  0.83112196  0.08136452  -0.00055497  1
  O2-  O265  1  0.83269321  0.08129556  0.25000418  1
  O2-  O266  1  0.83346630  0.07926544  0.50004452  1
  O2-  O267  1  0.83305011  0.07986164  0.75021588  1
  O2-  O268  1  0.83407342  0.41476642  0.00002967  1
  O2-  O269  1  0.83341325  0.41480511  0.24994935  1
  O2-  O270  1  0.83329840  0.41143993  0.50084203  1
  O2-  O271  1  0.83296653  0.41245361  0.74896928  1
  O2-  O272  1  0.83312701  0.74947888  0.00111901  1
  O2-  O273  1  0.83300604  0.74821232  0.25056452  1
  O2-  O274  1  0.83489135  0.74546034  0.49971845  1
  O2-  O275  1  0.83420977  0.74575123  0.74854096  1
  O2-  O276  1  0.54788619  0.23753306  0.98755110  1
  O2-  O277  1  0.54727894  0.23500086  0.76319249  1
  O2-  O278  1  0.45361785  0.90242482  0.51527435  1
  O2-  O279  1  0.54846564  0.76634750  0.76266906  1
  O2-  O280  1  0.52983277  0.12348497  0.25248617  1
  O2-  O281  1  0.45265153  0.56617127  0.98667387  1
  O2-  O282  1  0.46004408  0.10647196  0.52736322  1
  O2-  O283  1  0.55941676  0.58761343  0.97418674  1
  O2-  O284  1  0.95215718  0.76216741  0.51179030  1
  O2-  O285  1  0.54698084  0.90486609  0.98466564  1
  O2-  O286  1  0.95368413  0.23606375  0.01487632  1
  O2-  O287  1  0.05529563  0.75240976  0.53125656  1
  O2-  O288  1  0.04511709  0.57326668  0.48419488  1
  O2-  O289  1  0.45196175  0.23616706  0.76500270  1
  O2-  O290  1  0.45892223  0.44229533  0.52536463  1
  O2-  O291  1  0.45162304  0.90303703  0.01183856  1
  O2-  O292  1  0.46150757  0.44388619  0.21788867  1
  O2-  O293  1  0.04830009  0.43231832  0.73898256  1
  O2-  O294  1  0.45234655  0.56706764  0.76384328  1
  O2-  O295  1  0.95105922  0.57656811  0.70998119  1
  O2-  O296  1  0.05006112  0.42742100  0.98436992  1
  O2-  O297  1  0.45405040  0.76422867  0.51277618  1
  O2-  O298  1  0.45896064  0.89537864  0.22715911  1
  O2-  O299  1  0.46034117  0.10416178  0.72225229  1
  O2-  O300  1  0.04570844  0.90149902  0.73735854  1
  O2-  O301  1  0.96833722  0.87947619  0.00069810  1
  O2-  O302  1  0.95172055  0.09688695  0.23151394  1
  O2-  O303  1  0.54830270  0.09533247  0.98625715  1
  O2-  O304  1  0.54747451  0.56610439  0.73570658  1
  O2-  O305  1  0.95237281  0.10074739  0.27065153  1
  O2-  O306  1  0.45685571  0.10403013  0.97634590  1
  O2-  O307  1  0.04204416  0.44034312  0.00560145  1
  O2-  O308  1  0.04622038  0.23461129  0.23820279  1
  O2-  O309  1  0.96112431  0.89305297  0.22182688  1
  O2-  O310  1  0.03928641  0.77529195  0.22255531  1
  O2-  O311  1  0.53998622  0.77266721  0.97146187  1
  O2-  O312  1  0.95128667  0.43301261  0.98446595  1
  O2-  O313  1  0.05410496  0.91306184  0.52057133  1
  O2-  O314  1  0.45253389  0.23653277  0.01593296  1
  O2-  O315  1  0.05444355  0.41852437  0.22878773  1
  O2-  O316  1  0.45143137  0.76560890  0.76283497  1
  O2-  O317  1  0.94993648  0.43245643  0.48640103  1
  O2-  O318  1  0.44627812  0.75047252  0.21695994  1
  O2-  O319  1  0.95550105  0.56890594  0.26500265  1
  O2-  O320  1  0.04831611  0.09394018  0.23553371  1
  O2-  O321  1  0.95865802  0.43959106  0.71918579  1
  O2-  O322  1  0.03496491  0.45043749  0.49626454  1
  O2-  O323  1  0.95874063  0.89455040  0.52648452  1
  O2-  O324  1  0.05552003  0.75257495  0.53254960  1
  O2-  O325  1  0.06326322  0.26410210  0.78251902  1
  O2-  O326  1  0.92440449  0.95238125  0.04598303  1
  O2-  O327  1  0.93708395  0.73938920  0.78157851  1
  O2-  O328  1  0.92654878  0.93713727  0.29570301  1
  O2-  O329  1  0.43513488  0.40237028  0.80009688  1
  O2-  O330  1  0.43165005  0.73060504  0.30506133  1
  O2-  O331  1  0.43664262  0.26373136  0.21673781  1
  O2-  O332  1  0.57130497  0.73116743  0.04327907  1
  O2-  O333  1  0.43001566  0.39237329  0.30141145  1
  O2-  O334  1  0.43408653  0.40660198  0.70567349  1
  O2-  O335  1  0.06982367  0.72315167  0.30154626  1
  O2-  O336  1  0.43666862  0.26309743  0.46807236  1
  O2-  O337  1  0.56575343  0.92623746  0.45604756  1
  O2-  O338  1  0.06453759  0.07450318  0.47189482  1
  O2-  O339  1  0.92628915  0.93623367  0.45569692  1
  O2-  O340  1  0.43742401  0.40172491  0.03309710  1
  O2-  O341  1  0.06388545  0.06970191  0.68955584  1
  O2-  O342  1  0.43409657  0.07275522  0.28204352  1
  O2-  O343  1  0.06836654  0.40019289  0.02889458  1
  O2-  O344  1  0.56636301  0.73848213  0.22170052  1
  O2-  O345  1  0.92910243  0.38905992  0.80426448  1
  O2-  O346  1  0.06880413  0.73199805  0.44248019  1
  O2-  O347  1  0.55327459  0.57216259  0.98206475  1
  O2-  O348  1  0.93554618  0.59265977  0.02916371  1
  O2-  O349  1  0.56419747  0.40281168  0.44616981  1
  O2-  O350  1  0.94487465  0.58356490  0.70298110  1
  O2-  O351  1  0.43130398  0.06082887  0.45560680  1
  O2-  O352  1  0.06340689  0.59751673  0.96607290  1
  O2-  O353  1  0.05729335  0.91903110  0.52623343  1
  O2-  O354  1  0.56386567  0.40128978  0.21775159  1
  O2-  O355  1  0.93595693  0.07107980  0.96563894  1
  O2-  O356  1  0.58117626  0.04784813  0.28757174  1
  O2-  O357  1  0.07993133  0.38281245  0.46248776  1
  O2-  O358  1  0.43217771  0.39858172  0.45605481  1
  O2-  O359  1  0.93702583  0.73693100  0.96690395  1
  O2-  O360  1  0.42763825  0.06473032  0.04095999  1
  O2-  O361  1  0.93872017  0.26230187  0.02797024  1
  O2-  O362  1  0.05803398  0.41979018  0.22926571  1
  O2-  O363  1  0.43072349  0.93849122  0.29718557  1
  O2-  O364  1  0.93548025  0.26391906  0.21825821  1
  O2-  O365  1  0.44581062  0.75076522  0.21615756  1
  O2-  O366  1  0.93054537  0.60372113  0.82714832  1
  O2-  O367  1  0.56569382  0.92743923  0.54493069  1
  O2-  O368  1  0.06373386  0.06882624  0.81127781  1
  O2-  O369  1  0.42737094  0.06277973  0.79331544  1
  O2-  O370  1  0.56598263  0.40637139  0.54729496  1
  O2-  O371  1  0.43441464  0.73872564  0.97188026  1
  O2-  O372  1  0.24997521  0.00017893  0.32222880  1
  O2-  O373  1  0.25002026  0.33308447  0.14885453  1
  O2-  O374  1  0.74985674  0.67835546  0.66731709  1
  O2-  O375  1  0.74996550  0.33506350  0.08037470  1
  O2-  O376  1  0.75018428  -0.00049370  0.34211760  1
  O2-  O377  1  0.74956751  0.66478773  0.89903681  1
  O2-  O378  1  0.75006193  -0.00134647  0.60239998  1
  O2-  O379  1  0.74995979  0.67316949  0.57692378  1
  O2-  O380  1  0.75004597  0.33114369  0.16928008  1
  O2-  O381  1  0.24999400  0.00608332  0.08327401  1
  O2-  O382  1  0.25013913  0.00112472  0.17598282  1
  O2-  O383  1  0.74999252  0.33572894  0.34380099  1
  O2-  O384  1  0.24992992  0.66752228  0.17045007  1
  O2-  O385  1  0.25003455  -0.00031752  0.85287970  1
  O2-  O386  1  0.24999197  0.66624677  0.07987563  1
  O2-  O387  1  0.75003133  0.33534693  0.92375292  1
  O2-  O388  1  0.75008215  0.32325550  0.83537264  1
  O2-  O389  1  0.24995824  0.33542329  0.40107012  1
  O2-  O390  1  0.25014472  0.66947915  0.59222885  1
  O2-  O391  1  0.75002150  -0.00015025  0.15786457  1
  O2-  O392  1  0.25008567  -0.00760716  0.41326272  1
  O2-  O393  1  0.25021334  0.00066077  0.64795417  1
  O2-  O394  1  0.75015732  0.66702407  0.34350851  1
  O2-  O395  1  0.75004206  0.66734349  0.15857105  1
  O2-  O396  1  0.24998476  0.50183068  0.66719748  1
  O2-  O397  1  0.74998077  0.84288572  0.63545783  1
  O2-  O398  1  0.75008419  0.50061610  0.34255227  1
  O2-  O399  1  0.75004812  0.83841088  0.38235038  1
  O2-  O400  1  0.24980412  0.50210517  0.83262062  1
  O2-  O401  1  0.25001397  0.83256624  0.41119730  1
  O2-  O402  1  0.74992155  0.83338614  0.08222406  1
  O2-  O403  1  0.74999898  0.16327517  0.33656647  1
  O2-  O404  1  0.75009141  0.49792678  0.64013340  1
  O2-  O405  1  0.25007263  0.83374608  0.59259729  1
  O2-  O406  1  0.25010770  0.49753859  0.58398960  1
  O2-  O407  1  0.75007882  0.50043539  0.90876618  1
  O2-  O408  1  0.24999970  0.83900267  0.88667595  1
  O2-  O409  1  0.25015120  0.16217417  0.61933990  1
  O2-  O410  1  0.25005564  0.49486633  0.35672356  1
  O2-  O411  1  0.25000306  0.83632907  0.14373226  1
  O2-  O412  1  0.25004343  0.49839501  0.91594645  1
  O2-  O413  1  0.25018932  0.16754676  0.37118293  1
  O2-  O414  1  0.25002180  0.15947431  0.86456484  1
  O2-  O415  1  0.74995751  0.84149323  0.87133781  1
  O2-  O416  1  0.75004186  0.83337967  0.16772721  1
  O2-  O417  1  0.74999557  0.16287624  0.60795841  1
  O2-  O418  1  0.75001376  0.50016487  0.15989010  1
  O2-  O419  1  0.25013199  0.49856600  0.09371393  1
  O2-  O420  1  0.96842592  0.33181793  0.37473935  1
  O2-  O421  1  0.97121060  0.00158319  0.62535637  1
  O2-  O422  1  0.03452262  -0.00434473  0.37191295  1
  O2-  O423  1  0.03716441  0.66453586  0.12285490  1
  O2-  O424  1  0.52731009  0.66558870  0.37770217  1
  O2-  O425  1  0.97018568  0.00975087  0.37702587  1
  O2-  O426  1  0.52968630  0.66711880  0.62361139  1
  O2-  O427  1  0.52323753  0.65905157  0.12611787  1
  O2-  O428  1  0.47023904  0.32622664  0.62113289  1
  O2-  O429  1  0.96490205  0.67079723  0.13030439  1
  O2-  O430  1  0.53011638  0.32769476  0.63100006  1
  O2-  O431  1  0.46563161  -0.00184273  0.13196416  1
  O2-  O432  1  0.02822037  0.33148694  0.62293338  1
  O2-  O433  1  0.02723618  0.66179292  0.63087005  1
  O2-  O434  1  0.52781533  0.33503021  0.87432922  1
  O2-  O435  1  0.02457697  0.32687155  0.12666168  1
  O2-  O436  1  0.53003463  0.66870870  0.86995964  1
  O2-  O437  1  0.47009592  0.66471397  0.87235274  1
  O2-  O438  1  0.47014105  0.66514380  0.62521324  1
  O2-  O439  1  0.52199376  0.00050843  0.37587010  1
  O2-  O440  1  0.47458573  -0.00530988  0.87804347  1
  O2-  O441  1  0.53764661  -0.00003705  0.12475781  1
  O2-  O442  1  0.52543814  0.00436557  0.63079007  1
  O2-  O443  1  0.02762948  0.32857035  0.36925793  1
