# generated using pymatgen
data_La7(Ru4O11)2
_symmetry_space_group_name_H-M   'P 1'
_cell_length_a   23.99148074
_cell_length_b   16.83161061
_cell_length_c   15.42755056
_cell_angle_alpha   90.00151440
_cell_angle_beta   89.99950803
_cell_angle_gamma   90.00178225
_symmetry_Int_Tables_number   1
_chemical_formula_structural   La7(Ru4O11)2
_chemical_formula_sum   'La84 Ru96 O264'
_cell_volume   6229.88036515
_cell_formula_units_Z   12
loop_
 _symmetry_equiv_pos_site_id
 _symmetry_equiv_pos_as_xyz
  1  'x, y, z'
loop_
 _atom_type_symbol
 _atom_type_oxidation_number
  La3+  3.0
  Ru4+  4.0
  O2-  -2.0
loop_
 _atom_site_type_symbol
 _atom_site_label
 _atom_site_symmetry_multiplicity
 _atom_site_fract_x
 _atom_site_fract_y
 _atom_site_fract_z
 _atom_site_occupancy
  La3+  La0  1  0.13916040  -0.00405167  0.12150503  1
  La3+  La1  1  0.13795271  -0.00036920  0.37819678  1
  La3+  La2  1  0.14068218  -0.00015172  0.62317411  1
  La3+  La3  1  0.14559336  0.00289965  0.88552159  1
  La3+  La4  1  0.14223148  0.33799733  0.11856273  1
  La3+  La5  1  0.13923767  0.33200645  0.37929815  1
  La3+  La6  1  0.13650503  0.32759274  0.62004065  1
  La3+  La7  1  0.14323240  0.33510733  0.88148998  1
  La3+  La8  1  0.13527971  0.66435621  0.12278277  1
  La3+  La9  1  0.13743487  0.65723592  0.37322931  1
  La3+  La10  1  0.13979477  0.66294225  0.62826428  1
  La3+  La11  1  0.14320807  0.66446062  0.87865431  1
  La3+  La12  1  0.63903881  -0.00119304  0.12535523  1
  La3+  La13  1  0.63875354  0.00198050  0.38134382  1
  La3+  La14  1  0.63874983  0.00018301  0.62499556  1
  La3+  La15  1  0.63972137  -0.00158508  0.87299156  1
  La3+  La16  1  0.63961322  0.33730601  0.12352488  1
  La3+  La17  1  0.63795969  0.33439735  0.37535575  1
  La3+  La18  1  0.63878597  0.33242636  0.62747906  1
  La3+  La19  1  0.64455981  0.33520796  0.87115165  1
  La3+  La20  1  0.63222207  0.66385788  0.12153638  1
  La3+  La21  1  0.63779398  0.66611510  0.37970790  1
  La3+  La22  1  0.63545010  0.66568704  0.62358180  1
  La3+  La23  1  0.63841863  0.66515773  0.87218710  1
  La3+  La24  1  0.36248741  -0.00000535  0.11957074  1
  La3+  La25  1  0.36456907  -0.00166060  0.38038049  1
  La3+  La26  1  0.35877014  -0.00044321  0.62075646  1
  La3+  La27  1  0.36071679  -0.00000356  0.87924893  1
  La3+  La28  1  0.35727184  0.33472348  0.11843995  1
  La3+  La29  1  0.35526141  0.33854525  0.37804437  1
  La3+  La30  1  0.35988179  0.33045913  0.62474681  1
  La3+  La31  1  0.35814674  0.33086847  0.88138580  1
  La3+  La32  1  0.35760263  0.66484491  0.12153415  1
  La3+  La33  1  0.36389553  0.66166021  0.37673168  1
  La3+  La34  1  0.35866745  0.66371196  0.63823949  1
  La3+  La35  1  0.36426184  0.65796914  0.86664849  1
  La3+  La36  1  0.86180804  0.00018625  0.12318776  1
  La3+  La37  1  0.85668118  0.00440605  0.37643063  1
  La3+  La38  1  0.85567629  -0.00141110  0.62396904  1
  La3+  La39  1  0.86086321  -0.00290591  0.87367828  1
  La3+  La40  1  0.86490411  0.33249921  0.12673187  1
  La3+  La41  1  0.86489852  0.32885243  0.37723024  1
  La3+  La42  1  0.86002288  0.33078334  0.62257487  1
  La3+  La43  1  0.85763708  0.33416858  0.86894763  1
  La3+  La44  1  0.86451277  0.67202474  0.12495486  1
  La3+  La45  1  0.86462739  0.66644247  0.37613502  1
  La3+  La46  1  0.86555171  0.66504600  0.62769570  1
  La3+  La47  1  0.86511266  0.66609107  0.86821776  1
  La3+  La48  1  -0.00615615  0.17690464  0.87133419  1
  La3+  La49  1  0.00598488  0.49863466  0.39063157  1
  La3+  La50  1  0.49444331  0.16122283  0.37878098  1
  La3+  La51  1  0.00824168  0.15996994  0.13301222  1
  La3+  La52  1  0.50077799  0.83491315  0.36909078  1
  La3+  La53  1  0.50429630  0.16198149  0.12187030  1
  La3+  La54  1  0.00174539  0.50384574  0.88553648  1
  La3+  La55  1  0.00059263  0.15931919  0.62352750  1
  La3+  La56  1  0.00084189  0.49828553  0.62912540  1
  La3+  La57  1  0.50025261  0.16710142  0.10099950  1
  La3+  La58  1  0.00203105  0.82928846  0.37856512  1
  La3+  La59  1  -0.00468931  0.15250910  0.38727596  1
  La3+  La60  1  0.49552349  0.51510373  0.61549244  1
  La3+  La61  1  0.50270520  0.50417388  0.86631126  1
  La3+  La62  1  0.50094283  0.83477359  0.88043953  1
  La3+  La63  1  0.49751254  0.51072781  0.88584628  1
  La3+  La64  1  0.00077963  0.82765065  0.35600385  1
  La3+  La65  1  0.49560281  0.16990767  0.39885938  1
  La3+  La66  1  0.00126072  0.83053195  0.88267674  1
  La3+  La67  1  0.00091274  0.81611475  0.62972519  1
  La3+  La68  1  0.49345159  0.51636659  0.63212656  1
  La3+  La69  1  0.50387971  0.50204065  0.12579255  1
  La3+  La70  1  0.00066473  0.50338854  0.13720821  1
  La3+  La71  1  0.49522466  0.15308645  0.63081513  1
  La3+  La72  1  0.24986942  0.82699399  0.32120068  1
  La3+  La73  1  0.75146377  0.48235721  -0.05948598  1
  La3+  La74  1  0.74981216  0.88473341  0.01468942  1
  La3+  La75  1  0.74979246  0.16512887  0.51079204  1
  La3+  La76  1  0.75105493  0.44324567  0.51595952  1
  La3+  La77  1  0.74989362  0.21083055  0.71091809  1
  La3+  La78  1  0.24942878  0.18079377  0.33630115  1
  La3+  La79  1  0.75012032  0.89092392  0.25887447  1
  La3+  La80  1  0.25065590  0.46283725  0.50518242  1
  La3+  La81  1  0.25014971  0.17423004  -0.04755015  1
  La3+  La82  1  0.74925251  0.49765670  0.75403605  1
  La3+  La83  1  0.25055156  0.78810873  0.75679630  1
  Ru4+  Ru84  1  0.00404391  0.00100303  -0.00039966  1
  Ru4+  Ru85  1  0.00089462  0.00142776  0.25042830  1
  Ru4+  Ru86  1  -0.00069401  -0.00276490  0.49856618  1
  Ru4+  Ru87  1  -0.00212603  -0.00394961  0.75370645  1
  Ru4+  Ru88  1  -0.00122655  0.33167348  0.00249758  1
  Ru4+  Ru89  1  0.00052649  0.32920262  0.24650026  1
  Ru4+  Ru90  1  -0.00058445  0.34246966  0.49568110  1
  Ru4+  Ru91  1  -0.00097540  0.33306709  0.75492519  1
  Ru4+  Ru92  1  -0.00028173  0.67590934  0.00134729  1
  Ru4+  Ru93  1  -0.00294901  0.66192017  0.24152408  1
  Ru4+  Ru94  1  0.00282286  0.67832751  0.50229638  1
  Ru4+  Ru95  1  0.00931888  0.66717162  0.76080456  1
  Ru4+  Ru96  1  0.49839768  -0.00232767  -0.01378236  1
  Ru4+  Ru97  1  0.50131968  -0.00822875  0.24784278  1
  Ru4+  Ru98  1  0.49514079  -0.00698223  0.50099975  1
  Ru4+  Ru99  1  0.50042866  -0.00680151  0.75227617  1
  Ru4+  Ru100  1  0.50509480  0.33658479  -0.00113989  1
  Ru4+  Ru101  1  0.49878043  0.33611073  0.24947564  1
  Ru4+  Ru102  1  0.50060489  0.34087808  0.51195590  1
  Ru4+  Ru103  1  0.50124533  0.33506227  0.74606656  1
  Ru4+  Ru104  1  0.49644106  0.67725340  0.00649781  1
  Ru4+  Ru105  1  0.50411614  0.67415966  0.24142887  1
  Ru4+  Ru106  1  0.49295654  0.67145225  0.50872957  1
  Ru4+  Ru107  1  0.50129179  0.67058542  0.75180588  1
  Ru4+  Ru108  1  0.10985799  0.16502486  -0.00056213  1
  Ru4+  Ru109  1  0.10904547  0.17053303  0.24873572  1
  Ru4+  Ru110  1  0.11723113  0.16194284  0.50092845  1
  Ru4+  Ru111  1  0.11175809  0.16669473  0.74978372  1
  Ru4+  Ru112  1  0.11629602  0.49752478  0.00112949  1
  Ru4+  Ru113  1  0.11954512  0.49632179  0.25043641  1
  Ru4+  Ru114  1  0.11430997  0.49470338  0.49995910  1
  Ru4+  Ru115  1  0.11458244  0.50218029  0.75017178  1
  Ru4+  Ru116  1  0.11468090  0.83384682  -0.00021841  1
  Ru4+  Ru117  1  0.11100733  0.83102900  0.24761681  1
  Ru4+  Ru118  1  0.11282604  0.83611776  0.50130945  1
  Ru4+  Ru119  1  0.11303152  0.83423555  0.75378679  1
  Ru4+  Ru120  1  0.61398738  0.16793423  -0.00068644  1
  Ru4+  Ru121  1  0.61505410  0.16930724  0.24817954  1
  Ru4+  Ru122  1  0.61703529  0.17204721  0.50027851  1
  Ru4+  Ru123  1  0.61202225  0.16612430  0.75310403  1
  Ru4+  Ru124  1  0.61489959  0.49327469  0.00104839  1
  Ru4+  Ru125  1  0.61107141  0.49688225  0.25097866  1
  Ru4+  Ru126  1  0.61304249  0.49158871  0.49381426  1
  Ru4+  Ru127  1  0.60677739  0.50147821  0.75208075  1
  Ru4+  Ru128  1  0.60866593  0.83444676  0.00078675  1
  Ru4+  Ru129  1  0.60839575  0.82995873  0.24803024  1
  Ru4+  Ru130  1  0.61319236  0.83284452  0.49871337  1
  Ru4+  Ru131  1  0.60900141  0.83037189  0.74902889  1
  Ru4+  Ru132  1  0.38533996  0.16134602  -0.00353606  1
  Ru4+  Ru133  1  0.38635233  0.16610941  0.24876413  1
  Ru4+  Ru134  1  0.38120673  0.16898460  0.50306833  1
  Ru4+  Ru135  1  0.38634309  0.16615711  0.74704361  1
  Ru4+  Ru136  1  0.38447923  0.50205636  -0.00096623  1
  Ru4+  Ru137  1  0.38544340  0.49840412  0.24643559  1
  Ru4+  Ru138  1  0.39228240  0.50110491  0.49829754  1
  Ru4+  Ru139  1  0.38590267  0.50112533  0.75090217  1
  Ru4+  Ru140  1  0.38366566  0.83083456  0.00131420  1
  Ru4+  Ru141  1  0.39188540  0.83154310  0.24810085  1
  Ru4+  Ru142  1  0.38556599  0.83591178  0.49876603  1
  Ru4+  Ru143  1  0.39222551  0.83260021  0.74861860  1
  Ru4+  Ru144  1  0.88945240  0.16997362  -0.00089451  1
  Ru4+  Ru145  1  0.88822544  0.16738967  0.24675108  1
  Ru4+  Ru146  1  0.88551799  0.16044417  0.50008168  1
  Ru4+  Ru147  1  0.89005413  0.16633294  0.75141370  1
  Ru4+  Ru148  1  0.89097447  0.49877753  0.00066267  1
  Ru4+  Ru149  1  0.88784991  0.49958279  0.24824525  1
  Ru4+  Ru150  1  0.88709790  0.49438016  0.50042877  1
  Ru4+  Ru151  1  0.88636808  0.49543624  0.75083551  1
  Ru4+  Ru152  1  0.89250493  0.83541637  0.00121546  1
  Ru4+  Ru153  1  0.88623438  0.83945368  0.24860407  1
  Ru4+  Ru154  1  0.88633474  0.83479801  0.50030516  1
  Ru4+  Ru155  1  0.88464605  0.83943852  0.75021448  1
  Ru4+  Ru156  1  0.24979036  0.42275415  0.76043414  1
  Ru4+  Ru157  1  0.75071218  0.36972518  0.01733799  1
  Ru4+  Ru158  1  0.75048615  0.24520770  0.25587163  1
  Ru4+  Ru159  1  0.24965558  0.09243039  0.75222909  1
  Ru4+  Ru160  1  0.75014060  0.74470890  0.26359009  1
  Ru4+  Ru161  1  0.24977133  0.25485391  0.75533544  1
  Ru4+  Ru162  1  0.75000845  0.07884155  0.00635168  1
  Ru4+  Ru163  1  0.74944905  0.58531009  0.25999319  1
  Ru4+  Ru164  1  0.24958598  0.60772010  0.48432387  1
  Ru4+  Ru165  1  0.24999085  0.70442010  0.23781305  1
  Ru4+  Ru166  1  0.25047593  0.93081523  0.76520047  1
  Ru4+  Ru167  1  0.24962739  0.07140860  0.23286090  1
  Ru4+  Ru168  1  0.75053783  0.06374129  0.76288323  1
  Ru4+  Ru169  1  0.74979477  0.23895921  0.01198212  1
  Ru4+  Ru170  1  0.25049486  0.93481185  0.22508018  1
  Ru4+  Ru171  1  0.75002492  0.60240184  0.49788411  1
  Ru4+  Ru172  1  0.75029743  0.09346415  0.25518802  1
  Ru4+  Ru173  1  0.74975393  0.76217397  0.75475490  1
  Ru4+  Ru174  1  0.24963786  0.28831847  0.21875888  1
  Ru4+  Ru175  1  0.74953175  0.91192595  0.48954851  1
  Ru4+  Ru176  1  0.24990141  0.75929749  0.50170228  1
  Ru4+  Ru177  1  0.74990996  0.40124655  0.24403307  1
  Ru4+  Ru178  1  0.75012469  0.74922931  -0.02778327  1
  Ru4+  Ru179  1  0.75053117  0.60868867  -0.01440305  1
  O2-  O180  1  0.17182267  0.08498781  0.00027785  1
  O2-  O181  1  0.16368566  0.08249835  0.25057240  1
  O2-  O182  1  0.16609226  0.08009580  0.49679388  1
  O2-  O183  1  0.16610448  0.08160516  0.74958209  1
  O2-  O184  1  0.16714731  0.41788456  -0.00356331  1
  O2-  O185  1  0.16627095  0.41290917  0.25120698  1
  O2-  O186  1  0.16619191  0.40947220  0.50332002  1
  O2-  O187  1  0.16684987  0.41222423  0.74941769  1
  O2-  O188  1  0.16307479  0.74737670  0.00339665  1
  O2-  O189  1  0.16879869  0.74306563  0.24823287  1
  O2-  O190  1  0.16659297  0.74643381  0.49872418  1
  O2-  O191  1  0.16345328  0.74373694  0.74853036  1
  O2-  O192  1  0.66671664  0.07981725  0.00116155  1
  O2-  O193  1  0.66692005  0.08088882  0.25145902  1
  O2-  O194  1  0.66719825  0.07968265  0.50153824  1
  O2-  O195  1  0.66691089  0.08164629  0.75033846  1
  O2-  O196  1  0.66811315  0.41085815  -0.00099211  1
  O2-  O197  1  0.66785219  0.41254746  0.24892640  1
  O2-  O198  1  0.66336260  0.40848678  0.49739386  1
  O2-  O199  1  0.66630610  0.41519451  0.74698402  1
  O2-  O200  1  0.66595547  0.74758367  -0.00190822  1
  O2-  O201  1  0.66683409  0.74682631  0.25283230  1
  O2-  O202  1  0.66361128  0.74832156  0.50104725  1
  O2-  O203  1  0.66874300  0.74816853  0.75161430  1
  O2-  O204  1  0.33428651  0.25080340  -0.00078994  1
  O2-  O205  1  0.33139310  0.25490898  0.24914109  1
  O2-  O206  1  0.33428108  0.25372109  0.50059187  1
  O2-  O207  1  0.33270513  0.25358412  0.75128759  1
  O2-  O208  1  0.33685605  0.58666286  0.00148520  1
  O2-  O209  1  0.33701580  0.58535364  0.25131179  1
  O2-  O210  1  0.33242502  0.58584830  0.49772354  1
  O2-  O211  1  0.33129434  0.58355800  0.75283593  1
  O2-  O212  1  0.33719440  0.92039612  0.00167045  1
  O2-  O213  1  0.33509325  0.92004060  0.25091657  1
  O2-  O214  1  0.33196190  0.91792329  0.49670688  1
  O2-  O215  1  0.33512103  0.92043673  0.74879225  1
  O2-  O216  1  0.83024230  0.25125751  0.00407634  1
  O2-  O217  1  0.83186191  0.25309436  0.25111344  1
  O2-  O218  1  0.83306981  0.25271745  0.49839028  1
  O2-  O219  1  0.83372200  0.25442837  0.74694406  1
  O2-  O220  1  0.83430087  0.58872278  -0.00342070  1
  O2-  O221  1  0.83236967  0.58570905  0.25321239  1
  O2-  O222  1  0.83185895  0.58835967  0.50259162  1
  O2-  O223  1  0.83320487  0.58673409  0.74747773  1
  O2-  O224  1  0.83991181  0.92313843  0.00077402  1
  O2-  O225  1  0.84000645  0.92776580  0.24827888  1
  O2-  O226  1  0.82895004  0.91608783  0.50191303  1
  O2-  O227  1  0.83226758  0.91708419  0.75213836  1
  O2-  O228  1  0.16691485  0.24822812  -0.00147198  1
  O2-  O229  1  0.17100608  0.25407052  0.25305365  1
  O2-  O230  1  0.16608327  0.25294753  0.50049224  1
  O2-  O231  1  0.16723658  0.25449926  0.74978215  1
  O2-  O232  1  0.16338968  0.58419828  0.00164524  1
  O2-  O233  1  0.16691156  0.58309905  0.24829760  1
  O2-  O234  1  0.16601442  0.58596317  0.50298434  1
  O2-  O235  1  0.16665299  0.58291184  0.74900374  1
  O2-  O236  1  0.16548627  0.91898047  0.00265317  1
  O2-  O237  1  0.16670286  0.91741795  0.25248944  1
  O2-  O238  1  0.16378524  0.91865002  0.49664133  1
  O2-  O239  1  0.17053340  0.91760041  0.74448341  1
  O2-  O240  1  0.66699431  0.25098526  0.00141107  1
  O2-  O241  1  0.67019539  0.25168736  0.25121308  1
  O2-  O242  1  0.66815807  0.25469467  0.49875308  1
  O2-  O243  1  0.66606554  0.25210609  0.74839618  1
  O2-  O244  1  0.66787070  0.58756344  -0.00287140  1
  O2-  O245  1  0.66333858  0.58496604  0.24959097  1
  O2-  O246  1  0.66745266  0.58454748  0.50130297  1
  O2-  O247  1  0.66647471  0.58634510  0.74878391  1
  O2-  O248  1  0.65876920  0.92278643  -0.00012918  1
  O2-  O249  1  0.66021087  0.92353643  0.25028464  1
  O2-  O250  1  0.66821325  0.91794126  0.50058966  1
  O2-  O251  1  0.66311624  0.91739600  0.74970851  1
  O2-  O252  1  0.32895209  0.08152386  0.00069301  1
  O2-  O253  1  0.33268326  0.08014063  0.25132224  1
  O2-  O254  1  0.33386309  0.07899563  0.49554105  1
  O2-  O255  1  0.33425767  0.08081228  0.74988702  1
  O2-  O256  1  0.33670670  0.41365171  -0.00006638  1
  O2-  O257  1  0.33572481  0.41601436  0.24836370  1
  O2-  O258  1  0.33758994  0.41420301  0.50463971  1
  O2-  O259  1  0.33379464  0.41313687  0.75282663  1
  O2-  O260  1  0.33661358  0.74791800  0.00173901  1
  O2-  O261  1  0.33375614  0.74463377  0.25160378  1
  O2-  O262  1  0.33430446  0.74710872  0.49737925  1
  O2-  O263  1  0.33783883  0.74559257  0.75308197  1
  O2-  O264  1  0.83558527  0.08347060  0.00134074  1
  O2-  O265  1  0.83368877  0.08189149  0.24946048  1
  O2-  O266  1  0.83235842  0.08109418  0.50134832  1
  O2-  O267  1  0.83463279  0.08049770  0.74981991  1
  O2-  O268  1  0.83429842  0.41117014  0.00082292  1
  O2-  O269  1  0.83362882  0.41399122  0.24995809  1
  O2-  O270  1  0.84009939  0.40751688  0.49642274  1
  O2-  O271  1  0.83308959  0.41488466  0.74450071  1
  O2-  O272  1  0.83396226  0.74940860  -0.00481542  1
  O2-  O273  1  0.83377897  0.74689382  0.25159579  1
  O2-  O274  1  0.83592333  0.74761873  0.50319704  1
  O2-  O275  1  0.83325919  0.74686490  0.74901226  1
  O2-  O276  1  0.05156307  0.56665834  0.51294832  1
  O2-  O277  1  0.95141849  0.77057993  0.23341571  1
  O2-  O278  1  0.95452549  0.75307199  0.75908440  1
  O2-  O279  1  0.95180434  0.91038625  0.01765978  1
  O2-  O280  1  0.94640330  0.75370421  0.98346456  1
  O2-  O281  1  0.54975667  0.09348010  0.00781384  1
  O2-  O282  1  0.05047285  0.23718693  0.52008944  1
  O2-  O283  1  0.95251555  0.56921886  0.52260187  1
  O2-  O284  1  0.45060437  0.23502876  0.98080750  1
  O2-  O285  1  0.05318518  0.76050831  0.99341898  1
  O2-  O286  1  0.45512607  0.56394091  0.75597182  1
  O2-  O287  1  0.45356992  0.42895330  0.48805039  1
  O2-  O288  1  0.55018637  0.09111068  0.48117164  1
  O2-  O289  1  0.45418816  0.22914465  0.21072395  1
  O2-  O290  1  0.54889828  0.56552178  0.51478795  1
  O2-  O291  1  0.54044895  0.23742682  0.71058673  1
  O2-  O292  1  0.54342850  0.56937332  0.00828104  1
  O2-  O293  1  0.95012612  0.75824385  0.50986290  1
  O2-  O294  1  0.04841374  0.56704041  0.01516270  1
  O2-  O295  1  0.96008260  0.54617072  0.29065914  1
  O2-  O296  1  0.04449707  0.77337840  0.20126934  1
  O2-  O297  1  0.03448200  0.21783618  0.29078882  1
  O2-  O298  1  0.55028192  0.90157854  0.73516548  1
  O2-  O299  1  0.45446363  0.56099396  0.44966855  1
  O2-  O300  1  0.54897387  0.09052756  0.25945979  1
  O2-  O301  1  0.95265160  0.57423041  0.48357291  1
  O2-  O302  1  0.05287816  0.56430465  0.26599748  1
  O2-  O303  1  0.44728829  0.09561236  0.49649605  1
  O2-  O304  1  0.03280142  0.11776027  0.97032585  1
  O2-  O305  1  0.54374411  0.23153935  0.29415248  1
  O2-  O306  1  0.94912219  0.23629261  0.48505724  1
  O2-  O307  1  0.95209997  0.56860515  0.76405600  1
  O2-  O308  1  0.45459937  0.43481913  0.01511910  1
  O2-  O309  1  0.05293187  0.90450692  0.98922887  1
  O2-  O310  1  0.54952339  0.76860206  0.01024705  1
  O2-  O311  1  0.96321710  0.21885006  0.03919130  1
  O2-  O312  1  0.45039497  0.90094484  0.73929211  1
  O2-  O313  1  0.04223438  0.88421160  0.73131350  1
  O2-  O314  1  0.03769304  0.89278123  0.73451274  1
  O2-  O315  1  0.45033163  0.76708380  0.99128530  1
  O2-  O316  1  0.04978400  0.23862319  0.48083832  1
  O2-  O317  1  0.96702189  0.89710267  0.53876995  1
  O2-  O318  1  0.45216789  0.90366429  0.26060086  1
  O2-  O319  1  0.45331827  0.76017399  0.23702237  1
  O2-  O320  1  0.94605803  0.88716616  0.79207982  1
  O2-  O321  1  0.54887122  0.10210123  0.51850034  1
  O2-  O322  1  0.95111973  0.24531448  0.52297197  1
  O2-  O323  1  0.04435129  0.43239724  0.76141034  1
  O2-  O324  1  0.56246339  0.24180082  0.69229228  1
  O2-  O325  1  0.56464213  0.58668624  0.01814118  1
  O2-  O326  1  0.07909428  0.74946711  0.33393573  1
  O2-  O327  1  0.43659794  0.26479524  0.97488114  1
  O2-  O328  1  0.57015669  0.74919732  0.68715486  1
  O2-  O329  1  0.05125422  0.73919971  0.19834504  1
  O2-  O330  1  0.56895434  0.75113850  0.18626667  1
  O2-  O331  1  0.93839367  0.59743225  0.77457061  1
  O2-  O332  1  0.06406946  0.26150836  0.96198110  1
  O2-  O333  1  0.93917615  0.40727595  0.21547835  1
  O2-  O334  1  0.06436618  0.92302624  0.27601716  1
  O2-  O335  1  0.06051642  0.41406024  0.02135537  1
  O2-  O336  1  0.06233253  0.58744274  0.77425668  1
  O2-  O337  1  0.94074056  0.73851211  0.22708637  1
  O2-  O338  1  0.43680227  0.74275536  0.77943676  1
  O2-  O339  1  0.56386713  0.40145272  0.46391319  1
  O2-  O340  1  0.44706394  0.59486536  0.44444237  1
  O2-  O341  1  0.43475107  0.07327009  0.98083792  1
  O2-  O342  1  0.05937288  0.59636909  0.53154853  1
  O2-  O343  1  0.43547104  0.06769055  0.21546719  1
  O2-  O344  1  0.56332306  0.92894895  0.21765017  1
  O2-  O345  1  0.93089381  0.95214272  0.68694253  1
  O2-  O346  1  0.91787918  0.93434344  0.44537818  1
  O2-  O347  1  0.07914224  0.06018329  0.05265767  1
  O2-  O348  1  0.06284333  0.40374910  0.46796410  1
  O2-  O349  1  0.93709842  0.25941236  0.76983222  1
  O2-  O350  1  0.43113980  0.28824086  0.31968574  1
  O2-  O351  1  0.56214183  0.07076905  0.71531710  1
  O2-  O352  1  0.93347754  0.74389198  0.77845107  1
  O2-  O353  1  0.58051860  0.26646281  0.18799212  1
  O2-  O354  1  0.43029883  0.60943244  0.57807081  1
  O2-  O355  1  0.08064918  0.27170801  0.19691560  1
  O2-  O356  1  0.43573551  0.92103426  0.47293230  1
  O2-  O357  1  0.56131464  0.73646214  0.32720803  1
  O2-  O358  1  0.56196351  0.73860611  0.82540146  1
  O2-  O359  1  0.57806530  0.26232520  0.83511773  1
  O2-  O360  1  0.06062972  0.59606346  0.02911299  1
  O2-  O361  1  0.92064509  0.27432785  0.94571976  1
  O2-  O362  1  0.44438655  0.57835339  0.77251897  1
  O2-  O363  1  0.56138652  0.92626963  0.46543929  1
  O2-  O364  1  0.06515294  0.74079836  0.77495753  1
  O2-  O365  1  0.43503314  0.59746656  0.71535796  1
  O2-  O366  1  0.08921838  0.95455907  0.80189941  1
  O2-  O367  1  0.06163828  0.59770774  0.27105902  1
  O2-  O368  1  0.56082674  0.40495125  0.27993194  1
  O2-  O369  1  0.92191109  0.59887869  0.19408421  1
  O2-  O370  1  0.93580360  0.25566597  0.21530955  1
  O2-  O371  1  0.56330229  0.58994665  0.53264947  1
  O2-  O372  1  0.25025310  0.65867480  0.13283786  1
  O2-  O373  1  0.74875989  -0.00340324  0.40102243  1
  O2-  O374  1  0.74924709  0.66197715  0.36014489  1
  O2-  O375  1  0.24975946  0.00065881  0.57688657  1
  O2-  O376  1  0.75052334  0.34019123  0.85574566  1
  O2-  O377  1  0.24970847  0.00564936  0.66684246  1
  O2-  O378  1  0.24992408  0.66807244  0.67718540  1
  O2-  O379  1  0.24968105  0.33089219  0.42440443  1
  O2-  O380  1  0.74960414  0.00392573  0.57564052  1
  O2-  O381  1  0.25003685  0.66943464  0.89567237  1
  O2-  O382  1  0.74950419  0.66227383  0.17982056  1
  O2-  O383  1  0.24978680  0.34362780  0.33288217  1
  O2-  O384  1  0.75023988  -0.00789982  0.66718308  1
  O2-  O385  1  0.75019686  -0.00009143  0.10429253  1
  O2-  O386  1  0.25011963  0.67257914  0.58469476  1
  O2-  O387  1  0.25042006  0.01173887  0.85646592  1
  O2-  O388  1  0.25070798  0.66438323  0.36280121  1
  O2-  O389  1  0.75159441  0.32498391  0.60263524  1
  O2-  O390  1  0.75023778  0.68414884  0.07031906  1
  O2-  O391  1  0.75059249  0.66528012  0.84511522  1
  O2-  O392  1  0.25031093  0.32418707  0.88208050  1
  O2-  O393  1  0.75011570  0.00339729  0.90445234  1
  O2-  O394  1  0.75006735  0.33131369  0.34950492  1
  O2-  O395  1  0.25117444  0.32999218  0.10669690  1
  O2-  O396  1  0.75060874  0.49791346  0.17679370  1
  O2-  O397  1  0.75015328  0.82503518  0.66498218  1
  O2-  O398  1  0.25018808  0.83003967  0.59049043  1
  O2-  O399  1  0.74988053  0.81322158  0.14158799  1
  O2-  O400  1  0.25019182  0.83580775  0.06879447  1
  O2-  O401  1  0.25028933  0.49411706  0.89188042  1
  O2-  O402  1  0.25024295  0.83316585  0.15665424  1
  O2-  O403  1  0.74996367  0.52487965  0.62415404  1
  O2-  O404  1  0.25001726  0.17275541  0.66922247  1
  O2-  O405  1  0.74974201  0.50296771  0.08694369  1
  O2-  O406  1  0.75001948  0.15499275  0.83711866  1
  O2-  O407  1  0.74991570  0.16628489  0.15652796  1
  O2-  O408  1  0.24998056  0.17245561  0.17360978  1
  O2-  O409  1  0.25012208  0.16932450  0.58176757  1
  O2-  O410  1  0.74990336  0.52074534  0.40341054  1
  O2-  O411  1  0.75004239  0.16411257  0.92992682  1
  O2-  O412  1  0.25005263  0.84176314  0.88524144  1
  O2-  O413  1  0.25002723  0.49901488  0.09015361  1
  O2-  O414  1  0.74980507  0.82617778  0.38218520  1
  O2-  O415  1  0.75007351  0.16655777  0.37085232  1
  O2-  O416  1  0.75018172  0.48758990  0.31677855  1
  O2-  O417  1  0.24992302  0.16264887  0.08623334  1
  O2-  O418  1  0.25013380  0.48837643  0.66070939  1
  O2-  O419  1  0.74987190  0.82078020  0.87440023  1
  O2-  O420  1  0.04553115  0.01035381  0.39314880  1
  O2-  O421  1  0.52103460  0.34704670  0.11875843  1
  O2-  O422  1  0.52008980  0.66311017  0.62775138  1
  O2-  O423  1  0.97072704  0.33859155  0.37238109  1
  O2-  O424  1  0.02812342  0.00899885  0.62093928  1
  O2-  O425  1  0.45261664  0.33009644  0.63105605  1
  O2-  O426  1  0.45697128  -0.00908879  0.86404059  1
  O2-  O427  1  0.95395167  0.67827961  0.36926316  1
  O2-  O428  1  0.51674253  0.35223269  0.87771771  1
  O2-  O429  1  0.02339645  0.65761848  0.88820589  1
  O2-  O430  1  0.03699456  0.65613594  0.40113543  1
  O2-  O431  1  0.54669059  -0.00371026  0.87779600  1
  O2-  O432  1  0.51453684  0.65577162  0.12521000  1
  O2-  O433  1  0.03667358  0.00952380  0.87972640  1
  O2-  O434  1  0.54338813  0.35030700  0.61343822  1
  O2-  O435  1  0.01876760  -0.00542273  0.13478632  1
  O2-  O436  1  0.95774557  0.01536710  0.35453664  1
  O2-  O437  1  0.47279019  0.00487118  0.62610652  1
  O2-  O438  1  0.47529092  0.00950520  0.37061439  1
  O2-  O439  1  0.95313623  0.00740181  0.87681625  1
  O2-  O440  1  0.97701379  0.66421016  0.11217002  1
  O2-  O441  1  0.47807611  0.66076304  0.88307186  1
  O2-  O442  1  0.01739107  0.33768601  0.12297649  1
  O2-  O443  1  0.98231071  0.35353371  0.87466449  1
