# generated using pymatgen
data_La7(Ru4O11)2
_symmetry_space_group_name_H-M   'P 1'
_cell_length_a   23.99128027
_cell_length_b   16.83230423
_cell_length_c   15.42970999
_cell_angle_alpha   89.99836600
_cell_angle_beta   89.99975987
_cell_angle_gamma   89.99894204
_symmetry_Int_Tables_number   1
_chemical_formula_structural   La7(Ru4O11)2
_chemical_formula_sum   'La84 Ru96 O264'
_cell_volume   6230.95707264
_cell_formula_units_Z   12
loop_
 _symmetry_equiv_pos_site_id
 _symmetry_equiv_pos_as_xyz
  1  'x, y, z'
loop_
 _atom_type_symbol
 _atom_type_oxidation_number
  La3+  3.0
  Ru4+  4.0
  O2-  -2.0
loop_
 _atom_site_type_symbol
 _atom_site_label
 _atom_site_symmetry_multiplicity
 _atom_site_fract_x
 _atom_site_fract_y
 _atom_site_fract_z
 _atom_site_occupancy
  La3+  La0  1  0.13675287  0.00159364  0.12637706  1
  La3+  La1  1  0.14247479  0.00317059  0.37931632  1
  La3+  La2  1  0.15073853  -0.00019331  0.62544134  1
  La3+  La3  1  0.13907277  -0.00098613  0.86510866  1
  La3+  La4  1  0.13358977  0.33310758  0.12338191  1
  La3+  La5  1  0.13772232  0.33180621  0.37782248  1
  La3+  La6  1  0.13937968  0.33411604  0.62305275  1
  La3+  La7  1  0.13558145  0.33586706  0.87226832  1
  La3+  La8  1  0.13314809  0.66796062  0.12526870  1
  La3+  La9  1  0.13987023  0.66668242  0.37861169  1
  La3+  La10  1  0.14242329  0.66580780  0.62230068  1
  La3+  La11  1  0.13297017  0.66980905  0.87627314  1
  La3+  La12  1  0.63624798  0.00265429  0.12514367  1
  La3+  La13  1  0.64263862  0.00395883  0.37510686  1
  La3+  La14  1  0.63808345  0.00042255  0.62367776  1
  La3+  La15  1  0.63914214  0.00053086  0.87708119  1
  La3+  La16  1  0.64334270  0.33752575  0.12639424  1
  La3+  La17  1  0.63929260  0.33453859  0.37912098  1
  La3+  La18  1  0.64875574  0.33689811  0.62979563  1
  La3+  La19  1  0.64376115  0.33328549  0.87425481  1
  La3+  La20  1  0.64092466  0.66366576  0.11992213  1
  La3+  La21  1  0.64019501  0.66677995  0.37812893  1
  La3+  La22  1  0.63739224  0.66580677  0.62453930  1
  La3+  La23  1  0.63910682  0.66504745  0.87646958  1
  La3+  La24  1  0.36347382  0.00297231  0.12813348  1
  La3+  La25  1  0.35811572  0.00326397  0.37902893  1
  La3+  La26  1  0.35186388  -0.00048381  0.62493613  1
  La3+  La27  1  0.35930647  -0.00172389  0.86711529  1
  La3+  La28  1  0.36561517  0.33265506  0.12884449  1
  La3+  La29  1  0.35555286  0.32312336  0.37288195  1
  La3+  La30  1  0.36038780  0.33287838  0.63893023  1
  La3+  La31  1  0.37101942  0.33917249  0.86508891  1
  La3+  La32  1  0.36404662  0.66657076  0.12412420  1
  La3+  La33  1  0.36003673  0.66584663  0.37815680  1
  La3+  La34  1  0.36051702  0.66432379  0.62540534  1
  La3+  La35  1  0.35949296  0.67363336  0.87350730  1
  La3+  La36  1  0.86503965  0.00000006  0.12329551  1
  La3+  La37  1  0.85254776  0.00068519  0.37605715  1
  La3+  La38  1  0.85696054  0.00381758  0.62185830  1
  La3+  La39  1  0.86294666  -0.00115864  0.87588044  1
  La3+  La40  1  0.85821718  0.33866910  0.12284468  1
  La3+  La41  1  0.85818888  0.33585990  0.37603639  1
  La3+  La42  1  0.85885561  0.33470340  0.62705112  1
  La3+  La43  1  0.86502787  0.34130024  0.87847907  1
  La3+  La44  1  0.86319039  0.66321156  0.12042475  1
  La3+  La45  1  0.86670121  0.66001421  0.38287108  1
  La3+  La46  1  0.87182475  0.65488714  0.61478186  1
  La3+  La47  1  0.85625549  0.66742458  0.87510391  1
  La3+  La48  1  0.49603022  0.49968375  0.85941163  1
  La3+  La49  1  -0.00296361  0.50296156  0.61857386  1
  La3+  La50  1  0.49990292  0.16798754  0.13294336  1
  La3+  La51  1  -0.00551939  0.50762151  0.36949983  1
  La3+  La52  1  0.49878015  0.82920521  0.36637817  1
  La3+  La53  1  0.00251204  0.49548862  0.12550681  1
  La3+  La54  1  0.50108620  0.83566661  0.86962429  1
  La3+  La55  1  0.00322915  0.82512950  0.10665103  1
  La3+  La56  1  0.50808817  0.48925161  0.63715471  1
  La3+  La57  1  0.50076476  0.49829969  0.37695970  1
  La3+  La58  1  -0.00297924  0.50717723  0.87893659  1
  La3+  La59  1  0.49785826  0.83507170  0.38791352  1
  La3+  La60  1  0.50079451  0.50078552  0.36046285  1
  La3+  La61  1  -0.00097860  0.50083832  0.38882560  1
  La3+  La62  1  -0.00440775  0.16238545  0.14734930  1
  La3+  La63  1  0.49578019  0.49948356  0.87640939  1
  La3+  La64  1  0.00402086  0.82540775  0.37660396  1
  La3+  La65  1  0.00192388  0.17234631  0.87711657  1
  La3+  La66  1  0.49905635  0.16795065  0.61679417  1
  La3+  La67  1  0.50181150  0.83365983  0.12539614  1
  La3+  La68  1  0.00281259  0.16879864  0.62522571  1
  La3+  La69  1  0.49948454  0.83383075  0.62678623  1
  La3+  La70  1  0.00584338  0.83340906  0.35607391  1
  La3+  La71  1  -0.00209750  0.83442919  0.63680948  1
  La3+  La72  1  0.24936959  0.54908127  0.79480819  1
  La3+  La73  1  0.74891366  0.12229566  0.49884672  1
  La3+  La74  1  0.25045543  0.14358662  -0.06957331  1
  La3+  La75  1  0.25079089  0.53040036  0.24384770  1
  La3+  La76  1  0.25133418  0.52128878  0.00809636  1
  La3+  La77  1  0.74972542  0.85006897  0.46593018  1
  La3+  La78  1  0.74924974  0.80175438  0.76265855  1
  La3+  La79  1  0.75013619  0.49546860  0.73510713  1
  La3+  La80  1  0.75084188  0.84161360  0.04246701  1
  La3+  La81  1  0.24961604  0.84028619  0.25342539  1
  La3+  La82  1  0.25035661  0.50022164  0.45548069  1
  La3+  La83  1  0.74853813  0.90477606  0.26311133  1
  Ru4+  Ru84  1  0.00058602  -0.00463923  -0.00094240  1
  Ru4+  Ru85  1  -0.00369765  -0.00261973  0.25393803  1
  Ru4+  Ru86  1  -0.01017026  0.00042402  0.49394043  1
  Ru4+  Ru87  1  -0.00044692  -0.00078891  0.75431260  1
  Ru4+  Ru88  1  -0.00262519  0.32043477  0.00216936  1
  Ru4+  Ru89  1  0.00033473  0.33110426  0.24703487  1
  Ru4+  Ru90  1  -0.00130440  0.33320595  0.49986141  1
  Ru4+  Ru91  1  -0.00280156  0.33490875  0.75097215  1
  Ru4+  Ru92  1  0.00193613  0.66772122  -0.00008143  1
  Ru4+  Ru93  1  0.00626045  0.66036637  0.24371709  1
  Ru4+  Ru94  1  0.00056924  0.65926238  0.51094243  1
  Ru4+  Ru95  1  -0.00186495  0.66532529  0.73913418  1
  Ru4+  Ru96  1  0.50137987  0.00212151  0.00041439  1
  Ru4+  Ru97  1  0.50212197  0.00585889  0.25509054  1
  Ru4+  Ru98  1  0.49939247  0.00431661  0.50346756  1
  Ru4+  Ru99  1  0.49784698  0.00213569  0.74319412  1
  Ru4+  Ru100  1  0.50144529  0.33217600  -0.00314736  1
  Ru4+  Ru101  1  0.49691219  0.33295255  0.24949392  1
  Ru4+  Ru102  1  0.50051160  0.33361739  0.49920383  1
  Ru4+  Ru103  1  0.49880851  0.33343577  0.74986812  1
  Ru4+  Ru104  1  0.49579481  0.66324190  -0.00015088  1
  Ru4+  Ru105  1  0.50179880  0.66594557  0.24500133  1
  Ru4+  Ru106  1  0.50320129  0.66585696  0.50296952  1
  Ru4+  Ru107  1  0.50136921  0.66334718  0.74895883  1
  Ru4+  Ru108  1  0.10748619  0.17013656  -0.00065073  1
  Ru4+  Ru109  1  0.11244231  0.16480512  0.24860564  1
  Ru4+  Ru110  1  0.11264796  0.16512059  0.49991755  1
  Ru4+  Ru111  1  0.11509352  0.16659266  0.75143624  1
  Ru4+  Ru112  1  0.11466494  0.50676922  -0.00410315  1
  Ru4+  Ru113  1  0.11151703  0.50097953  0.25042785  1
  Ru4+  Ru114  1  0.10625298  0.50039636  0.50015289  1
  Ru4+  Ru115  1  0.10905809  0.50095313  0.74817354  1
  Ru4+  Ru116  1  0.11012714  0.83312212  -0.00314462  1
  Ru4+  Ru117  1  0.11164893  0.83517294  0.24573618  1
  Ru4+  Ru118  1  0.11591834  0.83336416  0.50332795  1
  Ru4+  Ru119  1  0.11279645  0.83824984  0.75182877  1
  Ru4+  Ru120  1  0.60905879  0.16617978  -0.00094590  1
  Ru4+  Ru121  1  0.61325065  0.15851242  0.25165006  1
  Ru4+  Ru122  1  0.60983948  0.16634777  0.49807409  1
  Ru4+  Ru123  1  0.61217934  0.17151336  0.75158083  1
  Ru4+  Ru124  1  0.61411031  0.49981629  -0.00031244  1
  Ru4+  Ru125  1  0.61417022  0.49501161  0.24905201  1
  Ru4+  Ru126  1  0.61508758  0.49630613  0.49833255  1
  Ru4+  Ru127  1  0.60836357  0.49854112  0.75161878  1
  Ru4+  Ru128  1  0.61179502  0.83266694  0.00053288  1
  Ru4+  Ru129  1  0.61100326  0.82849743  0.24868787  1
  Ru4+  Ru130  1  0.61408717  0.83098589  0.50157663  1
  Ru4+  Ru131  1  0.60959692  0.83233986  0.75001674  1
  Ru4+  Ru132  1  0.39107051  0.16602468  0.00187507  1
  Ru4+  Ru133  1  0.38761927  0.16384415  0.25005396  1
  Ru4+  Ru134  1  0.38514233  0.16679867  0.49896192  1
  Ru4+  Ru135  1  0.39147082  0.17027141  0.75463007  1
  Ru4+  Ru136  1  0.39483163  0.50420397  -0.00012525  1
  Ru4+  Ru137  1  0.38988466  0.49896052  0.24944882  1
  Ru4+  Ru138  1  0.39250695  0.48748405  0.50171408  1
  Ru4+  Ru139  1  0.39197541  0.50351711  0.74917254  1
  Ru4+  Ru140  1  0.38841360  0.83404029  0.00074790  1
  Ru4+  Ru141  1  0.38764420  0.83124891  0.25034921  1
  Ru4+  Ru142  1  0.38379223  0.83408470  0.50092486  1
  Ru4+  Ru143  1  0.38820871  0.83122356  0.75234925  1
  Ru4+  Ru144  1  0.88857826  0.16876522  -0.00014170  1
  Ru4+  Ru145  1  0.88557666  0.16427559  0.24873443  1
  Ru4+  Ru146  1  0.89629238  0.16243500  0.49353300  1
  Ru4+  Ru147  1  0.88632540  0.16977926  0.75053099  1
  Ru4+  Ru148  1  0.88630845  0.50904829  0.00150511  1
  Ru4+  Ru149  1  0.88785070  0.49686174  0.25328758  1
  Ru4+  Ru150  1  0.88852687  0.49716940  0.49708972  1
  Ru4+  Ru151  1  0.88851464  0.50247348  0.74745506  1
  Ru4+  Ru152  1  0.88886635  0.83523513  0.00160702  1
  Ru4+  Ru153  1  0.88741094  0.84022392  0.24909810  1
  Ru4+  Ru154  1  0.88849411  0.83471272  0.50679780  1
  Ru4+  Ru155  1  0.89068690  0.83457299  0.75138293  1
  Ru4+  Ru156  1  0.75093199  0.73182324  0.24525564  1
  Ru4+  Ru157  1  0.24976682  0.69602868  0.23901618  1
  Ru4+  Ru158  1  0.24960098  0.90753978  -0.00025846  1
  Ru4+  Ru159  1  0.24864053  0.40857799  0.73651709  1
  Ru4+  Ru160  1  0.74998278  0.24315967  0.25975320  1
  Ru4+  Ru161  1  0.75045019  0.94905069  0.75820687  1
  Ru4+  Ru162  1  0.75093814  0.27489421  0.49830374  1
  Ru4+  Ru163  1  0.75032545  0.57048919  0.24107384  1
  Ru4+  Ru164  1  0.24998378  0.04443208  0.04314657  1
  Ru4+  Ru165  1  0.24955307  0.75606668  0.73673288  1
  Ru4+  Ru166  1  0.75095889  0.67142671  0.73165200  1
  Ru4+  Ru167  1  0.75038375  0.08330805  0.00539211  1
  Ru4+  Ru168  1  0.24928041  0.38396906  0.25778607  1
  Ru4+  Ru169  1  0.25019148  0.77233640  0.00556697  1
  Ru4+  Ru170  1  0.25032608  0.39247481  0.01955530  1
  Ru4+  Ru171  1  0.24964136  0.64732760  -0.03309582  1
  Ru4+  Ru172  1  0.74943095  0.57469144  0.50197727  1
  Ru4+  Ru173  1  0.25044274  0.98058950  0.26157825  1
  Ru4+  Ru174  1  0.24920697  0.24285337  0.25549932  1
  Ru4+  Ru175  1  0.75013891  0.09959849  0.74194913  1
  Ru4+  Ru176  1  0.24980539  0.23495656  0.74214184  1
  Ru4+  Ru177  1  0.25096332  0.25147686  0.02859432  1
  Ru4+  Ru178  1  0.25056176  0.24159227  0.49632658  1
  Ru4+  Ru179  1  0.75012301  0.25888753  0.00208439  1
  O2-  O180  1  0.16359654  0.08008247  0.00020846  1
  O2-  O181  1  0.16531727  0.08040823  0.24825256  1
  O2-  O182  1  0.16221451  0.08348800  0.49919591  1
  O2-  O183  1  0.16706633  0.08210336  0.74894183  1
  O2-  O184  1  0.16427917  0.41247530  0.00451125  1
  O2-  O185  1  0.16629166  0.41192582  0.25083109  1
  O2-  O186  1  0.16793238  0.41069295  0.49609800  1
  O2-  O187  1  0.16444379  0.41325604  0.74710947  1
  O2-  O188  1  0.16913252  0.74984632  0.00092694  1
  O2-  O189  1  0.16994145  0.74326198  0.24982117  1
  O2-  O190  1  0.16679108  0.74728855  0.49803488  1
  O2-  O191  1  0.16555033  0.74785647  0.75158569  1
  O2-  O192  1  0.66619139  0.08047123  0.00011699  1
  O2-  O193  1  0.66870852  0.08242135  0.24745023  1
  O2-  O194  1  0.65886359  0.07926589  0.49953475  1
  O2-  O195  1  0.66775969  0.08274650  0.74871392  1
  O2-  O196  1  0.66329300  0.41559680  0.00011149  1
  O2-  O197  1  0.66803760  0.41375927  0.25193620  1
  O2-  O198  1  0.66672377  0.41729772  0.49944415  1
  O2-  O199  1  0.66608921  0.41380410  0.75445086  1
  O2-  O200  1  0.66669496  0.74686902  0.00216772  1
  O2-  O201  1  0.66519857  0.74485988  0.24888543  1
  O2-  O202  1  0.66802394  0.74748980  0.50155077  1
  O2-  O203  1  0.66521970  0.74229188  0.74774047  1
  O2-  O204  1  0.33532265  0.25355132  0.00066308  1
  O2-  O205  1  0.32927012  0.24868283  0.24432547  1
  O2-  O206  1  0.33117006  0.25332655  0.50109760  1
  O2-  O207  1  0.33209919  0.24960198  0.75504752  1
  O2-  O208  1  0.33416157  0.58853100  0.00177581  1
  O2-  O209  1  0.33411573  0.58766642  0.24792934  1
  O2-  O210  1  0.33364943  0.58253230  0.49674515  1
  O2-  O211  1  0.33363674  0.58684635  0.74985105  1
  O2-  O212  1  0.33292284  0.91742422  0.00113967  1
  O2-  O213  1  0.33328460  0.92223330  0.24731341  1
  O2-  O214  1  0.33279466  0.91593791  0.49979875  1
  O2-  O215  1  0.33447864  0.91395238  0.74934101  1
  O2-  O216  1  0.83486209  0.25201073  0.00011011  1
  O2-  O217  1  0.83103104  0.25323711  0.25020375  1
  O2-  O218  1  0.83492816  0.25085156  0.50067549  1
  O2-  O219  1  0.83630183  0.25220148  0.75036904  1
  O2-  O220  1  0.83020719  0.58652760  0.00419737  1
  O2-  O221  1  0.83540597  0.58722078  0.25022251  1
  O2-  O222  1  0.83234101  0.58592138  0.50077348  1
  O2-  O223  1  0.83025763  0.58698730  0.74463376  1
  O2-  O224  1  0.83038319  0.92231374  0.00061462  1
  O2-  O225  1  0.83746556  0.92373045  0.23881739  1
  O2-  O226  1  0.83279847  0.91699114  0.50132677  1
  O2-  O227  1  0.83324196  0.92199529  0.75189979  1
  O2-  O228  1  0.16762808  0.25265488  0.00385102  1
  O2-  O229  1  0.16741305  0.25242052  0.24959953  1
  O2-  O230  1  0.16703733  0.25448430  0.49935540  1
  O2-  O231  1  0.16633941  0.25075589  0.74762324  1
  O2-  O232  1  0.16797819  0.59039954  0.00131728  1
  O2-  O233  1  0.16739918  0.58771239  0.24864706  1
  O2-  O234  1  0.16815973  0.58742331  0.49673237  1
  O2-  O235  1  0.16322712  0.58884485  0.75108669  1
  O2-  O236  1  0.16632581  0.91789394  0.00210500  1
  O2-  O237  1  0.16649224  0.92324576  0.24988422  1
  O2-  O238  1  0.16521810  0.91705271  0.49879315  1
  O2-  O239  1  0.16673631  0.91600405  0.74888485  1
  O2-  O240  1  0.66459114  0.25134195  0.00045165  1
  O2-  O241  1  0.66700473  0.25113387  0.24949722  1
  O2-  O242  1  0.66921721  0.25024287  0.49676536  1
  O2-  O243  1  0.66438948  0.25064210  0.75234482  1
  O2-  O244  1  0.66401853  0.58569827  0.00116960  1
  O2-  O245  1  0.66417709  0.58606336  0.24973475  1
  O2-  O246  1  0.66500421  0.58594532  0.50258363  1
  O2-  O247  1  0.66624145  0.58825840  0.74880195  1
  O2-  O248  1  0.66781089  0.92024675  0.00108704  1
  O2-  O249  1  0.65809548  0.92465754  0.24535471  1
  O2-  O250  1  0.66365568  0.91860885  0.50076415  1
  O2-  O251  1  0.66758587  0.92277992  0.75097929  1
  O2-  O252  1  0.33491496  0.07751867  0.00067951  1
  O2-  O253  1  0.33070760  0.08048742  0.24623431  1
  O2-  O254  1  0.33718957  0.08173892  0.49946757  1
  O2-  O255  1  0.33630578  0.08453103  0.75096213  1
  O2-  O256  1  0.33752342  0.41351656  0.00215058  1
  O2-  O257  1  0.32994724  0.41410693  0.24785113  1
  O2-  O258  1  0.32609245  0.41819184  0.49705827  1
  O2-  O259  1  0.33309032  0.41764316  0.75506096  1
  O2-  O260  1  0.33212176  0.75044085  0.00300084  1
  O2-  O261  1  0.33102010  0.74571625  0.25007171  1
  O2-  O262  1  0.33431508  0.74675126  0.49879126  1
  O2-  O263  1  0.33048052  0.74856945  0.75031735  1
  O2-  O264  1  0.83381906  0.07919599  0.00070624  1
  O2-  O265  1  0.83580663  0.08304660  0.24501560  1
  O2-  O266  1  0.83633556  0.08351474  0.50377207  1
  O2-  O267  1  0.83398643  0.08157920  0.75232169  1
  O2-  O268  1  0.83377794  0.41921598  -0.00269018  1
  O2-  O269  1  0.83660065  0.41298313  0.25088084  1
  O2-  O270  1  0.83875408  0.41341395  0.50067416  1
  O2-  O271  1  0.83213332  0.41276767  0.74910101  1
  O2-  O272  1  0.83391672  0.74852331  0.00271280  1
  O2-  O273  1  0.83577603  0.74779079  0.25018055  1
  O2-  O274  1  0.83726393  0.74695956  0.50063364  1
  O2-  O275  1  0.83447786  0.74366149  0.74389367  1
  O2-  O276  1  0.98007544  0.11580817  0.50550228  1
  O2-  O277  1  0.44895390  0.75966409  0.01660699  1
  O2-  O278  1  0.44267340  0.57515067  0.69957856  1
  O2-  O279  1  0.05319092  0.23968608  0.51350789  1
  O2-  O280  1  0.94452796  0.57581234  0.51036014  1
  O2-  O281  1  0.03370299  0.21611154  0.04105598  1
  O2-  O282  1  0.95616761  0.42999064  0.98191686  1
  O2-  O283  1  0.54691906  0.24487438  0.73696490  1
  O2-  O284  1  0.44889769  0.09865843  0.74024471  1
  O2-  O285  1  0.44207409  0.23543634  0.51193950  1
  O2-  O286  1  0.94905178  0.09130867  0.73391842  1
  O2-  O287  1  0.54468740  0.23522079  0.01237374  1
  O2-  O288  1  0.94805958  0.76007529  0.26819541  1
  O2-  O289  1  0.44720725  0.42122092  0.74095917  1
  O2-  O290  1  0.54952123  0.90562869  0.26278815  1
  O2-  O291  1  0.45122971  0.90565517  0.98906534  1
  O2-  O292  1  0.54338556  0.22411141  0.45823679  1
  O2-  O293  1  0.96698846  0.89602450  0.20445630  1
  O2-  O294  1  0.47600946  0.45756332  0.51027380  1
  O2-  O295  1  0.45870885  0.43359118  0.75784147  1
  O2-  O296  1  0.94677409  0.24766798  0.48097262  1
  O2-  O297  1  0.54435169  0.10363140  0.72303316  1
  O2-  O298  1  0.44970398  0.90668033  0.23511559  1
  O2-  O299  1  0.47678594  0.44831475  0.49552332  1
  O2-  O300  1  0.94322446  0.58714285  0.05735506  1
  O2-  O301  1  0.95482632  0.56243636  0.49217971  1
  O2-  O302  1  0.05404635  0.08051688  0.77675178  1
  O2-  O303  1  0.94320945  0.41787395  0.77284701  1
  O2-  O304  1  0.04992303  0.90760465  0.49503323  1
  O2-  O305  1  0.05000525  0.90590203  0.98710148  1
  O2-  O306  1  0.95546987  0.75592696  0.23092178  1
  O2-  O307  1  0.55084634  0.90274114  0.01186288  1
  O2-  O308  1  0.94336639  0.91562574  0.02139977  1
  O2-  O309  1  0.53182219  0.22840388  0.49228295  1
  O2-  O310  1  0.95489380  0.09528510  0.99061681  1
  O2-  O311  1  0.54437476  0.43271650  0.98534060  1
  O2-  O312  1  0.04996352  0.42205020  0.01944323  1
  O2-  O313  1  0.94655188  0.91016107  0.45178469  1
  O2-  O314  1  0.05467502  0.43055313  0.98208657  1
  O2-  O315  1  0.95320440  0.23548915  0.73850929  1
  O2-  O316  1  0.54530280  0.89877602  0.50912950  1
  O2-  O317  1  0.54700645  0.08706223  0.48510497  1
  O2-  O318  1  0.55001006  0.75407755  0.01573055  1
  O2-  O319  1  0.54532915  0.09678218  0.98956743  1
  O2-  O320  1  0.04555054  0.42927789  0.26541719  1
  O2-  O321  1  0.44995346  0.58063891  0.47582800  1
  O2-  O322  1  0.95594748  0.44486965  -0.00744091  1
  O2-  O323  1  0.04403095  0.76318284  0.51661242  1
  O2-  O324  1  0.92165723  0.37794496  0.04502344  1
  O2-  O325  1  0.93834145  0.94216706  0.59676415  1
  O2-  O326  1  0.06633294  0.74457971  0.22592805  1
  O2-  O327  1  0.93641869  0.75008611  0.72512691  1
  O2-  O328  1  0.56363820  0.07223694  0.32051944  1
  O2-  O329  1  0.43811010  0.92167842  0.77489917  1
  O2-  O330  1  0.43448503  0.25456525  0.27078615  1
  O2-  O331  1  0.94270384  0.90246934  0.45187692  1
  O2-  O332  1  0.93734019  0.59006248  0.77115269  1
  O2-  O333  1  0.06393356  0.26440089  0.77642428  1
  O2-  O334  1  0.43635551  0.07716831  0.26848059  1
  O2-  O335  1  0.07057118  0.28124826  0.94480632  1
  O2-  O336  1  0.94759691  0.42715753  0.76640235  1
  O2-  O337  1  0.92009589  0.04922338  0.45112573  1
  O2-  O338  1  0.06077904  0.92413173  0.78027152  1
  O2-  O339  1  0.56496789  0.40647631  0.45802724  1
  O2-  O340  1  0.06442747  0.58928487  0.97217203  1
  O2-  O341  1  0.43798801  0.59303201  0.94609902  1
  O2-  O342  1  0.43038213  0.59941676  0.83152954  1
  O2-  O343  1  0.06436560  0.58717015  0.22413055  1
  O2-  O344  1  0.43790494  0.58917000  0.28535486  1
  O2-  O345  1  0.94222950  0.92290847  0.02713762  1
  O2-  O346  1  0.93860761  0.92993288  0.78138834  1
  O2-  O347  1  0.42981453  0.75556419  0.68486771  1
  O2-  O348  1  0.56188483  0.91851339  0.72726422  1
  O2-  O349  1  0.43681893  0.74036114  0.28337876  1
  O2-  O350  1  0.57974110  0.29589440  0.56929114  1
  O2-  O351  1  0.43515037  0.40353237  0.79656998  1
  O2-  O352  1  0.56638247  0.08448399  0.18399202  1
  O2-  O353  1  0.95145510  0.57754805  0.05031412  1
  O2-  O354  1  0.44919465  0.57437602  0.70068638  1
  O2-  O355  1  0.41260683  0.39586257  0.57297069  1
  O2-  O356  1  0.92734103  0.95263654  0.30425863  1
  O2-  O357  1  0.56296130  0.74274578  0.77656809  1
  O2-  O358  1  0.56393193  0.74142278  0.47401004  1
  O2-  O359  1  0.05602544  0.09147647  0.77502681  1
  O2-  O360  1  0.06402419  0.74172724  0.97502992  1
  O2-  O361  1  0.43696010  0.25363491  0.82492342  1
  O2-  O362  1  0.43971571  0.59609161  0.07805256  1
  O2-  O363  1  0.43565563  0.41253770  0.22395080  1
  O2-  O364  1  0.43515589  0.74947139  0.82633825  1
  O2-  O365  1  0.43601448  0.92359322  0.47659400  1
  O2-  O366  1  0.57565061  0.06842483  0.79403943  1
  O2-  O367  1  0.41316893  0.39796883  0.41847116  1
  O2-  O368  1  0.91953819  0.58573627  0.91850097  1
  O2-  O369  1  0.93415730  0.59933157  0.45554859  1
  O2-  O370  1  0.42993212  0.24972710  0.68586863  1
  O2-  O371  1  0.56315786  0.40796606  0.23021294  1
  O2-  O372  1  0.74908995  -0.00676950  0.42326289  1
  O2-  O373  1  0.74912374  0.32839850  0.90715587  1
  O2-  O374  1  0.75065832  0.67069113  0.44898772  1
  O2-  O375  1  0.74898079  0.01375852  0.65788986  1
  O2-  O376  1  0.74885827  0.66510952  0.85464755  1
  O2-  O377  1  0.24993215  0.32316930  0.80879986  1
  O2-  O378  1  0.25008693  -0.00731892  0.38402695  1
  O2-  O379  1  0.25018872  -0.00825590  0.91775721  1
  O2-  O380  1  0.74953820  -0.00539848  0.56490659  1
  O2-  O381  1  0.24979626  0.66672490  0.66178507  1
  O2-  O382  1  0.24877767  -0.00115331  0.59988299  1
  O2-  O383  1  0.74990737  0.33514260  0.39714923  1
  O2-  O384  1  0.75089320  0.33452402  0.59958016  1
  O2-  O385  1  0.25013509  0.67378818  0.11277634  1
  O2-  O386  1  0.25068088  0.32693396  0.92611197  1
  O2-  O387  1  0.74954966  0.32733795  0.10024040  1
  O2-  O388  1  0.74891200  0.01128292  0.33015356  1
  O2-  O389  1  0.24928452  0.33544220  0.13134645  1
  O2-  O390  1  0.74994408  0.01482386  0.86225018  1
  O2-  O391  1  0.25012720  0.65911536  0.35752601  1
  O2-  O392  1  0.74964779  0.66112527  0.14289220  1
  O2-  O393  1  0.75009735  0.65366894  0.32664137  1
  O2-  O394  1  0.25047734  0.00439488  0.82532405  1
  O2-  O395  1  0.24863683  0.32386853  0.64266448  1
  O2-  O396  1  0.74820497  0.80958579  0.92269702  1
  O2-  O397  1  0.75006699  0.16343301  0.09192283  1
  O2-  O398  1  0.74917615  0.50088796  0.95111926  1
  O2-  O399  1  0.75163603  0.87531681  0.86734343  1
  O2-  O400  1  0.24967836  0.16644698  0.11051799  1
  O2-  O401  1  0.75012095  0.81102360  0.58648735  1
  O2-  O402  1  0.74984233  0.49666061  0.33271234  1
  O2-  O403  1  0.75016576  0.86655530  0.65166166  1
  O2-  O404  1  0.74999190  0.16604821  0.93438144  1
  O2-  O405  1  0.74953035  0.50922751  0.59999035  1
  O2-  O406  1  0.74960674  0.17678048  0.81321869  1
  O2-  O407  1  0.25023805  0.49921603  0.66917589  1
  O2-  O408  1  0.24947442  0.50010189  0.58236836  1
  O2-  O409  1  0.74956859  0.50239147  0.15951658  1
  O2-  O410  1  0.24966091  0.83136117  0.66468102  1
  O2-  O411  1  0.74988160  0.50013789  0.86966586  1
  O2-  O412  1  0.75006748  0.16888238  0.63779066  1
  O2-  O413  1  0.75007147  0.50011690  0.42299250  1
  O2-  O414  1  0.25033466  0.15550015  0.66634056  1
  O2-  O415  1  0.25009798  0.16649368  0.57725291  1
  O2-  O416  1  0.75016422  0.18413383  0.36241017  1
  O2-  O417  1  0.74979033  0.80075912  0.34336954  1
  O2-  O418  1  0.74978259  0.81480484  0.16827141  1
  O2-  O419  1  0.24977951  0.17742290  0.40326516  1
  O2-  O420  1  0.03012393  0.66171592  0.85810829  1
  O2-  O421  1  0.48833100  0.33300722  0.36668553  1
  O2-  O422  1  0.97551169  0.32596826  0.13256018  1
  O2-  O423  1  0.52616074  0.65890817  0.37041373  1
  O2-  O424  1  0.47080371  0.00926460  0.87567367  1
  O2-  O425  1  0.52759947  0.65674155  0.87913991  1
  O2-  O426  1  0.97460306  0.32123187  0.88026043  1
  O2-  O427  1  0.54111244  0.00504570  0.61843201  1
  O2-  O428  1  0.95992485  0.66812928  0.62018451  1
  O2-  O429  1  0.46021517  0.67716186  0.59386261  1
  O2-  O430  1  0.04824658  0.66265264  0.63362702  1
  O2-  O431  1  0.51962258  -0.00773909  0.11917118  1
  O2-  O432  1  0.97532992  0.33962436  0.62463450  1
  O2-  O433  1  0.97440303  0.68639540  0.87158896  1
  O2-  O434  1  0.48849327  0.33460036  0.62567689  1
  O2-  O435  1  0.03060699  0.00563428  0.37108181  1
  O2-  O436  1  0.46899127  0.32387126  0.11509997  1
  O2-  O437  1  0.45430406  -0.00529057  0.62265805  1
  O2-  O438  1  0.53005182  0.32855019  0.12528694  1
  O2-  O439  1  0.52809538  -0.01262778  0.87736374  1
  O2-  O440  1  0.02474053  0.66817492  0.11793616  1
  O2-  O441  1  0.02866541  0.66284204  0.37534424  1
  O2-  O442  1  0.47784657  -0.00523058  0.37431546  1
  O2-  O443  1  0.54735238  0.66456878  0.63022944  1
