# generated using pymatgen
data_La7(Ru4O11)2
_symmetry_space_group_name_H-M   'P 1'
_cell_length_a   23.98979411
_cell_length_b   16.82904644
_cell_length_c   15.42642017
_cell_angle_alpha   89.99978761
_cell_angle_beta   89.99970578
_cell_angle_gamma   90.00086972
_symmetry_Int_Tables_number   1
_chemical_formula_structural   La7(Ru4O11)2
_chemical_formula_sum   'La84 Ru96 O264'
_cell_volume   6228.03702338
_cell_formula_units_Z   12
loop_
 _symmetry_equiv_pos_site_id
 _symmetry_equiv_pos_as_xyz
  1  'x, y, z'
loop_
 _atom_type_symbol
 _atom_type_oxidation_number
  La3+  3.0
  Ru4+  4.0
  O2-  -2.0
loop_
 _atom_site_type_symbol
 _atom_site_label
 _atom_site_symmetry_multiplicity
 _atom_site_fract_x
 _atom_site_fract_y
 _atom_site_fract_z
 _atom_site_occupancy
  La3+  La0  1  0.13713916  0.00192104  0.12447699  1
  La3+  La1  1  0.14114095  0.00105205  0.37407108  1
  La3+  La2  1  0.13890224  0.00056936  0.62348903  1
  La3+  La3  1  0.13823386  0.00146304  0.87735689  1
  La3+  La4  1  0.13840473  0.33309764  0.12542062  1
  La3+  La5  1  0.13840290  0.33347427  0.37563309  1
  La3+  La6  1  0.14008854  0.33331521  0.62561015  1
  La3+  La7  1  0.13587028  0.33165288  0.87369928  1
  La3+  La8  1  0.13864457  0.66350314  0.12278734  1
  La3+  La9  1  0.14069846  0.66596405  0.37929340  1
  La3+  La10  1  0.14270215  0.66719474  0.62405257  1
  La3+  La11  1  0.14048975  0.66512027  0.87445435  1
  La3+  La12  1  0.64047871  -0.00277171  0.12175833  1
  La3+  La13  1  0.63994137  -0.00338495  0.37691088  1
  La3+  La14  1  0.63756966  -0.00143779  0.62651676  1
  La3+  La15  1  0.64108613  -0.00076101  0.87398475  1
  La3+  La16  1  0.63747466  0.33391867  0.12493709  1
  La3+  La17  1  0.63736692  0.33455420  0.37483496  1
  La3+  La18  1  0.63774685  0.33476832  0.62375883  1
  La3+  La19  1  0.63765048  0.33325148  0.87406962  1
  La3+  La20  1  0.64139120  0.66814519  0.12450183  1
  La3+  La21  1  0.63881087  0.66800402  0.37271854  1
  La3+  La22  1  0.63893900  0.66670111  0.62633936  1
  La3+  La23  1  0.64072030  0.66712188  0.87743673  1
  La3+  La24  1  0.36234309  0.00085476  0.12490421  1
  La3+  La25  1  0.35780862  -0.00000301  0.37465652  1
  La3+  La26  1  0.36452529  -0.00301905  0.62741827  1
  La3+  La27  1  0.36483497  -0.00334968  0.87139419  1
  La3+  La28  1  0.35972946  0.33331065  0.12470058  1
  La3+  La29  1  0.36107613  0.33433528  0.37789933  1
  La3+  La30  1  0.35979859  0.33373211  0.62289785  1
  La3+  La31  1  0.36220247  0.33317331  0.87500899  1
  La3+  La32  1  0.36205873  0.66459572  0.12360457  1
  La3+  La33  1  0.35885448  0.66587414  0.37853843  1
  La3+  La34  1  0.36062598  0.67054053  0.63020987  1
  La3+  La35  1  0.36215114  0.66799666  0.86911774  1
  La3+  La36  1  0.86156383  -0.00034435  0.12339402  1
  La3+  La37  1  0.86233714  -0.00101307  0.37456998  1
  La3+  La38  1  0.86217595  -0.00111978  0.62777531  1
  La3+  La39  1  0.85911084  -0.00074040  0.87347853  1
  La3+  La40  1  0.86165532  0.33360369  0.12548204  1
  La3+  La41  1  0.86296995  0.33488512  0.37502370  1
  La3+  La42  1  0.86397798  0.33509532  0.62588115  1
  La3+  La43  1  0.86189965  0.33401673  0.87337331  1
  La3+  La44  1  0.85882672  0.66815985  0.12373802  1
  La3+  La45  1  0.86097099  0.66919817  0.37392716  1
  La3+  La46  1  0.86282017  0.66763723  0.62516234  1
  La3+  La47  1  0.86003017  0.66708206  0.87771337  1
  La3+  La48  1  0.50084469  0.49846791  0.36556221  1
  La3+  La49  1  -0.00276752  0.83631419  0.37433216  1
  La3+  La50  1  0.00018662  0.16727875  0.86469476  1
  La3+  La51  1  0.50070380  0.16572156  0.37086588  1
  La3+  La52  1  0.49923176  0.16844824  0.88804427  1
  La3+  La53  1  -0.00241245  0.50408221  0.38487917  1
  La3+  La54  1  -0.00262049  0.16684941  0.11089541  1
  La3+  La55  1  0.49697148  0.83636061  0.37882271  1
  La3+  La56  1  -0.00489516  0.83313948  0.63609528  1
  La3+  La57  1  0.49802291  0.83432448  0.62399044  1
  La3+  La58  1  0.00031732  0.16770309  0.61739361  1
  La3+  La59  1  -0.00100351  0.83200051  0.11380914  1
  La3+  La60  1  -0.00238461  0.15954739  0.38093434  1
  La3+  La61  1  0.49846077  0.16812652  0.38692798  1
  La3+  La62  1  0.00294862  0.83641150  0.61755423  1
  La3+  La63  1  -0.00107225  0.49391638  0.36520999  1
  La3+  La64  1  0.49372093  0.83552199  0.88129591  1
  La3+  La65  1  0.50116208  0.17142211  0.12525395  1
  La3+  La66  1  0.50060568  0.49781859  0.63567997  1
  La3+  La67  1  -0.00047921  0.83076520  0.88206189  1
  La3+  La68  1  -0.00111203  0.50036704  0.61905353  1
  La3+  La69  1  0.50200217  0.83078575  0.86347816  1
  La3+  La70  1  0.50259181  0.83613036  0.13690827  1
  La3+  La71  1  -0.00086996  0.83216852  0.13629025  1
  La3+  La72  1  0.75016011  0.46809036  0.52480395  1
  La3+  La73  1  0.75028126  0.16688420  0.75309142  1
  La3+  La74  1  0.75009962  0.53476491  0.00112594  1
  La3+  La75  1  0.25023889  0.86418468  0.26007579  1
  La3+  La76  1  0.74971764  0.13059921  -0.01235248  1
  La3+  La77  1  0.25011321  0.16313506  0.28540707  1
  La3+  La78  1  0.25020553  0.16656008  0.51934086  1
  La3+  La79  1  0.25016986  0.87514212  0.00757966  1
  La3+  La80  1  0.74983234  0.16143788  0.51469839  1
  La3+  La81  1  0.75021545  0.20029083  0.25044387  1
  La3+  La82  1  0.25002056  0.20966008  0.75935736  1
  La3+  La83  1  0.24993953  0.16789312  -0.01468319  1
  Ru4+  Ru84  1  -0.00281724  -0.00424740  -0.00005256  1
  Ru4+  Ru85  1  0.00110840  0.00024211  0.24812661  1
  Ru4+  Ru86  1  0.00175493  0.00229397  0.49950205  1
  Ru4+  Ru87  1  0.00111301  0.00317170  0.75183766  1
  Ru4+  Ru88  1  -0.00053069  0.34029258  0.00312398  1
  Ru4+  Ru89  1  -0.00264218  0.33932468  0.24682691  1
  Ru4+  Ru90  1  0.00264187  0.32812276  0.50183877  1
  Ru4+  Ru91  1  -0.00375284  0.33780489  0.75181086  1
  Ru4+  Ru92  1  -0.00026312  0.66273612  0.00322013  1
  Ru4+  Ru93  1  -0.00118107  0.66450955  0.24763016  1
  Ru4+  Ru94  1  0.00380838  0.66272321  0.49747643  1
  Ru4+  Ru95  1  -0.00299600  0.66383336  0.75184198  1
  Ru4+  Ru96  1  0.49968050  0.00019402  -0.00085142  1
  Ru4+  Ru97  1  0.49668706  -0.00718397  0.25066177  1
  Ru4+  Ru98  1  0.49973710  0.00037933  0.50472009  1
  Ru4+  Ru99  1  0.49827579  0.00012718  0.74751076  1
  Ru4+  Ru100  1  0.50402098  0.33538038  0.00055712  1
  Ru4+  Ru101  1  0.50112714  0.33311746  0.24744579  1
  Ru4+  Ru102  1  0.50063555  0.33289947  0.49885219  1
  Ru4+  Ru103  1  0.49938653  0.33519765  0.75289584  1
  Ru4+  Ru104  1  0.49778390  0.66283939  0.00233609  1
  Ru4+  Ru105  1  0.50223533  0.66575822  0.24916765  1
  Ru4+  Ru106  1  0.49949191  0.66551457  0.49850593  1
  Ru4+  Ru107  1  0.49842037  0.66930656  0.74934860  1
  Ru4+  Ru108  1  0.11409233  0.17026608  0.00020327  1
  Ru4+  Ru109  1  0.11607828  0.16273630  0.25212489  1
  Ru4+  Ru110  1  0.11279787  0.16538901  0.49999475  1
  Ru4+  Ru111  1  0.11367210  0.16389036  0.75003983  1
  Ru4+  Ru112  1  0.11121483  0.50162872  0.00031023  1
  Ru4+  Ru113  1  0.11295527  0.49876391  0.24965119  1
  Ru4+  Ru114  1  0.11661329  0.50089810  0.50061761  1
  Ru4+  Ru115  1  0.11471465  0.50070726  0.75001779  1
  Ru4+  Ru116  1  0.11117778  0.83134036  -0.00042109  1
  Ru4+  Ru117  1  0.11278730  0.83338456  0.24987989  1
  Ru4+  Ru118  1  0.11643620  0.83242858  0.49882789  1
  Ru4+  Ru119  1  0.11551292  0.83233319  0.75180304  1
  Ru4+  Ru120  1  0.61064721  0.16688651  -0.00050244  1
  Ru4+  Ru121  1  0.61314222  0.16930022  0.24974583  1
  Ru4+  Ru122  1  0.60994179  0.16677605  0.50003616  1
  Ru4+  Ru123  1  0.61412549  0.16702796  0.74806557  1
  Ru4+  Ru124  1  0.61078095  0.49842939  0.00066459  1
  Ru4+  Ru125  1  0.61163065  0.49974449  0.24965435  1
  Ru4+  Ru126  1  0.61151081  0.50104864  0.50002739  1
  Ru4+  Ru127  1  0.61249192  0.50002202  0.74960168  1
  Ru4+  Ru128  1  0.61396199  0.83212607  0.00063413  1
  Ru4+  Ru129  1  0.61391812  0.83021199  0.25002494  1
  Ru4+  Ru130  1  0.61290288  0.83469035  0.49992108  1
  Ru4+  Ru131  1  0.61444682  0.83466196  0.74929583  1
  Ru4+  Ru132  1  0.38797770  0.16501292  0.00080454  1
  Ru4+  Ru133  1  0.38711856  0.16837507  0.24991697  1
  Ru4+  Ru134  1  0.38760177  0.16549701  0.50050392  1
  Ru4+  Ru135  1  0.39004000  0.16753092  0.75034375  1
  Ru4+  Ru136  1  0.38931738  0.50277196  -0.00005886  1
  Ru4+  Ru137  1  0.38759784  0.49949596  0.25051124  1
  Ru4+  Ru138  1  0.38493840  0.49952036  0.49977912  1
  Ru4+  Ru139  1  0.38729033  0.50219286  0.75023720  1
  Ru4+  Ru140  1  0.38856023  0.83504646  -0.00201271  1
  Ru4+  Ru141  1  0.38896695  0.83523614  0.24958951  1
  Ru4+  Ru142  1  0.38656378  0.83173577  0.50251103  1
  Ru4+  Ru143  1  0.38847357  0.83182452  0.74931972  1
  Ru4+  Ru144  1  0.88773378  0.16593665  0.00102404  1
  Ru4+  Ru145  1  0.88791202  0.16895477  0.25015130  1
  Ru4+  Ru146  1  0.88896558  0.16523618  0.50066187  1
  Ru4+  Ru147  1  0.88755579  0.16889888  0.74921184  1
  Ru4+  Ru148  1  0.89232929  0.50109644  -0.00205879  1
  Ru4+  Ru149  1  0.88651920  0.49878257  0.24873643  1
  Ru4+  Ru150  1  0.88551981  0.50327769  0.50038492  1
  Ru4+  Ru151  1  0.88888031  0.49956831  0.75160419  1
  Ru4+  Ru152  1  0.88602147  0.83160876  -0.00042575  1
  Ru4+  Ru153  1  0.88543821  0.83134923  0.25039510  1
  Ru4+  Ru154  1  0.88345671  0.83637764  0.49894877  1
  Ru4+  Ru155  1  0.88558014  0.83489971  0.75073204  1
  Ru4+  Ru156  1  0.74993792  0.90875406  -0.00446140  1
  Ru4+  Ru157  1  0.74993069  0.06504190  0.23245624  1
  Ru4+  Ru158  1  0.24994817  0.06600645  0.74794281  1
  Ru4+  Ru159  1  0.75000965  0.26757516  0.00268317  1
  Ru4+  Ru160  1  0.74975421  0.75849061  0.49643687  1
  Ru4+  Ru161  1  0.74999308  0.39735788  -0.00005787  1
  Ru4+  Ru162  1  0.74993853  0.42473853  0.24759465  1
  Ru4+  Ru163  1  0.24982481  0.42111896  0.00883153  1
  Ru4+  Ru164  1  0.24976402  0.91588426  0.74395528  1
  Ru4+  Ru165  1  0.75000530  0.90720599  0.24914667  1
  Ru4+  Ru166  1  0.25020632  0.72219645  0.25504701  1
  Ru4+  Ru167  1  0.74974463  0.42223435  0.75375302  1
  Ru4+  Ru168  1  0.74980247  0.57481905  0.75023232  1
  Ru4+  Ru169  1  0.24990427  0.42549283  0.25221593  1
  Ru4+  Ru170  1  0.74999589  0.03632306  0.52302397  1
  Ru4+  Ru171  1  0.25006521  0.72662157  0.00202687  1
  Ru4+  Ru172  1  0.25005794  0.42258825  0.74069382  1
  Ru4+  Ru173  1  0.74990125  0.59601950  0.49021980  1
  Ru4+  Ru174  1  0.74992130  0.28227952  0.49443084  1
  Ru4+  Ru175  1  0.75004137  0.57741483  0.24673946  1
  Ru4+  Ru176  1  0.75017373  0.75704264  0.75195363  1
  Ru4+  Ru177  1  0.24994568  0.57613927  0.25717157  1
  Ru4+  Ru178  1  0.25004088  0.90621227  0.49876503  1
  Ru4+  Ru179  1  0.74985895  0.90302101  0.50088423  1
  O2-  O180  1  0.16810522  0.07856721  0.00132146  1
  O2-  O181  1  0.16835952  0.08079406  0.24705922  1
  O2-  O182  1  0.16810022  0.08087828  0.50058870  1
  O2-  O183  1  0.16614612  0.08029496  0.74991193  1
  O2-  O184  1  0.16707042  0.41406102  -0.00165745  1
  O2-  O185  1  0.16869747  0.41416917  0.24954035  1
  O2-  O186  1  0.16642645  0.41417803  0.50089658  1
  O2-  O187  1  0.16661543  0.41454333  0.75194652  1
  O2-  O188  1  0.16738941  0.74706600  0.00098811  1
  O2-  O189  1  0.16855736  0.74687512  0.25022127  1
  O2-  O190  1  0.16722157  0.74894560  0.49950820  1
  O2-  O191  1  0.16578370  0.74873420  0.75038909  1
  O2-  O192  1  0.66463830  0.07859909  0.00055481  1
  O2-  O193  1  0.66904624  0.07993494  0.24973639  1
  O2-  O194  1  0.66644338  0.07860989  0.50061137  1
  O2-  O195  1  0.66707566  0.08135801  0.75028040  1
  O2-  O196  1  0.66828943  0.41345153  -0.00022289  1
  O2-  O197  1  0.66761615  0.41462463  0.25031445  1
  O2-  O198  1  0.66696338  0.41234603  0.49843490  1
  O2-  O199  1  0.66711162  0.41454686  0.74995507  1
  O2-  O200  1  0.66438916  0.74889908  -0.00072851  1
  O2-  O201  1  0.66724034  0.74834447  0.25072267  1
  O2-  O202  1  0.66829517  0.74733648  0.49940979  1
  O2-  O203  1  0.66792412  0.74764604  0.75002032  1
  O2-  O204  1  0.33391176  0.25365562  -0.00143035  1
  O2-  O205  1  0.33255205  0.25359857  0.24954177  1
  O2-  O206  1  0.33190997  0.25328800  0.50007489  1
  O2-  O207  1  0.33560847  0.25483878  0.75086644  1
  O2-  O208  1  0.33338426  0.58528641  0.00120323  1
  O2-  O209  1  0.33162885  0.58570942  0.24908599  1
  O2-  O210  1  0.33553052  0.58450018  0.50142587  1
  O2-  O211  1  0.33451945  0.58390262  0.75008134  1
  O2-  O212  1  0.33558161  0.92195836  -0.00029428  1
  O2-  O213  1  0.33468770  0.91940183  0.24832895  1
  O2-  O214  1  0.33245002  0.91952134  0.50025927  1
  O2-  O215  1  0.33300281  0.91931621  0.75043085  1
  O2-  O216  1  0.83282243  0.25307101  -0.00077641  1
  O2-  O217  1  0.83567733  0.25357088  0.25042941  1
  O2-  O218  1  0.83462586  0.25507284  0.49972969  1
  O2-  O219  1  0.83311853  0.25189963  0.74985064  1
  O2-  O220  1  0.83531486  0.58557844  -0.00054235  1
  O2-  O221  1  0.83095211  0.58527301  0.25080293  1
  O2-  O222  1  0.83371809  0.58752614  0.50000041  1
  O2-  O223  1  0.83317392  0.58594024  0.74926497  1
  O2-  O224  1  0.83363860  0.92004890  -0.00037893  1
  O2-  O225  1  0.83280766  0.91990025  0.25045567  1
  O2-  O226  1  0.83278416  0.91870108  0.50029249  1
  O2-  O227  1  0.83256626  0.91822009  0.74975503  1
  O2-  O228  1  0.16685758  0.25384181  -0.00096436  1
  O2-  O229  1  0.16921505  0.25278801  0.24878658  1
  O2-  O230  1  0.16860818  0.25318061  0.49970256  1
  O2-  O231  1  0.16502594  0.25495027  0.75056030  1
  O2-  O232  1  0.16683153  0.58381554  -0.00047629  1
  O2-  O233  1  0.16900853  0.58591504  0.24986259  1
  O2-  O234  1  0.16687479  0.58446786  0.50135234  1
  O2-  O235  1  0.16761174  0.58442570  0.75081388  1
  O2-  O236  1  0.16491058  0.92370748  0.00055313  1
  O2-  O237  1  0.16513663  0.92011232  0.24742701  1
  O2-  O238  1  0.16723691  0.91944882  0.49979720  1
  O2-  O239  1  0.16740921  0.91952432  0.75021940  1
  O2-  O240  1  0.66798867  0.25397353  0.00021192  1
  O2-  O241  1  0.66495385  0.25432002  0.25064731  1
  O2-  O242  1  0.66652679  0.25472655  0.49966650  1
  O2-  O243  1  0.66710742  0.25134377  0.75057729  1
  O2-  O244  1  0.66404786  0.58532412  -0.00124447  1
  O2-  O245  1  0.66833848  0.58483670  0.25067198  1
  O2-  O246  1  0.66589349  0.58687615  0.49981769  1
  O2-  O247  1  0.66709423  0.58616970  0.75023286  1
  O2-  O248  1  0.66784775  0.91943654  -0.00093631  1
  O2-  O249  1  0.66643628  0.91924279  0.24983343  1
  O2-  O250  1  0.66685592  0.91806935  0.50076377  1
  O2-  O251  1  0.66654767  0.91813060  0.74913800  1
  O2-  O252  1  0.33137232  0.07966120  -0.00065172  1
  O2-  O253  1  0.33176055  0.08074466  0.24764138  1
  O2-  O254  1  0.33235062  0.08062803  0.50065541  1
  O2-  O255  1  0.33366220  0.07955979  0.75041261  1
  O2-  O256  1  0.33325354  0.41496936  -0.00157443  1
  O2-  O257  1  0.33163859  0.41458856  0.24930088  1
  O2-  O258  1  0.33262947  0.41467222  0.50091904  1
  O2-  O259  1  0.33250415  0.41354622  0.75172180  1
  O2-  O260  1  0.33174239  0.74601830  0.00187358  1
  O2-  O261  1  0.33234235  0.74576382  0.24935701  1
  O2-  O262  1  0.33483602  0.74880590  0.50047760  1
  O2-  O263  1  0.33295086  0.74841201  0.74979316  1
  O2-  O264  1  0.83442901  0.07893557  -0.00042718  1
  O2-  O265  1  0.83240174  0.07882254  0.24972535  1
  O2-  O266  1  0.83347269  0.07868656  0.49987378  1
  O2-  O267  1  0.83402964  0.07987806  0.74959075  1
  O2-  O268  1  0.83257991  0.41414634  0.00045951  1
  O2-  O269  1  0.83211666  0.41556478  0.25022934  1
  O2-  O270  1  0.83398215  0.41257264  0.49925689  1
  O2-  O271  1  0.83250609  0.41525439  0.74902083  1
  O2-  O272  1  0.83358246  0.74909485  -0.00094398  1
  O2-  O273  1  0.83275860  0.74783526  0.25112753  1
  O2-  O274  1  0.83259984  0.74773792  0.50006905  1
  O2-  O275  1  0.83256220  0.74716508  0.75014478  1
  O2-  O276  1  0.96063914  0.55495224  0.21613895  1
  O2-  O277  1  0.04495398  0.90295056  0.98496370  1
  O2-  O278  1  0.45199063  0.76496079  0.51662744  1
  O2-  O279  1  0.95422683  0.56600904  0.76308387  1
  O2-  O280  1  0.45188836  0.10803438  0.21854269  1
  O2-  O281  1  0.04390163  0.09899716  0.97957479  1
  O2-  O282  1  0.04703005  0.43033275  0.98427949  1
  O2-  O283  1  0.45413563  0.23653863  0.01283341  1
  O2-  O284  1  0.05229347  0.75451238  0.51957999  1
  O2-  O285  1  0.45206017  0.09514880  0.76476265  1
  O2-  O286  1  0.45548403  0.43180299  0.76421063  1
  O2-  O287  1  0.04717879  0.43174759  0.48973036  1
  O2-  O288  1  0.95164363  0.76228046  0.51763147  1
  O2-  O289  1  0.54397621  0.10032169  0.77964478  1
  O2-  O290  1  0.04620705  0.76356812  0.73899952  1
  O2-  O291  1  0.54495008  0.89956480  0.26349563  1
  O2-  O292  1  0.95323604  0.76462506  0.47840822  1
  O2-  O293  1  0.53744567  0.12151383  0.24280977  1
  O2-  O294  1  0.95216918  0.56577367  0.98591160  1
  O2-  O295  1  0.46296135  0.77867168  0.03496169  1
  O2-  O296  1  0.54916558  0.76232540  0.73231022  1
  O2-  O297  1  0.45625517  0.89213542  0.74187677  1
  O2-  O298  1  0.04132473  0.22354739  0.46874765  1
  O2-  O299  1  0.53447646  0.12375300  0.26096909  1
  O2-  O300  1  0.95540913  0.09830678  0.73549629  1
  O2-  O301  1  0.03953524  0.22692454  0.24274574  1
  O2-  O302  1  0.95282811  0.90522220  0.51217214  1
  O2-  O303  1  0.45356778  0.76540285  0.23696085  1
  O2-  O304  1  0.55241390  0.42539256  0.52009863  1
  O2-  O305  1  0.44950325  0.90602046  0.76395051  1
  O2-  O306  1  0.45439118  0.56735618  0.00658085  1
  O2-  O307  1  0.45612481  0.77034128  0.76011795  1
  O2-  O308  1  0.04957473  0.56831158  0.26292837  1
  O2-  O309  1  0.95143321  0.23402520  0.48882216  1
  O2-  O310  1  0.03767406  0.77507616  0.28112111  1
  O2-  O311  1  0.03943368  0.22677699  0.24287699  1
  O2-  O312  1  0.54149683  0.77866503  0.46910892  1
  O2-  O313  1  0.44998364  0.23747322  0.76798037  1
  O2-  O314  1  0.54565853  0.43501106  0.23781480  1
  O2-  O315  1  0.04611767  0.90500864  0.26174627  1
  O2-  O316  1  0.45448571  0.56761258  0.99359070  1
  O2-  O317  1  0.45387324  0.56722248  0.26273522  1
  O2-  O318  1  0.04861741  0.23655131  0.76495530  1
  O2-  O319  1  0.53695887  0.22330559  0.74027732  1
  O2-  O320  1  0.45040980  0.76180465  0.73475551  1
  O2-  O321  1  0.95131542  0.43109935  0.51490508  1
  O2-  O322  1  0.04660894  0.09671301  0.01856194  1
  O2-  O323  1  0.54973505  0.90712541  0.76292712  1
  O2-  O324  1  0.06451259  0.59856989  0.03186301  1
  O2-  O325  1  0.93536047  0.74126968  0.22094448  1
  O2-  O326  1  0.93595058  0.92892430  0.21616220  1
  O2-  O327  1  0.56539868  0.92762524  0.02585129  1
  O2-  O328  1  0.56538094  0.07436205  0.47153817  1
  O2-  O329  1  0.93781592  0.40554450  0.53277671  1
  O2-  O330  1  0.58153588  0.05586808  0.18262880  1
  O2-  O331  1  0.43696877  0.26048606  0.46623948  1
  O2-  O332  1  0.57655990  0.27599597  0.71633393  1
  O2-  O333  1  0.93616478  0.40109958  0.21787440  1
  O2-  O334  1  0.93717792  0.26159241  0.03323846  1
  O2-  O335  1  0.06458693  0.59591726  0.69721246  1
  O2-  O336  1  0.43295046  0.93380884  0.71704177  1
  O2-  O337  1  0.43586193  0.06914069  0.53203456  1
  O2-  O338  1  0.06292807  0.93061057  0.81209285  1
  O2-  O339  1  0.93650598  0.26277680  0.71545421  1
  O2-  O340  1  0.93532574  0.40141652  0.96762257  1
  O2-  O341  1  0.06741406  0.92697595  0.69637382  1
  O2-  O342  1  0.93557260  0.06955110  0.53406501  1
  O2-  O343  1  0.07205272  0.27645524  0.55380806  1
  O2-  O344  1  0.56555845  0.25907229  0.52798710  1
  O2-  O345  1  0.05797228  0.74291499  0.52721591  1
  O2-  O346  1  0.92854307  0.60910006  0.30273304  1
  O2-  O347  1  0.43533287  0.07161037  0.02647851  1
  O2-  O348  1  0.56496688  0.73889802  0.22157206  1
  O2-  O349  1  0.93661430  0.07274907  0.19728064  1
  O2-  O350  1  0.93424541  0.07486533  0.29569683  1
  O2-  O351  1  0.43649535  0.40591534  0.46599483  1
  O2-  O352  1  0.06548768  0.07249418  0.27809834  1
  O2-  O353  1  0.93556052  0.93180260  0.71723078  1
  O2-  O354  1  0.06621112  0.59347403  0.79506385  1
  O2-  O355  1  0.93706450  0.06892378  0.03263210  1
  O2-  O356  1  0.57047782  0.06456671  0.71047841  1
  O2-  O357  1  0.43265938  0.73109646  0.78307935  1
  O2-  O358  1  0.58127953  0.05573573  0.31775289  1
  O2-  O359  1  0.57044492  0.72115885  0.55449587  1
  O2-  O360  1  0.93695569  0.40254647  0.78054134  1
  O2-  O361  1  0.06521487  0.07322559  0.47178170  1
  O2-  O362  1  0.55728747  0.41684897  0.52557559  1
  O2-  O363  1  0.07695697  0.27557465  0.29042081  1
  O2-  O364  1  0.06444859  0.59284447  0.47194666  1
  O2-  O365  1  0.56547475  0.40784840  0.02767809  1
  O2-  O366  1  0.56586294  0.25840888  0.97152366  1
  O2-  O367  1  0.42847883  0.72244597  0.94631422  1
  O2-  O368  1  0.07204884  0.72154269  0.19522271  1
  O2-  O369  1  0.93536322  0.73956160  0.02750636  1
  O2-  O370  1  0.06162559  0.26321016  0.78179538  1
  O2-  O371  1  0.42729716  0.06316978  0.29455434  1
  O2-  O372  1  0.74996725  0.34901122  0.58979500  1
  O2-  O373  1  0.25014219  -0.00340506  0.64813760  1
  O2-  O374  1  0.75015619  0.33027905  0.32076411  1
  O2-  O375  1  0.74994288  0.33493826  0.84358284  1
  O2-  O376  1  0.75010749  -0.00267549  0.32509180  1
  O2-  O377  1  0.74993525  0.66608596  0.67841942  1
  O2-  O378  1  0.75010995  -0.01271466  0.41595578  1
  O2-  O379  1  0.75002682  0.66442076  0.91988874  1
  O2-  O380  1  0.74991449  -0.00008714  0.83023145  1
  O2-  O381  1  0.25004885  0.33415594  0.65913476  1
  O2-  O382  1  0.74999115  0.67380380  0.57891068  1
  O2-  O383  1  0.75010636  0.33580471  0.15752576  1
  O2-  O384  1  0.24998461  0.66751533  0.39495264  1
  O2-  O385  1  0.74986600  0.00175552  0.92122481  1
  O2-  O386  1  0.74992157  0.32988927  0.67841137  1
  O2-  O387  1  0.25007676  -0.00359603  0.84947007  1
  O2-  O388  1  0.25001040  0.66548974  0.90512340  1
  O2-  O389  1  0.75000496  0.67286956  0.40015321  1
  O2-  O390  1  0.75019815  0.35537958  0.40670149  1
  O2-  O391  1  0.75008109  0.65950016  0.09942360  1
  O2-  O392  1  0.25019788  0.33455774  0.09220139  1
  O2-  O393  1  0.24994288  0.66671833  0.65566668  1
  O2-  O394  1  0.24999380  -0.00179339  0.34710885  1
  O2-  O395  1  0.75007620  0.66738939  0.82897881  1
  O2-  O396  1  0.24994887  0.83988553  0.58897713  1
  O2-  O397  1  0.24987283  0.82528811  0.89436175  1
  O2-  O398  1  0.75015472  0.16858492  0.11506764  1
  O2-  O399  1  0.24998884  0.16869094  0.39952858  1
  O2-  O400  1  0.25001842  0.49712349  0.08831500  1
  O2-  O401  1  0.75001689  0.83248080  0.59419267  1
  O2-  O402  1  0.74993456  0.16615745  0.63724245  1
  O2-  O403  1  0.74999982  0.83658022  0.91102957  1
  O2-  O404  1  0.25003311  0.15734933  0.64444793  1
  O2-  O405  1  0.25026679  0.16642617  0.09801763  1
  O2-  O406  1  0.75002430  0.50031585  0.84378293  1
  O2-  O407  1  0.24985859  0.82671917  0.80930031  1
  O2-  O408  1  0.25019678  0.15911544  0.87039104  1
  O2-  O409  1  0.24999886  0.49907117  0.39889000  1
  O2-  O410  1  0.24995232  0.82199771  0.12659142  1
  O2-  O411  1  0.25010069  0.16694165  0.17237370  1
  O2-  O412  1  0.75000479  0.83270862  0.08053361  1
  O2-  O413  1  0.25002248  0.83714699  0.41154496  1
  O2-  O414  1  0.74997148  0.50568728  0.38603334  1
  O2-  O415  1  0.74997875  0.83138895  0.16773987  1
  O2-  O416  1  0.75010680  0.16722948  0.38544320  1
  O2-  O417  1  0.25000874  0.49629518  0.66522633  1
  O2-  O418  1  0.74994641  0.83620037  0.34104076  1
  O2-  O419  1  0.74999606  0.17172715  0.87015273  1
  O2-  O420  1  0.97635380  0.66385399  0.12306718  1
  O2-  O421  1  0.02986354  0.67300851  0.88144438  1
  O2-  O422  1  0.52769620  0.33171812  0.37435609  1
  O2-  O423  1  0.46586941  -0.00618146  0.38178350  1
  O2-  O424  1  0.45996661  0.66729451  0.37714027  1
  O2-  O425  1  0.96756690  0.67100712  0.87500158  1
  O2-  O426  1  0.02597775  0.00544013  0.61873835  1
  O2-  O427  1  0.03701469  0.33955237  0.37926971  1
  O2-  O428  1  0.52600834  -0.00517566  0.61864488  1
  O2-  O429  1  0.46579878  -0.00520267  0.13024108  1
  O2-  O430  1  0.02584574  0.66861890  0.37308501  1
  O2-  O431  1  0.03013489  -0.00697214  0.37698041  1
  O2-  O432  1  0.54019889  0.66451030  0.37316257  1
  O2-  O433  1  0.52515302  0.33749063  0.62728115  1
  O2-  O434  1  0.46663410  0.33359410  0.62562707  1
  O2-  O435  1  0.52796219  -0.00379237  0.12175462  1
  O2-  O436  1  0.52972392  -0.01117746  0.37990084  1
  O2-  O437  1  0.52621842  0.66321464  0.12123876  1
  O2-  O438  1  0.02831890  0.33265620  0.12437815  1
  O2-  O439  1  0.95932001  0.33379120  0.36990188  1
  O2-  O440  1  0.52430042  0.32709654  0.12836559  1
  O2-  O441  1  0.97137020  0.66521897  0.62531391  1
  O2-  O442  1  0.96790965  -0.00599738  0.38190116  1
  O2-  O443  1  0.52493513  0.33576472  0.87122558  1
