# generated using pymatgen
data_La7(Ru4O11)2
_symmetry_space_group_name_H-M   'P 1'
_cell_length_a   24.00192371
_cell_length_b   16.84322869
_cell_length_c   15.43447788
_cell_angle_alpha   90.00659761
_cell_angle_beta   89.99791654
_cell_angle_gamma   89.99974015
_symmetry_Int_Tables_number   1
_chemical_formula_structural   La7(Ru4O11)2
_chemical_formula_sum   'La84 Ru96 O264'
_cell_volume   6239.69463055
_cell_formula_units_Z   12
loop_
 _symmetry_equiv_pos_site_id
 _symmetry_equiv_pos_as_xyz
  1  'x, y, z'
loop_
 _atom_type_symbol
 _atom_type_oxidation_number
  La3+  3.0
  Ru4+  4.0
  O2-  -2.0
loop_
 _atom_site_type_symbol
 _atom_site_label
 _atom_site_symmetry_multiplicity
 _atom_site_fract_x
 _atom_site_fract_y
 _atom_site_fract_z
 _atom_site_occupancy
  La3+  La0  1  0.13516995  -0.00995872  0.12675171  1
  La3+  La1  1  0.15114386  -0.00321780  0.37217069  1
  La3+  La2  1  0.13538397  -0.00556407  0.62530374  1
  La3+  La3  1  0.13815366  -0.00354564  0.87938652  1
  La3+  La4  1  0.13949564  0.33369755  0.12859364  1
  La3+  La5  1  0.12979653  0.33792476  0.37278024  1
  La3+  La6  1  0.15162476  0.33071051  0.62914425  1
  La3+  La7  1  0.13655970  0.33773409  0.87077901  1
  La3+  La8  1  0.15893588  0.66373064  0.13192008  1
  La3+  La9  1  0.15166569  0.66792567  0.36699351  1
  La3+  La10  1  0.15670364  0.67065254  0.62717574  1
  La3+  La11  1  0.14714041  0.66940324  0.87677994  1
  La3+  La12  1  0.63584329  0.00238913  0.12538257  1
  La3+  La13  1  0.64559934  0.00044910  0.37890425  1
  La3+  La14  1  0.64323406  -0.00182136  0.63000125  1
  La3+  La15  1  0.63697884  0.00389607  0.87170983  1
  La3+  La16  1  0.64373646  0.31716970  0.13239569  1
  La3+  La17  1  0.63128992  0.33778432  0.37647678  1
  La3+  La18  1  0.64269736  0.33058897  0.62141370  1
  La3+  La19  1  0.65722806  0.33241940  0.87505424  1
  La3+  La20  1  0.64303296  0.66417226  0.12856227  1
  La3+  La21  1  0.62729676  0.66380106  0.37904206  1
  La3+  La22  1  0.64423001  0.66158188  0.62878550  1
  La3+  La23  1  0.63553691  0.65905995  0.86868890  1
  La3+  La24  1  0.35994369  -0.00818103  0.13132823  1
  La3+  La25  1  0.34880212  -0.00768844  0.37920226  1
  La3+  La26  1  0.36583714  -0.00804609  0.62327501  1
  La3+  La27  1  0.36779294  -0.00321675  0.87802425  1
  La3+  La28  1  0.37273128  0.33278285  0.12803956  1
  La3+  La29  1  0.37379148  0.33293078  0.36861036  1
  La3+  La30  1  0.35890345  0.33914766  0.62837484  1
  La3+  La31  1  0.36081539  0.32825720  0.87932353  1
  La3+  La32  1  0.35209447  0.66637983  0.12932214  1
  La3+  La33  1  0.34606543  0.67236310  0.37379786  1
  La3+  La34  1  0.34441254  0.67591283  0.63073628  1
  La3+  La35  1  0.36503760  0.67258732  0.87406160  1
  La3+  La36  1  0.86281896  0.00174660  0.13228154  1
  La3+  La37  1  0.85382479  -0.00619885  0.37188361  1
  La3+  La38  1  0.84893625  0.00057936  0.63249080  1
  La3+  La39  1  0.86575798  0.00379226  0.87282546  1
  La3+  La40  1  0.85838112  0.32270363  0.13076118  1
  La3+  La41  1  0.86126198  0.33880627  0.37184726  1
  La3+  La42  1  0.85303125  0.34064923  0.62084610  1
  La3+  La43  1  0.86743700  0.31830844  0.86597935  1
  La3+  La44  1  0.85129941  0.66246218  0.12931063  1
  La3+  La45  1  0.87054749  0.66946042  0.37093111  1
  La3+  La46  1  0.84745171  0.66354673  0.62299587  1
  La3+  La47  1  0.85886807  0.66579668  0.87131954  1
  La3+  La48  1  0.49816011  0.50768709  0.60206519  1
  La3+  La49  1  -0.00565383  0.83528112  0.85091171  1
  La3+  La50  1  0.00362008  0.16503399  0.10266588  1
  La3+  La51  1  -0.00190601  0.18149998  0.64441603  1
  La3+  La52  1  0.01048999  0.50575057  0.12574691  1
  La3+  La53  1  -0.00044145  0.49780576  0.13781072  1
  La3+  La54  1  0.48871707  0.51044423  0.86705074  1
  La3+  La55  1  0.49601612  0.80973831  0.13199687  1
  La3+  La56  1  -0.00509093  0.52966093  0.37253280  1
  La3+  La57  1  0.00470676  0.16259559  0.37814864  1
  La3+  La58  1  -0.00031875  0.49714913  0.86811268  1
  La3+  La59  1  0.00008927  0.16598788  0.35753583  1
  La3+  La60  1  0.00187145  0.83420652  0.60752768  1
  La3+  La61  1  0.49786871  0.14786353  0.16324963  1
  La3+  La62  1  0.01334667  0.49520297  0.62145631  1
  La3+  La63  1  0.50870064  0.50534002  0.13379394  1
  La3+  La64  1  -0.01231106  0.84080895  0.86985907  1
  La3+  La65  1  0.00632124  0.17246826  0.62834789  1
  La3+  La66  1  0.49127992  0.51803061  0.60656323  1
  La3+  La67  1  0.48894597  0.50403986  0.36042136  1
  La3+  La68  1  0.49631467  0.51860146  0.87327354  1
  La3+  La69  1  0.49286624  0.83944086  0.86910001  1
  La3+  La70  1  0.00652707  0.50306709  0.60373531  1
  La3+  La71  1  0.50291920  0.16810026  0.62197761  1
  La3+  La72  1  0.25077638  0.13121334  0.18706780  1
  La3+  La73  1  0.74649157  0.79047462  0.25393119  1
  La3+  La74  1  0.75191630  0.49578182  -0.07547452  1
  La3+  La75  1  0.74380491  0.76809960  -0.01764177  1
  La3+  La76  1  0.75417183  0.17615498  -0.00710666  1
  La3+  La77  1  0.24758794  0.20634123  -0.02444334  1
  La3+  La78  1  0.24761085  0.82450090  0.47519249  1
  La3+  La79  1  0.75269536  0.16205633  0.26822559  1
  La3+  La80  1  0.74783939  0.13723441  0.51613714  1
  La3+  La81  1  0.24777416  0.44084726  0.00190772  1
  La3+  La82  1  0.25613940  0.16272577  0.55343785  1
  La3+  La83  1  0.75171967  0.87724764  0.53263185  1
  Ru4+  Ru84  1  0.00304912  -0.00188341  0.00356307  1
  Ru4+  Ru85  1  0.00993557  -0.02636733  0.25247428  1
  Ru4+  Ru86  1  0.00445118  -0.00822031  0.49358636  1
  Ru4+  Ru87  1  -0.00671006  0.00912919  0.74411735  1
  Ru4+  Ru88  1  0.00184568  0.32960495  0.00147918  1
  Ru4+  Ru89  1  -0.01035238  0.32570404  0.24448036  1
  Ru4+  Ru90  1  -0.00926866  0.33762085  0.50323243  1
  Ru4+  Ru91  1  0.00047222  0.33713971  0.75381933  1
  Ru4+  Ru92  1  0.01522732  0.67147897  -0.00528655  1
  Ru4+  Ru93  1  0.00090611  0.68206618  0.25145086  1
  Ru4+  Ru94  1  -0.00880421  0.68477810  0.49552859  1
  Ru4+  Ru95  1  -0.00167809  0.66252600  0.76290521  1
  Ru4+  Ru96  1  0.49535122  0.00509343  -0.01644232  1
  Ru4+  Ru97  1  0.49591567  -0.03638782  0.27612633  1
  Ru4+  Ru98  1  0.49992530  -0.00288567  0.50120859  1
  Ru4+  Ru99  1  0.50049543  0.00097054  0.74342096  1
  Ru4+  Ru100  1  0.50799352  0.30983874  -0.00898999  1
  Ru4+  Ru101  1  0.49371290  0.32710067  0.24156831  1
  Ru4+  Ru102  1  0.49780903  0.33066609  0.49586185  1
  Ru4+  Ru103  1  0.51495042  0.34051387  0.75243825  1
  Ru4+  Ru104  1  0.50016660  0.67063712  0.01198826  1
  Ru4+  Ru105  1  0.49573764  0.66363513  0.24093369  1
  Ru4+  Ru106  1  0.48853777  0.68212269  0.49448317  1
  Ru4+  Ru107  1  0.51084148  0.69187676  0.73955969  1
  Ru4+  Ru108  1  0.10784170  0.16526348  -0.00539380  1
  Ru4+  Ru109  1  0.11403877  0.16667003  0.25342542  1
  Ru4+  Ru110  1  0.12164612  0.16253976  0.49014093  1
  Ru4+  Ru111  1  0.11365620  0.16255663  0.76623768  1
  Ru4+  Ru112  1  0.10961359  0.50724571  -0.00479808  1
  Ru4+  Ru113  1  0.11522288  0.50090220  0.25775536  1
  Ru4+  Ru114  1  0.11312405  0.50133442  0.48532990  1
  Ru4+  Ru115  1  0.11888023  0.50065571  0.76111822  1
  Ru4+  Ru116  1  0.10966215  0.81746393  0.01305162  1
  Ru4+  Ru117  1  0.10451513  0.84677436  0.25610942  1
  Ru4+  Ru118  1  0.10599311  0.83439635  0.50918060  1
  Ru4+  Ru119  1  0.11409468  0.82963696  0.74152761  1
  Ru4+  Ru120  1  0.60096053  0.17434753  -0.01486802  1
  Ru4+  Ru121  1  0.60913188  0.16859680  0.25354037  1
  Ru4+  Ru122  1  0.60517129  0.16719791  0.49144737  1
  Ru4+  Ru123  1  0.61232828  0.16244685  0.75349348  1
  Ru4+  Ru124  1  0.61058952  0.49882967  0.01730807  1
  Ru4+  Ru125  1  0.61123125  0.49529841  0.25034138  1
  Ru4+  Ru126  1  0.61448717  0.49097466  0.49211744  1
  Ru4+  Ru127  1  0.61201324  0.49004922  0.75356552  1
  Ru4+  Ru128  1  0.60084360  0.84276418  -0.00715355  1
  Ru4+  Ru129  1  0.60587850  0.84106344  0.24754157  1
  Ru4+  Ru130  1  0.60231506  0.83266324  0.49936996  1
  Ru4+  Ru131  1  0.60733181  0.82959473  0.74618711  1
  Ru4+  Ru132  1  0.39671505  0.15906012  0.00297279  1
  Ru4+  Ru133  1  0.38308905  0.16386361  0.25800699  1
  Ru4+  Ru134  1  0.39191362  0.16697289  0.49717112  1
  Ru4+  Ru135  1  0.38861380  0.16352992  0.74630690  1
  Ru4+  Ru136  1  0.38729305  0.49735764  -0.00144834  1
  Ru4+  Ru137  1  0.37982013  0.50206026  0.25175816  1
  Ru4+  Ru138  1  0.38009981  0.50141233  0.49159038  1
  Ru4+  Ru139  1  0.37692067  0.49421359  0.74633368  1
  Ru4+  Ru140  1  0.38421280  0.82800629  0.00045619  1
  Ru4+  Ru141  1  0.38897900  0.84927910  0.26054038  1
  Ru4+  Ru142  1  0.40301912  0.82358826  0.50318387  1
  Ru4+  Ru143  1  0.38835943  0.82961619  0.74446961  1
  Ru4+  Ru144  1  0.89122803  0.16295110  0.00388525  1
  Ru4+  Ru145  1  0.90129043  0.17293073  0.24787853  1
  Ru4+  Ru146  1  0.88497934  0.15969340  0.49666479  1
  Ru4+  Ru147  1  0.88709840  0.15698753  0.75324515  1
  Ru4+  Ru148  1  0.88977836  0.49310143  -0.00215720  1
  Ru4+  Ru149  1  0.88408088  0.48842927  0.25699822  1
  Ru4+  Ru150  1  0.89152266  0.49877810  0.48858474  1
  Ru4+  Ru151  1  0.88811772  0.49917960  0.76572821  1
  Ru4+  Ru152  1  0.89276513  0.83200916  0.01111216  1
  Ru4+  Ru153  1  0.90996415  0.81906563  0.24414869  1
  Ru4+  Ru154  1  0.89925433  0.82462814  0.49471735  1
  Ru4+  Ru155  1  0.88391437  0.83549184  0.73952832  1
  Ru4+  Ru156  1  0.25195611  0.28942859  0.44030173  1
  Ru4+  Ru157  1  0.25202578  0.25501371  0.77263428  1
  Ru4+  Ru158  1  0.75122899  0.56183568  0.50259169  1
  Ru4+  Ru159  1  0.75201876  0.93596063  0.23217015  1
  Ru4+  Ru160  1  0.75364374  0.42057922  0.71995403  1
  Ru4+  Ru161  1  0.25112389  0.07668285  0.76457747  1
  Ru4+  Ru162  1  0.25064729  0.03620652  -0.00634784  1
  Ru4+  Ru163  1  0.25158219  0.59257264  -0.00342290  1
  Ru4+  Ru164  1  0.24843296  0.89766028  0.02435480  1
  Ru4+  Ru165  1  0.75390140  0.90650322  0.00480367  1
  Ru4+  Ru166  1  0.24878769  0.57964807  0.50547532  1
  Ru4+  Ru167  1  0.74809873  0.28401954  0.49369037  1
  Ru4+  Ru168  1  0.74717351  0.73196207  0.46716571  1
  Ru4+  Ru169  1  0.25212972  0.00547511  0.51277063  1
  Ru4+  Ru170  1  0.24944170  0.27551610  0.25962410  1
  Ru4+  Ru171  1  0.74906181  0.55364146  0.24748065  1
  Ru4+  Ru172  1  0.25008997  0.90642478  0.73467653  1
  Ru4+  Ru173  1  0.74966141  0.41964269  0.07333541  1
  Ru4+  Ru174  1  0.75555563  0.31759509  -0.02959648  1
  Ru4+  Ru175  1  0.75062384  0.60964858  0.01568530  1
  Ru4+  Ru176  1  0.74909358  0.75019702  0.75587154  1
  Ru4+  Ru177  1  0.75123231  0.23825886  0.74445491  1
  Ru4+  Ru178  1  0.25056424  0.43647331  0.48676691  1
  Ru4+  Ru179  1  0.74567027  0.04008060  0.01786415  1
  O2-  O180  1  0.17196502  0.07704862  0.00070346  1
  O2-  O181  1  0.16722726  0.07895687  0.24087036  1
  O2-  O182  1  0.17618347  0.07720707  0.50854167  1
  O2-  O183  1  0.16501801  0.07529230  0.75645130  1
  O2-  O184  1  0.15581678  0.40603471  0.00077781  1
  O2-  O185  1  0.16238630  0.41012465  0.25276261  1
  O2-  O186  1  0.16930962  0.41769604  0.48170434  1
  O2-  O187  1  0.16971593  0.41628331  0.75524750  1
  O2-  O188  1  0.17087787  0.75012969  -0.00425711  1
  O2-  O189  1  0.14945462  0.75390864  0.24658677  1
  O2-  O190  1  0.15698728  0.74902173  0.49791183  1
  O2-  O191  1  0.16378522  0.74698595  0.75313270  1
  O2-  O192  1  0.66715774  0.07808315  -0.00100078  1
  O2-  O193  1  0.65971826  0.08160235  0.25118978  1
  O2-  O194  1  0.66358351  0.08329986  0.49709986  1
  O2-  O195  1  0.66407751  0.08176916  0.74649522  1
  O2-  O196  1  0.67369407  0.41901117  0.00961224  1
  O2-  O197  1  0.66030805  0.40996312  0.25258603  1
  O2-  O198  1  0.67002307  0.40956275  0.48610710  1
  O2-  O199  1  0.67313096  0.41868359  0.73189028  1
  O2-  O200  1  0.64528195  0.74670341  0.00064417  1
  O2-  O201  1  0.64838738  0.74326024  0.25836874  1
  O2-  O202  1  0.65872314  0.74593450  0.49253099  1
  O2-  O203  1  0.66470725  0.74539974  0.75195753  1
  O2-  O204  1  0.33442229  0.24271254  0.00977319  1
  O2-  O205  1  0.32875768  0.25432058  0.24902785  1
  O2-  O206  1  0.33755524  0.25247998  0.49527344  1
  O2-  O207  1  0.33821594  0.25133907  0.75339981  1
  O2-  O208  1  0.33565220  0.58529138  -0.00313172  1
  O2-  O209  1  0.32939847  0.58431811  0.24719795  1
  O2-  O210  1  0.32975881  0.58904904  0.50160189  1
  O2-  O211  1  0.33461672  0.58985099  0.75794016  1
  O2-  O212  1  0.33101080  0.91843488  0.00624744  1
  O2-  O213  1  0.32655264  0.91002820  0.24851392  1
  O2-  O214  1  0.32954832  0.91791885  0.50855626  1
  O2-  O215  1  0.33376356  0.91911225  0.74577740  1
  O2-  O216  1  0.83656839  0.25385781  -0.00148693  1
  O2-  O217  1  0.83431778  0.25047652  0.26206141  1
  O2-  O218  1  0.82875648  0.25221149  0.49024537  1
  O2-  O219  1  0.83378940  0.24527332  0.74207516  1
  O2-  O220  1  0.83453320  0.58356242  -0.00795006  1
  O2-  O221  1  0.83140991  0.57813872  0.25724646  1
  O2-  O222  1  0.83589278  0.58475031  0.49197379  1
  O2-  O223  1  0.84482443  0.58560019  0.74790917  1
  O2-  O224  1  0.83624266  0.91644879  0.00446537  1
  O2-  O225  1  0.83509347  0.91376701  0.24633922  1
  O2-  O226  1  0.84567470  0.91413278  0.50027394  1
  O2-  O227  1  0.83828307  0.92151377  0.75743218  1
  O2-  O228  1  0.15908898  0.25272005  0.00181050  1
  O2-  O229  1  0.16743455  0.25205790  0.24760239  1
  O2-  O230  1  0.17156078  0.25487511  0.49542755  1
  O2-  O231  1  0.16851805  0.24774477  0.76612274  1
  O2-  O232  1  0.16651611  0.58580012  0.00015165  1
  O2-  O233  1  0.17157068  0.58015518  0.25105174  1
  O2-  O234  1  0.16596446  0.58498868  0.49845609  1
  O2-  O235  1  0.16449434  0.58891452  0.75278513  1
  O2-  O236  1  0.16459183  0.91199561  0.00658958  1
  O2-  O237  1  0.16406878  0.91828788  0.24281029  1
  O2-  O238  1  0.16229566  0.92065928  0.50468347  1
  O2-  O239  1  0.16723666  0.92136342  0.74633611  1
  O2-  O240  1  0.66993768  0.24362938  0.00810993  1
  O2-  O241  1  0.67124257  0.25188997  0.26940681  1
  O2-  O242  1  0.66801116  0.24985858  0.49157479  1
  O2-  O243  1  0.66917384  0.24659844  0.74327973  1
  O2-  O244  1  0.66849169  0.58415402  -0.00162936  1
  O2-  O245  1  0.66460868  0.57955900  0.25690335  1
  O2-  O246  1  0.66677403  0.57853258  0.49355660  1
  O2-  O247  1  0.65972811  0.57586406  0.75096489  1
  O2-  O248  1  0.66634599  0.91697808  0.00699839  1
  O2-  O249  1  0.67005958  0.91973690  0.25037340  1
  O2-  O250  1  0.66015517  0.91952659  0.50179348  1
  O2-  O251  1  0.65927520  0.90988315  0.74982294  1
  O2-  O252  1  0.33035687  0.07754958  0.00086267  1
  O2-  O253  1  0.32904666  0.07634885  0.25265671  1
  O2-  O254  1  0.33176266  0.07865050  0.51043326  1
  O2-  O255  1  0.33344771  0.07656659  0.75691587  1
  O2-  O256  1  0.33715608  0.40391368  0.00919139  1
  O2-  O257  1  0.33497330  0.40920931  0.25337301  1
  O2-  O258  1  0.33315774  0.41242043  0.49262231  1
  O2-  O259  1  0.32624088  0.41661739  0.75393461  1
  O2-  O260  1  0.33186001  0.74524742  0.00149548  1
  O2-  O261  1  0.35241859  0.75025929  0.24643985  1
  O2-  O262  1  0.33093303  0.76292940  0.49659114  1
  O2-  O263  1  0.33328442  0.74947552  0.76084701  1
  O2-  O264  1  0.83304087  0.07312859  0.00033930  1
  O2-  O265  1  0.84297477  0.08266887  0.25117653  1
  O2-  O266  1  0.83327393  0.07756251  0.49559211  1
  O2-  O267  1  0.83004792  0.07927871  0.75423881  1
  O2-  O268  1  0.82676678  0.41567712  0.00285428  1
  O2-  O269  1  0.83252846  0.40726801  0.24854423  1
  O2-  O270  1  0.84048196  0.41450335  0.49352610  1
  O2-  O271  1  0.83413629  0.40939568  0.74761829  1
  O2-  O272  1  0.84546613  0.74208663  0.00076908  1
  O2-  O273  1  0.84031084  0.75345329  0.26357932  1
  O2-  O274  1  0.83320464  0.74656712  0.48487969  1
  O2-  O275  1  0.83428832  0.74592324  0.75287339  1
  O2-  O276  1  0.94419472  0.56825272  0.24818079  1
  O2-  O277  1  0.95269704  0.91154817  0.50337355  1
  O2-  O278  1  0.54806471  0.09664603  0.76137364  1
  O2-  O279  1  0.44750764  0.90737244  0.74133268  1
  O2-  O280  1  0.44394623  0.08813897  0.72730857  1
  O2-  O281  1  0.55483044  0.42755654  0.42664129  1
  O2-  O282  1  0.55410532  0.24968722  0.24540878  1
  O2-  O283  1  0.44441453  0.42345742  0.50905607  1
  O2-  O284  1  0.43559381  0.92728074  0.49398507  1
  O2-  O285  1  0.45195935  0.09783945  0.50385248  1
  O2-  O286  1  0.54650569  0.24148010  0.48168840  1
  O2-  O287  1  0.04267266  0.42467611  0.26894381  1
  O2-  O288  1  0.44161922  0.57579561  0.47123707  1
  O2-  O289  1  0.44365298  0.90944482  0.99602389  1
  O2-  O290  1  0.53086288  0.20070097  1.03168271  1
  O2-  O291  1  0.43738376  0.24501798  0.24172886  1
  O2-  O292  1  0.04484890  0.56535785  0.75044885  1
  O2-  O293  1  0.94807026  0.42420600  0.71457732  1
  O2-  O294  1  0.04946743  0.89484392  0.18347350  1
  O2-  O295  1  0.94615291  0.91509028  1.01390307  1
  O2-  O296  1  0.44419584  0.56390413  0.74218361  1
  O2-  O297  1  0.52889794  0.45466429  0.73980714  1
  O2-  O298  1  0.06041460  0.91991910  0.01655051  1
  O2-  O299  1  0.52650326  0.20575111  0.02764748  1
  O2-  O300  1  0.93872093  0.92799620  0.26611596  1
  O2-  O301  1  0.53405115  0.45087371  0.72425523  1
  O2-  O302  1  0.55986634  0.58892697  0.51128554  1
  O2-  O303  1  0.44687936  0.58024700  0.99134296  1
  O2-  O304  1  0.96872980  0.78474039  0.44558953  1
  O2-  O305  1  0.98526649  0.79292614  0.26376314  1
  O2-  O306  1  0.47125841  0.85175220  0.26763521  1
  O2-  O307  1  0.05957444  0.24467075  0.50174288  1
  O2-  O308  1  0.94778244  0.22961266  0.47113866  1
  O2-  O309  1  0.55965097  0.59715558  0.74967681  1
  O2-  O310  1  0.04551748  0.43273818  0.98309445  1
  O2-  O311  1  0.96220452  0.56361875  0.99447148  1
  O2-  O312  1  0.05691045  0.91618988  0.76218876  1
  O2-  O313  1  0.06079073  0.58506101  0.26729452  1
  O2-  O314  1  0.54831434  0.90071211  0.06253107  1
  O2-  O315  1  0.04626835  0.09686836  0.76943551  1
  O2-  O316  1  0.48526017  0.79109002  0.49926270  1
  O2-  O317  1  0.95447135  0.76134522  0.72779387  1
  O2-  O318  1  0.44431800  0.44691201  0.06047578  1
  O2-  O319  1  0.94822846  0.91110885  0.71149335  1
  O2-  O320  1  0.03333388  0.78497710  0.97648461  1
  O2-  O321  1  0.03650491  0.42776509  0.45331950  1
  O2-  O322  1  0.54947338  0.90837924  0.49985530  1
  O2-  O323  1  0.55461664  0.44097498  0.95237396  1
  O2-  O324  1  0.43124598  0.39380017  0.72960654  1
  O2-  O325  1  0.05411141  0.23790326  0.49457477  1
  O2-  O326  1  0.41293966  0.71139944  0.52283032  1
  O2-  O327  1  0.94516722  0.07577786  0.51372890  1
  O2-  O328  1  0.92446651  0.72957553  0.56011562  1
  O2-  O329  1  0.94397768  0.25012670  0.03686848  1
  O2-  O330  1  0.94424634  0.43063411  0.70948689  1
  O2-  O331  1  0.05984840  0.41800602  0.75660386  1
  O2-  O332  1  0.56455465  0.75064934  0.66951724  1
  O2-  O333  1  0.58540812  0.28989866  0.95273400  1
  O2-  O334  1  0.56541847  0.07032220  0.96906424  1
  O2-  O335  1  0.56339430  0.07468406  0.52149232  1
  O2-  O336  1  0.56376837  0.75172941  0.82762332  1
  O2-  O337  1  0.43452631  0.24972252  0.23514097  1
  O2-  O338  1  0.05988880  0.07805519  0.97479028  1
  O2-  O339  1  0.43598640  0.59038144  0.26770147  1
  O2-  O340  1  0.59063512  0.35259787  0.78576886  1
  O2-  O341  1  0.93767884  0.40867869  0.04975370  1
  O2-  O342  1  0.93309519  0.09413671  0.82482688  1
  O2-  O343  1  0.44200954  0.74816289  0.97955086  1
  O2-  O344  1  0.44642117  0.42682712  0.23645419  1
  O2-  O345  1  0.09483846  0.42899403  0.58212852  1
  O2-  O346  1  0.56631848  0.92261967  0.91559892  1
  O2-  O347  1  0.05461985  0.58398132  0.26340470  1
  O2-  O348  1  0.41615470  0.97167999  0.26099204  1
  O2-  O349  1  0.44634543  0.58243659  0.47237948  1
  O2-  O350  1  0.05538052  0.59367990  0.49176226  1
  O2-  O351  1  0.08341014  0.71296754  0.06673845  1
  O2-  O352  1  0.56023799  0.92395829  0.74028589  1
  O2-  O353  1  0.56423367  0.93865810  0.22093078  1
  O2-  O354  1  0.43955545  0.06587626  0.07996426  1
  O2-  O355  1  0.06626109  0.92943423  0.33252852  1
  O2-  O356  1  0.06442202  0.07100999  0.46163395  1
  O2-  O357  1  0.43488260  0.09186213  0.92798650  1
  O2-  O358  1  0.42335655  0.42510960  0.90792889  1
  O2-  O359  1  0.06030850  0.25976301  0.29224945  1
  O2-  O360  1  0.42942856  0.25849980  0.96861158  1
  O2-  O361  1  0.44156554  0.74553698  0.73469255  1
  O2-  O362  1  0.94046778  0.25291615  0.76046482  1
  O2-  O363  1  0.56279656  0.59672532  0.97114286  1
  O2-  O364  1  0.06351596  0.25429024  0.75188709  1
  O2-  O365  1  0.57856967  0.41663140  0.10370603  1
  O2-  O366  1  0.92551560  0.70784314  0.20515399  1
  O2-  O367  1  0.90958175  0.44254827  0.87666370  1
  O2-  O368  1  0.05375282  0.07874533  0.27055256  1
  O2-  O369  1  0.94600214  0.08175790  1.00377484  1
  O2-  O370  1  0.57442988  0.42099943  0.57510596  1
  O2-  O371  1  0.93329213  0.07521152  0.67468893  1
  O2-  O372  1  0.24902397  -0.00001197  0.85960778  1
  O2-  O373  1  0.74936676  0.65608009  0.70660018  1
  O2-  O374  1  0.74753489  0.65907685  0.24734810  1
  O2-  O375  1  0.75160971  0.69683423  0.10607329  1
  O2-  O376  1  0.24823248  0.00805150  0.12215961  1
  O2-  O377  1  0.74762603  -0.00483997  0.66783474  1
  O2-  O378  1  0.74882072  0.01339140  0.57724386  1
  O2-  O379  1  0.74846241  0.66400195  0.56340473  1
  O2-  O380  1  0.75280171  0.31932080  0.12705842  1
  O2-  O381  1  0.74818580  0.66984563  0.87959642  1
  O2-  O382  1  0.75088858  0.01975816  0.32632066  1
  O2-  O383  1  0.25036093  0.33561749  0.55625947  1
  O2-  O384  1  0.75967150  0.33460249  0.83416690  1
  O2-  O385  1  0.24771790  0.32029375  0.13638092  1
  O2-  O386  1  0.25057820  0.00255884  0.38805337  1
  O2-  O387  1  0.75205297  0.01725239  0.14410393  1
  O2-  O388  1  0.24911982  0.65705923  0.60684072  1
  O2-  O389  1  0.25236686  0.00847097  0.64666856  1
  O2-  O390  1  0.24952801  0.33401210  0.69898080  1
  O2-  O391  1  0.24974860  0.66627390  0.34134222  1
  O2-  O392  1  0.24714494  0.67668140  0.43349971  1
  O2-  O393  1  0.75012929  0.00368231  0.41754420  1
  O2-  O394  1  0.75027415  0.32116582  0.62970370  1
  O2-  O395  1  0.24800449  0.31965843  0.88599726  1
  O2-  O396  1  0.74952439  0.47721985  0.32680199  1
  O2-  O397  1  0.75121539  0.52886939  0.12021418  1
  O2-  O398  1  0.24933302  0.17577894  0.40889708  1
  O2-  O399  1  0.24868072  0.16882234  0.69374534  1
  O2-  O400  1  0.75175886  0.50422724  0.60069933  1
  O2-  O401  1  0.24986852  0.84821786  0.12275359  1
  O2-  O402  1  0.24854499  0.82849332  0.80507481  1
  O2-  O403  1  0.75085732  0.86097694  0.12475003  1
  O2-  O404  1  0.24937148  0.54517396  0.10750120  1
  O2-  O405  1  0.75324574  0.48788246  0.41816951  1
  O2-  O406  1  0.25057584  0.83300572  0.93953426  1
  O2-  O407  1  0.74948463  0.16746870  0.13607509  1
  O2-  O408  1  0.25072446  0.49491792  0.38925043  1
  O2-  O409  1  0.24874300  0.54211672  0.89153884  1
  O2-  O410  1  0.74785002  0.82561404  0.39405972  1
  O2-  O411  1  0.74936159  0.17315606  0.83930365  1
  O2-  O412  1  0.75072534  0.86007109  0.79806363  1
  O2-  O413  1  0.24767483  0.84946484  0.63474705  1
  O2-  O414  1  0.75357887  0.50717384  0.78965045  1
  O2-  O415  1  0.24968898  0.49487523  0.59243683  1
  O2-  O416  1  0.24598483  0.17481240  0.32108007  1
  O2-  O417  1  0.75108666  0.87370475  0.88760396  1
  O2-  O418  1  0.75148480  0.81262974  0.65603830  1
  O2-  O419  1  0.24834928  0.83557278  0.34838401  1
  O2-  O420  1  0.48522185  0.65053401  0.62222607  1
  O2-  O421  1  0.00382240  0.64521263  0.11980753  1
  O2-  O422  1  0.45042579  0.29115891  0.58848892  1
  O2-  O423  1  0.48198929  0.32230395  0.11352011  1
  O2-  O424  1  0.93799106  0.30186877  0.59183461  1
  O2-  O425  1  0.50680822  0.00371621  0.62249789  1
  O2-  O426  1  0.47956921  -0.01468000  0.86195998  1
  O2-  O427  1  0.02793609  0.33093104  0.63307688  1
  O2-  O428  1  0.54879217  0.28622466  0.65403240  1
  O2-  O429  1  0.01453468  0.68001762  0.37601425  1
  O2-  O430  1  0.47928970  0.65983577  0.86535804  1
  O2-  O431  1  0.54647806  0.67009128  0.13227439  1
  O2-  O432  1  0.03161338  0.32704230  0.12335989  1
  O2-  O433  1  0.98708684  0.63800225  0.63108014  1
  O2-  O434  1  0.47420587  0.33546096  0.37551842  1
  O2-  O435  1  0.95473721  0.67612929  0.87679653  1
  O2-  O436  1  0.49500826  0.32453461  0.86601975  1
  O2-  O437  1  0.98237825  -0.02335182  0.87156334  1
  O2-  O438  1  0.98804072  0.32960053  0.88174289  1
  O2-  O439  1  0.44924421  0.67619143  0.12891187  1
  O2-  O440  1  0.49992835  0.68795123  0.36148570  1
  O2-  O441  1  0.03111717  0.00128995  0.62231888  1
  O2-  O442  1  0.49533893  0.01698480  0.37715474  1
  O2-  O443  1  0.05114346  0.66144754  0.87288862  1
