# generated using pymatgen
data_La7(Ru4O11)2
_symmetry_space_group_name_H-M   'P 1'
_cell_length_a   23.99238849
_cell_length_b   16.83209016
_cell_length_c   15.42844845
_cell_angle_alpha   89.99868079
_cell_angle_beta   89.99984971
_cell_angle_gamma   90.00091415
_symmetry_Int_Tables_number   1
_chemical_formula_structural   La7(Ru4O11)2
_chemical_formula_sum   'La84 Ru96 O264'
_cell_volume   6230.65619168
_cell_formula_units_Z   12
loop_
 _symmetry_equiv_pos_site_id
 _symmetry_equiv_pos_as_xyz
  1  'x, y, z'
loop_
 _atom_type_symbol
 _atom_type_oxidation_number
  La3+  3.0
  Ru4+  4.0
  O2-  -2.0
loop_
 _atom_site_type_symbol
 _atom_site_label
 _atom_site_symmetry_multiplicity
 _atom_site_fract_x
 _atom_site_fract_y
 _atom_site_fract_z
 _atom_site_occupancy
  La3+  La0  1  0.14273109  0.00329784  0.12399990  1
  La3+  La1  1  0.14307961  0.00025470  0.37838753  1
  La3+  La2  1  0.13655947  -0.00050620  0.62071237  1
  La3+  La3  1  0.13629117  0.00005128  0.87843275  1
  La3+  La4  1  0.14219376  0.33278677  0.12554072  1
  La3+  La5  1  0.13942215  0.33413811  0.36914216  1
  La3+  La6  1  0.13439690  0.33345967  0.62549978  1
  La3+  La7  1  0.13628084  0.32724050  0.88330227  1
  La3+  La8  1  0.14100338  0.66327346  0.12623381  1
  La3+  La9  1  0.13967361  0.66275269  0.37694995  1
  La3+  La10  1  0.13173145  0.66540578  0.62026900  1
  La3+  La11  1  0.13377602  0.66721763  0.87710193  1
  La3+  La12  1  0.63934369  0.00203494  0.12775531  1
  La3+  La13  1  0.64433864  -0.00091296  0.37034412  1
  La3+  La14  1  0.63981918  -0.00053494  0.62696038  1
  La3+  La15  1  0.64113349  0.00113588  0.87781865  1
  La3+  La16  1  0.63738121  0.33309336  0.12844618  1
  La3+  La17  1  0.63840410  0.33571550  0.37098635  1
  La3+  La18  1  0.64391759  0.33333097  0.62930399  1
  La3+  La19  1  0.64399541  0.33258088  0.87131901  1
  La3+  La20  1  0.63999408  0.66637249  0.12458312  1
  La3+  La21  1  0.63855781  0.66749557  0.37437484  1
  La3+  La22  1  0.63427239  0.66679951  0.62501568  1
  La3+  La23  1  0.63830461  0.66263717  0.87548231  1
  La3+  La24  1  0.35786469  0.00312760  0.12022676  1
  La3+  La25  1  0.35337992  0.00116992  0.37692480  1
  La3+  La26  1  0.35971530  -0.00403849  0.62302160  1
  La3+  La27  1  0.36239355  0.00262822  0.87450927  1
  La3+  La28  1  0.35897008  0.33662707  0.12378261  1
  La3+  La29  1  0.36052539  0.33775893  0.36662763  1
  La3+  La30  1  0.36515812  0.33274703  0.62990427  1
  La3+  La31  1  0.36663835  0.33545881  0.87644540  1
  La3+  La32  1  0.36311474  0.66016998  0.12869409  1
  La3+  La33  1  0.36431214  0.66103926  0.37149759  1
  La3+  La34  1  0.35577315  0.67257194  0.62979339  1
  La3+  La35  1  0.35565746  0.67106138  0.88462815  1
  La3+  La36  1  0.86367513  0.00110552  0.12779500  1
  La3+  La37  1  0.85432215  0.00096752  0.36795289  1
  La3+  La38  1  0.86013494  0.00283595  0.63052030  1
  La3+  La39  1  0.85825693  0.00006477  0.87213495  1
  La3+  La40  1  0.86480752  0.32934873  0.12492675  1
  La3+  La41  1  0.85785661  0.33293587  0.37362251  1
  La3+  La42  1  0.85453657  0.33322548  0.63071173  1
  La3+  La43  1  0.85674398  0.33242344  0.87117971  1
  La3+  La44  1  0.85744795  0.66405114  0.12481756  1
  La3+  La45  1  0.86075915  0.66726103  0.37245824  1
  La3+  La46  1  0.86634581  0.66581819  0.62474367  1
  La3+  La47  1  0.85325870  0.66222715  0.87368198  1
  La3+  La48  1  0.50165664  0.49835245  0.61239371  1
  La3+  La49  1  0.49564374  0.49990865  0.13997502  1
  La3+  La50  1  0.50519316  0.49060187  0.36796903  1
  La3+  La51  1  -0.00241684  0.16947912  0.88046737  1
  La3+  La52  1  0.00065429  0.49033532  0.14169815  1
  La3+  La53  1  0.49479635  0.49786025  0.12296582  1
  La3+  La54  1  0.50016974  0.16405599  0.10816945  1
  La3+  La55  1  -0.00293784  0.50601825  0.86569415  1
  La3+  La56  1  0.49863204  0.16664998  0.35605765  1
  La3+  La57  1  -0.00088327  0.50493632  0.37678125  1
  La3+  La58  1  0.50344143  0.49663814  0.62857980  1
  La3+  La59  1  0.49943996  0.16922271  0.87801465  1
  La3+  La60  1  0.00835833  0.18471461  0.12454129  1
  La3+  La61  1  0.49769428  0.82698550  0.86840626  1
  La3+  La62  1  0.50048697  0.50135589  0.87256300  1
  La3+  La63  1  0.50093915  0.50102285  0.35726472  1
  La3+  La64  1  0.50430148  0.17170145  0.37586511  1
  La3+  La65  1  0.49588357  0.15678594  0.12815560  1
  La3+  La66  1  -0.00243140  0.16397983  0.62194006  1
  La3+  La67  1  0.00259035  0.83199167  0.36685251  1
  La3+  La68  1  0.00770574  0.49071202  0.12214547  1
  La3+  La69  1  0.49804682  0.16358861  0.62162922  1
  La3+  La70  1  -0.00016453  0.17264558  0.64188711  1
  La3+  La71  1  0.00089893  0.16451743  0.37687276  1
  La3+  La72  1  0.25106773  0.15881454  0.80431469  1
  La3+  La73  1  0.24837580  0.51193705  0.45221181  1
  La3+  La74  1  0.75039470  0.10838385  0.50750499  1
  La3+  La75  1  0.24902917  0.54727185  0.81756690  1
  La3+  La76  1  0.24869842  0.76170987  0.77036921  1
  La3+  La77  1  0.74985326  0.12600247  -0.04367871  1
  La3+  La78  1  0.75005638  0.83525729  0.25986660  1
  La3+  La79  1  0.24945723  0.87899465  0.21153845  1
  La3+  La80  1  0.75200138  0.87451616  0.00583461  1
  La3+  La81  1  0.24887961  0.86960618  0.01445246  1
  La3+  La82  1  0.74886633  0.78733356  0.74181746  1
  La3+  La83  1  0.25022167  0.84575734  0.46182574  1
  Ru4+  Ru84  1  -0.00590783  0.00634756  -0.01122326  1
  Ru4+  Ru85  1  -0.00208230  -0.00602057  0.25001655  1
  Ru4+  Ru86  1  -0.00017304  -0.00812832  0.49339841  1
  Ru4+  Ru87  1  0.00456531  -0.00877675  0.75631169  1
  Ru4+  Ru88  1  -0.00088039  0.33294252  -0.00070092  1
  Ru4+  Ru89  1  0.00107041  0.32884881  0.24769144  1
  Ru4+  Ru90  1  0.00396698  0.33940892  0.50269664  1
  Ru4+  Ru91  1  0.00008030  0.33688386  0.74558212  1
  Ru4+  Ru92  1  -0.01061673  0.68930091  -0.00580454  1
  Ru4+  Ru93  1  -0.00230367  0.67133664  0.25015503  1
  Ru4+  Ru94  1  -0.00075834  0.67664168  0.50891159  1
  Ru4+  Ru95  1  -0.00252456  0.66713131  0.74949483  1
  Ru4+  Ru96  1  0.49604181  -0.00311404  -0.00242921  1
  Ru4+  Ru97  1  0.50075783  -0.00533498  0.24549016  1
  Ru4+  Ru98  1  0.50201151  -0.00559842  0.50726700  1
  Ru4+  Ru99  1  0.50040805  -0.00278706  0.74922865  1
  Ru4+  Ru100  1  0.50404950  0.32750314  -0.00500766  1
  Ru4+  Ru101  1  0.49467572  0.32306593  0.24382466  1
  Ru4+  Ru102  1  0.49860601  0.33660258  0.50567749  1
  Ru4+  Ru103  1  0.50432871  0.32134508  0.75522943  1
  Ru4+  Ru104  1  0.50162948  0.67255720  0.00423218  1
  Ru4+  Ru105  1  0.50474388  0.67781807  0.25023925  1
  Ru4+  Ru106  1  0.50218674  0.67692293  0.49883232  1
  Ru4+  Ru107  1  0.50325023  0.67109503  0.74420242  1
  Ru4+  Ru108  1  0.11840298  0.16593991  0.00066754  1
  Ru4+  Ru109  1  0.11290949  0.16461336  0.24902890  1
  Ru4+  Ru110  1  0.11410916  0.16741796  0.49834238  1
  Ru4+  Ru111  1  0.11317565  0.16426232  0.74844597  1
  Ru4+  Ru112  1  0.11445389  0.50432739  -0.00195717  1
  Ru4+  Ru113  1  0.11877796  0.49843360  0.25119669  1
  Ru4+  Ru114  1  0.11202702  0.49488156  0.50029819  1
  Ru4+  Ru115  1  0.10936424  0.50035616  0.75057453  1
  Ru4+  Ru116  1  0.10712914  0.83240816  0.00205549  1
  Ru4+  Ru117  1  0.10814191  0.83283288  0.24799831  1
  Ru4+  Ru118  1  0.10743748  0.83045268  0.49982049  1
  Ru4+  Ru119  1  0.10644399  0.83387461  0.74876603  1
  Ru4+  Ru120  1  0.61206274  0.16523216  -0.00059523  1
  Ru4+  Ru121  1  0.62042008  0.16426027  0.24733877  1
  Ru4+  Ru122  1  0.61383150  0.16683925  0.50223575  1
  Ru4+  Ru123  1  0.61499633  0.16579399  0.75053658  1
  Ru4+  Ru124  1  0.61145237  0.50229395  0.00188604  1
  Ru4+  Ru125  1  0.61857711  0.50632251  0.24809416  1
  Ru4+  Ru126  1  0.61537546  0.50124810  0.50164966  1
  Ru4+  Ru127  1  0.61414074  0.49896614  0.75042514  1
  Ru4+  Ru128  1  0.60984518  0.83136401  0.00496494  1
  Ru4+  Ru129  1  0.61144930  0.83203984  0.24967197  1
  Ru4+  Ru130  1  0.60732220  0.83312589  0.49951953  1
  Ru4+  Ru131  1  0.60651273  0.83819432  0.74917558  1
  Ru4+  Ru132  1  0.38281534  0.16786146  -0.00164800  1
  Ru4+  Ru133  1  0.38947933  0.16679564  0.24675856  1
  Ru4+  Ru134  1  0.38373919  0.16225377  0.50638477  1
  Ru4+  Ru135  1  0.39097966  0.16458881  0.74879502  1
  Ru4+  Ru136  1  0.38463142  0.50527545  0.00048764  1
  Ru4+  Ru137  1  0.37708276  0.50029268  0.24892898  1
  Ru4+  Ru138  1  0.38744773  0.50222335  0.50551705  1
  Ru4+  Ru139  1  0.38638556  0.50701753  0.75225889  1
  Ru4+  Ru140  1  0.38933698  0.83367370  -0.00101262  1
  Ru4+  Ru141  1  0.38895975  0.83069910  0.24972689  1
  Ru4+  Ru142  1  0.39127436  0.82854316  0.49962549  1
  Ru4+  Ru143  1  0.39302950  0.83405909  0.74886506  1
  Ru4+  Ru144  1  0.88848261  0.16023837  -0.00226584  1
  Ru4+  Ru145  1  0.88479947  0.16479205  0.25125099  1
  Ru4+  Ru146  1  0.88904675  0.16383448  0.49755973  1
  Ru4+  Ru147  1  0.88126399  0.16869329  0.75230756  1
  Ru4+  Ru148  1  0.88634841  0.50648718  -0.00624167  1
  Ru4+  Ru149  1  0.88554240  0.50134992  0.25374842  1
  Ru4+  Ru150  1  0.88606883  0.50287002  0.50070420  1
  Ru4+  Ru151  1  0.88677107  0.49793451  0.74990477  1
  Ru4+  Ru152  1  0.89914255  0.81972495  -0.00120729  1
  Ru4+  Ru153  1  0.88878636  0.83393459  0.24946830  1
  Ru4+  Ru154  1  0.88904977  0.83310052  0.49894298  1
  Ru4+  Ru155  1  0.89166192  0.82806915  0.75236254  1
  Ru4+  Ru156  1  0.25046112  0.64746936  0.50473164  1
  Ru4+  Ru157  1  0.24996123  0.23305523  0.51014751  1
  Ru4+  Ru158  1  0.24996492  0.71754817  0.01208219  1
  Ru4+  Ru159  1  0.75103056  0.57968452  0.25321100  1
  Ru4+  Ru160  1  0.25058539  0.23952266  0.24903076  1
  Ru4+  Ru161  1  0.24969211  0.41718180  0.00983452  1
  Ru4+  Ru162  1  0.74971093  0.42692889  -0.00465291  1
  Ru4+  Ru163  1  0.24930637  0.92013584  0.76399837  1
  Ru4+  Ru164  1  0.75034008  0.25597862  0.50870523  1
  Ru4+  Ru165  1  0.74934726  0.72105567  -0.00067098  1
  Ru4+  Ru166  1  0.24986794  0.04631642  0.71851967  1
  Ru4+  Ru167  1  0.75023821  0.90957733  0.49447623  1
  Ru4+  Ru168  1  0.75019651  0.57685797  0.74856368  1
  Ru4+  Ru169  1  0.75034431  0.93567334  0.77000037  1
  Ru4+  Ru170  1  0.25037747  0.09103100  0.24700984  1
  Ru4+  Ru171  1  0.24975841  0.27419851  0.73173658  1
  Ru4+  Ru172  1  0.75033125  0.58132627  0.49765028  1
  Ru4+  Ru173  1  0.25004198  0.38195410  0.52724999  1
  Ru4+  Ru174  1  0.75015097  0.43456637  0.50106121  1
  Ru4+  Ru175  1  0.75028183  0.42169566  0.24730875  1
  Ru4+  Ru176  1  0.24914516  0.41258034  0.75962725  1
  Ru4+  Ru177  1  0.24968390  0.72628027  0.25312784  1
  Ru4+  Ru178  1  0.75022185  0.26955603  0.01741964  1
  Ru4+  Ru179  1  0.74992759  0.75437378  0.50358809  1
  O2-  O180  1  0.16262029  0.07821803  -0.00230078  1
  O2-  O181  1  0.16787402  0.08152482  0.24995563  1
  O2-  O182  1  0.16524031  0.08016902  0.50329493  1
  O2-  O183  1  0.16719671  0.07678132  0.75156968  1
  O2-  O184  1  0.16743156  0.41302251  -0.00228908  1
  O2-  O185  1  0.16758788  0.41352689  0.25092662  1
  O2-  O186  1  0.16622224  0.41048685  0.50135822  1
  O2-  O187  1  0.16343410  0.41548056  0.75208549  1
  O2-  O188  1  0.16819239  0.74669434  0.00166021  1
  O2-  O189  1  0.16461400  0.74745547  0.24871835  1
  O2-  O190  1  0.16897332  0.74567606  0.50369389  1
  O2-  O191  1  0.15725224  0.74291754  0.74603028  1
  O2-  O192  1  0.66465481  0.07854050  0.00614392  1
  O2-  O193  1  0.66856420  0.08065316  0.24758233  1
  O2-  O194  1  0.65931506  0.07409408  0.49856672  1
  O2-  O195  1  0.66180575  0.08099568  0.74958195  1
  O2-  O196  1  0.66642998  0.41360027  0.00314645  1
  O2-  O197  1  0.66674561  0.41521701  0.24471964  1
  O2-  O198  1  0.66802084  0.41497926  0.49910424  1
  O2-  O199  1  0.66324605  0.41616263  0.75023025  1
  O2-  O200  1  0.66627226  0.74695319  0.00020886  1
  O2-  O201  1  0.66628485  0.74765782  0.24741758  1
  O2-  O202  1  0.66657691  0.74693968  0.50116295  1
  O2-  O203  1  0.65922223  0.74215964  0.74995511  1
  O2-  O204  1  0.33752568  0.25579366  -0.00040140  1
  O2-  O205  1  0.33383804  0.25287080  0.24877873  1
  O2-  O206  1  0.33393466  0.25186402  0.50231217  1
  O2-  O207  1  0.33394000  0.25577029  0.74975570  1
  O2-  O208  1  0.33267578  0.58538013  0.00242343  1
  O2-  O209  1  0.33357822  0.58920626  0.24931411  1
  O2-  O210  1  0.32868686  0.58906236  0.49647485  1
  O2-  O211  1  0.32887043  0.58643687  0.74663972  1
  O2-  O212  1  0.33289610  0.91975074  -0.00170501  1
  O2-  O213  1  0.33313110  0.92192477  0.25021603  1
  O2-  O214  1  0.33114986  0.91607995  0.50234380  1
  O2-  O215  1  0.33300797  0.91780748  0.75362555  1
  O2-  O216  1  0.83221477  0.25225623  -0.00088061  1
  O2-  O217  1  0.83836411  0.25349912  0.24928009  1
  O2-  O218  1  0.83509198  0.25537547  0.49887675  1
  O2-  O219  1  0.83607832  0.25346405  0.75131769  1
  O2-  O220  1  0.83175147  0.58218545  0.00517546  1
  O2-  O221  1  0.83162803  0.58596260  0.25022555  1
  O2-  O222  1  0.83237595  0.58502293  0.49928703  1
  O2-  O223  1  0.83007716  0.58456563  0.74446912  1
  O2-  O224  1  0.84351945  0.91669771  0.00353404  1
  O2-  O225  1  0.83099966  0.91715222  0.24460247  1
  O2-  O226  1  0.83433582  0.91796376  0.50093837  1
  O2-  O227  1  0.83540923  0.91656319  0.74841781  1
  O2-  O228  1  0.16777068  0.25356376  0.00043874  1
  O2-  O229  1  0.16748098  0.25051214  0.25023797  1
  O2-  O230  1  0.16755692  0.25129421  0.50105720  1
  O2-  O231  1  0.16670259  0.25566920  0.75310917  1
  O2-  O232  1  0.16586584  0.58636595  0.00039816  1
  O2-  O233  1  0.16332906  0.58716856  0.24843086  1
  O2-  O234  1  0.16668480  0.58855039  0.50305161  1
  O2-  O235  1  0.16848332  0.58878704  0.74608148  1
  O2-  O236  1  0.15986814  0.92082599  -0.00523959  1
  O2-  O237  1  0.16257205  0.92248642  0.25067937  1
  O2-  O238  1  0.16598139  0.91590200  0.50280438  1
  O2-  O239  1  0.16371592  0.91975028  0.75256784  1
  O2-  O240  1  0.66752141  0.25496407  0.00406900  1
  O2-  O241  1  0.66534720  0.25741296  0.24724467  1
  O2-  O242  1  0.66536072  0.25512771  0.49910883  1
  O2-  O243  1  0.66079321  0.25144913  0.74937684  1
  O2-  O244  1  0.66201000  0.58601750  0.00124841  1
  O2-  O245  1  0.67027409  0.58864458  0.24535610  1
  O2-  O246  1  0.66977305  0.58798629  0.49881118  1
  O2-  O247  1  0.67249457  0.58639173  0.75049172  1
  O2-  O248  1  0.66558371  0.91998763  0.00111425  1
  O2-  O249  1  0.66671432  0.91789924  0.24643653  1
  O2-  O250  1  0.66658428  0.91702901  0.50000650  1
  O2-  O251  1  0.66897414  0.91921567  0.75231417  1
  O2-  O252  1  0.33363220  0.08211895  -0.00313017  1
  O2-  O253  1  0.33219425  0.08113002  0.24911578  1
  O2-  O254  1  0.33039045  0.08427164  0.50139691  1
  O2-  O255  1  0.33269236  0.07981107  0.74877235  1
  O2-  O256  1  0.33273900  0.41641439  -0.00222176  1
  O2-  O257  1  0.33381848  0.41143726  0.24753467  1
  O2-  O258  1  0.33606273  0.41141332  0.50178483  1
  O2-  O259  1  0.33426844  0.41626751  0.75016988  1
  O2-  O260  1  0.33191155  0.75005142  0.00762127  1
  O2-  O261  1  0.33569959  0.74544710  0.24936978  1
  O2-  O262  1  0.33266940  0.74827492  0.49641800  1
  O2-  O263  1  0.33893258  0.74636185  0.75243410  1
  O2-  O264  1  0.83213711  0.07611443  0.00833557  1
  O2-  O265  1  0.83426856  0.08132492  0.24555615  1
  O2-  O266  1  0.84258657  0.07331717  0.49937870  1
  O2-  O267  1  0.83488276  0.08036974  0.74821299  1
  O2-  O268  1  0.83371052  0.41603404  0.00177725  1
  O2-  O269  1  0.83201116  0.41562451  0.24703394  1
  O2-  O270  1  0.83123394  0.41770323  0.49898585  1
  O2-  O271  1  0.83660314  0.41736888  0.75175900  1
  O2-  O272  1  0.82940252  0.74948591  0.00268734  1
  O2-  O273  1  0.83141498  0.75040944  0.24886222  1
  O2-  O274  1  0.83408930  0.74731660  0.50242818  1
  O2-  O275  1  0.83712368  0.74326913  0.74395559  1
  O2-  O276  1  0.45580361  0.57238440  0.01003761  1
  O2-  O277  1  0.44993288  0.42893603  0.25552489  1
  O2-  O278  1  0.46696876  0.54277106  0.49033237  1
  O2-  O279  1  0.95472699  0.10196485  0.76503402  1
  O2-  O280  1  0.46515137  0.89091296  0.49367376  1
  O2-  O281  1  0.44586120  0.75457541  0.98096555  1
  O2-  O282  1  0.94776642  0.42711862  0.01052922  1
  O2-  O283  1  0.04748712  0.57351491  0.24280616  1
  O2-  O284  1  0.04687014  0.90227226  0.73763037  1
  O2-  O285  1  0.04561359  0.09515167  0.50740367  1
  O2-  O286  1  0.44811344  0.75870947  0.51248146  1
  O2-  O287  1  0.04597945  0.90028166  0.23556656  1
  O2-  O288  1  0.45640273  0.41827399  0.76231672  1
  O2-  O289  1  0.97144377  0.10059414  0.04305250  1
  O2-  O290  1  0.55025577  0.75898425  0.01817594  1
  O2-  O291  1  0.46518515  0.88361394  1.01598297  1
  O2-  O292  1  0.04981174  0.43314189  0.97728981  1
  O2-  O293  1  0.54953041  0.90558606  0.96046979  1
  O2-  O294  1  0.05603111  0.24544727  0.96769528  1
  O2-  O295  1  0.96106953  0.45185904  0.50644408  1
  O2-  O296  1  0.46643203  0.55330231  0.74483419  1
  O2-  O297  1  0.96501268  0.57144054  0.03826881  1
  O2-  O298  1  0.03384435  0.77854445  0.54648716  1
  O2-  O299  1  0.05162731  0.57024856  0.48427670  1
  O2-  O300  1  0.54791012  0.43288378  0.25281791  1
  O2-  O301  1  0.04787080  0.42570304  0.76800395  1
  O2-  O302  1  0.94971687  0.09047907  0.72868789  1
  O2-  O303  1  0.54623409  0.23331365  0.23834835  1
  O2-  O304  1  0.45368815  0.11838599  0.47030396  1
  O2-  O305  1  0.45384863  0.42301578  0.02738867  1
  O2-  O306  1  0.45243332  0.56837038  0.25676467  1
  O2-  O307  1  0.55631053  0.91050488  0.48673544  1
  O2-  O308  1  0.55224049  0.76055846  0.51230420  1
  O2-  O309  1  0.45519162  0.43657212  0.99108048  1
  O2-  O310  1  0.54853946  0.76441214  0.74048785  1
  O2-  O311  1  0.46095412  0.55852342  0.72956123  1
  O2-  O312  1  0.05370832  0.42868663  0.51103071  1
  O2-  O313  1  0.46392787  0.55134265  0.47951952  1
  O2-  O314  1  0.45073394  0.76294015  0.73658458  1
  O2-  O315  1  0.54835062  0.23865050  0.49829014  1
  O2-  O316  1  0.95261742  0.90127429  0.48355660  1
  O2-  O317  1  0.54963834  0.09378386  0.51409450  1
  O2-  O318  1  0.95613842  0.23730180  0.50107397  1
  O2-  O319  1  0.97252359  0.81908300  0.97947594  1
  O2-  O320  1  0.55031227  0.23516262  0.24681652  1
  O2-  O321  1  0.05423277  0.75696005  0.02154048  1
  O2-  O322  1  0.93971449  0.24325150  0.02396604  1
  O2-  O323  1  0.03636519  0.56350497  0.70989642  1
  O2-  O324  1  0.93628543  0.92876220  0.21718257  1
  O2-  O325  1  0.42228900  0.62795623  0.56791682  1
  O2-  O326  1  0.56764907  0.92046681  0.69124057  1
  O2-  O327  1  0.94078505  0.07702297  0.28645625  1
  O2-  O328  1  0.43212159  0.91988795  0.29937557  1
  O2-  O329  1  0.92558618  0.59458690  0.92376885  1
  O2-  O330  1  0.42004648  0.94665877  0.96358001  1
  O2-  O331  1  0.43614146  0.92384319  0.77781135  1
  O2-  O332  1  0.44019762  0.07335258  0.72156929  1
  O2-  O333  1  0.42099192  0.93727080  0.46458654  1
  O2-  O334  1  0.92116583  0.06235275  0.94342018  1
  O2-  O335  1  0.93787118  0.58926871  0.28289392  1
  O2-  O336  1  0.07114784  0.73468621  0.43248209  1
  O2-  O337  1  0.06341261  0.06821958  0.71379727  1
  O2-  O338  1  0.05736955  0.24737820  0.96784504  1
  O2-  O339  1  0.43252890  0.41182557  0.77333130  1
  O2-  O340  1  0.42242716  0.63868148  0.81703711  1
  O2-  O341  1  0.94373082  0.24913098  0.01949746  1
  O2-  O342  1  0.06573052  0.25729073  0.73198344  1
  O2-  O343  1  0.44111152  0.58643655  0.28557848  1
  O2-  O344  1  0.06305414  0.25267754  0.27778703  1
  O2-  O345  1  0.56670652  0.40828844  0.52494756  1
  O2-  O346  1  0.06435970  0.41100234  0.22880032  1
  O2-  O347  1  0.93446198  0.41145588  0.23694321  1
  O2-  O348  1  0.43319412  0.91871863  0.20647383  1
  O2-  O349  1  0.56110990  0.41797727  0.28197338  1
  O2-  O350  1  0.56841746  0.59122404  0.72540956  1
  O2-  O351  1  0.07164476  0.60248406  0.79009798  1
  O2-  O352  1  0.56404781  0.92843146  0.82160852  1
  O2-  O353  1  0.56474742  0.07464800  0.27589829  1
  O2-  O354  1  0.92150380  0.39155094  0.52387396  1
  O2-  O355  1  0.44089640  0.41116365  0.28626406  1
  O2-  O356  1  0.94001279  0.74441527  0.28399254  1
  O2-  O357  1  0.92143240  0.73072177  0.92848636  1
  O2-  O358  1  0.06175912  0.59885667  0.46617177  1
  O2-  O359  1  0.43719585  0.25385609  0.77080076  1
  O2-  O360  1  0.55971529  0.07376686  0.96775271  1
  O2-  O361  1  0.43866533  0.08361207  0.01864273  1
  O2-  O362  1  0.56692111  0.59155000  0.47167931  1
  O2-  O363  1  0.93701169  0.59920634  0.46701361  1
  O2-  O364  1  0.56581048  0.59374295  0.27320620  1
  O2-  O365  1  0.56247561  0.25429575  0.97796167  1
  O2-  O366  1  0.94070373  0.73673634  0.77324569  1
  O2-  O367  1  0.06129714  0.07123361  0.21746722  1
  O2-  O368  1  0.06680779  0.92635104  0.47501802  1
  O2-  O369  1  0.93355624  0.72610853  0.08218445  1
  O2-  O370  1  0.42973867  0.05372189  0.56798874  1
  O2-  O371  1  0.57317278  0.93033202  0.04332644  1
  O2-  O372  1  0.74974591  0.66328192  0.34863836  1
  O2-  O373  1  0.74991596  0.34551231  0.58397127  1
  O2-  O374  1  0.25055454  0.66277361  0.35999177  1
  O2-  O375  1  0.74982711  0.33503633  0.67363924  1
  O2-  O376  1  0.24895748  -0.00945401  0.10850955  1
  O2-  O377  1  0.25077141  0.33676261  0.09290158  1
  O2-  O378  1  0.75044780  -0.00928028  0.57520358  1
  O2-  O379  1  0.24964945  0.67233636  0.14222331  1
  O2-  O380  1  0.74993250  0.33024405  0.30339422  1
  O2-  O381  1  0.75043568  0.01101034  0.67556141  1
  O2-  O382  1  0.75001262  -0.00543080  0.89715142  1
  O2-  O383  1  0.25043139  0.31760873  0.42776071  1
  O2-  O384  1  0.74794297  0.66662800  0.89266819  1
  O2-  O385  1  0.24990285  -0.00323746  0.41754270  1
  O2-  O386  1  0.25064700  0.34331066  0.63796378  1
  O2-  O387  1  0.74842473  0.66686141  0.10726065  1
  O2-  O388  1  0.24850699  0.66502250  0.89405608  1
  O2-  O389  1  0.25027046  -0.00244721  0.32476879  1
  O2-  O390  1  0.24995743  0.33307141  0.30209207  1
  O2-  O391  1  0.24948492  0.33489250  0.86060866  1
  O2-  O392  1  0.75038088  0.33495003  0.82737464  1
  O2-  O393  1  0.75029192  -0.01059752  0.36529833  1
  O2-  O394  1  0.74982131  0.33735330  0.91829662  1
  O2-  O395  1  0.75013779  0.34368147  0.42895040  1
  O2-  O396  1  0.74974295  0.49997993  0.34323858  1
  O2-  O397  1  0.75021111  0.84189512  0.87027017  1
  O2-  O398  1  0.25021816  0.49497953  0.59310829  1
  O2-  O399  1  0.75008636  0.82961542  0.40355909  1
  O2-  O400  1  0.24990654  0.16669261  0.15415908  1
  O2-  O401  1  0.75006519  0.50660432  0.59926412  1
  O2-  O402  1  0.24978348  0.49593986  0.16334083  1
  O2-  O403  1  0.74988848  0.17270823  0.84058795  1
  O2-  O404  1  0.24980835  0.17934727  0.63298779  1
  O2-  O405  1  0.24989272  0.50438876  0.07927316  1
  O2-  O406  1  0.25033040  0.49549052  0.33228064  1
  O2-  O407  1  0.74995442  0.18631276  0.61827664  1
  O2-  O408  1  0.75015143  0.84098919  0.60550256  1
  O2-  O409  1  0.24988151  0.85758087  0.66748051  1
  O2-  O410  1  0.25035177  0.81714779  0.58997316  1
  O2-  O411  1  0.24945854  0.16447392  0.92560165  1
  O2-  O412  1  0.74991340  0.17566344  0.09271774  1
  O2-  O413  1  0.24976158  0.85144974  0.87676785  1
  O2-  O414  1  0.74999061  0.49684026  0.91170711  1
  O2-  O415  1  0.74952249  0.16826536  0.17636637  1
  O2-  O416  1  0.74991158  0.18561852  0.39467351  1
  O2-  O417  1  0.24967938  0.49919947  0.68274968  1
  O2-  O418  1  0.24986608  0.81739172  0.33105178  1
  O2-  O419  1  0.74995839  0.16545162  0.31425315  1
  O2-  O420  1  0.52261019  0.00788465  0.62357274  1
  O2-  O421  1  0.97104362  0.33390888  0.86780374  1
  O2-  O422  1  0.52244019  0.33137057  0.38369228  1
  O2-  O423  1  0.98123793  -0.01501587  0.86941497  1
  O2-  O424  1  0.45975512  0.32406525  0.89365648  1
  O2-  O425  1  0.52284887  0.32608179  0.63297543  1
  O2-  O426  1  0.54736588  0.01607434  0.14161350  1
  O2-  O427  1  0.47894076  0.01827809  0.87027496  1
  O2-  O428  1  0.04210499  0.33441537  0.61727228  1
  O2-  O429  1  0.54687074  0.34461520  0.85773852  1
  O2-  O430  1  0.04533093  0.32671432  0.11383389  1
  O2-  O431  1  0.47346197  0.01472332  0.37217488  1
  O2-  O432  1  0.46237955  0.00876476  0.12314269  1
  O2-  O433  1  0.47431194  0.66466101  0.13248822  1
  O2-  O434  1  0.51982449  0.68122876  0.37205416  1
  O2-  O435  1  0.53085621  -0.00554123  0.37720450  1
  O2-  O436  1  0.02215777  0.33911770  0.37980114  1
  O2-  O437  1  0.02649195  0.66943042  0.88359991  1
  O2-  O438  1  0.95470689  0.32276271  0.64496170  1
  O2-  O439  1  0.52788586  0.66297382  0.87565917  1
  O2-  O440  1  0.95917541  0.33172932  0.13802642  1
  O2-  O441  1  0.52345464  0.66096553  0.61925130  1
  O2-  O442  1  0.97062375  0.66669004  0.62752593  1
  O2-  O443  1  0.02556760  0.00864114  0.36853207  1
