# generated using pymatgen
data_La7(Ru4O11)2
_symmetry_space_group_name_H-M   'P 1'
_cell_length_a   23.98842109
_cell_length_b   16.82765826
_cell_length_c   15.42463530
_cell_angle_alpha   90.00004936
_cell_angle_beta   89.99998395
_cell_angle_gamma   90.00017979
_symmetry_Int_Tables_number   1
_chemical_formula_structural   La7(Ru4O11)2
_chemical_formula_sum   'La84 Ru96 O264'
_cell_volume   6226.44637254
_cell_formula_units_Z   12
loop_
 _symmetry_equiv_pos_site_id
 _symmetry_equiv_pos_as_xyz
  1  'x, y, z'
loop_
 _atom_type_symbol
 _atom_type_oxidation_number
  La3+  3.0
  Ru4+  4.0
  O2-  -2.0
loop_
 _atom_site_type_symbol
 _atom_site_label
 _atom_site_symmetry_multiplicity
 _atom_site_fract_x
 _atom_site_fract_y
 _atom_site_fract_z
 _atom_site_occupancy
  La3+  La0  1  0.13899761  -0.00030917  0.12499601  1
  La3+  La1  1  0.13835563  -0.00014272  0.37479315  1
  La3+  La2  1  0.13814691  -0.00043105  0.62491476  1
  La3+  La3  1  0.13796777  -0.00077459  0.87531602  1
  La3+  La4  1  0.13843686  0.33321357  0.12548331  1
  La3+  La5  1  0.13836844  0.33308838  0.37446544  1
  La3+  La6  1  0.13796590  0.33322964  0.62511106  1
  La3+  La7  1  0.13804496  0.33344468  0.87495981  1
  La3+  La8  1  0.13819141  0.66679459  0.12546058  1
  La3+  La9  1  0.13849787  0.66682574  0.37504219  1
  La3+  La10  1  0.13861539  0.66689419  0.62481371  1
  La3+  La11  1  0.13834778  0.66705759  0.87444844  1
  La3+  La12  1  0.63895441  0.00039598  0.12551422  1
  La3+  La13  1  0.63872512  -0.00013950  0.37478515  1
  La3+  La14  1  0.63848881  -0.00104643  0.62447401  1
  La3+  La15  1  0.63853326  -0.00014727  0.87510073  1
  La3+  La16  1  0.63921776  0.33323348  0.12507338  1
  La3+  La17  1  0.63907144  0.33322788  0.37412609  1
  La3+  La18  1  0.63860355  0.33336586  0.62485137  1
  La3+  La19  1  0.63910422  0.33332266  0.87519613  1
  La3+  La20  1  0.63862154  0.66651065  0.12504715  1
  La3+  La21  1  0.63863820  0.66632801  0.37533884  1
  La3+  La22  1  0.63842309  0.66694594  0.62458998  1
  La3+  La23  1  0.63844415  0.66683057  0.87495035  1
  La3+  La24  1  0.36086478  0.00016691  0.12545361  1
  La3+  La25  1  0.36148703  0.00030725  0.37459259  1
  La3+  La26  1  0.36182781  -0.00043953  0.62495816  1
  La3+  La27  1  0.36170154  -0.00028019  0.87510677  1
  La3+  La28  1  0.36169131  0.33288659  0.12568531  1
  La3+  La29  1  0.36174158  0.33298715  0.37440747  1
  La3+  La30  1  0.36195603  0.33337047  0.62511541  1
  La3+  La31  1  0.36197036  0.33330182  0.87483653  1
  La3+  La32  1  0.36191184  0.66697748  0.12507955  1
  La3+  La33  1  0.36138274  0.66656879  0.37506316  1
  La3+  La34  1  0.36157849  0.66671345  0.62479515  1
  La3+  La35  1  0.36195830  0.66698148  0.87527842  1
  La3+  La36  1  0.86170230  0.00020458  0.12515557  1
  La3+  La37  1  0.86140446  -0.00000842  0.37438323  1
  La3+  La38  1  0.86187492  0.00013348  0.62581361  1
  La3+  La39  1  0.86230796  0.00048398  0.87447379  1
  La3+  La40  1  0.86144900  0.33303797  0.12409200  1
  La3+  La41  1  0.86097548  0.33334090  0.37434481  1
  La3+  La42  1  0.86166843  0.33310781  0.62549637  1
  La3+  La43  1  0.86190139  0.33260215  0.87571975  1
  La3+  La44  1  0.86130113  0.66620537  0.12505105  1
  La3+  La45  1  0.86121833  0.66645147  0.37536068  1
  La3+  La46  1  0.86186384  0.66712773  0.62452692  1
  La3+  La47  1  0.86138147  0.66679236  0.87477962  1
  La3+  La48  1  0.50065082  0.16715076  0.36370332  1
  La3+  La49  1  0.49983307  0.49964666  0.11609604  1
  La3+  La50  1  0.50013789  0.83299141  0.13421261  1
  La3+  La51  1  -0.00050429  0.49915429  0.61456108  1
  La3+  La52  1  -0.00037983  0.16672144  0.63657644  1
  La3+  La53  1  0.49997596  0.49968628  0.88630646  1
  La3+  La54  1  -0.00019126  0.49979707  0.13542665  1
  La3+  La55  1  -0.00008690  0.16568885  0.11308309  1
  La3+  La56  1  0.49907994  0.49961667  0.86389210  1
  La3+  La57  1  -0.00010352  0.50009841  0.63633876  1
  La3+  La58  1  -0.00094717  0.16584758  0.88323299  1
  La3+  La59  1  0.49978618  0.50044117  0.61443567  1
  La3+  La60  1  0.50027029  0.83373431  0.38720708  1
  La3+  La61  1  0.50009878  0.83355997  0.86671706  1
  La3+  La62  1  -0.00000337  0.50001671  0.38420438  1
  La3+  La63  1  0.50038411  0.83355576  0.36487900  1
  La3+  La64  1  -0.00033679  0.50027060  0.86561235  1
  La3+  La65  1  0.50060541  0.83291921  0.88425803  1
  La3+  La66  1  0.00011926  0.83384123  0.11373584  1
  La3+  La67  1  0.00006652  0.83318198  0.61383515  1
  La3+  La68  1  0.49962623  0.16755314  0.38653971  1
  La3+  La69  1  -0.00016201  0.49956253  0.88643864  1
  La3+  La70  1  0.00017882  0.83365353  0.86438685  1
  La3+  La71  1  -0.00032497  0.16845650  0.13574122  1
  La3+  La72  1  0.75000167  0.19030076  0.74982501  1
  La3+  La73  1  0.75003272  0.47665236  0.74980735  1
  La3+  La74  1  0.24996454  0.16641712  0.26766243  1
  La3+  La75  1  0.25000312  0.52266309  0.49926087  1
  La3+  La76  1  0.75005031  0.83343313  0.00507378  1
  La3+  La77  1  0.75005589  0.16699847  -0.01090198  1
  La3+  La78  1  0.24997330  0.83381062  0.23260975  1
  La3+  La79  1  0.24998719  0.83370363  -0.00023986  1
  La3+  La80  1  0.24991149  0.16651782  0.74986812  1
  La3+  La81  1  0.24999669  0.50017472  0.74995592  1
  La3+  La82  1  0.75002660  0.49946958  0.01353583  1
  La3+  La83  1  0.24992684  0.50133589  -0.01808692  1
  Ru4+  Ru84  1  -0.00094876  0.00052550  0.00035518  1
  Ru4+  Ru85  1  0.00092467  0.00116356  0.25040834  1
  Ru4+  Ru86  1  0.00020429  0.00041696  0.49849644  1
  Ru4+  Ru87  1  -0.00005771  -0.00000874  0.75114833  1
  Ru4+  Ru88  1  -0.00075206  0.33379984  -0.00010923  1
  Ru4+  Ru89  1  -0.00020633  0.33327772  0.24989596  1
  Ru4+  Ru90  1  -0.00034590  0.33283171  0.50005043  1
  Ru4+  Ru91  1  0.00011132  0.33345033  0.75024714  1
  Ru4+  Ru92  1  0.00052759  0.67068488  -0.00106181  1
  Ru4+  Ru93  1  0.00065199  0.66622489  0.25080522  1
  Ru4+  Ru94  1  0.00059481  0.66706018  0.49842886  1
  Ru4+  Ru95  1  -0.00007254  0.66665925  0.75065240  1
  Ru4+  Ru96  1  0.49972860  -0.00021533  0.00086215  1
  Ru4+  Ru97  1  0.50169473  -0.00082215  0.24967640  1
  Ru4+  Ru98  1  0.49898803  0.00005256  0.49974005  1
  Ru4+  Ru99  1  0.49941501  -0.00038913  0.74949948  1
  Ru4+  Ru100  1  0.49998088  0.33293589  -0.00038444  1
  Ru4+  Ru101  1  0.50027614  0.33412633  0.25049921  1
  Ru4+  Ru102  1  0.49991072  0.33274140  0.49945660  1
  Ru4+  Ru103  1  0.49921939  0.33279655  0.75083139  1
  Ru4+  Ru104  1  0.50053703  0.66688128  -0.00006412  1
  Ru4+  Ru105  1  0.50007180  0.66621311  0.25053304  1
  Ru4+  Ru106  1  0.49990566  0.66645251  0.50072365  1
  Ru4+  Ru107  1  0.50011244  0.66598608  0.74934928  1
  Ru4+  Ru108  1  0.11334902  0.16588863  0.00000685  1
  Ru4+  Ru109  1  0.11303206  0.16710852  0.25029483  1
  Ru4+  Ru110  1  0.11263852  0.16662618  0.50009594  1
  Ru4+  Ru111  1  0.11214205  0.16666584  0.74996163  1
  Ru4+  Ru112  1  0.11344945  0.49873951  -0.00009715  1
  Ru4+  Ru113  1  0.11287648  0.50024618  0.25021217  1
  Ru4+  Ru114  1  0.11267608  0.50032258  0.49997996  1
  Ru4+  Ru115  1  0.11263527  0.50048717  0.74995837  1
  Ru4+  Ru116  1  0.11255077  0.83323798  -0.00011876  1
  Ru4+  Ru117  1  0.11223168  0.83372366  0.25011602  1
  Ru4+  Ru118  1  0.11267836  0.83281424  0.49997934  1
  Ru4+  Ru119  1  0.11306169  0.83356854  0.75011014  1
  Ru4+  Ru120  1  0.61317423  0.16725074  -0.00010289  1
  Ru4+  Ru121  1  0.61341269  0.16670835  0.25000329  1
  Ru4+  Ru122  1  0.61305767  0.16723122  0.50027077  1
  Ru4+  Ru123  1  0.61308194  0.16706378  0.74992549  1
  Ru4+  Ru124  1  0.61328777  0.49893273  0.00021849  1
  Ru4+  Ru125  1  0.61298377  0.49953051  0.24988331  1
  Ru4+  Ru126  1  0.61367025  0.50141131  0.49986138  1
  Ru4+  Ru127  1  0.61303128  0.49995995  0.74990363  1
  Ru4+  Ru128  1  0.61230077  0.83328611  0.00004500  1
  Ru4+  Ru129  1  0.61266087  0.83321634  0.25006864  1
  Ru4+  Ru130  1  0.61312983  0.83286930  0.50009385  1
  Ru4+  Ru131  1  0.61333342  0.83339411  0.75002576  1
  Ru4+  Ru132  1  0.38726823  0.16668387  -0.00001977  1
  Ru4+  Ru133  1  0.38614565  0.16709599  0.24981539  1
  Ru4+  Ru134  1  0.38737505  0.16683313  0.49989517  1
  Ru4+  Ru135  1  0.38760069  0.16667091  0.75004915  1
  Ru4+  Ru136  1  0.38748455  0.50041590  0.00002538  1
  Ru4+  Ru137  1  0.38718921  0.50041713  0.24994584  1
  Ru4+  Ru138  1  0.38779231  0.50022085  0.50014302  1
  Ru4+  Ru139  1  0.38752018  0.50020623  0.74971661  1
  Ru4+  Ru140  1  0.38692817  0.83390922  0.00009224  1
  Ru4+  Ru141  1  0.38675411  0.83290553  0.24992514  1
  Ru4+  Ru142  1  0.38708871  0.83297327  0.49998685  1
  Ru4+  Ru143  1  0.38663648  0.83431368  0.74980633  1
  Ru4+  Ru144  1  0.88730139  0.16697447  -0.00038892  1
  Ru4+  Ru145  1  0.88647563  0.16683398  0.25007013  1
  Ru4+  Ru146  1  0.88749392  0.16679902  0.49989688  1
  Ru4+  Ru147  1  0.88749640  0.16611634  0.75031232  1
  Ru4+  Ru148  1  0.88562864  0.49839089  -0.00009605  1
  Ru4+  Ru149  1  0.88681522  0.49948053  0.25021974  1
  Ru4+  Ru150  1  0.88690667  0.50008033  0.49994495  1
  Ru4+  Ru151  1  0.88772570  0.49965459  0.74993989  1
  Ru4+  Ru152  1  0.88775333  0.83381090  0.00013791  1
  Ru4+  Ru153  1  0.88553932  0.83303988  0.24997975  1
  Ru4+  Ru154  1  0.88710274  0.83368274  0.49999027  1
  Ru4+  Ru155  1  0.88676877  0.83350499  0.74995236  1
  Ru4+  Ru156  1  0.75000305  0.75161594  0.49989226  1
  Ru4+  Ru157  1  0.74995068  0.42008411  0.49865760  1
  Ru4+  Ru158  1  0.74990443  0.91587722  0.50012397  1
  Ru4+  Ru159  1  0.24994085  0.24701701  0.50027914  1
  Ru4+  Ru160  1  0.24999554  0.40128829  0.00358274  1
  Ru4+  Ru161  1  0.74999373  0.92872105  0.00000269  1
  Ru4+  Ru162  1  0.75001403  0.24847558  0.49905072  1
  Ru4+  Ru163  1  0.24999770  0.08392193  0.00016013  1
  Ru4+  Ru164  1  0.24999477  0.75228800  0.74972038  1
  Ru4+  Ru165  1  0.25001276  0.24821702  0.00010570  1
  Ru4+  Ru166  1  0.74997004  0.06434942  0.75021820  1
  Ru4+  Ru167  1  0.24997348  0.06182131  0.75271948  1
  Ru4+  Ru168  1  0.25000399  0.60068885  0.00055610  1
  Ru4+  Ru169  1  0.74984876  0.91538202  0.25017512  1
  Ru4+  Ru170  1  0.74992690  0.73807541  -0.00029901  1
  Ru4+  Ru171  1  0.75001736  0.58141211  0.25029157  1
  Ru4+  Ru172  1  0.24999414  0.39927172  0.50175425  1
  Ru4+  Ru173  1  0.74998456  0.08514792  0.49973992  1
  Ru4+  Ru174  1  0.24992668  0.41824717  0.24996753  1
  Ru4+  Ru175  1  0.24999969  0.27122464  0.74675757  1
  Ru4+  Ru176  1  0.75007646  0.60056834  0.75167436  1
  Ru4+  Ru177  1  0.24992582  0.08623749  0.49976898  1
  Ru4+  Ru178  1  0.74990125  0.75154463  0.24962062  1
  Ru4+  Ru179  1  0.24998642  0.91446559  0.49993692  1
  O2-  O180  1  0.16831792  0.08094627  -0.00009975  1
  O2-  O181  1  0.16810079  0.08092731  0.25012369  1
  O2-  O182  1  0.16814647  0.08078912  0.50017557  1
  O2-  O183  1  0.16720433  0.08031456  0.75011089  1
  O2-  O184  1  0.16759521  0.41371694  -0.00002429  1
  O2-  O185  1  0.16841850  0.41404483  0.25010866  1
  O2-  O186  1  0.16728302  0.41349070  0.50011388  1
  O2-  O187  1  0.16809154  0.41345166  0.74993753  1
  O2-  O188  1  0.16851914  0.74733717  0.00016322  1
  O2-  O189  1  0.16812439  0.74723724  0.24968484  1
  O2-  O190  1  0.16782063  0.74770757  0.49989981  1
  O2-  O191  1  0.16816839  0.74741518  0.75015022  1
  O2-  O192  1  0.66814461  0.08074212  -0.00037161  1
  O2-  O193  1  0.66799113  0.08121150  0.24970835  1
  O2-  O194  1  0.66837065  0.08088742  0.49991339  1
  O2-  O195  1  0.66732076  0.08048367  0.75018648  1
  O2-  O196  1  0.66799149  0.41430562  -0.00015583  1
  O2-  O197  1  0.66768057  0.41478650  0.24982226  1
  O2-  O198  1  0.66815881  0.41407061  0.50026229  1
  O2-  O199  1  0.66805520  0.41418116  0.74969295  1
  O2-  O200  1  0.66770720  0.74689491  -0.00013699  1
  O2-  O201  1  0.66819592  0.74744784  0.24969293  1
  O2-  O202  1  0.66794463  0.74767305  0.49998879  1
  O2-  O203  1  0.66772301  0.74761791  0.75000703  1
  O2-  O204  1  0.33195065  0.25270285  0.00000100  1
  O2-  O205  1  0.33183248  0.25300361  0.25003886  1
  O2-  O206  1  0.33191652  0.25260808  0.50022792  1
  O2-  O207  1  0.33295895  0.25316420  0.74999665  1
  O2-  O208  1  0.33217252  0.58624343  0.00007750  1
  O2-  O209  1  0.33203678  0.58565241  0.24979031  1
  O2-  O210  1  0.33194640  0.58589286  0.49991895  1
  O2-  O211  1  0.33170171  0.58624495  0.75028015  1
  O2-  O212  1  0.33159326  0.91920721  -0.00005437  1
  O2-  O213  1  0.33182125  0.91914023  0.25021587  1
  O2-  O214  1  0.33204599  0.91944731  0.50010494  1
  O2-  O215  1  0.33209455  0.91914441  0.75017984  1
  O2-  O216  1  0.83191715  0.25228478  -0.00015758  1
  O2-  O217  1  0.83237893  0.25194414  0.24993058  1
  O2-  O218  1  0.83171502  0.25246907  0.50019794  1
  O2-  O219  1  0.83200799  0.25241845  0.74952300  1
  O2-  O220  1  0.83184414  0.58596737  -0.00025143  1
  O2-  O221  1  0.83167314  0.58585131  0.24997812  1
  O2-  O222  1  0.83211918  0.58585160  0.49986301  1
  O2-  O223  1  0.83249421  0.58663874  0.75001883  1
  O2-  O224  1  0.83215028  0.91932187  -0.00028824  1
  O2-  O225  1  0.83172160  0.91876962  0.25007917  1
  O2-  O226  1  0.83204324  0.91903099  0.49993838  1
  O2-  O227  1  0.83238392  0.91897619  0.75007392  1
  O2-  O228  1  0.16818890  0.25272187  -0.00015888  1
  O2-  O229  1  0.16801025  0.25267528  0.25010517  1
  O2-  O230  1  0.16813571  0.25277811  0.50021601  1
  O2-  O231  1  0.16712662  0.25322873  0.74994835  1
  O2-  O232  1  0.16773372  0.58619147  0.00025558  1
  O2-  O233  1  0.16794136  0.58577689  0.24970534  1
  O2-  O234  1  0.16806806  0.58580284  0.50004671  1
  O2-  O235  1  0.16807885  0.58624750  0.75009159  1
  O2-  O236  1  0.16875276  0.91908164  -0.00009194  1
  O2-  O237  1  0.16824829  0.91895770  0.25018031  1
  O2-  O238  1  0.16814765  0.91924918  0.50003421  1
  O2-  O239  1  0.16818916  0.91912930  0.75009566  1
  O2-  O240  1  0.66769248  0.25236785  -0.00026321  1
  O2-  O241  1  0.66763468  0.25193738  0.24987846  1
  O2-  O242  1  0.66809731  0.25250230  0.50005673  1
  O2-  O243  1  0.66799162  0.25228097  0.74983824  1
  O2-  O244  1  0.66805771  0.58619594  -0.00013669  1
  O2-  O245  1  0.66825717  0.58590722  0.24979018  1
  O2-  O246  1  0.66784502  0.58551054  0.50015843  1
  O2-  O247  1  0.66738203  0.58649861  0.74995216  1
  O2-  O248  1  0.66771320  0.91963380  -0.00020141  1
  O2-  O249  1  0.66850988  0.91916465  0.24971284  1
  O2-  O250  1  0.66839836  0.91914165  0.50002347  1
  O2-  O251  1  0.66765450  0.91889831  0.75027278  1
  O2-  O252  1  0.33177751  0.08073040  -0.00002411  1
  O2-  O253  1  0.33160678  0.08101075  0.25011502  1
  O2-  O254  1  0.33188776  0.08067431  0.50022328  1
  O2-  O255  1  0.33291602  0.08026625  0.75001903  1
  O2-  O256  1  0.33265802  0.41340959  0.00010985  1
  O2-  O257  1  0.33181398  0.41400528  0.25008071  1
  O2-  O258  1  0.33275499  0.41351576  0.50010605  1
  O2-  O259  1  0.33211655  0.41359089  0.75001954  1
  O2-  O260  1  0.33130804  0.74741655  0.00018828  1
  O2-  O261  1  0.33187970  0.74717309  0.24977109  1
  O2-  O262  1  0.33211901  0.74764373  0.49984027  1
  O2-  O263  1  0.33168199  0.74726949  0.75030146  1
  O2-  O264  1  0.83193645  0.08091396  -0.00043859  1
  O2-  O265  1  0.83217408  0.08102749  0.25009762  1
  O2-  O266  1  0.83189749  0.08071948  0.49996627  1
  O2-  O267  1  0.83254731  0.08042207  0.74984158  1
  O2-  O268  1  0.83206214  0.41437427  -0.00016571  1
  O2-  O269  1  0.83213915  0.41479867  0.24977516  1
  O2-  O270  1  0.83193250  0.41396749  0.50025123  1
  O2-  O271  1  0.83204126  0.41398754  0.74959987  1
  O2-  O272  1  0.83241545  0.74703549  -0.00033820  1
  O2-  O273  1  0.83190237  0.74760373  0.24999885  1
  O2-  O274  1  0.83170795  0.74736606  0.49982773  1
  O2-  O275  1  0.83224451  0.74760717  0.75010483  1
  O2-  O276  1  0.95777113  0.76980420  0.27279740  1
  O2-  O277  1  0.45488493  0.09843088  0.48568207  1
  O2-  O278  1  0.04536708  0.76570908  0.48540826  1
  O2-  O279  1  0.04192748  0.10339595  0.27300572  1
  O2-  O280  1  0.53530267  0.11336643  0.00717186  1
  O2-  O281  1  0.96003959  0.89387594  0.24048888  1
  O2-  O282  1  0.04492765  0.43139358  0.76470202  1
  O2-  O283  1  0.04476073  0.23507326  0.26547997  1
  O2-  O284  1  0.04235289  0.23022439  0.97699747  1
  O2-  O285  1  0.94887986  0.75748978  0.51964037  1
  O2-  O286  1  0.54579609  0.23486568  0.26435275  1
  O2-  O287  1  0.04486296  0.43128251  0.48483527  1
  O2-  O288  1  0.95952279  0.10611319  0.76263871  1
  O2-  O289  1  0.04536602  0.76501664  0.98467333  1
  O2-  O290  1  0.95372027  0.42981857  0.01641493  1
  O2-  O291  1  0.54486643  0.56787143  0.23523125  1
  O2-  O292  1  0.45513360  0.90196609  0.98558577  1
  O2-  O293  1  0.53509280  0.21969922  0.74296020  1
  O2-  O294  1  0.45521348  0.76542216  0.23499730  1
  O2-  O295  1  0.45493913  0.23402582  0.23083681  1
  O2-  O296  1  0.53497108  0.44723370  0.49277156  1
  O2-  O297  1  0.54659168  0.90326404  0.51622176  1
  O2-  O298  1  0.94679762  0.58073182  0.03057641  1
  O2-  O299  1  0.54504284  0.56864530  0.76415807  1
  O2-  O300  1  0.45485662  0.56746297  0.51466720  1
  O2-  O301  1  0.45986413  0.10574190  0.23474591  1
  O2-  O302  1  0.54479752  0.23410043  0.51514162  1
  O2-  O303  1  0.95599645  0.90020213  0.26504967  1
  O2-  O304  1  0.45483579  0.43174621  0.01498578  1
  O2-  O305  1  0.95440255  0.76540605  0.98463080  1
  O2-  O306  1  0.95526129  0.09867696  0.48513146  1
  O2-  O307  1  0.45824683  0.10349755  0.26286672  1
  O2-  O308  1  0.54160781  0.56333957  0.02302268  1
  O2-  O309  1  0.45822508  0.77010579  0.77196041  1
  O2-  O310  1  0.95278946  0.23795187  0.01212005  1
  O2-  O311  1  0.95363557  0.09631847  0.73708356  1
  O2-  O312  1  0.04544961  0.56873823  0.51463729  1
  O2-  O313  1  0.95469907  0.56800008  0.48497651  1
  O2-  O314  1  0.04526356  0.76554707  0.23474485  1
  O2-  O315  1  0.05453173  0.58220612  0.03540979  1
  O2-  O316  1  0.95337108  0.23693057  0.76685795  1
  O2-  O317  1  0.05533549  0.91755097  0.97574977  1
  O2-  O318  1  0.54153812  0.43710128  0.72671311  1
  O2-  O319  1  0.95437889  0.09862359  0.23591763  1
  O2-  O320  1  0.95989238  0.22624668  0.98885391  1
  O2-  O321  1  0.45450504  0.23466298  0.26982160  1
  O2-  O322  1  0.45337324  0.76286038  0.98388442  1
  O2-  O323  1  0.45532474  0.43176187  0.23478887  1
  O2-  O324  1  0.94680565  0.58069253  0.03106618  1
  O2-  O325  1  0.43222615  0.73101195  0.71084439  1
  O2-  O326  1  0.94077559  0.74413359  0.52708306  1
  O2-  O327  1  0.43542440  0.59697092  0.71877724  1
  O2-  O328  1  0.05102440  0.57770808  0.02968418  1
  O2-  O329  1  0.56440872  0.06846947  0.45677276  1
  O2-  O330  1  0.56422032  0.40180844  0.03251684  1
  O2-  O331  1  0.06798309  0.26927474  0.03910809  1
  O2-  O332  1  0.06421841  0.40188877  0.28250229  1
  O2-  O333  1  0.06425968  0.73514830  0.78252844  1
  O2-  O334  1  0.93231515  0.73141480  0.21109648  1
  O2-  O335  1  0.57424012  0.38766483  0.46079591  1
  O2-  O336  1  0.56420190  0.59836939  0.46776030  1
  O2-  O337  1  0.06727394  0.06342976  0.20989476  1
  O2-  O338  1  0.56413153  0.06841194  0.70623554  1
  O2-  O339  1  0.06425320  0.06866114  0.03230398  1
  O2-  O340  1  0.43146102  0.06340340  0.29462004  1
  O2-  O341  1  0.93243960  0.06500187  0.78182460  1
  O2-  O342  1  0.93247000  0.26980678  0.96757322  1
  O2-  O343  1  0.06764253  0.60332363  0.94915143  1
  O2-  O344  1  0.93560897  0.59712621  0.21880846  1
  O2-  O345  1  0.56410650  0.93084823  0.28235482  1
  O2-  O346  1  0.57415265  0.27862002  0.71059602  1
  O2-  O347  1  0.56230619  0.92863200  0.53031474  1
  O2-  O348  1  0.93612111  0.40181724  0.28239754  1
  O2-  O349  1  0.43551968  0.59765636  0.96724320  1
  O2-  O350  1  0.93536461  0.06978511  0.03119817  1
  O2-  O351  1  0.06451187  0.93088960  0.53162312  1
  O2-  O352  1  0.56787729  0.39744553  0.78949022  1
  O2-  O353  1  0.06466084  0.93067619  0.28117960  1
  O2-  O354  1  0.93778910  0.26247540  0.78074581  1
  O2-  O355  1  0.93322911  0.60211830  0.95337179  1
  O2-  O356  1  0.43538360  0.93050204  0.29308466  1
  O2-  O357  1  0.92985321  0.93905433  0.21395045  1
  O2-  O358  1  0.56424572  0.06886578  0.54333920  1
  O2-  O359  1  0.93526749  0.93019838  0.03103876  1
  O2-  O360  1  0.05426323  0.91457863  0.97656016  1
  O2-  O361  1  0.56469999  0.06932557  0.79238442  1
  O2-  O362  1  0.56794318  0.60293798  0.96057753  1
  O2-  O363  1  0.06426609  0.40181702  0.96734823  1
  O2-  O364  1  0.93794531  0.40473757  0.03064008  1
  O2-  O365  1  0.06402592  0.93175637  0.78211993  1
  O2-  O366  1  0.56413796  0.06871548  0.28248153  1
  O2-  O367  1  0.57311968  0.05365276  0.04079466  1
  O2-  O368  1  0.43201480  0.06316112  0.20561786  1
  O2-  O369  1  0.43586952  0.93116317  0.20596509  1
  O2-  O370  1  0.93600316  0.26523464  0.46789142  1
  O2-  O371  1  0.43770366  0.73826772  0.96840395  1
  O2-  O372  1  0.74999759  0.66880669  0.66582209  1
  O2-  O373  1  0.24998546  0.33590923  0.83340423  1
  O2-  O374  1  0.74996841  0.66649945  0.09265078  1
  O2-  O375  1  0.25004820  0.33339961  0.15798108  1
  O2-  O376  1  0.75006847  -0.00048967  0.34211264  1
  O2-  O377  1  0.24998896  0.66664760  0.58292987  1
  O2-  O378  1  0.24999236  0.00015344  0.58153514  1
  O2-  O379  1  0.25005030  0.00002303  0.15671933  1
  O2-  O380  1  0.74996429  -0.00030040  0.84353634  1
  O2-  O381  1  0.25000132  -0.00250407  0.66602382  1
  O2-  O382  1  0.75005258  0.66662842  0.34199214  1
  O2-  O383  1  0.25001235  0.66644303  0.41631319  1
  O2-  O384  1  0.25001001  0.33249648  0.40617568  1
  O2-  O385  1  0.75000560  0.33303460  0.84201001  1
  O2-  O386  1  0.74999871  0.66620028  0.58191209  1
  O2-  O387  1  0.75003569  0.66713893  0.84331014  1
  O2-  O388  1  0.74990855  -0.00041465  0.09245750  1
  O2-  O389  1  0.25006708  -0.00008334  0.40782732  1
  O2-  O390  1  0.24999940  0.33148775  0.91642984  1
  O2-  O391  1  0.24997418  0.66625131  0.66733420  1
  O2-  O392  1  0.74999883  0.33319538  0.34411018  1
  O2-  O393  1  0.75004405  -0.00028102  0.65647746  1
  O2-  O394  1  0.25000880  0.66664700  0.33377918  1
  O2-  O395  1  0.75003070  0.33359894  0.09204547  1
  O2-  O396  1  0.74999503  0.83332922  0.82767070  1
  O2-  O397  1  0.24997681  0.49973217  0.09445538  1
  O2-  O398  1  0.75000102  0.83328700  0.10390720  1
  O2-  O399  1  0.75001378  0.49902136  0.41093975  1
  O2-  O400  1  0.24999632  0.16647760  0.91013704  1
  O2-  O401  1  0.24998884  0.16674450  0.07843897  1
  O2-  O402  1  0.74999205  0.16672724  0.10121983  1
  O2-  O403  1  0.25000594  0.16665777  0.41039822  1
  O2-  O404  1  0.74999139  0.83347704  0.58458765  1
  O2-  O405  1  0.25002117  0.83261387  0.58381426  1
  O2-  O406  1  0.25001788  0.50060801  0.17255520  1
  O2-  O407  1  0.75001219  0.16687406  0.59017596  1
  O2-  O408  1  0.24999597  0.83343727  0.34477673  1
  O2-  O409  1  0.25000495  0.83266680  0.42208026  1
  O2-  O410  1  0.74998198  0.83327662  0.66573269  1
  O2-  O411  1  0.25003327  0.83408437  0.66655452  1
  O2-  O412  1  0.74998536  0.83336412  0.41704673  1
  O2-  O413  1  0.74997194  0.50013627  0.89734983  1
  O2-  O414  1  0.75001269  0.83337454  0.90339025  1
  O2-  O415  1  0.24991680  0.16666692  0.15503665  1
  O2-  O416  1  0.24999225  0.49996089  0.64122550  1
  O2-  O417  1  0.74999691  0.83331728  0.33261786  1
  O2-  O418  1  0.24999168  0.50009419  0.85857177  1
  O2-  O419  1  0.75001648  0.49909703  0.58980361  1
  O2-  O420  1  0.53014379  0.66714228  0.12506953  1
  O2-  O421  1  0.46992786  0.66648613  0.12469203  1
  O2-  O422  1  0.97143197  0.66711960  0.12431526  1
  O2-  O423  1  0.97256394  -0.00079500  0.87597984  1
  O2-  O424  1  0.97038024  -0.00025421  0.62439457  1
  O2-  O425  1  0.97380423  0.00073092  0.12582717  1
  O2-  O426  1  0.52741311  0.33277992  0.87576503  1
  O2-  O427  1  0.02726284  0.00059996  0.37654834  1
  O2-  O428  1  0.02777206  0.66600054  0.37456261  1
  O2-  O429  1  0.47256465  -0.00037891  0.37693226  1
  O2-  O430  1  0.46990504  0.00004360  0.87445778  1
  O2-  O431  1  0.52707547  0.33268092  0.37385637  1
  O2-  O432  1  0.52940302  -0.00099677  0.87617740  1
  O2-  O433  1  0.47218461  0.66684470  0.37477762  1
  O2-  O434  1  0.52878993  0.33430465  0.62356798  1
  O2-  O435  1  0.02782411  0.33412796  0.12621202  1
  O2-  O436  1  0.03025237  0.66684263  0.62532126  1
  O2-  O437  1  0.97019409  0.66562721  0.62608952  1
  O2-  O438  1  0.52757277  0.66753196  0.87423892  1
  O2-  O439  1  0.47328903  0.66687878  0.62301731  1
  O2-  O440  1  0.47031774  0.33327181  0.62504006  1
  O2-  O441  1  0.02918558  0.00082378  0.62609229  1
  O2-  O442  1  0.02940411  0.66715974  0.12603728  1
  O2-  O443  1  0.02813563  0.33333985  0.62487588  1
