# generated using pymatgen
data_La7(Ru4O11)2
_symmetry_space_group_name_H-M   'P 1'
_cell_length_a   23.99272923
_cell_length_b   16.83330368
_cell_length_c   15.42919890
_cell_angle_alpha   89.99588736
_cell_angle_beta   90.00106998
_cell_angle_gamma   90.00018034
_symmetry_Int_Tables_number   1
_chemical_formula_structural   La7(Ru4O11)2
_chemical_formula_sum   'La84 Ru96 O264'
_cell_volume   6231.49696091
_cell_formula_units_Z   12
loop_
 _symmetry_equiv_pos_site_id
 _symmetry_equiv_pos_as_xyz
  1  'x, y, z'
loop_
 _atom_type_symbol
 _atom_type_oxidation_number
  La3+  3.0
  Ru4+  4.0
  O2-  -2.0
loop_
 _atom_site_type_symbol
 _atom_site_label
 _atom_site_symmetry_multiplicity
 _atom_site_fract_x
 _atom_site_fract_y
 _atom_site_fract_z
 _atom_site_occupancy
  La3+  La0  1  0.14854989  0.00264700  0.13033868  1
  La3+  La1  1  0.14176470  -0.00061009  0.37523071  1
  La3+  La2  1  0.13625361  -0.00121280  0.61753647  1
  La3+  La3  1  0.13935682  0.00017196  0.87804122  1
  La3+  La4  1  0.13116146  0.32417786  0.13995768  1
  La3+  La5  1  0.13662503  0.32356465  0.36707235  1
  La3+  La6  1  0.14258759  0.33663064  0.61906426  1
  La3+  La7  1  0.14495004  0.33997283  0.87452493  1
  La3+  La8  1  0.14727049  0.66420152  0.12686533  1
  La3+  La9  1  0.14556462  0.66108051  0.37292169  1
  La3+  La10  1  0.14182143  0.66128139  0.62564086  1
  La3+  La11  1  0.14520210  0.65958200  0.87282584  1
  La3+  La12  1  0.63508456  0.00133300  0.12520304  1
  La3+  La13  1  0.63310208  0.00551935  0.37354497  1
  La3+  La14  1  0.63462225  0.00475041  0.62987230  1
  La3+  La15  1  0.63880529  -0.00017878  0.87234210  1
  La3+  La16  1  0.63835739  0.33579054  0.12546193  1
  La3+  La17  1  0.63756053  0.33509904  0.37934090  1
  La3+  La18  1  0.63252036  0.33708875  0.62214977  1
  La3+  La19  1  0.63872836  0.33386176  0.87367668  1
  La3+  La20  1  0.63785424  0.66514150  0.12722903  1
  La3+  La21  1  0.63782685  0.66065988  0.37015579  1
  La3+  La22  1  0.63495815  0.66428029  0.62366237  1
  La3+  La23  1  0.63586267  0.66772768  0.87619757  1
  La3+  La24  1  0.35314999  0.00224753  0.12812963  1
  La3+  La25  1  0.36578371  -0.00269600  0.36878452  1
  La3+  La26  1  0.35757048  0.00338655  0.61935444  1
  La3+  La27  1  0.36082818  -0.00144740  0.88046477  1
  La3+  La28  1  0.35648481  0.33623589  0.12467818  1
  La3+  La29  1  0.35478528  0.33825106  0.38139168  1
  La3+  La30  1  0.36150876  0.33948995  0.62099276  1
  La3+  La31  1  0.35287990  0.33836244  0.87600284  1
  La3+  La32  1  0.36012046  0.66558181  0.12737373  1
  La3+  La33  1  0.35499851  0.66418546  0.37027731  1
  La3+  La34  1  0.36011323  0.66419557  0.62502118  1
  La3+  La35  1  0.35552505  0.66001229  0.87325109  1
  La3+  La36  1  0.86179430  -0.00159589  0.12329177  1
  La3+  La37  1  0.86114332  0.00664185  0.37560149  1
  La3+  La38  1  0.86416538  0.00440979  0.62819073  1
  La3+  La39  1  0.86417328  0.00097890  0.87381466  1
  La3+  La40  1  0.86169603  0.33221420  0.11985061  1
  La3+  La41  1  0.86164246  0.33668897  0.37624935  1
  La3+  La42  1  0.86133500  0.33192748  0.63151943  1
  La3+  La43  1  0.85769309  0.33499767  0.88067876  1
  La3+  La44  1  0.85780968  0.66362781  0.12251698  1
  La3+  La45  1  0.86425631  0.65900374  0.37694901  1
  La3+  La46  1  0.86397454  0.66023943  0.62072817  1
  La3+  La47  1  0.86110335  0.66589969  0.87538572  1
  La3+  La48  1  -0.01100187  0.51829079  0.62557927  1
  La3+  La49  1  0.49684155  0.83079929  0.39191804  1
  La3+  La50  1  0.00136290  0.50081864  0.37902923  1
  La3+  La51  1  0.49820583  0.49582340  0.38375613  1
  La3+  La52  1  0.50002496  0.83091094  0.36964720  1
  La3+  La53  1  0.50292091  0.16445277  0.86815660  1
  La3+  La54  1  0.00401994  0.84235691  0.39786686  1
  La3+  La55  1  0.49305679  0.16471911  0.88465151  1
  La3+  La56  1  0.00660652  0.15832349  0.61784680  1
  La3+  La57  1  0.00765374  0.17274601  0.36010360  1
  La3+  La58  1  0.49785201  0.16401398  0.61452659  1
  La3+  La59  1  -0.00127418  0.50266789  0.10742466  1
  La3+  La60  1  0.00003990  0.50160425  0.12935548  1
  La3+  La61  1  0.00774214  0.18041314  0.11288760  1
  La3+  La62  1  0.50083630  0.84065568  0.65288505  1
  La3+  La63  1  0.50026841  0.49088285  0.36784883  1
  La3+  La64  1  0.50218907  0.49465877  0.61536688  1
  La3+  La65  1  0.00526818  0.82625657  0.64480760  1
  La3+  La66  1  -0.00040405  0.16084524  0.59861249  1
  La3+  La67  1  0.00786323  0.84818971  0.37702565  1
  La3+  La68  1  0.50288522  0.84049146  0.13602049  1
  La3+  La69  1  -0.00379565  0.16787819  0.86865876  1
  La3+  La70  1  0.50013124  0.16437789  0.13781319  1
  La3+  La71  1  0.00589369  0.17012718  0.13189303  1
  La3+  La72  1  0.75074907  0.22286188  0.47860416  1
  La3+  La73  1  0.75013865  0.84595517  0.72567996  1
  La3+  La74  1  0.24996485  0.87484434  0.77153496  1
  La3+  La75  1  0.75000389  0.21369289  0.21744171  1
  La3+  La76  1  0.25001573  0.09333967  0.75978265  1
  La3+  La77  1  0.75039398  0.81898222  0.23658389  1
  La3+  La78  1  0.75095903  0.81659788  0.48082056  1
  La3+  La79  1  0.24974066  0.82158824  0.25013622  1
  La3+  La80  1  0.25003019  0.17817887  0.45253018  1
  La3+  La81  1  0.25003402  0.87422643  0.56432021  1
  La3+  La82  1  0.75031930  0.52383593  0.77670629  1
  La3+  La83  1  0.24941851  0.49809381  0.72857480  1
  Ru4+  Ru84  1  -0.00327920  -0.00587403  -0.00138488  1
  Ru4+  Ru85  1  0.00215619  -0.00287179  0.25091206  1
  Ru4+  Ru86  1  -0.00329870  0.00312969  0.49206351  1
  Ru4+  Ru87  1  -0.00116977  -0.00474203  0.75111346  1
  Ru4+  Ru88  1  0.00310034  0.34843823  0.01492261  1
  Ru4+  Ru89  1  0.00375666  0.33111837  0.25491612  1
  Ru4+  Ru90  1  0.00188561  0.34770823  0.49063107  1
  Ru4+  Ru91  1  0.00894779  0.33044029  0.75084256  1
  Ru4+  Ru92  1  -0.00371673  0.66553061  -0.00624956  1
  Ru4+  Ru93  1  -0.00912224  0.67021815  0.23938791  1
  Ru4+  Ru94  1  0.00597666  0.66650136  0.51302233  1
  Ru4+  Ru95  1  -0.00015242  0.66413072  0.76083058  1
  Ru4+  Ru96  1  0.50092535  -0.00404276  -0.01054147  1
  Ru4+  Ru97  1  0.49851332  0.00500949  0.25011177  1
  Ru4+  Ru98  1  0.50018483  0.00648398  0.50518620  1
  Ru4+  Ru99  1  0.50181203  -0.00530554  0.76072446  1
  Ru4+  Ru100  1  0.50127415  0.34026829  -0.00317916  1
  Ru4+  Ru101  1  0.49971655  0.32681631  0.26469621  1
  Ru4+  Ru102  1  0.49936079  0.32180521  0.49759037  1
  Ru4+  Ru103  1  0.50256076  0.34093785  0.74785842  1
  Ru4+  Ru104  1  0.49893607  0.66672634  -0.00112040  1
  Ru4+  Ru105  1  0.49861765  0.65074332  0.24615665  1
  Ru4+  Ru106  1  0.49176511  0.66705995  0.49701042  1
  Ru4+  Ru107  1  0.49653882  0.66818258  0.76338916  1
  Ru4+  Ru108  1  0.11611871  0.16649310  0.00140154  1
  Ru4+  Ru109  1  0.11369167  0.16653340  0.25205153  1
  Ru4+  Ru110  1  0.11648456  0.16244225  0.49152776  1
  Ru4+  Ru111  1  0.11222398  0.17460367  0.75160630  1
  Ru4+  Ru112  1  0.11413459  0.49749699  0.00248134  1
  Ru4+  Ru113  1  0.11379388  0.49671717  0.24726428  1
  Ru4+  Ru114  1  0.11398237  0.49742995  0.49528539  1
  Ru4+  Ru115  1  0.10715417  0.49811256  0.75390097  1
  Ru4+  Ru116  1  0.11283604  0.83261338  -0.00367320  1
  Ru4+  Ru117  1  0.10877022  0.83320089  0.24659610  1
  Ru4+  Ru118  1  0.11735367  0.82564122  0.50166580  1
  Ru4+  Ru119  1  0.10745661  0.82859784  0.75681403  1
  Ru4+  Ru120  1  0.61346486  0.16209529  0.00334468  1
  Ru4+  Ru121  1  0.61333774  0.17562362  0.24718150  1
  Ru4+  Ru122  1  0.61065263  0.16301506  0.50099720  1
  Ru4+  Ru123  1  0.61653286  0.16730989  0.74824112  1
  Ru4+  Ru124  1  0.60633806  0.50069959  0.00007807  1
  Ru4+  Ru125  1  0.61384136  0.49972346  0.24939664  1
  Ru4+  Ru126  1  0.61772635  0.50734039  0.50119531  1
  Ru4+  Ru127  1  0.60954619  0.50270936  0.75199953  1
  Ru4+  Ru128  1  0.61200712  0.83336524  0.00079751  1
  Ru4+  Ru129  1  0.61623172  0.83521169  0.24921066  1
  Ru4+  Ru130  1  0.61149140  0.82968160  0.50175072  1
  Ru4+  Ru131  1  0.60997666  0.82984650  0.74600568  1
  Ru4+  Ru132  1  0.38571171  0.16499691  0.00561779  1
  Ru4+  Ru133  1  0.38809535  0.16559235  0.25188596  1
  Ru4+  Ru134  1  0.38728484  0.16343879  0.49938206  1
  Ru4+  Ru135  1  0.38883797  0.16579122  0.74815769  1
  Ru4+  Ru136  1  0.38416697  0.50031601  -0.00082919  1
  Ru4+  Ru137  1  0.38294339  0.49958732  0.24675345  1
  Ru4+  Ru138  1  0.38331879  0.50948101  0.50087686  1
  Ru4+  Ru139  1  0.38863281  0.50170616  0.75918721  1
  Ru4+  Ru140  1  0.39367773  0.82903763  -0.00517229  1
  Ru4+  Ru141  1  0.38159866  0.83265055  0.24714802  1
  Ru4+  Ru142  1  0.38810324  0.82804851  0.50250815  1
  Ru4+  Ru143  1  0.39171911  0.83206372  0.74990141  1
  Ru4+  Ru144  1  0.88489448  0.15937145  -0.00231029  1
  Ru4+  Ru145  1  0.88820654  0.16696980  0.25124676  1
  Ru4+  Ru146  1  0.88894857  0.16952943  0.49670287  1
  Ru4+  Ru147  1  0.88304147  0.17228965  0.75332992  1
  Ru4+  Ru148  1  0.88772790  0.49919108  -0.00288597  1
  Ru4+  Ru149  1  0.88774998  0.50471759  0.25205004  1
  Ru4+  Ru150  1  0.88282587  0.49804944  0.49835137  1
  Ru4+  Ru151  1  0.89158177  0.49994090  0.74884726  1
  Ru4+  Ru152  1  0.88834133  0.83942872  -0.00135333  1
  Ru4+  Ru153  1  0.89261327  0.82890422  0.24277653  1
  Ru4+  Ru154  1  0.88942704  0.83492484  0.50181485  1
  Ru4+  Ru155  1  0.88913686  0.83370307  0.74904508  1
  Ru4+  Ru156  1  0.74989614  0.70455698  0.71738793  1
  Ru4+  Ru157  1  0.74956789  0.76393972  0.00030512  1
  Ru4+  Ru158  1  0.74908145  0.67409920  0.50343832  1
  Ru4+  Ru159  1  0.74964207  0.24476439  -0.01198518  1
  Ru4+  Ru160  1  0.74919727  0.08159902  0.25457499  1
  Ru4+  Ru161  1  0.25144381  0.25609126  0.25462283  1
  Ru4+  Ru162  1  0.24957856  0.24804547  0.02025704  1
  Ru4+  Ru163  1  0.75136581  0.67408312  0.25080909  1
  Ru4+  Ru164  1  0.74909456  0.56941578  0.01321264  1
  Ru4+  Ru165  1  0.74938065  0.08358791  0.52091587  1
  Ru4+  Ru166  1  0.25082457  0.74177509  -0.01405921  1
  Ru4+  Ru167  1  0.74837922  0.94900804  0.52748992  1
  Ru4+  Ru168  1  0.74914089  0.43102001  -0.00344652  1
  Ru4+  Ru169  1  0.75067455  0.43299586  0.24993632  1
  Ru4+  Ru170  1  0.25068902  0.73105459  0.74077702  1
  Ru4+  Ru171  1  0.74946484  0.42194129  0.51014846  1
  Ru4+  Ru172  1  0.25144017  0.26900747  0.74886075  1
  Ru4+  Ru173  1  0.75027768  0.08032999  -0.00425358  1
  Ru4+  Ru174  1  0.75076105  0.95089449  0.27245489  1
  Ru4+  Ru175  1  0.25001923  0.70720391  0.48798043  1
  Ru4+  Ru176  1  0.75051324  0.38910521  0.73388038  1
  Ru4+  Ru177  1  0.25067420  0.94144256  -0.00122568  1
  Ru4+  Ru178  1  0.74930772  0.90939589  -0.01124929  1
  Ru4+  Ru179  1  0.74985303  0.98415261  0.75670624  1
  O2-  O180  1  0.16286206  0.08005312  -0.00116734  1
  O2-  O181  1  0.16077448  0.07944728  0.25067113  1
  O2-  O182  1  0.16825777  0.07818056  0.49579328  1
  O2-  O183  1  0.15734075  0.07552262  0.74961998  1
  O2-  O184  1  0.16145527  0.41398500  0.00583874  1
  O2-  O185  1  0.16582145  0.41222367  0.24737586  1
  O2-  O186  1  0.16557182  0.41720934  0.50111981  1
  O2-  O187  1  0.16585959  0.41704029  0.74710715  1
  O2-  O188  1  0.16806904  0.74766189  0.00160643  1
  O2-  O189  1  0.16412495  0.74724743  0.25073011  1
  O2-  O190  1  0.16924529  0.74301456  0.50016266  1
  O2-  O191  1  0.16904005  0.74900710  0.74973462  1
  O2-  O192  1  0.66948635  0.07770038  0.00133937  1
  O2-  O193  1  0.66435800  0.08282891  0.25268571  1
  O2-  O194  1  0.66561336  0.07981998  0.50014951  1
  O2-  O195  1  0.67170423  0.07775267  0.74809151  1
  O2-  O196  1  0.66684670  0.42056828  0.00052117  1
  O2-  O197  1  0.66696756  0.41522375  0.25248506  1
  O2-  O198  1  0.66936189  0.41565810  0.50385278  1
  O2-  O199  1  0.66966943  0.41182786  0.74974062  1
  O2-  O200  1  0.66458563  0.74803145  -0.00020175  1
  O2-  O201  1  0.66847537  0.74531915  0.25009348  1
  O2-  O202  1  0.67150165  0.74360607  0.50475938  1
  O2-  O203  1  0.66961803  0.74444955  0.74761362  1
  O2-  O204  1  0.33281434  0.25303681  0.00186196  1
  O2-  O205  1  0.33420382  0.25362240  0.24915401  1
  O2-  O206  1  0.33317131  0.25329226  0.50187953  1
  O2-  O207  1  0.33601656  0.25490866  0.74884746  1
  O2-  O208  1  0.33728667  0.58324305  0.00275251  1
  O2-  O209  1  0.33545344  0.58433291  0.24686440  1
  O2-  O210  1  0.33053736  0.58781034  0.50074734  1
  O2-  O211  1  0.33376119  0.58338449  0.74468757  1
  O2-  O212  1  0.33682627  0.91880722  0.00184982  1
  O2-  O213  1  0.33250317  0.91997175  0.25351925  1
  O2-  O214  1  0.33626529  0.91885302  0.49649909  1
  O2-  O215  1  0.33720206  0.92269120  0.74807074  1
  O2-  O216  1  0.83357362  0.25178240  0.00218744  1
  O2-  O217  1  0.83903371  0.25828798  0.25392109  1
  O2-  O218  1  0.84172099  0.26064187  0.50409938  1
  O2-  O219  1  0.82620747  0.25105055  0.74155576  1
  O2-  O220  1  0.83066298  0.58155222  -0.00047534  1
  O2-  O221  1  0.83074241  0.58707149  0.25370320  1
  O2-  O222  1  0.82962602  0.58554010  0.49993240  1
  O2-  O223  1  0.83833137  0.58498875  0.74773306  1
  O2-  O224  1  0.83132400  0.91859118  -0.00156921  1
  O2-  O225  1  0.83641019  0.92020289  0.24998083  1
  O2-  O226  1  0.82956351  0.92182043  0.50695195  1
  O2-  O227  1  0.83390564  0.92365257  0.74886772  1
  O2-  O228  1  0.16497259  0.25529806  0.00456076  1
  O2-  O229  1  0.16987013  0.25222144  0.24557545  1
  O2-  O230  1  0.16697231  0.25214899  0.50054291  1
  O2-  O231  1  0.16782730  0.25465314  0.74977969  1
  O2-  O232  1  0.16209814  0.58431666  0.00237413  1
  O2-  O233  1  0.16121388  0.58456451  0.24935192  1
  O2-  O234  1  0.16531794  0.58238121  0.49994084  1
  O2-  O235  1  0.16234787  0.58309516  0.74659903  1
  O2-  O236  1  0.16353129  0.91965696  0.00070078  1
  O2-  O237  1  0.16439558  0.91801902  0.25366951  1
  O2-  O238  1  0.16729940  0.91892851  0.49784034  1
  O2-  O239  1  0.16189770  0.92211309  0.74768068  1
  O2-  O240  1  0.66385964  0.25217086  0.00040309  1
  O2-  O241  1  0.66387535  0.25920557  0.25375372  1
  O2-  O242  1  0.66187685  0.26025557  0.50552520  1
  O2-  O243  1  0.66367528  0.25393510  0.74709915  1
  O2-  O244  1  0.66744616  0.58274355  0.00048299  1
  O2-  O245  1  0.66681207  0.58618082  0.24732039  1
  O2-  O246  1  0.67036352  0.59006025  0.50098088  1
  O2-  O247  1  0.66272095  0.58799401  0.74840350  1
  O2-  O248  1  0.66603965  0.91964374  -0.00067266  1
  O2-  O249  1  0.66614788  0.92380515  0.25206166  1
  O2-  O250  1  0.66408410  0.92069338  0.50076653  1
  O2-  O251  1  0.66496717  0.92085688  0.74807940  1
  O2-  O252  1  0.33472128  0.08231392  -0.00092607  1
  O2-  O253  1  0.33851505  0.08185544  0.25334630  1
  O2-  O254  1  0.33520330  0.07968913  0.49277820  1
  O2-  O255  1  0.34301980  0.07445466  0.74741365  1
  O2-  O256  1  0.33660072  0.41613239  0.00306011  1
  O2-  O257  1  0.33741634  0.41270757  0.25055624  1
  O2-  O258  1  0.33703176  0.41890440  0.50274299  1
  O2-  O259  1  0.33330692  0.41676422  0.74464038  1
  O2-  O260  1  0.33431586  0.74811919  0.00295645  1
  O2-  O261  1  0.33444151  0.74539952  0.24673416  1
  O2-  O262  1  0.33002372  0.74585070  0.50433479  1
  O2-  O263  1  0.33316753  0.75055602  0.74979253  1
  O2-  O264  1  0.83317543  0.07605213  0.00035004  1
  O2-  O265  1  0.83402681  0.08205101  0.24544640  1
  O2-  O266  1  0.83153575  0.08051907  0.50432580  1
  O2-  O267  1  0.83341850  0.07990564  0.74984376  1
  O2-  O268  1  0.83080886  0.41688983  0.00334674  1
  O2-  O269  1  0.83577402  0.41622906  0.25220841  1
  O2-  O270  1  0.83076705  0.41559972  0.50487326  1
  O2-  O271  1  0.83207166  0.41321411  0.74982097  1
  O2-  O272  1  0.83245041  0.75116559  0.00093116  1
  O2-  O273  1  0.82959281  0.74579777  0.25661524  1
  O2-  O274  1  0.83377652  0.74588375  0.50064397  1
  O2-  O275  1  0.83018993  0.74354454  0.74594718  1
  O2-  O276  1  0.94810558  0.56968481  0.48296700  1
  O2-  O277  1  0.04478916  0.09499031  0.00200999  1
  O2-  O278  1  0.54902483  0.56240140  0.25763124  1
  O2-  O279  1  0.95359776  0.90330462  0.22722512  1
  O2-  O280  1  0.45155525  0.90444084  0.76210892  1
  O2-  O281  1  0.04640060  0.44795751  0.55194432  1
  O2-  O282  1  0.44544529  0.90433302  0.25985000  1
  O2-  O283  1  0.53263625  0.55410594  0.96668158  1
  O2-  O284  1  0.05169680  0.23771598  0.23877951  1
  O2-  O285  1  0.95776508  0.23209968  0.98729248  1
  O2-  O286  1  0.94649580  0.42872247  0.48936478  1
  O2-  O287  1  0.94694418  0.08990488  0.73553843  1
  O2-  O288  1  0.94996239  0.24188562  0.26093187  1
  O2-  O289  1  0.05176058  0.89945411  0.51499685  1
  O2-  O290  1  0.45749745  0.43086494  0.49302189  1
  O2-  O291  1  0.95651318  0.76750681  0.30265276  1
  O2-  O292  1  0.04489857  0.56972010  0.75997385  1
  O2-  O293  1  0.55037653  0.23424458  0.51220434  1
  O2-  O294  1  0.04167354  0.78319347  0.99169743  1
  O2-  O295  1  0.54463875  0.75310494  0.25413922  1
  O2-  O296  1  0.54988265  0.43336738  0.75384240  1
  O2-  O297  1  0.54461999  0.23307236  0.99578891  1
  O2-  O298  1  0.44538160  0.23403596  0.51038758  1
  O2-  O299  1  0.96532929  0.23466246  0.71093373  1
  O2-  O300  1  0.45297788  0.90684442  0.99178998  1
  O2-  O301  1  0.04795494  0.90665554  0.74610153  1
  O2-  O302  1  0.55278043  0.43303200  0.50243768  1
  O2-  O303  1  0.04507327  0.23183922  0.48080058  1
  O2-  O304  1  0.45304129  0.22674340  0.25487972  1
  O2-  O305  1  0.94693478  0.24235688  0.02100080  1
  O2-  O306  1  0.54825918  0.78404552  0.55165600  1
  O2-  O307  1  0.05050244  0.24511582  0.51638665  1
  O2-  O308  1  0.94900154  0.77334685  0.03534231  1
  O2-  O309  1  0.55163473  0.90568570  0.26406157  1
  O2-  O310  1  0.44915569  0.44871665  0.70604630  1
  O2-  O311  1  0.55242505  0.10359639  0.26840005  1
  O2-  O312  1  0.45074858  0.77043346  0.55680229  1
  O2-  O313  1  0.04912545  0.75995255  0.23289000  1
  O2-  O314  1  0.95095393  0.09265638  0.23597788  1
  O2-  O315  1  0.45621319  0.23481548  0.75638412  1
  O2-  O316  1  0.44618354  0.76126026  0.25158136  1
  O2-  O317  1  0.45235402  0.55827655  0.24475161  1
  O2-  O318  1  0.45240653  0.91132927  0.51753853  1
  O2-  O319  1  0.05083153  0.09423115  0.74999882  1
  O2-  O320  1  0.54929745  0.23156692  0.49822671  1
  O2-  O321  1  0.95671745  0.88282804  0.54921511  1
  O2-  O322  1  0.46638291  0.77477931  0.03574024  1
  O2-  O323  1  0.55229641  0.42954773  0.73449677  1
  O2-  O324  1  0.44265216  0.73584270  0.27860766  1
  O2-  O325  1  0.93709899  0.58957020  0.02499312  1
  O2-  O326  1  0.91404580  0.26560027  0.80897833  1
  O2-  O327  1  0.93746138  0.60110314  0.47301596  1
  O2-  O328  1  0.06447418  0.93032255  0.51883268  1
  O2-  O329  1  0.43869740  0.42101271  0.46935561  1
  O2-  O330  1  0.06900325  0.26283566  0.28931950  1
  O2-  O331  1  0.06353442  0.26950239  0.67009903  1
  O2-  O332  1  0.93312564  0.57684098  0.18051763  1
  O2-  O333  1  0.93568500  0.92874290  0.98131781  1
  O2-  O334  1  0.43986580  0.59785362  0.57526571  1
  O2-  O335  1  0.43919555  0.73770893  0.71587840  1
  O2-  O336  1  0.06366116  0.25394289  0.22734832  1
  O2-  O337  1  0.43886204  0.59466583  0.78451743  1
  O2-  O338  1  0.93431651  0.74825769  0.81404061  1
  O2-  O339  1  0.42853260  0.71167484  0.93637265  1
  O2-  O340  1  0.92813695  0.73996630  0.95557891  1
  O2-  O341  1  0.57160529  0.61385215  0.05444502  1
  O2-  O342  1  0.06235235  0.59537973  0.45557260  1
  O2-  O343  1  0.06292409  0.73885566  0.82065639  1
  O2-  O344  1  0.43472872  0.58120972  0.42664657  1
  O2-  O345  1  0.93322195  0.74785022  0.69479106  1
  O2-  O346  1  0.91845877  0.92386091  0.43790838  1
  O2-  O347  1  0.94377374  0.59832794  0.32126794  1
  O2-  O348  1  0.56600906  0.40429068  0.98168376  1
  O2-  O349  1  0.42671405  0.73128639  0.42977967  1
  O2-  O350  1  0.56216895  0.07928909  0.76717605  1
  O2-  O351  1  0.05703961  0.41382172  0.27648973  1
  O2-  O352  1  0.06781914  0.24534787  0.82138989  1
  O2-  O353  1  0.42623516  0.39428978  0.80165911  1
  O2-  O354  1  0.56472766  0.74489540  0.27618956  1
  O2-  O355  1  0.57600743  0.73185483  0.43875992  1
  O2-  O356  1  0.06870343  0.38730744  0.43287893  1
  O2-  O357  1  0.44074219  0.92868023  0.28761053  1
  O2-  O358  1  0.56209789  0.73539196  0.71646602  1
  O2-  O359  1  0.56929373  0.08974663  0.07533957  1
  O2-  O360  1  0.57104870  0.08583188  0.93068046  1
  O2-  O361  1  0.56229518  0.26580359  0.20905672  1
  O2-  O362  1  0.93909596  0.08170712  0.48115127  1
  O2-  O363  1  0.07307099  0.71761775  0.96548759  1
  O2-  O364  1  0.44021480  0.07368384  0.03864444  1
  O2-  O365  1  0.06096219  0.40990305  0.77076283  1
  O2-  O366  1  0.92108579  0.73206883  0.18679887  1
  O2-  O367  1  0.07324442  0.74971118  0.68920250  1
  O2-  O368  1  0.55918243  0.40711485  0.52778090  1
  O2-  O369  1  0.93647725  0.41100057  0.98374684  1
  O2-  O370  1  0.43824142  0.26106951  0.04172717  1
  O2-  O371  1  0.56119614  0.07015487  0.27366828  1
  O2-  O372  1  0.74850081  0.66477945  0.12468416  1
  O2-  O373  1  0.25101933  -0.00364277  0.61260438  1
  O2-  O374  1  0.24868717  0.67586389  0.36686672  1
  O2-  O375  1  0.75082510  0.65109257  0.82005975  1
  O2-  O376  1  0.25021605  0.32358932  0.14772692  1
  O2-  O377  1  0.25053694  -0.01233447  0.12852020  1
  O2-  O378  1  0.74947869  0.66618938  0.94898415  1
  O2-  O379  1  0.75077278  0.33955980  0.19733777  1
  O2-  O380  1  0.24806753  0.00096031  0.88962516  1
  O2-  O381  1  0.25010083  0.31463572  0.38330274  1
  O2-  O382  1  0.24883802  0.67482851  0.16963288  1
  O2-  O383  1  0.75069942  0.00392000  0.13896469  1
  O2-  O384  1  0.24999186  0.66022135  0.07915012  1
  O2-  O385  1  0.75122120  0.34606783  0.39954534  1
  O2-  O386  1  0.74897737  -0.00410002  0.39435024  1
  O2-  O387  1  0.25009069  0.66516486  0.63770005  1
  O2-  O388  1  0.24987624  0.64885939  0.91916797  1
  O2-  O389  1  0.24977538  0.33364986  0.92899999  1
  O2-  O390  1  0.74976335  0.33413147  0.06254118  1
  O2-  O391  1  0.74954336  0.33972692  0.90037564  1
  O2-  O392  1  0.24929308  0.65111066  0.82598721  1
  O2-  O393  1  0.25032011  0.33836218  0.65137183  1
  O2-  O394  1  0.24998648  0.34761688  0.83571927  1
  O2-  O395  1  0.74984411  0.66156867  0.37532948  1
  O2-  O396  1  0.74973980  0.15292382  0.61405557  1
  O2-  O397  1  0.75059471  0.15342874  0.35656726  1
  O2-  O398  1  0.24958231  0.50056402  0.41554510  1
  O2-  O399  1  0.24978614  0.17400459  0.09827156  1
  O2-  O400  1  0.25005947  0.50019714  0.59637891  1
  O2-  O401  1  0.25021996  0.15339463  0.58527801  1
  O2-  O402  1  0.24994838  0.85941329  0.37372543  1
  O2-  O403  1  0.75014059  0.49408880  0.15538456  1
  O2-  O404  1  0.24924768  0.16018741  0.94152501  1
  O2-  O405  1  0.24954928  0.19187756  0.66258253  1
  O2-  O406  1  0.24921564  0.83996747  0.03956388  1
  O2-  O407  1  0.25031393  0.50052251  0.86119842  1
  O2-  O408  1  0.74998665  0.47784214  0.62900807  1
  O2-  O409  1  0.25021863  0.83667717  0.90257040  1
  O2-  O410  1  0.24969164  0.19115968  0.85740036  1
  O2-  O411  1  0.25042541  0.49976139  0.15694712  1
  O2-  O412  1  0.24999966  0.81172333  0.44527741  1
  O2-  O413  1  0.74979998  0.83736436  0.88033607  1
  O2-  O414  1  0.75011899  0.16172132  0.08496942  1
  O2-  O415  1  0.74977060  0.83845804  0.09587073  1
  O2-  O416  1  0.25037459  0.16195524  0.31123654  1
  O2-  O417  1  0.74996213  0.15895110  0.90355975  1
  O2-  O418  1  0.24980630  0.50078398  0.33541706  1
  O2-  O419  1  0.25017823  0.83086301  0.12369195  1
  O2-  O420  1  0.45156769  0.33783472  0.35714148  1
  O2-  O421  1  0.96832669  0.33408279  0.37172887  1
  O2-  O422  1  0.45695935  0.32389760  0.90432800  1
  O2-  O423  1  0.99820082  0.66516222  0.11655222  1
  O2-  O424  1  0.96109394  0.00734927  0.35530735  1
  O2-  O425  1  0.52053155  -0.01738318  0.12593816  1
  O2-  O426  1  0.47379764  0.33082403  0.62299724  1
  O2-  O427  1  0.54190213  0.31555814  0.85541695  1
  O2-  O428  1  0.52773709  -0.00077499  0.63034954  1
  O2-  O429  1  0.54630880  0.34515279  0.37470961  1
  O2-  O430  1  0.05096630  -0.00013310  0.37669571  1
  O2-  O431  1  0.03176134  0.34197371  0.90336918  1
  O2-  O432  1  0.97831470  0.34131309  0.86592981  1
  O2-  O433  1  0.52008465  0.64246066  0.37174268  1
  O2-  O434  1  0.04697146  0.65264307  0.61144490  1
  O2-  O435  1  0.47328719  0.66511515  0.12821496  1
  O2-  O436  1  0.53948407  -0.03187706  0.87108643  1
  O2-  O437  1  0.97642363  0.00946723  0.87151897  1
  O2-  O438  1  0.02215865  0.00887567  0.62140895  1
  O2-  O439  1  0.98124847  0.64538218  0.87628255  1
  O2-  O440  1  0.02769103  0.00012664  0.12516279  1
  O2-  O441  1  0.45296907  0.02179810  0.87190208  1
  O2-  O442  1  0.95452240  0.65337413  0.60945414  1
  O2-  O443  1  0.52954517  0.67129778  0.87192309  1
