# generated using pymatgen
data_La7(Ru4O11)2
_symmetry_space_group_name_H-M   'P 1'
_cell_length_a   23.99686092
_cell_length_b   16.83771843
_cell_length_c   15.43427309
_cell_angle_alpha   89.99542997
_cell_angle_beta   89.99628715
_cell_angle_gamma   90.00177630
_symmetry_Int_Tables_number   1
_chemical_formula_structural   La7(Ru4O11)2
_chemical_formula_sum   'La84 Ru96 O264'
_cell_volume   6236.25485273
_cell_formula_units_Z   12
loop_
 _symmetry_equiv_pos_site_id
 _symmetry_equiv_pos_as_xyz
  1  'x, y, z'
loop_
 _atom_type_symbol
 _atom_type_oxidation_number
  La3+  3.0
  Ru4+  4.0
  O2-  -2.0
loop_
 _atom_site_type_symbol
 _atom_site_label
 _atom_site_symmetry_multiplicity
 _atom_site_fract_x
 _atom_site_fract_y
 _atom_site_fract_z
 _atom_site_occupancy
  La3+  La0  1  0.13412872  -0.00661128  0.12564431  1
  La3+  La1  1  0.14545727  -0.00280367  0.37730156  1
  La3+  La2  1  0.13779447  -0.00108028  0.61852087  1
  La3+  La3  1  0.13269230  -0.00639763  0.87683843  1
  La3+  La4  1  0.14483433  0.33365938  0.12600426  1
  La3+  La5  1  0.14802528  0.33364140  0.37585087  1
  La3+  La6  1  0.14100803  0.33868199  0.61346445  1
  La3+  La7  1  0.13781403  0.34232983  0.87302511  1
  La3+  La8  1  0.14403102  0.66820294  0.12309729  1
  La3+  La9  1  0.13785651  0.67036749  0.36424783  1
  La3+  La10  1  0.13648489  0.66147552  0.62671294  1
  La3+  La11  1  0.15142161  0.65891265  0.87453098  1
  La3+  La12  1  0.64827089  -0.00048621  0.12592193  1
  La3+  La13  1  0.65179346  0.01417128  0.38346641  1
  La3+  La14  1  0.63505514  0.00084664  0.61913694  1
  La3+  La15  1  0.64761102  0.00304268  0.88046638  1
  La3+  La16  1  0.64753842  0.32648403  0.12502992  1
  La3+  La17  1  0.64430213  0.32151057  0.37150589  1
  La3+  La18  1  0.64079794  0.34252942  0.62854865  1
  La3+  La19  1  0.63740960  0.33157411  0.87776173  1
  La3+  La20  1  0.63861692  0.68372505  0.14014490  1
  La3+  La21  1  0.63615806  0.66573713  0.37790900  1
  La3+  La22  1  0.63112243  0.66479980  0.61933985  1
  La3+  La23  1  0.64192513  0.66371179  0.88112490  1
  La3+  La24  1  0.36070840  -0.00588282  0.12456893  1
  La3+  La25  1  0.35937343  -0.00207129  0.38048081  1
  La3+  La26  1  0.35801046  0.00062523  0.61326328  1
  La3+  La27  1  0.36612236  -0.00415298  0.87461682  1
  La3+  La28  1  0.35999911  0.33891627  0.12588754  1
  La3+  La29  1  0.35621621  0.33416928  0.38007213  1
  La3+  La30  1  0.34942685  0.33893299  0.62194393  1
  La3+  La31  1  0.35435068  0.34515388  0.87252517  1
  La3+  La32  1  0.35289290  0.66750425  0.12546177  1
  La3+  La33  1  0.35827163  0.67795176  0.37263180  1
  La3+  La34  1  0.35903021  0.66698380  0.63043923  1
  La3+  La35  1  0.35245713  0.65706338  0.86994840  1
  La3+  La36  1  0.84889723  0.00366502  0.12002215  1
  La3+  La37  1  0.86123652  -0.00153416  0.37638428  1
  La3+  La38  1  0.85457994  0.01191613  0.62315457  1
  La3+  La39  1  0.85251530  -0.00102822  0.87989864  1
  La3+  La40  1  0.85728907  0.32831029  0.12693163  1
  La3+  La41  1  0.86196320  0.32524464  0.37019613  1
  La3+  La42  1  0.85717925  0.33602526  0.62609571  1
  La3+  La43  1  0.86170654  0.33413784  0.87430276  1
  La3+  La44  1  0.86931905  0.67130137  0.12246854  1
  La3+  La45  1  0.86350462  0.66782156  0.36731557  1
  La3+  La46  1  0.86787834  0.66294640  0.62514475  1
  La3+  La47  1  0.85458301  0.66724083  0.87479331  1
  La3+  La48  1  -0.00326897  0.15554005  0.88211515  1
  La3+  La49  1  0.49467530  0.49516404  0.12291412  1
  La3+  La50  1  0.50310521  0.16720330  0.62053525  1
  La3+  La51  1  0.00335152  0.81198820  0.37885944  1
  La3+  La52  1  0.01191758  0.82477383  0.36811157  1
  La3+  La53  1  0.00035217  0.83151016  0.62042351  1
  La3+  La54  1  0.01068329  0.49918236  0.13499838  1
  La3+  La55  1  -0.00572800  0.50969141  0.87791807  1
  La3+  La56  1  0.50409830  0.16149358  0.12083386  1
  La3+  La57  1  0.00037099  0.84594887  0.63669884  1
  La3+  La58  1  0.00294756  0.16663890  0.89849483  1
  La3+  La59  1  0.00547367  0.83158432  0.13062917  1
  La3+  La60  1  -0.00163424  0.49595257  0.37661601  1
  La3+  La61  1  0.50832901  0.82315242  0.87522508  1
  La3+  La62  1  0.48583142  0.82691345  0.12131865  1
  La3+  La63  1  0.49851984  0.16771084  0.87949163  1
  La3+  La64  1  0.50968784  0.52037117  0.85591760  1
  La3+  La65  1  0.50414893  0.50263982  0.13808613  1
  La3+  La66  1  0.50032653  0.17685316  0.60096147  1
  La3+  La67  1  0.00478874  0.50201997  0.63284508  1
  La3+  La68  1  0.50970638  0.81844795  0.89113524  1
  La3+  La69  1  0.49664863  0.14993847  0.36016958  1
  La3+  La70  1  0.49844023  0.49743280  0.64375111  1
  La3+  La71  1  0.00533354  0.50034441  0.61199369  1
  La3+  La72  1  0.75052561  0.50920946  0.51190530  1
  La3+  La73  1  0.24774348  0.16115754  0.52532441  1
  La3+  La74  1  0.75096943  0.84394454  0.21295663  1
  La3+  La75  1  0.24749182  0.78164105  0.75046741  1
  La3+  La76  1  0.74776686  0.13092497  0.72599219  1
  La3+  La77  1  0.24954586  0.11785186  0.00366036  1
  La3+  La78  1  0.25137453  0.19107183  0.81494709  1
  La3+  La79  1  0.75213615  0.49376756  -0.04509712  1
  La3+  La80  1  0.24853504  0.14364068  0.26808863  1
  La3+  La81  1  0.74936906  0.78602136  0.50423275  1
  La3+  La82  1  0.75001325  0.45938568  0.30960868  1
  La3+  La83  1  0.75030066  0.84075391  0.76346281  1
  Ru4+  Ru84  1  0.00012105  -0.00353436  -0.00041142  1
  Ru4+  Ru85  1  -0.00650772  0.00198592  0.24478724  1
  Ru4+  Ru86  1  -0.00286728  0.00634797  0.51306707  1
  Ru4+  Ru87  1  -0.00104285  -0.00083511  0.75283764  1
  Ru4+  Ru88  1  0.00715102  0.34896562  0.01674582  1
  Ru4+  Ru89  1  0.00047380  0.32303868  0.25916609  1
  Ru4+  Ru90  1  0.00237968  0.31998647  0.49259828  1
  Ru4+  Ru91  1  -0.00346322  0.30402707  0.72896774  1
  Ru4+  Ru92  1  0.00436201  0.66557263  0.01340515  1
  Ru4+  Ru93  1  0.00102043  0.65323346  0.23708444  1
  Ru4+  Ru94  1  0.00519123  0.66005371  0.50620285  1
  Ru4+  Ru95  1  0.00382752  0.67288481  0.74860683  1
  Ru4+  Ru96  1  0.50272357  -0.00118766  0.01153396  1
  Ru4+  Ru97  1  0.50601493  -0.00042109  0.24333578  1
  Ru4+  Ru98  1  0.50323822  -0.01203069  0.49326296  1
  Ru4+  Ru99  1  0.49151325  -0.01188686  0.75684886  1
  Ru4+  Ru100  1  0.50544733  0.33218026  0.00212266  1
  Ru4+  Ru101  1  0.49910685  0.33038430  0.24974729  1
  Ru4+  Ru102  1  0.50762248  0.34147920  0.48464590  1
  Ru4+  Ru103  1  0.49799587  0.33672967  0.76574693  1
  Ru4+  Ru104  1  0.50124884  0.67106476  0.00121331  1
  Ru4+  Ru105  1  0.49309424  0.66252541  0.24630052  1
  Ru4+  Ru106  1  0.49736819  0.66572456  0.49505375  1
  Ru4+  Ru107  1  0.49671201  0.67988368  0.76585825  1
  Ru4+  Ru108  1  0.10910779  0.16416094  0.00636053  1
  Ru4+  Ru109  1  0.10203963  0.16265896  0.25269288  1
  Ru4+  Ru110  1  0.10062473  0.17290233  0.49723233  1
  Ru4+  Ru111  1  0.11006327  0.17741958  0.74003708  1
  Ru4+  Ru112  1  0.11362623  0.49594710  0.00080590  1
  Ru4+  Ru113  1  0.11168764  0.50020857  0.25429881  1
  Ru4+  Ru114  1  0.10712085  0.50315457  0.49731211  1
  Ru4+  Ru115  1  0.11253881  0.49844797  0.74670124  1
  Ru4+  Ru116  1  0.11033043  0.83329696  -0.00884030  1
  Ru4+  Ru117  1  0.12015389  0.83562797  0.24630731  1
  Ru4+  Ru118  1  0.12440277  0.83143233  0.50513045  1
  Ru4+  Ru119  1  0.10355397  0.83292734  0.74996742  1
  Ru4+  Ru120  1  0.61521436  0.16802051  0.00201384  1
  Ru4+  Ru121  1  0.61242097  0.16743223  0.24659035  1
  Ru4+  Ru122  1  0.61517272  0.16638507  0.50349876  1
  Ru4+  Ru123  1  0.60657361  0.16680421  0.75193954  1
  Ru4+  Ru124  1  0.60645549  0.50288285  0.00308444  1
  Ru4+  Ru125  1  0.60995266  0.49706656  0.25617744  1
  Ru4+  Ru126  1  0.60455044  0.49426921  0.48603263  1
  Ru4+  Ru127  1  0.61641316  0.49489256  0.75078466  1
  Ru4+  Ru128  1  0.61127973  0.83942846  -0.00097277  1
  Ru4+  Ru129  1  0.60321089  0.84862629  0.25685525  1
  Ru4+  Ru130  1  0.60349995  0.83333679  0.50472995  1
  Ru4+  Ru131  1  0.61069039  0.83441211  0.74779237  1
  Ru4+  Ru132  1  0.39145540  0.16245774  -0.00071231  1
  Ru4+  Ru133  1  0.38987113  0.17192247  0.24676289  1
  Ru4+  Ru134  1  0.38547020  0.17677862  0.49601648  1
  Ru4+  Ru135  1  0.38811405  0.16329541  0.75756401  1
  Ru4+  Ru136  1  0.38448280  0.50008180  0.00072716  1
  Ru4+  Ru137  1  0.38636874  0.49940655  0.24829148  1
  Ru4+  Ru138  1  0.39724650  0.51682462  0.50097476  1
  Ru4+  Ru139  1  0.38426061  0.49142986  0.74869540  1
  Ru4+  Ru140  1  0.38872865  0.83681996  -0.00104921  1
  Ru4+  Ru141  1  0.38402972  0.82739044  0.25077275  1
  Ru4+  Ru142  1  0.39148062  0.83611119  0.50183547  1
  Ru4+  Ru143  1  0.39237024  0.83559899  0.73624684  1
  Ru4+  Ru144  1  0.88394944  0.16833643  0.00657572  1
  Ru4+  Ru145  1  0.88657870  0.17244473  0.25069872  1
  Ru4+  Ru146  1  0.89312531  0.16464126  0.50143347  1
  Ru4+  Ru147  1  0.89142006  0.17481920  0.72768575  1
  Ru4+  Ru148  1  0.88985664  0.50282864  0.00042597  1
  Ru4+  Ru149  1  0.88891983  0.49478532  0.25308260  1
  Ru4+  Ru150  1  0.88934864  0.50093437  0.49844226  1
  Ru4+  Ru151  1  0.88586700  0.48924896  0.74862361  1
  Ru4+  Ru152  1  0.89076215  0.82933632  -0.01543106  1
  Ru4+  Ru153  1  0.88942092  0.84272685  0.24679214  1
  Ru4+  Ru154  1  0.88365717  0.83524542  0.51131149  1
  Ru4+  Ru155  1  0.89137300  0.83327173  0.74675389  1
  Ru4+  Ru156  1  0.25003486  0.56391872  0.22377848  1
  Ru4+  Ru157  1  0.74957278  0.62104493  0.05572211  1
  Ru4+  Ru158  1  0.74845970  0.27261672  0.77445172  1
  Ru4+  Ru159  1  0.24810990  0.57613820  0.49871259  1
  Ru4+  Ru160  1  0.24946917  0.29591070  0.70232904  1
  Ru4+  Ru161  1  0.25061399  0.26968791  0.02486979  1
  Ru4+  Ru162  1  0.74914081  0.94194365  0.50299284  1
  Ru4+  Ru163  1  0.74906129  0.97299666  0.72032856  1
  Ru4+  Ru164  1  0.25052137  0.77228019  0.48472054  1
  Ru4+  Ru165  1  0.75193396  0.22864821  0.49865530  1
  Ru4+  Ru166  1  0.74940247  0.61116353  0.24909450  1
  Ru4+  Ru167  1  0.74941928  0.56277143  0.73588429  1
  Ru4+  Ru168  1  0.25124217  0.75457672  0.00979569  1
  Ru4+  Ru169  1  0.25024249  0.00040768  0.23064056  1
  Ru4+  Ru170  1  0.74979559  0.70305516  0.72299707  1
  Ru4+  Ru171  1  0.75168524  0.09499613  0.24420915  1
  Ru4+  Ru172  1  0.74877584  0.77111536  -0.00231886  1
  Ru4+  Ru173  1  0.74872433  0.34566069  0.00464061  1
  Ru4+  Ru174  1  0.25065964  0.42441205  0.50189341  1
  Ru4+  Ru175  1  0.24860947  0.92591334  0.75982386  1
  Ru4+  Ru176  1  0.25005324  0.28879030  0.23427727  1
  Ru4+  Ru177  1  0.75021615  0.64530638  0.48116003  1
  Ru4+  Ru178  1  0.24843494  0.06237638  0.74058396  1
  Ru4+  Ru179  1  0.75059809  0.36637790  0.51621318  1
  O2-  O180  1  0.16066611  0.07432735  -0.00113016  1
  O2-  O181  1  0.16089955  0.07964679  0.24508236  1
  O2-  O182  1  0.16212998  0.08193245  0.50149513  1
  O2-  O183  1  0.16481771  0.08030546  0.75401873  1
  O2-  O184  1  0.16666685  0.41577422  0.00171634  1
  O2-  O185  1  0.16163998  0.41755406  0.25049353  1
  O2-  O186  1  0.16679153  0.42003221  0.49449342  1
  O2-  O187  1  0.16278034  0.41868932  0.74923251  1
  O2-  O188  1  0.16992648  0.75198627  -0.00162543  1
  O2-  O189  1  0.16803347  0.74746962  0.25103040  1
  O2-  O190  1  0.17059721  0.73990977  0.49621495  1
  O2-  O191  1  0.15724505  0.74212878  0.74179110  1
  O2-  O192  1  0.66247472  0.08314313  -0.00032382  1
  O2-  O193  1  0.66981762  0.08098477  0.24886666  1
  O2-  O194  1  0.66786067  0.08561702  0.51185603  1
  O2-  O195  1  0.65725399  0.07751439  0.74795896  1
  O2-  O196  1  0.67037841  0.41420037  -0.00588459  1
  O2-  O197  1  0.66444364  0.41591091  0.24732598  1
  O2-  O198  1  0.66947475  0.40992425  0.49968121  1
  O2-  O199  1  0.66841646  0.41507218  0.75378210  1
  O2-  O200  1  0.66658616  0.74965895  -0.00124434  1
  O2-  O201  1  0.67168474  0.75787687  0.25226955  1
  O2-  O202  1  0.65870888  0.74276169  0.49703051  1
  O2-  O203  1  0.66499611  0.74281262  0.74637974  1
  O2-  O204  1  0.33366711  0.25214453  0.00295680  1
  O2-  O205  1  0.33399961  0.25586623  0.25014017  1
  O2-  O206  1  0.32685205  0.25148674  0.49459832  1
  O2-  O207  1  0.33533067  0.25236538  0.75387626  1
  O2-  O208  1  0.33931583  0.58680547  0.00045485  1
  O2-  O209  1  0.32834998  0.58471563  0.24954404  1
  O2-  O210  1  0.32857704  0.58918455  0.50274020  1
  O2-  O211  1  0.33583095  0.58012739  0.74699395  1
  O2-  O212  1  0.33670738  0.92062307  -0.00421314  1
  O2-  O213  1  0.33667561  0.92055840  0.24885637  1
  O2-  O214  1  0.33439181  0.91748831  0.49508225  1
  O2-  O215  1  0.33234178  0.91628049  0.75761448  1
  O2-  O216  1  0.83615314  0.25462325  0.00216780  1
  O2-  O217  1  0.83158090  0.24924727  0.24594596  1
  O2-  O218  1  0.83475306  0.25029925  0.49515000  1
  O2-  O219  1  0.82851372  0.25521849  0.74852841  1
  O2-  O220  1  0.82958294  0.58813466  0.00941542  1
  O2-  O221  1  0.82974371  0.58813973  0.25571411  1
  O2-  O222  1  0.83430445  0.58833382  0.49923011  1
  O2-  O223  1  0.83444478  0.57887472  0.74244006  1
  O2-  O224  1  0.84249738  0.91635772  -0.00103510  1
  O2-  O225  1  0.83212128  0.92069155  0.25328591  1
  O2-  O226  1  0.83110575  0.92044582  0.49825558  1
  O2-  O227  1  0.83184893  0.92313925  0.75160420  1
  O2-  O228  1  0.16815202  0.25094185  -0.00008802  1
  O2-  O229  1  0.16494691  0.25140923  0.25059398  1
  O2-  O230  1  0.16615185  0.24696954  0.50566197  1
  O2-  O231  1  0.17220135  0.24742110  0.75745994  1
  O2-  O232  1  0.16170668  0.58312361  0.00018289  1
  O2-  O233  1  0.17051469  0.58646190  0.25178411  1
  O2-  O234  1  0.16536920  0.59035904  0.49727744  1
  O2-  O235  1  0.16390665  0.58703768  0.74141852  1
  O2-  O236  1  0.16226604  0.91789581  -0.00106126  1
  O2-  O237  1  0.17151733  0.92416315  0.24367951  1
  O2-  O238  1  0.16964899  0.92303971  0.49930955  1
  O2-  O239  1  0.16556643  0.91836179  0.75243751  1
  O2-  O240  1  0.67264455  0.25293822  0.00007166  1
  O2-  O241  1  0.66186702  0.24916043  0.24649712  1
  O2-  O242  1  0.67132412  0.24961271  0.49899676  1
  O2-  O243  1  0.66589728  0.25467337  0.75157391  1
  O2-  O244  1  0.67786492  0.57888065  -0.01250119  1
  O2-  O245  1  0.66729596  0.58783877  0.25481854  1
  O2-  O246  1  0.66684832  0.58243401  0.50250299  1
  O2-  O247  1  0.66587795  0.58467988  0.74439288  1
  O2-  O248  1  0.66117242  0.91950290  -0.00113682  1
  O2-  O249  1  0.67234136  0.91263832  0.23925410  1
  O2-  O250  1  0.66440370  0.91364233  0.50398781  1
  O2-  O251  1  0.66607782  0.92240074  0.74817000  1
  O2-  O252  1  0.33817212  0.07595848  -0.00364354  1
  O2-  O253  1  0.33479904  0.07584658  0.24786129  1
  O2-  O254  1  0.33452947  0.08431801  0.49554096  1
  O2-  O255  1  0.33107916  0.07956038  0.75523761  1
  O2-  O256  1  0.34042725  0.41189789  0.00325012  1
  O2-  O257  1  0.33804010  0.41417356  0.25095920  1
  O2-  O258  1  0.34029055  0.42413832  0.49666871  1
  O2-  O259  1  0.32684910  0.42130097  0.75726003  1
  O2-  O260  1  0.33463521  0.74707725  -0.00420397  1
  O2-  O261  1  0.32758288  0.75122323  0.24396778  1
  O2-  O262  1  0.32919875  0.74989127  0.49831426  1
  O2-  O263  1  0.33865463  0.74929937  0.75273626  1
  O2-  O264  1  0.83763889  0.08337557  -0.00355998  1
  O2-  O265  1  0.83743045  0.08057215  0.25468746  1
  O2-  O266  1  0.83620779  0.08500559  0.49407084  1
  O2-  O267  1  0.84351791  0.08530033  0.75480528  1
  O2-  O268  1  0.83046055  0.41318109  0.00454512  1
  O2-  O269  1  0.83609403  0.41284731  0.24936786  1
  O2-  O270  1  0.83201882  0.41102895  0.49177885  1
  O2-  O271  1  0.83045526  0.41204239  0.74913963  1
  O2-  O272  1  0.83000915  0.75055668  0.00400293  1
  O2-  O273  1  0.83912145  0.74990627  0.24777321  1
  O2-  O274  1  0.84332088  0.73779091  0.49869802  1
  O2-  O275  1  0.83649594  0.74545346  0.74310385  1
  O2-  O276  1  0.53909954  0.42460155  0.95233333  1
  O2-  O277  1  0.93768882  0.76287405  0.05010860  1
  O2-  O278  1  0.53931459  0.77103766  0.46231557  1
  O2-  O279  1  0.05115080  0.57323861  0.00272097  1
  O2-  O280  1  0.03312259  0.77355911  0.99088245  1
  O2-  O281  1  0.45378741  0.23537846  0.01232685  1
  O2-  O282  1  0.54543408  0.56328323  0.26271609  1
  O2-  O283  1  0.52892120  0.88431316  0.23145031  1
  O2-  O284  1  0.52797163  0.56045265  0.99000736  1
  O2-  O285  1  0.03616647  0.20990258  0.75896575  1
  O2-  O286  1  0.55106673  0.90965930  0.76032564  1
  O2-  O287  1  0.05216198  0.75958566  0.25900718  1
  O2-  O288  1  0.04466905  0.08174003  0.25925413  1
  O2-  O289  1  0.05679343  0.90833914  0.49927698  1
  O2-  O290  1  0.54511349  0.75410302  0.22650328  1
  O2-  O291  1  0.45356909  0.23652881  0.74249484  1
  O2-  O292  1  0.44551381  0.09638475  0.51928667  1
  O2-  O293  1  0.04973928  0.91151063  0.98635631  1
  O2-  O294  1  0.54377668  0.10375689  0.99108197  1
  O2-  O295  1  0.05909389  0.07051496  0.77537775  1
  O2-  O296  1  0.04937704  0.24275228  0.02010623  1
  O2-  O297  1  0.52586344  0.89121454  0.23603312  1
  O2-  O298  1  0.44839972  0.23572358  0.44202576  1
  O2-  O299  1  0.05956564  0.42510472  0.94973919  1
  O2-  O300  1  0.03035052  0.20092616  0.74495090  1
  O2-  O301  1  0.44965263  0.58328032  0.76508718  1
  O2-  O302  1  0.95538578  0.87510845  0.47951909  1
  O2-  O303  1  0.04481466  0.22280924  0.55394088  1
  O2-  O304  1  0.44189841  0.57595691  0.72861386  1
  O2-  O305  1  0.44798692  0.89072305  0.80675825  1
  O2-  O306  1  0.54729472  0.76523180  0.75572023  1
  O2-  O307  1  0.55673801  0.42650935  0.55133419  1
  O2-  O308  1  0.05559343  0.91492387  0.23271930  1
  O2-  O309  1  0.95178695  0.56948698  0.74296713  1
  O2-  O310  1  0.47203127  0.51360053  0.50754382  1
  O2-  O311  1  0.95002264  0.88400310  0.46851384  1
  O2-  O312  1  0.05176779  0.08379659  0.50277044  1
  O2-  O313  1  0.05155722  0.24245853  0.25798266  1
  O2-  O314  1  0.55010267  0.21152243  0.44781997  1
  O2-  O315  1  0.45724932  0.08795944  0.48595768  1
  O2-  O316  1  0.45315353  0.10072799  0.23135831  1
  O2-  O317  1  0.94271243  0.91461717  0.30571987  1
  O2-  O318  1  0.95569480  0.55352519  0.04754932  1
  O2-  O319  1  0.93502502  0.24661331  0.80742059  1
  O2-  O320  1  0.51880591  0.55642882  -0.00035404  1
  O2-  O321  1  0.94625676  0.24071488  0.50200026  1
  O2-  O322  1  0.05526758  0.90675747  0.49927287  1
  O2-  O323  1  0.45345743  0.43189599  0.80132835  1
  O2-  O324  1  0.56303854  0.08358431  0.27038021  1
  O2-  O325  1  0.44137636  0.92671452  0.51861867  1
  O2-  O326  1  0.41639321  0.40768127  0.67794590  1
  O2-  O327  1  0.94703546  0.92179865  0.30386568  1
  O2-  O328  1  0.05943226  0.38489925  0.11214384  1
  O2-  O329  1  0.56305924  0.73422358  0.56449245  1
  O2-  O330  1  0.93270398  0.25884622  0.65849843  1
  O2-  O331  1  0.91794528  0.76486479  0.89529347  1
  O2-  O332  1  0.58070313  0.41391594  0.07919082  1
  O2-  O333  1  0.93859029  0.92590620  0.73145630  1
  O2-  O334  1  0.93010235  0.42253792  0.82004456  1
  O2-  O335  1  0.93912876  0.76757473  0.05747553  1
  O2-  O336  1  0.07182809  0.28225697  0.43546921  1
  O2-  O337  1  0.56695070  0.25513251  0.97967026  1
  O2-  O338  1  0.43339863  0.75042107  0.47944190  1
  O2-  O339  1  0.59640728  0.94336912  0.31319050  1
  O2-  O340  1  0.56489439  0.07070242  0.48075123  1
  O2-  O341  1  0.56285327  0.41122031  0.77830020  1
  O2-  O342  1  0.05450123  0.42178680  0.95452701  1
  O2-  O343  1  0.93474940  0.25880314  0.26490900  1
  O2-  O344  1  0.91682755  0.58808994  0.92727694  1
  O2-  O345  1  0.43736440  0.74693085  0.26350032  1
  O2-  O346  1  0.55973410  0.92435582  0.53770261  1
  O2-  O347  1  0.94170393  0.94704691  0.14474012  1
  O2-  O348  1  0.56678462  0.59365264  0.48236679  1
  O2-  O349  1  0.43795273  0.73955343  0.71221251  1
  O2-  O350  1  0.41327239  0.57980942  0.41109449  1
  O2-  O351  1  0.58280046  0.42049704  0.39914775  1
  O2-  O352  1  0.55333179  0.41960825  0.54745366  1
  O2-  O353  1  0.93105239  0.23987243  0.80975971  1
  O2-  O354  1  0.94138028  0.41354807  0.48303821  1
  O2-  O355  1  0.43997380  0.07564815  0.79151635  1
  O2-  O356  1  0.43672165  0.62341969  0.57593083  1
  O2-  O357  1  0.94077840  0.08134556  0.52927937  1
  O2-  O358  1  0.60424604  0.60543787  0.04897197  1
  O2-  O359  1  0.55548919  0.75805767  0.02287845  1
  O2-  O360  1  0.93776267  0.59266068  0.53494818  1
  O2-  O361  1  0.43467772  0.95219921  0.67917470  1
  O2-  O362  1  0.93662114  0.58089604  0.24826915  1
  O2-  O363  1  0.93545883  0.40810137  0.99006875  1
  O2-  O364  1  0.07842837  0.72007887  0.95901760  1
  O2-  O365  1  0.58039455  0.74137373  0.29515101  1
  O2-  O366  1  0.06081086  0.73769847  0.28713424  1
  O2-  O367  1  0.41533034  0.25596659  0.57317263  1
  O2-  O368  1  0.58160601  0.25867045  0.56508319  1
  O2-  O369  1  0.92864018  0.95058217  0.58494366  1
  O2-  O370  1  0.93405209  0.41806712  0.66900863  1
  O2-  O371  1  0.08749934  0.31157933  0.71680057  1
  O2-  O372  1  0.75029654  -0.00682125  0.92380393  1
  O2-  O373  1  0.25227730  0.34248268  0.94103308  1
  O2-  O374  1  0.74990613  0.02078018  0.83666097  1
  O2-  O375  1  0.74935349  0.66683187  0.60655516  1
  O2-  O376  1  0.75123030  -0.00708951  0.17811165  1
  O2-  O377  1  0.25188735  0.35234795  0.33767923  1
  O2-  O378  1  0.25270018  0.34683310  0.12548806  1
  O2-  O379  1  0.75081089  0.66964589  0.36098978  1
  O2-  O380  1  0.25011958  0.67026458  0.09135486  1
  O2-  O381  1  0.75189875  0.33016954  0.12319146  1
  O2-  O382  1  0.74897092  0.31969613  0.63123528  1
  O2-  O383  1  0.74770873  0.01378136  0.60216100  1
  O2-  O384  1  0.24980076  0.00249279  0.35296472  1
  O2-  O385  1  0.75135342  0.67067816  0.94627338  1
  O2-  O386  1  0.75163443  0.31677109  0.40244881  1
  O2-  O387  1  0.75013889  0.00282268  0.08686828  1
  O2-  O388  1  0.74895218  0.33841763  0.88016546  1
  O2-  O389  1  0.24916892  -0.00480222  0.63387129  1
  O2-  O390  1  0.24773071  0.68747886  0.86264756  1
  O2-  O391  1  0.74981726  0.64473968  0.82503118  1
  O2-  O392  1  0.25042335  0.33231682  0.42743989  1
  O2-  O393  1  0.74906017  0.32996233  0.30963295  1
  O2-  O394  1  0.24873931  0.34459548  0.80669711  1
  O2-  O395  1  0.75225531  0.00586604  0.39704008  1
  O2-  O396  1  0.24977907  0.50470760  0.40326941  1
  O2-  O397  1  0.25126431  0.83317547  0.08238624  1
  O2-  O398  1  0.74877573  0.87797495  0.39914945  1
  O2-  O399  1  0.24938833  0.81145294  0.38046995  1
  O2-  O400  1  0.74918169  0.50904354  0.09760022  1
  O2-  O401  1  0.75051989  0.49239940  0.64697149  1
  O2-  O402  1  0.24870332  0.81653253  0.59212564  1
  O2-  O403  1  0.75141529  0.16015602  0.15982784  1
  O2-  O404  1  0.24897063  0.17792938  0.39546203  1
  O2-  O405  1  0.74971587  0.82625111  0.89769706  1
  O2-  O406  1  0.25123343  0.17626685  0.66971114  1
  O2-  O407  1  0.25022984  0.18766701  0.12398266  1
  O2-  O408  1  0.24892291  0.50256646  0.59670611  1
  O2-  O409  1  0.74915693  0.15045825  0.41519262  1
  O2-  O410  1  0.25081555  0.51584980  0.12719346  1
  O2-  O411  1  0.75091595  0.16575388  0.59024302  1
  O2-  O412  1  0.74953955  0.17481775  0.33040144  1
  O2-  O413  1  0.74922648  0.84784335  0.07337940  1
  O2-  O414  1  0.25178891  0.50273850  0.90894698  1
  O2-  O415  1  0.74991314  0.19066479  0.85657000  1
  O2-  O416  1  0.75030713  0.49054258  0.82021606  1
  O2-  O417  1  0.75012969  0.87024514  0.61647971  1
  O2-  O418  1  0.75026281  0.51476661  0.18518143  1
  O2-  O419  1  0.75167073  0.80729524  0.34797586  1
  O2-  O420  1  0.52483585  -0.00335200  0.88122395  1
  O2-  O421  1  0.97934385  0.34488746  0.37341603  1
  O2-  O422  1  0.99260435  0.66714580  0.86252374  1
  O2-  O423  1  0.53420383  0.32108756  0.66136789  1
  O2-  O424  1  0.97010715  0.00118020  0.87674459  1
  O2-  O425  1  0.05130288  0.67116467  0.12627793  1
  O2-  O426  1  0.50420704  0.00052907  0.37373576  1
  O2-  O427  1  0.48425698  0.33384012  0.60889104  1
  O2-  O428  1  0.03050341  -0.00785445  0.63584373  1
  O2-  O429  1  0.45067084  0.67682080  0.89127438  1
  O2-  O430  1  0.54730837  0.67026251  0.87368451  1
  O2-  O431  1  0.45294271  -0.01362214  0.11695410  1
  O2-  O432  1  0.96050475  0.66151804  0.14224874  1
  O2-  O433  1  0.02308232  0.35760422  0.61326892  1
  O2-  O434  1  0.51512258  0.32623346  0.36214974  1
  O2-  O435  1  0.54757027  0.00816735  0.11801635  1
  O2-  O436  1  0.53742486  0.65309071  0.13791716  1
  O2-  O437  1  0.02897126  0.32571208  0.84539795  1
  O2-  O438  1  0.51245857  0.31047772  0.87862441  1
  O2-  O439  1  0.47112207  0.67231024  0.37071640  1
  O2-  O440  1  0.98388226  0.32627832  0.90387865  1
  O2-  O441  1  0.52721755  0.65828841  0.36674277  1
  O2-  O442  1  0.44754667  0.66213353  0.11448268  1
  O2-  O443  1  0.51448150  0.31633473  0.13002485  1
