# generated using pymatgen
data_La7(Ru4O11)2
_symmetry_space_group_name_H-M   'P 1'
_cell_length_a   23.98995517
_cell_length_b   16.82983652
_cell_length_c   15.42764275
_cell_angle_alpha   89.99946085
_cell_angle_beta   89.99999472
_cell_angle_gamma   90.00027559
_symmetry_Int_Tables_number   1
_chemical_formula_structural   La7(Ru4O11)2
_chemical_formula_sum   'La84 Ru96 O264'
_cell_volume   6228.86484208
_cell_formula_units_Z   12
loop_
 _symmetry_equiv_pos_site_id
 _symmetry_equiv_pos_as_xyz
  1  'x, y, z'
loop_
 _atom_type_symbol
 _atom_type_oxidation_number
  La3+  3.0
  Ru4+  4.0
  O2-  -2.0
loop_
 _atom_site_type_symbol
 _atom_site_label
 _atom_site_symmetry_multiplicity
 _atom_site_fract_x
 _atom_site_fract_y
 _atom_site_fract_z
 _atom_site_occupancy
  La3+  La0  1  0.13961836  -0.00119956  0.12396146  1
  La3+  La1  1  0.13751703  -0.00280067  0.37522811  1
  La3+  La2  1  0.13788276  -0.00034363  0.62647895  1
  La3+  La3  1  0.13837734  -0.00028865  0.87588097  1
  La3+  La4  1  0.13978989  0.33460196  0.12362679  1
  La3+  La5  1  0.13919031  0.33331862  0.37449678  1
  La3+  La6  1  0.13717354  0.33344593  0.62246320  1
  La3+  La7  1  0.13922891  0.33352992  0.87660546  1
  La3+  La8  1  0.13808710  0.66798170  0.12570595  1
  La3+  La9  1  0.14161976  0.66904749  0.37762660  1
  La3+  La10  1  0.14242225  0.66803119  0.62383408  1
  La3+  La11  1  0.14070808  0.66810585  0.87343606  1
  La3+  La12  1  0.64207964  -0.00037152  0.12142781  1
  La3+  La13  1  0.63502307  -0.00228908  0.37545932  1
  La3+  La14  1  0.63529811  -0.00255621  0.62340900  1
  La3+  La15  1  0.63947125  -0.00058701  0.88114029  1
  La3+  La16  1  0.63984806  0.33075900  0.12421369  1
  La3+  La17  1  0.63676170  0.33359871  0.37509948  1
  La3+  La18  1  0.63851346  0.33573452  0.62606218  1
  La3+  La19  1  0.63912106  0.33435237  0.87702188  1
  La3+  La20  1  0.63681944  0.66725052  0.12556546  1
  La3+  La21  1  0.64214274  0.66876044  0.37990236  1
  La3+  La22  1  0.64195730  0.66807229  0.62619860  1
  La3+  La23  1  0.64253317  0.66797352  0.87099208  1
  La3+  La24  1  0.36013287  0.00059125  0.12645111  1
  La3+  La25  1  0.36201786  -0.00179688  0.37538853  1
  La3+  La26  1  0.36341284  -0.00227379  0.62257553  1
  La3+  La27  1  0.36005030  -0.00075650  0.87550140  1
  La3+  La28  1  0.36371829  0.33306529  0.12541904  1
  La3+  La29  1  0.36070353  0.33430738  0.37496055  1
  La3+  La30  1  0.36391186  0.33212920  0.62459338  1
  La3+  La31  1  0.36133985  0.33257573  0.87432275  1
  La3+  La32  1  0.36594475  0.67281313  0.12209288  1
  La3+  La33  1  0.35879462  0.66781364  0.37670779  1
  La3+  La34  1  0.35811138  0.66941899  0.62375961  1
  La3+  La35  1  0.36516558  0.67394433  0.88017513  1
  La3+  La36  1  0.85640627  -0.00028289  0.12173219  1
  La3+  La37  1  0.86329506  0.00012826  0.37474941  1
  La3+  La38  1  0.86611588  0.00020023  0.62693141  1
  La3+  La39  1  0.86065035  -0.00063586  0.87819419  1
  La3+  La40  1  0.86143218  0.33078809  0.12668923  1
  La3+  La41  1  0.86275077  0.33292800  0.37557512  1
  La3+  La42  1  0.86059014  0.33590921  0.62392980  1
  La3+  La43  1  0.85877244  0.33218951  0.87590965  1
  La3+  La44  1  0.86408021  0.66635780  0.12409872  1
  La3+  La45  1  0.86087349  0.66841046  0.37723526  1
  La3+  La46  1  0.86278064  0.67277731  0.63157195  1
  La3+  La47  1  0.86279006  0.67015210  0.86910226  1
  La3+  La48  1  0.50189249  0.49996589  0.13227598  1
  La3+  La49  1  -0.00060491  0.16247600  0.61418943  1
  La3+  La50  1  0.50004136  0.50144734  0.61114530  1
  La3+  La51  1  -0.00202446  0.82974353  0.63243991  1
  La3+  La52  1  0.50365620  0.83645813  0.36763421  1
  La3+  La53  1  0.49929614  0.49785229  0.63369941  1
  La3+  La54  1  0.00167125  0.51143158  0.12025096  1
  La3+  La55  1  0.49865823  0.16337465  0.87274461  1
  La3+  La56  1  0.00202606  0.49846304  0.61460336  1
  La3+  La57  1  0.00094499  0.16147833  0.86163678  1
  La3+  La58  1  0.49678939  0.83678009  0.38729622  1
  La3+  La59  1  0.49895705  0.83147096  0.12927686  1
  La3+  La60  1  -0.00323806  0.83444134  0.86962980  1
  La3+  La61  1  -0.00425733  0.83204094  0.88628493  1
  La3+  La62  1  -0.00062074  0.16512428  0.88373520  1
  La3+  La63  1  0.00106315  0.16243165  0.63127711  1
  La3+  La64  1  -0.00121568  0.50334225  0.89014256  1
  La3+  La65  1  0.49750606  0.82982434  0.89245188  1
  La3+  La66  1  0.00193089  0.83203295  0.13530051  1
  La3+  La67  1  -0.00568472  0.50590691  0.87154032  1
  La3+  La68  1  0.50054064  0.49526092  0.87046215  1
  La3+  La69  1  0.49813585  0.16603731  0.36973469  1
  La3+  La70  1  0.50390715  0.17110005  0.12568858  1
  La3+  La71  1  -0.00161169  0.16574048  0.12990302  1
  La3+  La72  1  0.74994284  0.18173299  0.48942710  1
  La3+  La73  1  0.75054290  0.54006914  0.29585298  1
  La3+  La74  1  0.75069701  0.18421145  0.75141733  1
  La3+  La75  1  0.24976794  0.16205874  0.57113694  1
  La3+  La76  1  0.25002246  0.16485103  -0.03511064  1
  La3+  La77  1  0.25032498  0.16712343  0.25914374  1
  La3+  La78  1  0.74996027  0.50662932  0.75161857  1
  La3+  La79  1  0.74969513  0.55500734  -0.01676663  1
  La3+  La80  1  0.25011441  0.50519900  0.54724752  1
  La3+  La81  1  0.25074933  0.44958427  0.23126410  1
  La3+  La82  1  0.25046860  0.12340669  0.73644064  1
  La3+  La83  1  0.25054107  0.53851685  0.75426262  1
  Ru4+  Ru84  1  -0.00499834  0.00303168  0.00342542  1
  Ru4+  Ru85  1  -0.00170985  0.00056475  0.25007917  1
  Ru4+  Ru86  1  -0.00083773  -0.00024208  0.49729548  1
  Ru4+  Ru87  1  -0.00019710  -0.01050982  0.74654612  1
  Ru4+  Ru88  1  0.00133036  0.33225493  0.00332737  1
  Ru4+  Ru89  1  -0.00492112  0.33177279  0.24172120  1
  Ru4+  Ru90  1  0.00058504  0.33084438  0.49820135  1
  Ru4+  Ru91  1  -0.00001692  0.33478368  0.75113931  1
  Ru4+  Ru92  1  0.00474113  0.67328694  0.00329668  1
  Ru4+  Ru93  1  -0.00329150  0.66597813  0.25208397  1
  Ru4+  Ru94  1  -0.00164135  0.66716151  0.49801736  1
  Ru4+  Ru95  1  -0.00075120  0.66462826  0.74568280  1
  Ru4+  Ru96  1  0.49960259  -0.00088272  -0.00145998  1
  Ru4+  Ru97  1  0.50070176  0.00153252  0.24614865  1
  Ru4+  Ru98  1  0.49516381  0.00616214  0.50593961  1
  Ru4+  Ru99  1  0.50046196  0.00270261  0.74681461  1
  Ru4+  Ru100  1  0.50314969  0.32712068  0.00299325  1
  Ru4+  Ru101  1  0.49948627  0.33464751  0.25102714  1
  Ru4+  Ru102  1  0.50066323  0.33012503  0.49459803  1
  Ru4+  Ru103  1  0.49912132  0.33167808  0.75412285  1
  Ru4+  Ru104  1  0.49913894  0.66987014  0.00206047  1
  Ru4+  Ru105  1  0.49733454  0.66565195  0.25055889  1
  Ru4+  Ru106  1  0.49884176  0.66276913  0.50395867  1
  Ru4+  Ru107  1  0.50009617  0.67034849  0.74926677  1
  Ru4+  Ru108  1  0.11238209  0.17017004  0.00160683  1
  Ru4+  Ru109  1  0.11183937  0.16560555  0.25011115  1
  Ru4+  Ru110  1  0.10959279  0.16759790  0.49929275  1
  Ru4+  Ru111  1  0.11592434  0.17113275  0.75063942  1
  Ru4+  Ru112  1  0.11154326  0.49974644  0.00046261  1
  Ru4+  Ru113  1  0.11216478  0.50200335  0.25078736  1
  Ru4+  Ru114  1  0.11170067  0.50058022  0.50030679  1
  Ru4+  Ru115  1  0.11235227  0.50305080  0.74691575  1
  Ru4+  Ru116  1  0.11566432  0.82871787  0.00057161  1
  Ru4+  Ru117  1  0.11394669  0.83127353  0.24984849  1
  Ru4+  Ru118  1  0.11378960  0.83453761  0.49914636  1
  Ru4+  Ru119  1  0.11597712  0.83129505  0.74854031  1
  Ru4+  Ru120  1  0.61485047  0.16475835  -0.00026936  1
  Ru4+  Ru121  1  0.61363753  0.16878339  0.25006025  1
  Ru4+  Ru122  1  0.60821636  0.16730486  0.49976699  1
  Ru4+  Ru123  1  0.61044932  0.16433229  0.75011391  1
  Ru4+  Ru124  1  0.61139521  0.49907552  0.00097127  1
  Ru4+  Ru125  1  0.61270781  0.49874499  0.25091097  1
  Ru4+  Ru126  1  0.61255525  0.49973080  0.49915386  1
  Ru4+  Ru127  1  0.61316891  0.49884718  0.74966321  1
  Ru4+  Ru128  1  0.61434142  0.83661063  -0.00067919  1
  Ru4+  Ru129  1  0.61237972  0.83319463  0.24861252  1
  Ru4+  Ru130  1  0.61600137  0.82826441  0.50044834  1
  Ru4+  Ru131  1  0.61428730  0.83036313  0.75105092  1
  Ru4+  Ru132  1  0.38825277  0.16589899  -0.00069566  1
  Ru4+  Ru133  1  0.38911738  0.16558768  0.24927318  1
  Ru4+  Ru134  1  0.39102831  0.16707458  0.50217218  1
  Ru4+  Ru135  1  0.39102175  0.16736307  0.74917594  1
  Ru4+  Ru136  1  0.38467209  0.50594781  -0.00086862  1
  Ru4+  Ru137  1  0.39110618  0.50002665  0.25085367  1
  Ru4+  Ru138  1  0.38832289  0.50204798  0.49851133  1
  Ru4+  Ru139  1  0.38805535  0.49909966  0.75052375  1
  Ru4+  Ru140  1  0.38898516  0.83250627  0.00057928  1
  Ru4+  Ru141  1  0.38552356  0.83186390  0.24822163  1
  Ru4+  Ru142  1  0.38534107  0.83464584  0.50014850  1
  Ru4+  Ru143  1  0.38654111  0.83062721  0.75221978  1
  Ru4+  Ru144  1  0.88454892  0.16554092  0.00117620  1
  Ru4+  Ru145  1  0.88724914  0.16878794  0.25028796  1
  Ru4+  Ru146  1  0.89137008  0.16662386  0.49717716  1
  Ru4+  Ru147  1  0.88393208  0.17020661  0.74984345  1
  Ru4+  Ru148  1  0.88463074  0.49580715  0.00073541  1
  Ru4+  Ru149  1  0.89081203  0.50028498  0.24935845  1
  Ru4+  Ru150  1  0.88627611  0.50068515  0.50020244  1
  Ru4+  Ru151  1  0.88765042  0.50219328  0.74865807  1
  Ru4+  Ru152  1  0.88603716  0.83616950  -0.00187115  1
  Ru4+  Ru153  1  0.88864550  0.83296892  0.24951882  1
  Ru4+  Ru154  1  0.88638747  0.82920145  0.50270223  1
  Ru4+  Ru155  1  0.88673758  0.82835336  0.75003623  1
  Ru4+  Ru156  1  0.74983307  0.76339084  0.24833362  1
  Ru4+  Ru157  1  0.25007697  0.60333874  0.24307820  1
  Ru4+  Ru158  1  0.25021962  0.26678991  0.74341571  1
  Ru4+  Ru159  1  0.74983322  0.39265429  0.25010820  1
  Ru4+  Ru160  1  0.25027292  0.28879933  0.51061945  1
  Ru4+  Ru161  1  0.25005269  0.91500993  0.00009363  1
  Ru4+  Ru162  1  0.74975339  0.39471255  0.00333980  1
  Ru4+  Ru163  1  0.74996198  0.09272871  0.24237340  1
  Ru4+  Ru164  1  0.75034790  0.75520556  -0.00150325  1
  Ru4+  Ru165  1  0.24995394  0.90962191  0.24558143  1
  Ru4+  Ru166  1  0.74979050  0.90749369  0.24503681  1
  Ru4+  Ru167  1  0.75005697  0.05287603  0.48732683  1
  Ru4+  Ru168  1  0.75000233  0.31190316  0.50045406  1
  Ru4+  Ru169  1  0.74997762  0.57845336  0.50259828  1
  Ru4+  Ru170  1  0.74927157  0.31232880  0.76580208  1
  Ru4+  Ru171  1  0.25001719  0.04255995  0.48567839  1
  Ru4+  Ru172  1  0.74949182  0.05909827  0.75914142  1
  Ru4+  Ru173  1  0.25046267  0.91428131  0.75272111  1
  Ru4+  Ru174  1  0.75023694  0.90049924  0.49313502  1
  Ru4+  Ru175  1  0.24980638  0.42588364  0.00012382  1
  Ru4+  Ru176  1  0.74947211  0.90103649  0.75178591  1
  Ru4+  Ru177  1  0.24990170  0.40106640  0.74370821  1
  Ru4+  Ru178  1  0.24942626  0.57650488  0.00063201  1
  Ru4+  Ru179  1  0.24996142  0.75358469  0.00094596  1
  O2-  O180  1  0.16576447  0.08010334  0.00157503  1
  O2-  O181  1  0.16573923  0.07990838  0.25157619  1
  O2-  O182  1  0.16619926  0.07771784  0.49931512  1
  O2-  O183  1  0.16510416  0.07840393  0.74959444  1
  O2-  O184  1  0.16944045  0.41408686  -0.00042247  1
  O2-  O185  1  0.16469332  0.41165936  0.24904350  1
  O2-  O186  1  0.16763065  0.41392479  0.50137540  1
  O2-  O187  1  0.16752843  0.41432478  0.75013954  1
  O2-  O188  1  0.16773827  0.74678444  0.00168379  1
  O2-  O189  1  0.16497662  0.74769665  0.24956455  1
  O2-  O190  1  0.16434537  0.74939201  0.49951032  1
  O2-  O191  1  0.16887557  0.74978251  0.75260891  1
  O2-  O192  1  0.66633024  0.08394015  0.00082819  1
  O2-  O193  1  0.66715881  0.07983814  0.25045582  1
  O2-  O194  1  0.66536157  0.07819999  0.50046656  1
  O2-  O195  1  0.66631060  0.07800089  0.74855093  1
  O2-  O196  1  0.66820224  0.41416593  0.00118274  1
  O2-  O197  1  0.66641132  0.41299481  0.25074869  1
  O2-  O198  1  0.66576346  0.41295977  0.50030030  1
  O2-  O199  1  0.66858203  0.41317213  0.75008956  1
  O2-  O200  1  0.66687248  0.74579571  0.00104176  1
  O2-  O201  1  0.66853157  0.74739956  0.24944284  1
  O2-  O202  1  0.66556429  0.74892122  0.50191306  1
  O2-  O203  1  0.66638291  0.75037427  0.74903121  1
  O2-  O204  1  0.33326781  0.25303697  0.00121673  1
  O2-  O205  1  0.33461240  0.25305418  0.24893084  1
  O2-  O206  1  0.33194752  0.25398700  0.49908249  1
  O2-  O207  1  0.33221479  0.25216905  0.74995851  1
  O2-  O208  1  0.33241928  0.58702839  0.00007178  1
  O2-  O209  1  0.33245317  0.58718689  0.24857507  1
  O2-  O210  1  0.33262484  0.58320961  0.50156101  1
  O2-  O211  1  0.33491619  0.58813666  0.75174064  1
  O2-  O212  1  0.33397731  0.91757258  0.00076766  1
  O2-  O213  1  0.33174319  0.91982573  0.25187363  1
  O2-  O214  1  0.33209791  0.91899759  0.49840115  1
  O2-  O215  1  0.33094672  0.91946079  0.74944018  1
  O2-  O216  1  0.83496702  0.25127539  0.00091222  1
  O2-  O217  1  0.83452206  0.25178274  0.25095433  1
  O2-  O218  1  0.83257520  0.25474835  0.50046976  1
  O2-  O219  1  0.83448204  0.25626473  0.75043483  1
  O2-  O220  1  0.83707751  0.58830822  0.00286685  1
  O2-  O221  1  0.83500499  0.58840468  0.24897002  1
  O2-  O222  1  0.83407048  0.58503479  0.50041654  1
  O2-  O223  1  0.83551539  0.58618547  0.75073157  1
  O2-  O224  1  0.83539990  0.91659393  -0.00063940  1
  O2-  O225  1  0.83211575  0.91822139  0.25172090  1
  O2-  O226  1  0.83438083  0.91942456  0.49934538  1
  O2-  O227  1  0.83402046  0.91853723  0.74850079  1
  O2-  O228  1  0.16935708  0.25339745  -0.00038607  1
  O2-  O229  1  0.16862531  0.25218906  0.24930658  1
  O2-  O230  1  0.16876184  0.25452887  0.50092782  1
  O2-  O231  1  0.16801908  0.25395321  0.74980375  1
  O2-  O232  1  0.16850882  0.58620810  0.00056846  1
  O2-  O233  1  0.16604560  0.58601517  0.24926180  1
  O2-  O234  1  0.16599285  0.58417554  0.49948919  1
  O2-  O235  1  0.16677528  0.58627774  0.75221624  1
  O2-  O236  1  0.16812333  0.91946393  0.00153407  1
  O2-  O237  1  0.16687890  0.92026062  0.25176019  1
  O2-  O238  1  0.16554594  0.91947977  0.49930732  1
  O2-  O239  1  0.16872627  0.91958382  0.74977246  1
  O2-  O240  1  0.66504901  0.25172165  0.00203243  1
  O2-  O241  1  0.66460955  0.25207133  0.25100924  1
  O2-  O242  1  0.66595535  0.25475374  0.49991438  1
  O2-  O243  1  0.66652551  0.25476491  0.74896617  1
  O2-  O244  1  0.66206048  0.58916413  0.00201960  1
  O2-  O245  1  0.66728923  0.58806493  0.24685694  1
  O2-  O246  1  0.66818351  0.58542882  0.50101379  1
  O2-  O247  1  0.66489436  0.58606306  0.75011329  1
  O2-  O248  1  0.66596191  0.91604958  0.00052992  1
  O2-  O249  1  0.67023034  0.92002541  0.25128429  1
  O2-  O250  1  0.66709710  0.91829538  0.49994200  1
  O2-  O251  1  0.66611053  0.91896449  0.74872889  1
  O2-  O252  1  0.33154431  0.08113716  0.00245292  1
  O2-  O253  1  0.33204385  0.07987752  0.25226595  1
  O2-  O254  1  0.33200447  0.07857681  0.49802973  1
  O2-  O255  1  0.33522421  0.07844548  0.75053083  1
  O2-  O256  1  0.33043717  0.41307085  0.00065316  1
  O2-  O257  1  0.33775981  0.41083066  0.24988482  1
  O2-  O258  1  0.33069815  0.41428020  0.50032223  1
  O2-  O259  1  0.33252913  0.41400285  0.74964026  1
  O2-  O260  1  0.33078344  0.74623548  0.00061129  1
  O2-  O261  1  0.33356100  0.74792902  0.24823934  1
  O2-  O262  1  0.33562821  0.74897203  0.50049226  1
  O2-  O263  1  0.33445859  0.74827853  0.75201116  1
  O2-  O264  1  0.83306479  0.08304431  0.00005876  1
  O2-  O265  1  0.83315351  0.07992925  0.25131630  1
  O2-  O266  1  0.83372288  0.07714607  0.50092375  1
  O2-  O267  1  0.83372118  0.07789382  0.74971361  1
  O2-  O268  1  0.83140033  0.41316953  0.00203357  1
  O2-  O269  1  0.83198584  0.41344930  0.25165093  1
  O2-  O270  1  0.83166347  0.41370277  0.49881422  1
  O2-  O271  1  0.83323959  0.41277737  0.75098848  1
  O2-  O272  1  0.83281369  0.74568395  0.00042969  1
  O2-  O273  1  0.83156526  0.74823056  0.25008840  1
  O2-  O274  1  0.83361734  0.74916734  0.50000708  1
  O2-  O275  1  0.83222912  0.75002480  0.74828888  1
  O2-  O276  1  0.95530297  0.76923951  0.01224662  1
  O2-  O277  1  0.44679739  0.42057415  0.02703095  1
  O2-  O278  1  0.96158751  0.44213173  0.03310289  1
  O2-  O279  1  0.53405265  0.21763013  0.74694211  1
  O2-  O280  1  0.54743934  0.90475910  0.48589453  1
  O2-  O281  1  0.94862104  0.23800751  0.23737155  1
  O2-  O282  1  0.54424648  0.56995483  0.98365915  1
  O2-  O283  1  0.96117040  0.43876082  0.47269614  1
  O2-  O284  1  0.45034417  0.57166958  0.25622964  1
  O2-  O285  1  0.54566016  0.23728659  0.48657751  1
  O2-  O286  1  0.54781155  0.56865184  0.76396669  1
  O2-  O287  1  0.54701632  0.09775136  0.26150714  1
  O2-  O288  1  0.45477904  0.42509108  0.23812082  1
  O2-  O289  1  0.04039579  0.43996534  0.22375555  1
  O2-  O290  1  0.04459082  0.90198371  0.48757098  1
  O2-  O291  1  0.95341981  0.57123689  0.51558653  1
  O2-  O292  1  0.54630373  0.09570514  0.48681607  1
  O2-  O293  1  0.04952150  0.90298293  0.73483592  1
  O2-  O294  1  0.94799094  0.08716976  0.47966560  1
  O2-  O295  1  0.54302209  0.54969274  0.25834782  1
  O2-  O296  1  0.45277644  0.10082234  0.76303128  1
  O2-  O297  1  0.95231785  0.57289706  0.98639433  1
  O2-  O298  1  0.54571637  0.76297781  0.48580615  1
  O2-  O299  1  0.45609729  0.76921755  0.00848527  1
  O2-  O300  1  0.04718477  0.90007727  0.97921774  1
  O2-  O301  1  0.95298623  0.76377943  0.23845240  1
  O2-  O302  1  0.04443578  0.77291629  0.78551274  1
  O2-  O303  1  0.04598910  0.09875457  0.01445792  1
  O2-  O304  1  0.54905036  0.76730022  0.01315698  1
  O2-  O305  1  0.95493934  0.09305932  0.23795338  1
  O2-  O306  1  0.44983570  0.76052445  0.98337038  1
  O2-  O307  1  0.95455366  0.90635175  0.23613105  1
  O2-  O308  1  0.95375534  0.23671145  0.73767924  1
  O2-  O309  1  0.95294581  0.09880993  0.73622822  1
  O2-  O310  1  0.94998741  0.90179223  0.76237762  1
  O2-  O311  1  0.95511480  0.77103760  0.76271979  1
  O2-  O312  1  0.04139708  0.44137988  0.78381711  1
  O2-  O313  1  0.54493287  0.23791154  0.25984645  1
  O2-  O314  1  0.46251303  0.11180079  0.03424466  1
  O2-  O315  1  0.04874446  0.09985905  0.73459442  1
  O2-  O316  1  0.04146061  0.21790768  0.25314652  1
  O2-  O317  1  0.46579925  0.44562399  0.46331593  1
  O2-  O318  1  0.45222665  0.56978927  0.76333180  1
  O2-  O319  1  0.44923434  0.57323174  0.24265251  1
  O2-  O320  1  0.04376592  0.90006080  0.01806335  1
  O2-  O321  1  0.95374915  0.56620722  0.23740196  1
  O2-  O322  1  0.95141076  0.43180874  0.73301462  1
  O2-  O323  1  0.94942578  0.75680300  0.74047278  1
  O2-  O324  1  0.06523071  0.58634832  0.68981982  1
  O2-  O325  1  0.06559151  0.25956793  0.47416794  1
  O2-  O326  1  0.56495532  0.40305732  0.03459820  1
  O2-  O327  1  0.42474293  0.39957394  0.54882389  1
  O2-  O328  1  0.56495413  0.92582262  0.22375950  1
  O2-  O329  1  0.42434935  0.05884961  0.94948753  1
  O2-  O330  1  0.93602814  0.73764251  0.53304151  1
  O2-  O331  1  0.43415300  0.07512126  0.52547998  1
  O2-  O332  1  0.93683251  0.07568361  0.72005444  1
  O2-  O333  1  0.06395761  0.26452752  0.06314989  1
  O2-  O334  1  0.43324179  0.25933775  0.72435372  1
  O2-  O335  1  0.56398967  0.06889479  0.68925748  1
  O2-  O336  1  0.56507139  0.92567451  0.46977635  1
  O2-  O337  1  0.07595755  0.39833855  0.70279652  1
  O2-  O338  1  0.43593765  0.92453576  0.52485772  1
  O2-  O339  1  0.43203989  0.73250492  0.03370983  1
  O2-  O340  1  0.56162449  0.73673095  0.78521898  1
  O2-  O341  1  0.43792526  0.73827841  0.28288104  1
  O2-  O342  1  0.57272830  0.61663424  0.28959562  1
  O2-  O343  1  0.43715787  0.92602070  0.21708661  1
  O2-  O344  1  0.43670011  0.40437305  0.78292568  1
  O2-  O345  1  0.93383453  0.40541728  0.22321420  1
  O2-  O346  1  0.06388569  0.26269661  0.78304239  1
  O2-  O347  1  0.93415002  0.25892851  0.47163110  1
  O2-  O348  1  0.56095429  0.92763296  0.96703513  1
  O2-  O349  1  0.57703719  0.27412453  0.78551124  1
  O2-  O350  1  0.56408053  0.06919880  0.81069534  1
  O2-  O351  1  0.92784819  0.38451916  0.94131171  1
  O2-  O352  1  0.44667940  0.42021316  0.02723361  1
  O2-  O353  1  0.07556901  0.73078590  0.69890771  1
  O2-  O354  1  0.56332927  0.07378135  0.96649225  1
  O2-  O355  1  0.92916215  0.40243053  0.53944877  1
  O2-  O356  1  0.93620950  0.06894985  0.06895965  1
  O2-  O357  1  0.07195973  0.27940646  0.20950044  1
  O2-  O358  1  0.43020069  0.40168757  0.95107600  1
  O2-  O359  1  0.93302041  0.73044367  0.78731934  1
  O2-  O360  1  0.93970842  0.59225992  0.95954966  1
  O2-  O361  1  0.56386792  0.59653630  0.46668318  1
  O2-  O362  1  0.94451293  0.08068352  0.47568968  1
  O2-  O363  1  0.05990119  0.07371279  0.71413120  1
  O2-  O364  1  0.56345653  0.40947857  0.77817908  1
  O2-  O365  1  0.43392178  0.25748994  0.52582713  1
  O2-  O366  1  0.07197446  0.40285793  0.29160235  1
  O2-  O367  1  0.06329947  0.60194396  0.81615809  1
  O2-  O368  1  0.43659559  0.07292766  0.21728327  1
  O2-  O369  1  0.06273574  0.26439333  0.93532892  1
  O2-  O370  1  0.43721415  0.59880184  0.46759986  1
  O2-  O371  1  0.93307672  0.07940278  0.94155320  1
  O2-  O372  1  0.25000893  0.66314287  0.67144309  1
  O2-  O373  1  0.75010494  0.66544894  0.66911944  1
  O2-  O374  1  0.74985732  0.33258939  0.15058914  1
  O2-  O375  1  0.25009111  0.66299989  0.58008099  1
  O2-  O376  1  0.75014141  0.66878502  0.57969118  1
  O2-  O377  1  0.25035037  0.66400500  0.90654589  1
  O2-  O378  1  0.75020259  0.00004636  0.92943940  1
  O2-  O379  1  0.25003683  0.33397752  0.85669770  1
  O2-  O380  1  0.75019937  0.00109556  0.10906267  1
  O2-  O381  1  0.24971887  0.66349512  0.42117468  1
  O2-  O382  1  0.24954146  0.67534508  0.33244226  1
  O2-  O383  1  0.24995619  0.34837602  0.41091633  1
  O2-  O384  1  0.24969120  -0.00235806  0.15657209  1
  O2-  O385  1  0.25006135  0.32960642  0.32220570  1
  O2-  O386  1  0.75007063  0.33550168  0.64532259  1
  O2-  O387  1  0.24957561  -0.00216805  0.60145279  1
  O2-  O388  1  0.75003054  0.33093289  0.90195908  1
  O2-  O389  1  0.75014415  -0.01682164  0.57950252  1
  O2-  O390  1  0.75018411  -0.01150929  0.38806429  1
  O2-  O391  1  0.24974182  -0.00190632  0.90603393  1
  O2-  O392  1  0.75001681  0.66124029  0.40629152  1
  O2-  O393  1  0.74995895  0.66560337  0.85554220  1
  O2-  O394  1  0.74993950  -0.01520181  0.66987397  1
  O2-  O395  1  0.75022984  -0.01886409  0.84311941  1
  O2-  O396  1  0.24983497  0.83641254  0.16004943  1
  O2-  O397  1  0.24960483  0.16792614  0.37181337  1
  O2-  O398  1  0.74981849  0.15985709  0.62250902  1
  O2-  O399  1  0.75003428  0.83458832  0.40681070  1
  O2-  O400  1  0.24976827  0.51674296  0.33945837  1
  O2-  O401  1  0.75015090  0.48187497  0.08939770  1
  O2-  O402  1  0.24990750  0.83468287  0.90915399  1
  O2-  O403  1  0.24983354  0.51219284  0.10943122  1
  O2-  O404  1  0.74984476  0.16374991  0.87774496  1
  O2-  O405  1  0.74994494  0.49728792  0.42183786  1
  O2-  O406  1  0.25063098  0.16682836  0.14895228  1
  O2-  O407  1  0.74998411  0.16126628  0.33936859  1
  O2-  O408  1  0.75007935  0.82598223  0.09127220  1
  O2-  O409  1  0.75018053  0.82589411  0.83218303  1
  O2-  O410  1  0.24997155  0.49651027  0.42283106  1
  O2-  O411  1  0.74993923  0.48253578  0.88068138  1
  O2-  O412  1  0.74985230  0.49297236  0.17565326  1
  O2-  O413  1  0.74997205  0.83726218  0.92073483  1
  O2-  O414  1  0.24945851  0.16655260  0.07643396  1
  O2-  O415  1  0.25009199  0.16351187  0.44810625  1
  O2-  O416  1  0.24990957  0.17249122  0.84914256  1
  O2-  O417  1  0.75001343  0.50368943  0.62259384  1
  O2-  O418  1  0.75000369  0.16141287  0.16261925  1
  O2-  O419  1  0.24992873  0.83785366  0.40140597  1
  O2-  O420  1  0.03837749  0.32647798  0.61247590  1
  O2-  O421  1  0.04320189  0.66743616  0.12616128  1
  O2-  O422  1  0.52742703  0.33639645  0.37524032  1
  O2-  O423  1  0.97021125  0.33566008  0.36964597  1
  O2-  O424  1  0.52221612  0.33290550  0.88420850  1
  O2-  O425  1  0.47541288  -0.01125937  0.86777966  1
  O2-  O426  1  0.45666688  0.66582636  0.62438275  1
  O2-  O427  1  0.52561232  0.00285411  0.11924724  1
  O2-  O428  1  0.97375940  0.66726215  0.37313696  1
  O2-  O429  1  0.54287727  0.66481242  0.62514747  1
  O2-  O430  1  0.02241037  0.66714098  0.61160247  1
  O2-  O431  1  0.52233317  -0.00041193  0.36981056  1
  O2-  O432  1  0.96141913  -0.00866801  0.86734569  1
  O2-  O433  1  0.97399737  0.32899527  0.12189531  1
  O2-  O434  1  0.04317250  0.00238534  0.87098936  1
  O2-  O435  1  0.53876667  0.33585499  0.62313520  1
  O2-  O436  1  0.47595909  -0.00185888  0.63364372  1
  O2-  O437  1  0.02698364  0.33136645  0.37730252  1
  O2-  O438  1  0.97375631  -0.00625515  0.62080259  1
  O2-  O439  1  0.47192979  0.33765483  0.63338101  1
  O2-  O440  1  0.47411650  0.32151205  0.12953782  1
  O2-  O441  1  0.52959265  0.66434949  0.12746962  1
  O2-  O442  1  0.96237884  0.32519160  0.62915337  1
  O2-  O443  1  0.95858865  0.66420506  0.12363927  1
