# generated using pymatgen
data_La7(Ru4O11)2
_symmetry_space_group_name_H-M   'P 1'
_cell_length_a   23.98954804
_cell_length_b   16.82911898
_cell_length_c   15.42609700
_cell_angle_alpha   90.00033598
_cell_angle_beta   89.99950388
_cell_angle_gamma   89.99996602
_symmetry_Int_Tables_number   1
_chemical_formula_structural   La7(Ru4O11)2
_chemical_formula_sum   'La84 Ru96 O264'
_cell_volume   6227.86951605
_cell_formula_units_Z   12
loop_
 _symmetry_equiv_pos_site_id
 _symmetry_equiv_pos_as_xyz
  1  'x, y, z'
loop_
 _atom_type_symbol
 _atom_type_oxidation_number
  La3+  3.0
  Ru4+  4.0
  O2-  -2.0
loop_
 _atom_site_type_symbol
 _atom_site_label
 _atom_site_symmetry_multiplicity
 _atom_site_fract_x
 _atom_site_fract_y
 _atom_site_fract_z
 _atom_site_occupancy
  La3+  La0  1  0.13815906  -0.00000759  0.12573345  1
  La3+  La1  1  0.13839573  -0.00044226  0.37337370  1
  La3+  La2  1  0.13770757  -0.00024407  0.62580641  1
  La3+  La3  1  0.13913428  -0.00053559  0.87505272  1
  La3+  La4  1  0.14005103  0.33251043  0.12419217  1
  La3+  La5  1  0.13828493  0.33457256  0.37597401  1
  La3+  La6  1  0.14105806  0.33499201  0.62520531  1
  La3+  La7  1  0.14204568  0.33321245  0.87412364  1
  La3+  La8  1  0.13827650  0.66831584  0.12405808  1
  La3+  La9  1  0.13799885  0.66673860  0.37351881  1
  La3+  La10  1  0.13961067  0.66558732  0.62783239  1
  La3+  La11  1  0.13860278  0.66715297  0.87397774  1
  La3+  La12  1  0.63919149  0.00026059  0.12821319  1
  La3+  La13  1  0.63989219  0.00069435  0.37300209  1
  La3+  La14  1  0.63897057  0.00150298  0.62528317  1
  La3+  La15  1  0.63784951  0.00095302  0.87419299  1
  La3+  La16  1  0.64037415  0.33124520  0.12474238  1
  La3+  La17  1  0.64058736  0.33286543  0.37551867  1
  La3+  La18  1  0.63905087  0.33357612  0.62413035  1
  La3+  La19  1  0.63937203  0.33259260  0.87496423  1
  La3+  La20  1  0.63957409  0.66584859  0.12616067  1
  La3+  La21  1  0.63809603  0.66572310  0.37552308  1
  La3+  La22  1  0.63736380  0.66511631  0.62373660  1
  La3+  La23  1  0.63913014  0.66667958  0.87554464  1
  La3+  La24  1  0.36131509  -0.00027447  0.12455208  1
  La3+  La25  1  0.36136203  0.00044214  0.37432715  1
  La3+  La26  1  0.36452912  0.00236573  0.62834715  1
  La3+  La27  1  0.36368185  0.00157697  0.87194487  1
  La3+  La28  1  0.36101460  0.33198325  0.12372773  1
  La3+  La29  1  0.36175218  0.33347687  0.37561895  1
  La3+  La30  1  0.35913895  0.33436507  0.62558300  1
  La3+  La31  1  0.35932233  0.33315222  0.87545467  1
  La3+  La32  1  0.36170571  0.66830687  0.12504924  1
  La3+  La33  1  0.36243043  0.66693638  0.37387934  1
  La3+  La34  1  0.36114779  0.66545944  0.62783628  1
  La3+  La35  1  0.36142139  0.66703389  0.87355172  1
  La3+  La36  1  0.86005927  -0.00002497  0.12801549  1
  La3+  La37  1  0.86017253  0.00020463  0.37373018  1
  La3+  La38  1  0.86028041  0.00144040  0.62438841  1
  La3+  La39  1  0.86143759  0.00093522  0.87356893  1
  La3+  La40  1  0.86112724  0.33190864  0.12639950  1
  La3+  La41  1  0.85998730  0.33282919  0.37568084  1
  La3+  La42  1  0.86000275  0.33446025  0.62293914  1
  La3+  La43  1  0.86139319  0.33283193  0.87515605  1
  La3+  La44  1  0.86084122  0.66598503  0.12607973  1
  La3+  La45  1  0.86042444  0.66504003  0.37334445  1
  La3+  La46  1  0.86168744  0.66542765  0.62532081  1
  La3+  La47  1  0.86151102  0.66671391  0.87509815  1
  La3+  La48  1  0.50007352  0.50005924  0.86658506  1
  La3+  La49  1  0.50169591  0.49642314  0.61306646  1
  La3+  La50  1  -0.00189735  0.16903992  0.63720690  1
  La3+  La51  1  0.00016942  0.16714641  0.36188308  1
  La3+  La52  1  -0.00044871  0.83349225  0.13561037  1
  La3+  La53  1  0.49999230  0.16749456  0.38442163  1
  La3+  La54  1  0.50027932  0.16720414  0.86545716  1
  La3+  La55  1  0.50181591  0.50404429  0.63371530  1
  La3+  La56  1  0.50115310  0.83196969  0.61523744  1
  La3+  La57  1  0.00161485  0.50246132  0.87201533  1
  La3+  La58  1  0.50093132  0.16593889  0.63372477  1
  La3+  La59  1  -0.00036754  0.83586199  0.36500484  1
  La3+  La60  1  0.00065505  0.17139670  0.13522723  1
  La3+  La61  1  -0.00115776  0.16624554  0.38429579  1
  La3+  La62  1  0.49970825  0.83395384  0.86662866  1
  La3+  La63  1  0.00327708  0.16594618  0.11380266  1
  La3+  La64  1  0.50017312  0.83374705  0.13518023  1
  La3+  La65  1  -0.00047755  0.16753988  0.88358492  1
  La3+  La66  1  0.50040143  0.16505689  0.11748399  1
  La3+  La67  1  -0.00166086  0.16857977  0.61982306  1
  La3+  La68  1  -0.00039353  0.83292730  0.11402080  1
  La3+  La69  1  -0.00017807  0.83130013  0.88126110  1
  La3+  La70  1  0.00205972  0.49994963  0.61518793  1
  La3+  La71  1  0.49995605  0.83215847  0.38427710  1
  La3+  La72  1  0.24997114  0.46924832  0.02851301  1
  La3+  La73  1  0.24999182  0.83318508  0.01940611  1
  La3+  La74  1  0.25002645  0.19881543  0.49439178  1
  La3+  La75  1  0.75009873  0.80087140  0.00490834  1
  La3+  La76  1  0.75003987  0.87807353  0.49215824  1
  La3+  La77  1  0.25031457  0.83827260  0.49795094  1
  La3+  La78  1  0.24998712  0.80428213  0.75161037  1
  La3+  La79  1  0.75004702  0.19875173  0.02113435  1
  La3+  La80  1  0.24989392  0.20026791  0.03769391  1
  La3+  La81  1  0.24989679  0.49627803  0.25406293  1
  La3+  La82  1  0.74999100  0.79043139  0.76739175  1
  La3+  La83  1  0.24982530  0.16812866  0.73480451  1
  Ru4+  Ru84  1  -0.00076389  -0.00048361  -0.00348210  1
  Ru4+  Ru85  1  0.00025405  -0.00397919  0.24991572  1
  Ru4+  Ru86  1  -0.00185378  -0.00273148  0.49919319  1
  Ru4+  Ru87  1  -0.00076517  -0.00262650  0.75202299  1
  Ru4+  Ru88  1  -0.00094004  0.33412734  -0.00198392  1
  Ru4+  Ru89  1  0.00648728  0.33386505  0.25137966  1
  Ru4+  Ru90  1  -0.00106467  0.33646457  0.49931230  1
  Ru4+  Ru91  1  0.00517431  0.33014623  0.75051889  1
  Ru4+  Ru92  1  -0.00320624  0.67138266  0.00156801  1
  Ru4+  Ru93  1  -0.00006295  0.66426511  0.24898346  1
  Ru4+  Ru94  1  0.00505042  0.66437220  0.49562442  1
  Ru4+  Ru95  1  -0.00183359  0.66924415  0.75224870  1
  Ru4+  Ru96  1  0.50058087  -0.00075665  0.00160466  1
  Ru4+  Ru97  1  0.50150550  0.00113892  0.24748812  1
  Ru4+  Ru98  1  0.49998585  0.00137902  0.49894795  1
  Ru4+  Ru99  1  0.50137171  -0.00208930  0.75062486  1
  Ru4+  Ru100  1  0.50238246  0.33459878  0.00163799  1
  Ru4+  Ru101  1  0.49935401  0.33326709  0.24540140  1
  Ru4+  Ru102  1  0.50061614  0.33370730  0.50065965  1
  Ru4+  Ru103  1  0.50208583  0.33295091  0.75055717  1
  Ru4+  Ru104  1  0.50126182  0.66814477  -0.00098833  1
  Ru4+  Ru105  1  0.50157325  0.66395562  0.25207253  1
  Ru4+  Ru106  1  0.50099987  0.66667833  0.49865632  1
  Ru4+  Ru107  1  0.49980232  0.66796607  0.75021125  1
  Ru4+  Ru108  1  0.11247715  0.16851703  -0.00040543  1
  Ru4+  Ru109  1  0.11452277  0.16936841  0.25091240  1
  Ru4+  Ru110  1  0.11395169  0.16789678  0.49985597  1
  Ru4+  Ru111  1  0.11260356  0.16840338  0.74993173  1
  Ru4+  Ru112  1  0.11411622  0.49897765  0.00039969  1
  Ru4+  Ru113  1  0.10963737  0.49814142  0.24979120  1
  Ru4+  Ru114  1  0.11348219  0.49751905  0.49954422  1
  Ru4+  Ru115  1  0.11512653  0.49874029  0.74990020  1
  Ru4+  Ru116  1  0.11199273  0.83187841  0.00029556  1
  Ru4+  Ru117  1  0.11185918  0.83228737  0.24978660  1
  Ru4+  Ru118  1  0.11105638  0.83562582  0.50067370  1
  Ru4+  Ru119  1  0.11013577  0.83344903  0.74992660  1
  Ru4+  Ru120  1  0.61191592  0.16703926  0.00001354  1
  Ru4+  Ru121  1  0.61429813  0.16558776  0.25019163  1
  Ru4+  Ru122  1  0.61253472  0.16656562  0.49984166  1
  Ru4+  Ru123  1  0.61311786  0.16569852  0.74972995  1
  Ru4+  Ru124  1  0.61358246  0.50169515  -0.00034432  1
  Ru4+  Ru125  1  0.61220126  0.50129936  0.24955143  1
  Ru4+  Ru126  1  0.61484800  0.50028890  0.49995263  1
  Ru4+  Ru127  1  0.61280799  0.49992058  0.75014549  1
  Ru4+  Ru128  1  0.61160515  0.83320908  -0.00120042  1
  Ru4+  Ru129  1  0.61330006  0.83484176  0.24964295  1
  Ru4+  Ru130  1  0.61237232  0.83436320  0.49969466  1
  Ru4+  Ru131  1  0.61141641  0.83404327  0.75023863  1
  Ru4+  Ru132  1  0.38609322  0.16406449  -0.00047604  1
  Ru4+  Ru133  1  0.38707590  0.16768037  0.25034843  1
  Ru4+  Ru134  1  0.38900844  0.16561162  0.50091476  1
  Ru4+  Ru135  1  0.38709401  0.16592363  0.74936711  1
  Ru4+  Ru136  1  0.38757020  0.49808880  0.00011156  1
  Ru4+  Ru137  1  0.39016472  0.49860982  0.24954060  1
  Ru4+  Ru138  1  0.38598446  0.49752013  0.49942557  1
  Ru4+  Ru139  1  0.38463514  0.50078866  0.75056258  1
  Ru4+  Ru140  1  0.38857866  0.83339709  0.00006726  1
  Ru4+  Ru141  1  0.38629318  0.83244037  0.25002630  1
  Ru4+  Ru142  1  0.38899408  0.83276381  0.50042304  1
  Ru4+  Ru143  1  0.38910349  0.83342253  0.74997676  1
  Ru4+  Ru144  1  0.88676728  0.16719904  -0.00050891  1
  Ru4+  Ru145  1  0.88217006  0.16436778  0.25079455  1
  Ru4+  Ru146  1  0.88732913  0.16640445  0.50036852  1
  Ru4+  Ru147  1  0.88502074  0.16263860  0.74973348  1
  Ru4+  Ru148  1  0.88785854  0.49952732  0.00030005  1
  Ru4+  Ru149  1  0.88154940  0.50730837  0.25116381  1
  Ru4+  Ru150  1  0.88365755  0.49627456  0.49894411  1
  Ru4+  Ru151  1  0.88379424  0.50325951  0.74998531  1
  Ru4+  Ru152  1  0.88818010  0.83269389  0.00099086  1
  Ru4+  Ru153  1  0.88726588  0.83493709  0.24947116  1
  Ru4+  Ru154  1  0.88629211  0.83806571  0.50037677  1
  Ru4+  Ru155  1  0.88872940  0.83210100  0.74888327  1
  Ru4+  Ru156  1  0.24989648  0.62222617  0.23219664  1
  Ru4+  Ru157  1  0.25004924  0.56775899  0.50342820  1
  Ru4+  Ru158  1  0.74993990  0.08876607  0.49632321  1
  Ru4+  Ru159  1  0.24993223  0.06040512  -0.00034784  1
  Ru4+  Ru160  1  0.75011878  0.74537195  0.24776304  1
  Ru4+  Ru161  1  0.74995889  0.58218635  0.00082731  1
  Ru4+  Ru162  1  0.25021027  0.60569901  -0.00184877  1
  Ru4+  Ru163  1  0.25002806  0.07040519  0.50059576  1
  Ru4+  Ru164  1  0.74974754  0.41851491  0.24918817  1
  Ru4+  Ru165  1  0.75007651  0.24691258  0.49356688  1
  Ru4+  Ru166  1  0.74998525  0.41942933  -0.00013630  1
  Ru4+  Ru167  1  0.74995374  0.93427239  0.00792374  1
  Ru4+  Ru168  1  0.75007349  0.72772806  0.49790497  1
  Ru4+  Ru169  1  0.74966137  0.57925961  0.74601393  1
  Ru4+  Ru170  1  0.25016877  0.36898189  0.24838971  1
  Ru4+  Ru171  1  0.24991417  0.72361339  0.50240661  1
  Ru4+  Ru172  1  0.24966119  0.91274409  0.24811063  1
  Ru4+  Ru173  1  0.25012831  0.95569437  0.50031735  1
  Ru4+  Ru174  1  0.74994970  0.06695633  0.00417720  1
  Ru4+  Ru175  1  0.25010153  0.94002263  0.74784289  1
  Ru4+  Ru176  1  0.74982765  0.42077038  0.74650177  1
  Ru4+  Ru177  1  0.24978377  0.08655010  0.24778335  1
  Ru4+  Ru178  1  0.74995059  0.24627319  0.75243816  1
  Ru4+  Ru179  1  0.75007805  0.93854890  0.75288847  1
  O2-  O180  1  0.16781294  0.07912844  -0.00001326  1
  O2-  O181  1  0.16875113  0.07994469  0.25025544  1
  O2-  O182  1  0.16713190  0.07984896  0.50037037  1
  O2-  O183  1  0.16810686  0.07958554  0.74961460  1
  O2-  O184  1  0.16641950  0.41458207  0.00049767  1
  O2-  O185  1  0.16650388  0.41320825  0.24989561  1
  O2-  O186  1  0.16735068  0.41479335  0.49976784  1
  O2-  O187  1  0.16598852  0.41542817  0.75016304  1
  O2-  O188  1  0.16764942  0.74704693  0.00039968  1
  O2-  O189  1  0.16694504  0.74664783  0.25032909  1
  O2-  O190  1  0.16597306  0.74566069  0.49889149  1
  O2-  O191  1  0.16720555  0.74702823  0.75058741  1
  O2-  O192  1  0.66646316  0.07982965  0.00012944  1
  O2-  O193  1  0.66659816  0.08263164  0.25033639  1
  O2-  O194  1  0.66758171  0.08038915  0.50012535  1
  O2-  O195  1  0.66633252  0.08134047  0.75057817  1
  O2-  O196  1  0.66772372  0.41429467  -0.00012753  1
  O2-  O197  1  0.66887837  0.41579545  0.25092275  1
  O2-  O198  1  0.66573694  0.41531301  0.49971228  1
  O2-  O199  1  0.66718078  0.41393791  0.75026472  1
  O2-  O200  1  0.66658133  0.74670236  0.00086274  1
  O2-  O201  1  0.66713189  0.74745951  0.24966975  1
  O2-  O202  1  0.66841923  0.74693717  0.50031251  1
  O2-  O203  1  0.66590623  0.74530740  0.74960851  1
  O2-  O204  1  0.33413177  0.25295509  -0.00029555  1
  O2-  O205  1  0.33300268  0.25265055  0.25050862  1
  O2-  O206  1  0.33329631  0.25426281  0.49919143  1
  O2-  O207  1  0.33354865  0.25231962  0.75058612  1
  O2-  O208  1  0.33200048  0.58748773  0.00024219  1
  O2-  O209  1  0.33399556  0.58716143  0.25010772  1
  O2-  O210  1  0.33295901  0.58695035  0.49954947  1
  O2-  O211  1  0.33266964  0.58549086  0.75075058  1
  O2-  O212  1  0.33245167  0.92065403  0.00008189  1
  O2-  O213  1  0.33201339  0.91931751  0.24995657  1
  O2-  O214  1  0.33404823  0.92107668  0.49992291  1
  O2-  O215  1  0.33298205  0.92072942  0.74960719  1
  O2-  O216  1  0.83415816  0.25320175  0.00006594  1
  O2-  O217  1  0.83278384  0.25164364  0.24959464  1
  O2-  O218  1  0.83192619  0.25207655  0.49958976  1
  O2-  O219  1  0.83177562  0.25295181  0.75093994  1
  O2-  O220  1  0.83246795  0.58579463  0.00029457  1
  O2-  O221  1  0.83231832  0.58496121  0.24968639  1
  O2-  O222  1  0.83220585  0.58528121  0.50038284  1
  O2-  O223  1  0.83200714  0.58635005  0.75002041  1
  O2-  O224  1  0.83286113  0.92016812  -0.00064557  1
  O2-  O225  1  0.83360118  0.91798710  0.24997691  1
  O2-  O226  1  0.83360049  0.92013382  0.50113364  1
  O2-  O227  1  0.83187064  0.91950341  0.75140091  1
  O2-  O228  1  0.16558738  0.25235025  0.00016871  1
  O2-  O229  1  0.16693822  0.25299127  0.25023841  1
  O2-  O230  1  0.16709319  0.25327109  0.49938901  1
  O2-  O231  1  0.16667583  0.25243323  0.75029302  1
  O2-  O232  1  0.16746472  0.58677705  0.00052697  1
  O2-  O233  1  0.16714613  0.58694479  0.25045869  1
  O2-  O234  1  0.16660759  0.58637166  0.49951090  1
  O2-  O235  1  0.16774599  0.58526413  0.75060694  1
  O2-  O236  1  0.16788852  0.92073210  0.00040527  1
  O2-  O237  1  0.16827199  0.92021594  0.24996946  1
  O2-  O238  1  0.16567166  0.92020311  0.49995381  1
  O2-  O239  1  0.16695962  0.92020617  0.74933436  1
  O2-  O240  1  0.66612544  0.25321657  -0.00066385  1
  O2-  O241  1  0.66667332  0.25167449  0.25009590  1
  O2-  O242  1  0.66728887  0.25218461  0.50018032  1
  O2-  O243  1  0.66836504  0.25264521  0.75057484  1
  O2-  O244  1  0.66694087  0.58554332  0.00041478  1
  O2-  O245  1  0.66617574  0.58453649  0.24994211  1
  O2-  O246  1  0.66773066  0.58555685  0.49937508  1
  O2-  O247  1  0.66894003  0.58670475  0.74987529  1
  O2-  O248  1  0.66702171  0.91965115  0.00049962  1
  O2-  O249  1  0.66604237  0.91777652  0.25027780  1
  O2-  O250  1  0.66543919  0.92057262  0.50092980  1
  O2-  O251  1  0.66728483  0.91968974  0.75008140  1
  O2-  O252  1  0.33264255  0.08015815  -0.00028806  1
  O2-  O253  1  0.33242396  0.08083569  0.25013849  1
  O2-  O254  1  0.33339479  0.08008373  0.49995482  1
  O2-  O255  1  0.33122266  0.08071746  0.75031427  1
  O2-  O256  1  0.33491409  0.41416027  -0.00017594  1
  O2-  O257  1  0.33342677  0.41243605  0.25002510  1
  O2-  O258  1  0.33379184  0.41414967  0.49918446  1
  O2-  O259  1  0.33361056  0.41440583  0.75038147  1
  O2-  O260  1  0.33236831  0.74599438  0.00029681  1
  O2-  O261  1  0.33376744  0.74752826  0.25042782  1
  O2-  O262  1  0.33458134  0.74533087  0.49942156  1
  O2-  O263  1  0.33372398  0.74621479  0.75035897  1
  O2-  O264  1  0.83349669  0.07978511  -0.00016495  1
  O2-  O265  1  0.83403974  0.08228754  0.24980892  1
  O2-  O266  1  0.83231331  0.08066834  0.49980953  1
  O2-  O267  1  0.83337678  0.08141616  0.75086656  1
  O2-  O268  1  0.83244086  0.41401933  0.00017049  1
  O2-  O269  1  0.83131700  0.41570597  0.24984032  1
  O2-  O270  1  0.83327886  0.41615592  0.49979880  1
  O2-  O271  1  0.83170810  0.41507682  0.75030602  1
  O2-  O272  1  0.83307949  0.74657114  -0.00041746  1
  O2-  O273  1  0.83249731  0.74745330  0.24959012  1
  O2-  O274  1  0.83173236  0.74689469  0.50047189  1
  O2-  O275  1  0.83347892  0.74633409  0.74989084  1
  O2-  O276  1  0.45435025  0.43058706  0.73785986  1
  O2-  O277  1  0.54843537  0.23309772  0.01238474  1
  O2-  O278  1  0.45982889  0.10777704  0.74007671  1
  O2-  O279  1  0.54512243  0.57371250  0.23406992  1
  O2-  O280  1  0.45379260  0.56994150  0.51317821  1
  O2-  O281  1  0.95398138  0.23848050  0.01301526  1
  O2-  O282  1  0.55794897  0.74805951  0.47527835  1
  O2-  O283  1  0.95190825  0.09775966  0.23820989  1
  O2-  O284  1  0.04984665  0.90013469  0.73656980  1
  O2-  O285  1  0.45524101  0.23380201  0.51546460  1
  O2-  O286  1  0.03999090  0.10805860  0.52708751  1
  O2-  O287  1  0.04008166  0.43992812  0.99468770  1
  O2-  O288  1  0.95275864  0.43341225  1.00488697  1
  O2-  O289  1  0.94726278  0.24342105  0.78354904  1
  O2-  O290  1  0.45012523  0.43183012  0.23533434  1
  O2-  O291  1  0.04515473  0.90188634  0.98543112  1
  O2-  O292  1  0.96194972  0.44105047  0.74899736  1
  O2-  O293  1  0.53043330  0.45628059  0.23443400  1
  O2-  O294  1  0.95089426  0.43176783  -0.00353978  1
  O2-  O295  1  0.95916283  0.56146473  0.51016897  1
  O2-  O296  1  0.96406450  0.55399946  0.50024834  1
  O2-  O297  1  0.54702878  0.90373430  0.48525138  1
  O2-  O298  1  0.45469439  0.09738007  0.26597657  1
  O2-  O299  1  0.95339735  0.23854764  0.23747260  1
  O2-  O300  1  0.04525661  0.57011618  0.99905574  1
  O2-  O301  1  0.04187434  0.77067278  0.47334391  1
  O2-  O302  1  0.45209944  0.23625808  0.01821382  1
  O2-  O303  1  0.45175854  0.09446968  0.76182537  1
  O2-  O304  1  0.45535388  0.76467518  0.26346627  1
  O2-  O305  1  0.45262782  0.90076904  0.51394792  1
  O2-  O306  1  0.96379849  0.88209285  0.74638567  1
  O2-  O307  1  0.45321714  0.23586693  0.26475495  1
  O2-  O308  1  0.94387396  0.75091167  0.46478494  1
  O2-  O309  1  0.96050499  0.44448899  0.25383096  1
  O2-  O310  1  0.96205329  0.44109897  0.74922093  1
  O2-  O311  1  0.54667630  0.23326637  0.23671510  1
  O2-  O312  1  0.04726181  0.09658341  0.98454127  1
  O2-  O313  1  0.95251931  0.09608010  0.01210974  1
  O2-  O314  1  0.03337627  0.55419197  0.24409785  1
  O2-  O315  1  0.96075813  0.44434130  0.24576441  1
  O2-  O316  1  0.45323602  0.23409785  0.97880269  1
  O2-  O317  1  0.54524558  0.76502957  0.76459149  1
  O2-  O318  1  0.05807330  0.08105752  0.22581249  1
  O2-  O319  1  0.05115995  0.42682625  0.26639354  1
  O2-  O320  1  0.04618008  0.57178731  0.00011337  1
  O2-  O321  1  0.04652140  0.90004318  0.51406666  1
  O2-  O322  1  0.95332462  0.57077944  0.76215740  1
  O2-  O323  1  0.45449398  0.23566456  0.73567779  1
  O2-  O324  1  0.93510545  0.92757523  0.02920039  1
  O2-  O325  1  0.93649615  0.26321092  0.53350681  1
  O2-  O326  1  0.93686912  0.40192901  0.46842629  1
  O2-  O327  1  0.93452106  0.92778366  0.47043933  1
  O2-  O328  1  0.93440528  0.73734549  0.72106828  1
  O2-  O329  1  0.07444415  0.61657373  0.20854811  1
  O2-  O330  1  0.06384394  0.26516105  0.55660632  1
  O2-  O331  1  0.93750708  0.25936981  0.21746246  1
  O2-  O332  1  0.56315678  0.73517923  0.96794743  1
  O2-  O333  1  0.43614719  0.93166270  0.30519085  1
  O2-  O334  1  0.93560560  0.73879716  0.02956748  1
  O2-  O335  1  0.43635181  0.59804353  0.04879589  1
  O2-  O336  1  0.06600085  0.59307550  0.70517197  1
  O2-  O337  1  0.92297615  0.61769089  0.45402911  1
  O2-  O338  1  0.57793946  0.38683918  0.19207024  1
  O2-  O339  1  0.06348567  0.40362020  0.46809993  1
  O2-  O340  1  0.92885037  0.39258029  0.68972429  1
  O2-  O341  1  0.92994455  0.39190198  0.19449942  1
  O2-  O342  1  0.07299177  0.06313731  0.45651741  1
  O2-  O343  1  0.43009293  0.06511974  0.71989689  1
  O2-  O344  1  0.93023431  0.39001721  0.30414350  1
  O2-  O345  1  0.92694106  0.39319020  0.80506386  1
  O2-  O346  1  0.06378979  0.73748103  0.78327282  1
  O2-  O347  1  0.56525415  0.40597032  0.95396850  1
  O2-  O348  1  0.06361644  0.26278195  0.44360409  1
  O2-  O349  1  0.56545525  0.59531591  0.72182144  1
  O2-  O350  1  0.94930225  0.24084456  0.79460891  1
  O2-  O351  1  0.07329967  0.38486915  0.95830474  1
  O2-  O352  1  0.43464213  0.59434125  0.95557070  1
  O2-  O353  1  0.92994967  0.27045286  0.68190235  1
  O2-  O354  1  0.57172867  0.39992325  0.30953287  1
  O2-  O355  1  0.92236788  0.94703900  0.71312423  1
  O2-  O356  1  0.06434700  0.59602837  0.80015316  1
  O2-  O357  1  0.92956952  0.73510764  0.55026112  1
  O2-  O358  1  0.56569211  0.59418744  0.52995527  1
  O2-  O359  1  0.56504565  0.26118254  0.72078570  1
  O2-  O360  1  0.56547283  0.92727147  0.97109897  1
  O2-  O361  1  0.07062595  0.73133072  0.53897846  1
  O2-  O362  1  0.93508713  0.59943900  0.28266286  1
  O2-  O363  1  0.55237572  0.75560524  0.48128236  1
  O2-  O364  1  0.05390138  0.08730774  0.23145107  1
  O2-  O365  1  0.06602713  0.07292042  0.70074058  1
  O2-  O366  1  0.56475277  0.07024484  0.22166353  1
  O2-  O367  1  0.94821390  0.75649905  0.46384760  1
  O2-  O368  1  0.43630420  0.59799602  0.71675426  1
  O2-  O369  1  0.56589275  0.40655537  0.04564105  1
  O2-  O370  1  0.43572198  0.93087979  0.19549632  1
  O2-  O371  1  0.06352988  0.06879588  0.80490533  1
  O2-  O372  1  0.74995992  0.00053656  0.65421786  1
  O2-  O373  1  0.75004444  0.33351569  0.57735982  1
  O2-  O374  1  0.74981832  0.66876580  0.15579238  1
  O2-  O375  1  0.75002757  0.66920079  0.34360614  1
  O2-  O376  1  0.24996266  0.65636626  0.58933894  1
  O2-  O377  1  0.75000361  0.33269068  0.67104644  1
  O2-  O378  1  0.75010559  0.33316842  0.17220687  1
  O2-  O379  1  0.74983094  0.66685412  0.90722716  1
  O2-  O380  1  0.25006882  0.33500795  0.09651903  1
  O2-  O381  1  0.75006548  0.33200372  0.08015639  1
  O2-  O382  1  0.75003332  0.33393846  0.90715578  1
  O2-  O383  1  0.24994093  0.65342351  0.41599731  1
  O2-  O384  1  0.24987655  0.66773249  0.67572872  1
  O2-  O385  1  0.75000734  0.00010408  0.33061249  1
  O2-  O386  1  0.24986128  0.67956146  0.33083015  1
  O2-  O387  1  0.24992693  0.00026845  0.34187251  1
  O2-  O388  1  0.24998719  0.33247674  0.66925475  1
  O2-  O389  1  0.74996838  0.33200099  0.40761362  1
  O2-  O390  1  0.25017537  0.33280526  0.90662866  1
  O2-  O391  1  0.25003404  0.33217575  0.58020861  1
  O2-  O392  1  0.75008985  -0.00014976  0.14989547  1
  O2-  O393  1  0.75008793  -0.00053090  0.89849664  1
  O2-  O394  1  0.25004854  0.00211198  0.84564450  1
  O2-  O395  1  0.75002152  -0.00121377  0.42012580  1
  O2-  O396  1  0.74991692  0.50073101  0.59700236  1
  O2-  O397  1  0.25005787  0.83581030  0.16360394  1
  O2-  O398  1  0.75008839  0.16531137  0.67168920  1
  O2-  O399  1  0.75001064  0.50114914  0.82965521  1
  O2-  O400  1  0.24987386  0.83354880  0.62199700  1
  O2-  O401  1  0.24999446  0.16263199  0.16579857  1
  O2-  O402  1  0.74996194  0.81495351  0.59245172  1
  O2-  O403  1  0.24993015  0.16030368  0.92356674  1
  O2-  O404  1  0.74999759  0.16713326  0.58138524  1
  O2-  O405  1  0.75011220  0.84945834  0.66294010  1
  O2-  O406  1  0.74997296  0.16498873  0.88934662  1
  O2-  O407  1  0.24998385  0.16497232  0.61815821  1
  O2-  O408  1  0.24994697  0.50357729  0.90220870  1
  O2-  O409  1  0.25002656  0.50090626  0.40881685  1
  O2-  O410  1  0.74992353  0.50135245  0.92090312  1
  O2-  O411  1  0.75004897  0.83888261  0.30730490  1
  O2-  O412  1  0.25002145  0.50019448  0.81988085  1
  O2-  O413  1  0.25003800  0.50296221  0.58730295  1
  O2-  O414  1  0.24998313  0.83340165  0.88927592  1
  O2-  O415  1  0.24989341  0.16817981  0.84853064  1
  O2-  O416  1  0.75004097  0.16680035  0.34659568  1
  O2-  O417  1  0.74997171  0.84278565  0.87783180  1
  O2-  O418  1  0.24994194  0.83304877  0.37581730  1
  O2-  O419  1  0.75006669  0.82180448  0.38820579  1
  O2-  O420  1  0.52584803  -0.00267999  0.12029428  1
  O2-  O421  1  0.52570432  0.66444979  0.37145993  1
  O2-  O422  1  0.03319733  -0.00442743  0.36987002  1
  O2-  O423  1  0.96617612  0.00035362  0.13010203  1
  O2-  O424  1  0.02767826  0.66635893  0.62607054  1
  O2-  O425  1  0.53358106  0.00319433  0.86966628  1
  O2-  O426  1  0.97249034  0.66787660  0.87564006  1
  O2-  O427  1  0.02918906  -0.00292098  0.61952828  1
  O2-  O428  1  0.52879282  0.32866788  0.38105289  1
  O2-  O429  1  0.52151318  0.32742918  0.12502748  1
  O2-  O430  1  0.97373146  0.66586659  0.12777747  1
  O2-  O431  1  0.97174328  0.66093215  0.62864202  1
  O2-  O432  1  0.46601511  -0.00249062  0.62208319  1
  O2-  O433  1  0.03465695  -0.00433038  0.12290240  1
  O2-  O434  1  0.53619608  -0.00005998  0.62703127  1
  O2-  O435  1  0.47341153  0.66988806  0.87009900  1
  O2-  O436  1  0.97559779  0.33371548  0.88252254  1
  O2-  O437  1  0.46446584  -0.00093188  0.87702349  1
  O2-  O438  1  0.52531556  0.33067057  0.87075390  1
  O2-  O439  1  0.96574855  0.00274912  0.37217166  1
  O2-  O440  1  0.97017660  0.00350919  0.61909073  1
  O2-  O441  1  0.46849613  0.33389269  0.37637793  1
  O2-  O442  1  0.52402933  0.67200213  0.62460818  1
  O2-  O443  1  0.52588830  0.33594202  0.62079004  1
