# generated using pymatgen
data_La7(Ru4O11)2
_symmetry_space_group_name_H-M   'P 1'
_cell_length_a   23.99314779
_cell_length_b   16.83334734
_cell_length_c   15.42840967
_cell_angle_alpha   89.99999662
_cell_angle_beta   89.99932594
_cell_angle_gamma   90.00008561
_symmetry_Int_Tables_number   1
_chemical_formula_structural   La7(Ru4O11)2
_chemical_formula_sum   'La84 Ru96 O264'
_cell_volume   6231.30309546
_cell_formula_units_Z   12
loop_
 _symmetry_equiv_pos_site_id
 _symmetry_equiv_pos_as_xyz
  1  'x, y, z'
loop_
 _atom_type_symbol
 _atom_type_oxidation_number
  La3+  3.0
  Ru4+  4.0
  O2-  -2.0
loop_
 _atom_site_type_symbol
 _atom_site_label
 _atom_site_symmetry_multiplicity
 _atom_site_fract_x
 _atom_site_fract_y
 _atom_site_fract_z
 _atom_site_occupancy
  La3+  La0  1  0.14445623  0.00057238  0.12667195  1
  La3+  La1  1  0.14405229  0.00231134  0.37233069  1
  La3+  La2  1  0.13905165  0.00284180  0.62472178  1
  La3+  La3  1  0.13891944  -0.00088713  0.87427800  1
  La3+  La4  1  0.14681441  0.33093253  0.12772196  1
  La3+  La5  1  0.15107239  0.33570321  0.37455943  1
  La3+  La6  1  0.14413944  0.33127731  0.62328395  1
  La3+  La7  1  0.13612195  0.33087065  0.87454147  1
  La3+  La8  1  0.13609608  0.66930246  0.12448309  1
  La3+  La9  1  0.14112952  0.66460331  0.37493063  1
  La3+  La10  1  0.14376149  0.66348309  0.62842636  1
  La3+  La11  1  0.14076691  0.66949765  0.86943696  1
  La3+  La12  1  0.63767905  0.00217038  0.12520245  1
  La3+  La13  1  0.64033787  -0.00013201  0.37553840  1
  La3+  La14  1  0.64827604  -0.00107803  0.62817541  1
  La3+  La15  1  0.64130760  -0.00059209  0.87367372  1
  La3+  La16  1  0.64238894  0.33411217  0.12297397  1
  La3+  La17  1  0.63698096  0.33057530  0.36876806  1
  La3+  La18  1  0.63527744  0.33931320  0.63046019  1
  La3+  La19  1  0.64605519  0.33315124  0.87812024  1
  La3+  La20  1  0.63584705  0.66781075  0.11928211  1
  La3+  La21  1  0.63834281  0.66838969  0.37687159  1
  La3+  La22  1  0.64104786  0.66922645  0.62973182  1
  La3+  La23  1  0.64878897  0.66903070  0.87226914  1
  La3+  La24  1  0.35865643  -0.00105374  0.12746077  1
  La3+  La25  1  0.35264962  0.00518128  0.37356213  1
  La3+  La26  1  0.36066587  0.00056954  0.62442590  1
  La3+  La27  1  0.36233635  0.00149011  0.87508875  1
  La3+  La28  1  0.35274085  0.33028269  0.12570225  1
  La3+  La29  1  0.34869836  0.33569287  0.37416531  1
  La3+  La30  1  0.35676939  0.33381777  0.62097263  1
  La3+  La31  1  0.36286312  0.32930467  0.87432774  1
  La3+  La32  1  0.36668105  0.66926608  0.12533720  1
  La3+  La33  1  0.35886030  0.66424413  0.37245947  1
  La3+  La34  1  0.35954981  0.66788425  0.62578783  1
  La3+  La35  1  0.36261031  0.67132081  0.87509655  1
  La3+  La36  1  0.86270231  0.00042096  0.12266252  1
  La3+  La37  1  0.86432240  -0.00112698  0.37721826  1
  La3+  La38  1  0.85808938  -0.00315380  0.62689021  1
  La3+  La39  1  0.85703230  -0.00237504  0.86881579  1
  La3+  La40  1  0.85458558  0.33477071  0.11957801  1
  La3+  La41  1  0.86770662  0.33519336  0.37442831  1
  La3+  La42  1  0.86239386  0.33530131  0.62846774  1
  La3+  La43  1  0.86040228  0.33483054  0.87581719  1
  La3+  La44  1  0.86651560  0.66405520  0.12196250  1
  La3+  La45  1  0.86563810  0.66894614  0.37112116  1
  La3+  La46  1  0.85709613  0.66875294  0.62582684  1
  La3+  La47  1  0.86521251  0.65875160  0.86624898  1
  La3+  La48  1  0.50251428  0.16603072  0.13870087  1
  La3+  La49  1  0.50452904  0.50211915  0.38624933  1
  La3+  La50  1  -0.01321402  0.83466596  0.38464144  1
  La3+  La51  1  0.49883306  0.82210904  0.88243758  1
  La3+  La52  1  0.49898846  0.16592724  0.62515572  1
  La3+  La53  1  0.50062663  0.83662866  0.37278553  1
  La3+  La54  1  0.00117796  0.49797628  0.87405154  1
  La3+  La55  1  0.00449518  0.83129975  0.63383705  1
  La3+  La56  1  -0.00061078  0.16492782  0.36908575  1
  La3+  La57  1  0.48487806  0.50618273  0.61941640  1
  La3+  La58  1  -0.00070893  0.16064115  0.61942142  1
  La3+  La59  1  -0.00261951  0.51017412  0.62275506  1
  La3+  La60  1  0.50293368  0.49930703  0.86235491  1
  La3+  La61  1  0.00016124  0.50031309  0.89050422  1
  La3+  La62  1  -0.00157096  0.50609053  0.12126851  1
  La3+  La63  1  -0.00078963  0.16474154  0.11287011  1
  La3+  La64  1  0.49981512  0.83358492  0.86374633  1
  La3+  La65  1  -0.00085063  0.82845671  0.13603979  1
  La3+  La66  1  -0.01328612  0.83610344  0.36783617  1
  La3+  La67  1  0.50422828  0.16005656  0.39317961  1
  La3+  La68  1  0.50434106  0.81907146  0.12120084  1
  La3+  La69  1  0.50210742  0.82750469  0.10769176  1
  La3+  La70  1  0.50148207  0.49835747  0.88500868  1
  La3+  La71  1  0.49411711  0.16969616  0.12049397  1
  La3+  La72  1  0.25004426  0.83747144  0.28806159  1
  La3+  La73  1  0.75124375  0.15105113  0.51383079  1
  La3+  La74  1  0.75053258  0.22576164  0.25373373  1
  La3+  La75  1  0.75089513  0.13551506  0.78711115  1
  La3+  La76  1  0.25189795  0.50577118  -0.00686817  1
  La3+  La77  1  0.24957570  0.16959651  0.23085272  1
  La3+  La78  1  0.75051824  0.86338692  0.22268070  1
  La3+  La79  1  0.24935943  0.17312248  0.49851808  1
  La3+  La80  1  0.75082469  0.56786701  0.50815678  1
  La3+  La81  1  0.25086517  0.78672114  0.51575958  1
  La3+  La82  1  0.25035647  0.49260112  0.70187351  1
  La3+  La83  1  0.24935192  0.11225526  -0.00766656  1
  Ru4+  Ru84  1  0.00068128  -0.00475494  -0.00868040  1
  Ru4+  Ru85  1  0.00596226  0.00774476  0.24354110  1
  Ru4+  Ru86  1  0.00106551  0.00083822  0.50907429  1
  Ru4+  Ru87  1  -0.00026449  0.00308536  0.74680316  1
  Ru4+  Ru88  1  0.00115778  0.32784096  -0.01006850  1
  Ru4+  Ru89  1  0.00257748  0.34064457  0.25699437  1
  Ru4+  Ru90  1  -0.00185572  0.32873987  0.49823768  1
  Ru4+  Ru91  1  -0.00145346  0.32728497  0.75119248  1
  Ru4+  Ru92  1  0.00020601  0.67443970  0.00032787  1
  Ru4+  Ru93  1  0.00037466  0.65624719  0.24104381  1
  Ru4+  Ru94  1  0.00516580  0.66374830  0.50482066  1
  Ru4+  Ru95  1  0.00071541  0.66981220  0.74237644  1
  Ru4+  Ru96  1  0.49600133  0.00011395  -0.00238237  1
  Ru4+  Ru97  1  0.49575567  -0.00900489  0.24712316  1
  Ru4+  Ru98  1  0.50918445  -0.00480335  0.50483319  1
  Ru4+  Ru99  1  0.49851082  -0.00316004  0.75067015  1
  Ru4+  Ru100  1  0.49840653  0.33678442  -0.00176431  1
  Ru4+  Ru101  1  0.50079460  0.34983926  0.24494130  1
  Ru4+  Ru102  1  0.49562372  0.33526314  0.50485265  1
  Ru4+  Ru103  1  0.50155624  0.33359575  0.75111116  1
  Ru4+  Ru104  1  0.49909713  0.64506709  0.00208188  1
  Ru4+  Ru105  1  0.49111062  0.66242650  0.25264848  1
  Ru4+  Ru106  1  0.50487965  0.66607085  0.50139784  1
  Ru4+  Ru107  1  0.50227227  0.66685506  0.74613113  1
  Ru4+  Ru108  1  0.10731886  0.16423739  -0.00215650  1
  Ru4+  Ru109  1  0.10854077  0.16001824  0.25041550  1
  Ru4+  Ru110  1  0.10944016  0.16755479  0.50207277  1
  Ru4+  Ru111  1  0.11079260  0.16704998  0.74842659  1
  Ru4+  Ru112  1  0.11157533  0.50080701  -0.00093638  1
  Ru4+  Ru113  1  0.11550938  0.49821838  0.25324048  1
  Ru4+  Ru114  1  0.11729266  0.50136044  0.50377536  1
  Ru4+  Ru115  1  0.11161515  0.50221791  0.74798095  1
  Ru4+  Ru116  1  0.10998705  0.83545782  -0.00378061  1
  Ru4+  Ru117  1  0.11182285  0.83760469  0.24505824  1
  Ru4+  Ru118  1  0.11059202  0.83246491  0.50167762  1
  Ru4+  Ru119  1  0.11335699  0.82941924  0.74976278  1
  Ru4+  Ru120  1  0.61634413  0.17318293  -0.00433412  1
  Ru4+  Ru121  1  0.61469402  0.16064016  0.25214875  1
  Ru4+  Ru122  1  0.61193635  0.16998268  0.49926556  1
  Ru4+  Ru123  1  0.61244590  0.16606798  0.75168412  1
  Ru4+  Ru124  1  0.61308817  0.49814907  0.00131371  1
  Ru4+  Ru125  1  0.61308294  0.49886061  0.24884558  1
  Ru4+  Ru126  1  0.60875682  0.49649352  0.49818648  1
  Ru4+  Ru127  1  0.61250448  0.49550740  0.74978097  1
  Ru4+  Ru128  1  0.61875429  0.83634054  -0.00144766  1
  Ru4+  Ru129  1  0.61266814  0.83575276  0.25015894  1
  Ru4+  Ru130  1  0.60680250  0.84899919  0.50402829  1
  Ru4+  Ru131  1  0.61425144  0.83324231  0.75169622  1
  Ru4+  Ru132  1  0.38965742  0.16873191  -0.00595844  1
  Ru4+  Ru133  1  0.38686410  0.17041260  0.25212004  1
  Ru4+  Ru134  1  0.38759731  0.16576820  0.50010458  1
  Ru4+  Ru135  1  0.38759543  0.17107323  0.75122971  1
  Ru4+  Ru136  1  0.39513906  0.50117906  -0.00377656  1
  Ru4+  Ru137  1  0.39367567  0.49634406  0.24678339  1
  Ru4+  Ru138  1  0.38192473  0.49841203  0.50025013  1
  Ru4+  Ru139  1  0.38814390  0.50422072  0.75170549  1
  Ru4+  Ru140  1  0.38105406  0.83741141  -0.00027245  1
  Ru4+  Ru141  1  0.38901425  0.82925187  0.25619830  1
  Ru4+  Ru142  1  0.39151322  0.83300997  0.49942939  1
  Ru4+  Ru143  1  0.38740559  0.83138753  0.74523570  1
  Ru4+  Ru144  1  0.88658640  0.17183590  -0.00214469  1
  Ru4+  Ru145  1  0.89061964  0.16696392  0.25009949  1
  Ru4+  Ru146  1  0.89540594  0.16804977  0.50048873  1
  Ru4+  Ru147  1  0.89193048  0.16673438  0.74801717  1
  Ru4+  Ru148  1  0.88182326  0.49550112  -0.00156162  1
  Ru4+  Ru149  1  0.88837535  0.50131849  0.25223978  1
  Ru4+  Ru150  1  0.89432153  0.50061248  0.50221052  1
  Ru4+  Ru151  1  0.88375167  0.49782819  0.75005820  1
  Ru4+  Ru152  1  0.88646718  0.82976060  -0.00511625  1
  Ru4+  Ru153  1  0.88427088  0.83990759  0.24853788  1
  Ru4+  Ru154  1  0.88395401  0.83486168  0.50257467  1
  Ru4+  Ru155  1  0.88438778  0.83191741  0.75239833  1
  Ru4+  Ru156  1  0.25037423  0.37692295  0.02648436  1
  Ru4+  Ru157  1  0.75051577  0.07141549  0.26728910  1
  Ru4+  Ru158  1  0.24951928  0.76286399  -0.01675287  1
  Ru4+  Ru159  1  0.75154615  0.28828953  0.49650474  1
  Ru4+  Ru160  1  0.75020620  0.41864396  0.50200755  1
  Ru4+  Ru161  1  0.24993373  0.90740078  0.76184953  1
  Ru4+  Ru162  1  0.25011358  0.92912703  0.49707859  1
  Ru4+  Ru163  1  0.25019703  0.09978493  0.75319877  1
  Ru4+  Ru164  1  0.75066889  0.09152270  -0.00838709  1
  Ru4+  Ru165  1  0.25106624  0.57876080  0.26352900  1
  Ru4+  Ru166  1  0.24996028  0.36225111  0.76975766  1
  Ru4+  Ru167  1  0.24886412  0.24714029  0.00045768  1
  Ru4+  Ru168  1  0.25001759  0.63764318  0.01177323  1
  Ru4+  Ru169  1  0.25105720  0.62849579  0.75682510  1
  Ru4+  Ru170  1  0.75129886  0.75915657  0.00209788  1
  Ru4+  Ru171  1  0.75021951  0.00812019  0.48529722  1
  Ru4+  Ru172  1  0.75128949  0.27502499  0.74067510  1
  Ru4+  Ru173  1  0.24895017  0.92421334  -0.00523127  1
  Ru4+  Ru174  1  0.75036779  0.40497735  0.23240525  1
  Ru4+  Ru175  1  0.75077537  0.90320731  -0.00292423  1
  Ru4+  Ru176  1  0.75003186  0.57351138  -0.00620867  1
  Ru4+  Ru177  1  0.74953805  0.75706082  0.49493893  1
  Ru4+  Ru178  1  0.75019335  0.72656236  0.27015319  1
  Ru4+  Ru179  1  0.74946511  0.59133926  0.23740220  1
  O2-  O180  1  0.15800595  0.07846205  -0.00336840  1
  O2-  O181  1  0.16864568  0.08202217  0.24712018  1
  O2-  O182  1  0.16257905  0.08154884  0.50043556  1
  O2-  O183  1  0.16776037  0.08205518  0.75433833  1
  O2-  O184  1  0.16775066  0.41227618  -0.00093488  1
  O2-  O185  1  0.16874151  0.42034122  0.25216841  1
  O2-  O186  1  0.16076462  0.41411453  0.50143587  1
  O2-  O187  1  0.16550136  0.41052518  0.75284790  1
  O2-  O188  1  0.16713504  0.74889558  0.00060722  1
  O2-  O189  1  0.16512404  0.74980985  0.25159736  1
  O2-  O190  1  0.16630605  0.74474750  0.49472042  1
  O2-  O191  1  0.16852203  0.75146890  0.75167980  1
  O2-  O192  1  0.66614328  0.08222940  -0.00360601  1
  O2-  O193  1  0.66767138  0.08040341  0.24965780  1
  O2-  O194  1  0.66716731  0.07818548  0.49839423  1
  O2-  O195  1  0.66314885  0.08142080  0.75222677  1
  O2-  O196  1  0.66285641  0.41539855  0.00063015  1
  O2-  O197  1  0.67000465  0.41346676  0.24524524  1
  O2-  O198  1  0.67038454  0.41523672  0.50435582  1
  O2-  O199  1  0.66932668  0.41508300  0.75006112  1
  O2-  O200  1  0.66789627  0.74814436  0.00400102  1
  O2-  O201  1  0.66602368  0.74456575  0.24952731  1
  O2-  O202  1  0.66170248  0.75167188  0.49898004  1
  O2-  O203  1  0.66311750  0.74880916  0.74809112  1
  O2-  O204  1  0.33124603  0.24878005  -0.00426289  1
  O2-  O205  1  0.32935229  0.25046207  0.25335153  1
  O2-  O206  1  0.33427545  0.25193990  0.50302484  1
  O2-  O207  1  0.33490073  0.25208767  0.75098931  1
  O2-  O208  1  0.33544602  0.59036492  -0.00242087  1
  O2-  O209  1  0.33174611  0.58213484  0.24745934  1
  O2-  O210  1  0.33725013  0.58833059  0.50041782  1
  O2-  O211  1  0.33362729  0.59045804  0.75148763  1
  O2-  O212  1  0.33252271  0.92316700  -0.00300747  1
  O2-  O213  1  0.33244510  0.91337405  0.24844909  1
  O2-  O214  1  0.33382682  0.91911330  0.50130676  1
  O2-  O215  1  0.33146677  0.91692838  0.75363003  1
  O2-  O216  1  0.83261499  0.25062593  -0.00180883  1
  O2-  O217  1  0.84183371  0.25874024  0.25205913  1
  O2-  O218  1  0.83482766  0.25618690  0.49956195  1
  O2-  O219  1  0.83314792  0.25377761  0.75036787  1
  O2-  O220  1  0.83371163  0.58656775  -0.00142001  1
  O2-  O221  1  0.83260100  0.58639367  0.24900848  1
  O2-  O222  1  0.84396686  0.58887704  0.49791641  1
  O2-  O223  1  0.83179563  0.58189950  0.74971246  1
  O2-  O224  1  0.83159267  0.91636460  0.00336464  1
  O2-  O225  1  0.83563660  0.92612196  0.25157870  1
  O2-  O226  1  0.83325564  0.92087577  0.49622452  1
  O2-  O227  1  0.83199656  0.91668735  0.74930513  1
  O2-  O228  1  0.16534115  0.25032383  -0.00216840  1
  O2-  O229  1  0.16217321  0.24824263  0.25126667  1
  O2-  O230  1  0.16275507  0.25293356  0.50300304  1
  O2-  O231  1  0.16129986  0.25186924  0.75177543  1
  O2-  O232  1  0.16746093  0.59035744  0.00025807  1
  O2-  O233  1  0.16654887  0.58443621  0.24789693  1
  O2-  O234  1  0.16316163  0.58679087  0.49569829  1
  O2-  O235  1  0.16937956  0.58660991  0.75236123  1
  O2-  O236  1  0.16498465  0.91690154  -0.00284102  1
  O2-  O237  1  0.17010998  0.91624130  0.25256043  1
  O2-  O238  1  0.16673745  0.91624534  0.50100132  1
  O2-  O239  1  0.16671509  0.91756388  0.75318711  1
  O2-  O240  1  0.66688772  0.25216956  -0.00031271  1
  O2-  O241  1  0.66082412  0.25611309  0.24471639  1
  O2-  O242  1  0.67083620  0.25500033  0.49979339  1
  O2-  O243  1  0.67278098  0.25249742  0.74924105  1
  O2-  O244  1  0.66468484  0.58771307  0.00144810  1
  O2-  O245  1  0.66458790  0.58660547  0.24800472  1
  O2-  O246  1  0.65543975  0.58965704  0.49890250  1
  O2-  O247  1  0.66353584  0.58283598  0.74471949  1
  O2-  O248  1  0.66718850  0.92204619  -0.00141413  1
  O2-  O249  1  0.66700150  0.91949573  0.25298553  1
  O2-  O250  1  0.67369602  0.91771740  0.49631087  1
  O2-  O251  1  0.66292199  0.91868519  0.75315889  1
  O2-  O252  1  0.33814523  0.07763305  -0.00185873  1
  O2-  O253  1  0.33442683  0.08211322  0.24550120  1
  O2-  O254  1  0.33499095  0.08313552  0.50233992  1
  O2-  O255  1  0.33502253  0.08026140  0.75116156  1
  O2-  O256  1  0.33528011  0.41254653  -0.00272395  1
  O2-  O257  1  0.33028546  0.42326633  0.25583636  1
  O2-  O258  1  0.33296902  0.41718273  0.49986938  1
  O2-  O259  1  0.33296090  0.40882691  0.75139260  1
  O2-  O260  1  0.33247587  0.74825949  -0.00251109  1
  O2-  O261  1  0.33078072  0.74996876  0.25047937  1
  O2-  O262  1  0.33762896  0.74484973  0.50153066  1
  O2-  O263  1  0.33372523  0.74979961  0.75215200  1
  O2-  O264  1  0.83654661  0.08084591  0.00048392  1
  O2-  O265  1  0.83433844  0.08177593  0.25286480  1
  O2-  O266  1  0.83465057  0.07737108  0.49674579  1
  O2-  O267  1  0.83707471  0.08065021  0.74678952  1
  O2-  O268  1  0.83452863  0.41181792  -0.00407698  1
  O2-  O269  1  0.83358566  0.41291934  0.24918559  1
  O2-  O270  1  0.83620717  0.41471825  0.50124351  1
  O2-  O271  1  0.83377001  0.41272177  0.74828182  1
  O2-  O272  1  0.83332532  0.74927883  0.00106750  1
  O2-  O273  1  0.83229304  0.74549444  0.24866706  1
  O2-  O274  1  0.83216241  0.74835968  0.49727596  1
  O2-  O275  1  0.83692456  0.74670949  0.75169264  1
  O2-  O276  1  0.53856542  0.21307964  0.75683994  1
  O2-  O277  1  0.54326345  0.09434624  0.98075654  1
  O2-  O278  1  0.54715834  0.75955873  0.23955843  1
  O2-  O279  1  0.94425098  0.42672704  0.22720657  1
  O2-  O280  1  0.96174811  0.88139787  0.99032256  1
  O2-  O281  1  0.95859050  0.24296283  0.25427466  1
  O2-  O282  1  0.95406911  0.43014272  0.99066576  1
  O2-  O283  1  0.44989277  0.90234400  0.98807039  1
  O2-  O284  1  0.53461198  0.56302871  0.71818443  1
  O2-  O285  1  0.45626608  0.20495921  0.29270412  1
  O2-  O286  1  0.96067633  0.55584056  0.76770461  1
  O2-  O287  1  0.46556911  0.44838106  0.27382897  1
  O2-  O288  1  0.03161648  0.78052702  0.99568467  1
  O2-  O289  1  0.54978665  0.42608162  0.70569713  1
  O2-  O290  1  0.54864024  0.23847157  0.01557264  1
  O2-  O291  1  0.54979397  0.23365943  0.26477197  1
  O2-  O292  1  0.55529482  0.09879645  0.01485882  1
  O2-  O293  1  0.95395581  0.42445923  0.51955664  1
  O2-  O294  1  0.95350340  0.76472312  0.74295578  1
  O2-  O295  1  0.55151104  0.09534138  0.51310254  1
  O2-  O296  1  0.03230123  0.45584505  0.25292693  1
  O2-  O297  1  0.55068323  0.90725920  0.97803937  1
  O2-  O298  1  0.47104026  0.45445504  0.25912841  1
  O2-  O299  1  0.05415466  0.91485859  0.01914725  1
  O2-  O300  1  0.95732215  0.57321781  0.00575743  1
  O2-  O301  1  0.44976545  0.08465207  0.51214936  1
  O2-  O302  1  0.04031343  0.90084054  0.28607130  1
  O2-  O303  1  0.04558475  0.77414274  0.46060724  1
  O2-  O304  1  0.94573223  0.75438449  0.48949560  1
  O2-  O305  1  0.95382621  0.09756407  0.23877182  1
  O2-  O306  1  0.04397215  0.45223892  0.28727017  1
  O2-  O307  1  0.44848874  0.42862376  0.74434868  1
  O2-  O308  1  0.44663380  0.90866256  0.48416629  1
  O2-  O309  1  0.55169689  0.76088913  0.00484909  1
  O2-  O310  1  0.44735998  0.23928883  0.76827254  1
  O2-  O311  1  0.95570681  0.89894656  0.51387155  1
  O2-  O312  1  0.04906633  0.75687461  0.26593784  1
  O2-  O313  1  0.52999649  0.83861258  0.52266415  1
  O2-  O314  1  0.46225499  0.88091105  0.22326010  1
  O2-  O315  1  0.04623886  0.43234293  0.75602342  1
  O2-  O316  1  0.04648930  0.23255569  0.99305691  1
  O2-  O317  1  0.95753458  0.57477305  0.48446797  1
  O2-  O318  1  0.95479853  0.56454093  0.78014396  1
  O2-  O319  1  0.94800090  0.76493070  0.26088720  1
  O2-  O320  1  0.45459432  0.23484225  0.50942952  1
  O2-  O321  1  0.45431994  0.75974037  0.00029020  1
  O2-  O322  1  0.53535298  0.44740332  0.53061224  1
  O2-  O323  1  0.04521158  0.23664461  0.72804896  1
  O2-  O324  1  0.42882536  0.95430486  0.31515966  1
  O2-  O325  1  0.93932135  0.59264526  0.28216249  1
  O2-  O326  1  0.93755927  0.40292578  0.78601142  1
  O2-  O327  1  0.57085069  0.40880883  0.27383368  1
  O2-  O328  1  0.06297850  0.93031955  0.46104385  1
  O2-  O329  1  0.92064730  0.94160538  0.97229821  1
  O2-  O330  1  0.57830912  0.27456410  0.77953375  1
  O2-  O331  1  0.91838005  0.61970908  0.69187845  1
  O2-  O332  1  0.43417495  0.26139338  0.96840524  1
  O2-  O333  1  0.57429483  0.92216832  0.42011864  1
  O2-  O334  1  0.06237426  0.08624260  0.17153638  1
  O2-  O335  1  0.42216243  0.25542744  0.18344574  1
  O2-  O336  1  0.93579402  0.92332625  0.79683424  1
  O2-  O337  1  0.43071586  0.58470144  0.18790118  1
  O2-  O338  1  0.06740055  0.35413309  0.18414351  1
  O2-  O339  1  0.57952641  0.94396771  0.56382633  1
  O2-  O340  1  0.43255669  0.40950199  0.52275593  1
  O2-  O341  1  0.07344772  0.72274233  0.95945901  1
  O2-  O342  1  0.06174948  0.74080310  0.72243641  1
  O2-  O343  1  0.57460749  0.24655766  0.56489877  1
  O2-  O344  1  0.43961436  0.73571751  0.72114019  1
  O2-  O345  1  0.41048292  0.39295677  0.19271508  1
  O2-  O346  1  0.93552604  0.92187080  0.70536105  1
  O2-  O347  1  0.43624873  0.07948696  0.02184810  1
  O2-  O348  1  0.06381476  0.40843594  0.97642055  1
  O2-  O349  1  0.58477602  0.40269870  0.44166944  1
  O2-  O350  1  0.43476513  0.92655974  0.71942488  1
  O2-  O351  1  0.56470239  0.92383616  0.22691397  1
  O2-  O352  1  0.07428636  0.93578666  0.17685046  1
  O2-  O353  1  0.93947758  0.74427524  0.29025166  1
  O2-  O354  1  0.43101823  0.75110229  0.18145941  1
  O2-  O355  1  0.56903851  0.24743297  0.42912699  1
  O2-  O356  1  0.93485122  0.58254374  0.02007752  1
  O2-  O357  1  0.56072857  0.26585806  0.26695442  1
  O2-  O358  1  0.06296573  0.07231670  0.32481440  1
  O2-  O359  1  0.93616675  0.26439289  0.96964854  1
  O2-  O360  1  0.55870465  0.74122835  0.03563721  1
  O2-  O361  1  0.43487949  0.59056370  0.32501539  1
  O2-  O362  1  0.06305123  0.59144666  0.71459732  1
  O2-  O363  1  0.43670059  0.74773518  0.02488088  1
  O2-  O364  1  0.07144277  0.71401472  0.56552470  1
  O2-  O365  1  0.93532044  0.73044047  0.96398206  1
  O2-  O366  1  0.58306389  0.42563267  0.84946059  1
  O2-  O367  1  0.43527454  0.74556192  0.32777031  1
  O2-  O368  1  0.55994787  0.41959105  0.70033327  1
  O2-  O369  1  0.06315114  0.07530448  0.73228279  1
  O2-  O370  1  0.06205677  0.58592439  0.02363486  1
  O2-  O371  1  0.56718496  0.62077032  0.82371957  1
  O2-  O372  1  0.24878366  0.66969779  0.34544053  1
  O2-  O373  1  0.25021501  -0.00237830  0.69522654  1
  O2-  O374  1  0.24927294  0.01542500  0.41252970  1
  O2-  O375  1  0.75032931  -0.00032865  0.06142592  1
  O2-  O376  1  0.75002399  0.33697918  0.12146725  1
  O2-  O377  1  0.25013410  0.67565300  0.87040153  1
  O2-  O378  1  0.75055157  0.66864272  0.92422621  1
  O2-  O379  1  0.25004303  0.33439571  0.89254427  1
  O2-  O380  1  0.74868488  0.67651343  0.59539292  1
  O2-  O381  1  0.25030739  0.01821023  0.56514152  1
  O2-  O382  1  0.25157329  0.67346577  0.63864046  1
  O2-  O383  1  0.24924817  0.33095470  0.14322549  1
  O2-  O384  1  0.75006739  -0.00327898  0.91777172  1
  O2-  O385  1  0.74896818  0.66744602  0.09530968  1
  O2-  O386  1  0.25043515  -0.00906889  0.32546955  1
  O2-  O387  1  0.24876049  0.32694052  0.40111723  1
  O2-  O388  1  0.75015856  0.66730397  0.83331639  1
  O2-  O389  1  0.74945602  0.00023180  0.82378886  1
  O2-  O390  1  0.74960055  0.66893303  0.40008340  1
  O2-  O391  1  0.24901288  0.00255917  0.89608689  1
  O2-  O392  1  0.25028288  0.00459100  0.09523566  1
  O2-  O393  1  0.75054302  -0.00826782  0.18985824  1
  O2-  O394  1  0.24941958  0.33449032  0.64866571  1
  O2-  O395  1  0.75078694  0.00055121  0.60636681  1
  O2-  O396  1  0.74972053  0.50014249  0.16652818  1
  O2-  O397  1  0.74959413  0.83023890  0.90378802  1
  O2-  O398  1  0.24999429  0.16072982  0.66057737  1
  O2-  O399  1  0.74998646  0.50384094  0.91028076  1
  O2-  O400  1  0.75038716  0.18003516  0.65249631  1
  O2-  O401  1  0.24995585  0.50184095  0.85531163  1
  O2-  O402  1  0.25015669  0.83984839  0.07076348  1
  O2-  O403  1  0.75002444  0.48347403  0.61640636  1
  O2-  O404  1  0.25020503  0.16354984  0.84714227  1
  O2-  O405  1  0.24995647  0.16450384  0.36244069  1
  O2-  O406  1  0.74993523  0.14437222  0.36712584  1
  O2-  O407  1  0.74985768  0.49812972  0.69837618  1
  O2-  O408  1  0.74984039  0.82924690  0.66327828  1
  O2-  O409  1  0.24951395  0.82876382  0.15690527  1
  O2-  O410  1  0.24916337  0.50200352  0.57834297  1
  O2-  O411  1  0.24938872  0.50329101  0.33593376  1
  O2-  O412  1  0.75004133  0.83503730  0.57922002  1
  O2-  O413  1  0.25009884  0.84276927  0.89435838  1
  O2-  O414  1  0.75028954  0.14592438  0.13996649  1
  O2-  O415  1  0.75023008  0.81969893  0.36807044  1
  O2-  O416  1  0.75015201  0.49448871  0.07875891  1
  O2-  O417  1  0.74999368  0.49626060  0.30693811  1
  O2-  O418  1  0.74968173  0.18224258  0.05867089  1
  O2-  O419  1  0.74977934  0.47869069  0.39681654  1
  O2-  O420  1  0.95600749  0.67533858  0.13192653  1
  O2-  O421  1  0.96940958  -0.00004037  0.37656532  1
  O2-  O422  1  0.04624048  0.67090060  0.13858870  1
  O2-  O423  1  0.45279699  -0.00140326  0.13895534  1
  O2-  O424  1  0.52675971  0.67105426  0.61555220  1
  O2-  O425  1  0.95542734  0.02710315  0.61253946  1
  O2-  O426  1  0.51405657  0.33611278  0.87946543  1
  O2-  O427  1  0.97134131  -0.00578809  0.12108836  1
  O2-  O428  1  0.48721628  0.33510457  0.11602317  1
  O2-  O429  1  0.51646711  0.01201992  0.63806852  1
  O2-  O430  1  0.51995866  0.01778571  0.36610286  1
  O2-  O431  1  0.97576721  0.67432672  0.61445839  1
  O2-  O432  1  0.54178849  0.00856429  0.11693164  1
  O2-  O433  1  0.52825763  0.66475083  0.37748828  1
  O2-  O434  1  0.47181740  -0.00219023  0.87155232  1
  O2-  O435  1  0.04408008  -0.01574990  0.61880262  1
  O2-  O436  1  0.48872245  0.65711050  0.11631166  1
  O2-  O437  1  0.46296779  0.32854149  0.63121278  1
  O2-  O438  1  0.97067234  0.33206740  0.37808439  1
  O2-  O439  1  0.52270603  0.32154847  0.62616312  1
  O2-  O440  1  0.45888922  0.33393419  0.38816951  1
  O2-  O441  1  0.98718262  0.01763573  0.87510930  1
  O2-  O442  1  0.51587105  0.33940907  0.36841008  1
  O2-  O443  1  0.02478868  0.33094143  0.86834050  1
