# generated using pymatgen
data_La7(Ru4O11)2
_symmetry_space_group_name_H-M   'P 1'
_cell_length_a   23.99742472
_cell_length_b   16.83890711
_cell_length_c   15.43351746
_cell_angle_alpha   90.00064488
_cell_angle_beta   89.99659246
_cell_angle_gamma   90.00288865
_symmetry_Int_Tables_number   1
_chemical_formula_structural   La7(Ru4O11)2
_chemical_formula_sum   'La84 Ru96 O264'
_cell_volume   6236.53631270
_cell_formula_units_Z   12
loop_
 _symmetry_equiv_pos_site_id
 _symmetry_equiv_pos_as_xyz
  1  'x, y, z'
loop_
 _atom_type_symbol
 _atom_type_oxidation_number
  La3+  3.0
  Ru4+  4.0
  O2-  -2.0
loop_
 _atom_site_type_symbol
 _atom_site_label
 _atom_site_symmetry_multiplicity
 _atom_site_fract_x
 _atom_site_fract_y
 _atom_site_fract_z
 _atom_site_occupancy
  La3+  La0  1  0.15783973  -0.00279919  0.11630858  1
  La3+  La1  1  0.14388803  -0.00532522  0.36892359  1
  La3+  La2  1  0.14534550  0.00020687  0.62484522  1
  La3+  La3  1  0.15236266  -0.00773290  0.88254970  1
  La3+  La4  1  0.15468290  0.32991299  0.11866873  1
  La3+  La5  1  0.14466005  0.33931785  0.37894076  1
  La3+  La6  1  0.15454559  0.33067352  0.63046852  1
  La3+  La7  1  0.13417101  0.33084428  0.88245780  1
  La3+  La8  1  0.14322636  0.66264065  0.13023192  1
  La3+  La9  1  0.14815548  0.66329324  0.37081674  1
  La3+  La10  1  0.14058006  0.66982941  0.62762087  1
  La3+  La11  1  0.15058492  0.65841383  0.87753556  1
  La3+  La12  1  0.63459514  0.00263389  0.12397414  1
  La3+  La13  1  0.63800359  -0.00549905  0.37436871  1
  La3+  La14  1  0.63238668  -0.00268817  0.63394701  1
  La3+  La15  1  0.63836566  -0.01068631  0.87155605  1
  La3+  La16  1  0.64155121  0.33671335  0.12874003  1
  La3+  La17  1  0.64766722  0.35131003  0.37448675  1
  La3+  La18  1  0.64238137  0.32956688  0.61809240  1
  La3+  La19  1  0.63689164  0.33853727  0.87578313  1
  La3+  La20  1  0.62898438  0.65998573  0.11972773  1
  La3+  La21  1  0.63404511  0.66617388  0.36898368  1
  La3+  La22  1  0.63814710  0.67436012  0.62415118  1
  La3+  La23  1  0.64061991  0.66865106  0.86964253  1
  La3+  La24  1  0.34561180  -0.00357164  0.12159234  1
  La3+  La25  1  0.36042072  -0.00785146  0.37177676  1
  La3+  La26  1  0.35790772  0.00244411  0.62911748  1
  La3+  La27  1  0.35765691  0.00157925  0.87792456  1
  La3+  La28  1  0.34458048  0.33398515  0.12346485  1
  La3+  La29  1  0.35135521  0.33233576  0.37758496  1
  La3+  La30  1  0.34610892  0.33144247  0.63131618  1
  La3+  La31  1  0.35351474  0.34086828  0.87697325  1
  La3+  La32  1  0.36384857  0.66620744  0.13160813  1
  La3+  La33  1  0.34122798  0.66112801  0.37085593  1
  La3+  La34  1  0.37229235  0.67134891  0.62489904  1
  La3+  La35  1  0.34676610  0.64684281  0.87863770  1
  La3+  La36  1  0.86708462  0.00246517  0.12280107  1
  La3+  La37  1  0.86247192  0.00390736  0.37258304  1
  La3+  La38  1  0.85842776  -0.01354738  0.62759117  1
  La3+  La39  1  0.86475800  -0.00549772  0.87272148  1
  La3+  La40  1  0.85122801  0.34293054  0.12322544  1
  La3+  La41  1  0.86794179  0.33918647  0.36812191  1
  La3+  La42  1  0.84802472  0.34492214  0.61421344  1
  La3+  La43  1  0.86762548  0.33261174  0.86760495  1
  La3+  La44  1  0.87067525  0.66347654  0.12810447  1
  La3+  La45  1  0.86373586  0.66287145  0.37098339  1
  La3+  La46  1  0.86398641  0.66654061  0.62343720  1
  La3+  La47  1  0.85198581  0.66713710  0.87164665  1
  La3+  La48  1  0.00759251  0.16064221  0.38276427  1
  La3+  La49  1  0.50528460  0.83981020  0.13371771  1
  La3+  La50  1  0.49983908  0.16405944  0.60673326  1
  La3+  La51  1  0.48808827  0.15415734  0.11413632  1
  La3+  La52  1  0.50747708  0.50571381  0.62333986  1
  La3+  La53  1  0.49889211  0.50045255  0.11744148  1
  La3+  La54  1  0.50126995  0.51260103  0.87057362  1
  La3+  La55  1  -0.01032948  0.84347459  0.86103608  1
  La3+  La56  1  0.00409786  0.83861500  0.11421477  1
  La3+  La57  1  -0.00671658  0.17057612  0.62618585  1
  La3+  La58  1  -0.00553968  0.82632920  0.62666111  1
  La3+  La59  1  0.01409856  0.17289955  0.87811335  1
  La3+  La60  1  0.51001919  0.15006373  0.36181625  1
  La3+  La61  1  0.49444676  0.15397019  0.85617816  1
  La3+  La62  1  0.50201195  0.51108065  0.88822563  1
  La3+  La63  1  0.50774245  0.50658200  0.64001784  1
  La3+  La64  1  -0.00478319  0.83116103  0.36616430  1
  La3+  La65  1  0.50473003  0.83493047  0.11786088  1
  La3+  La66  1  0.48949665  0.15610485  0.09770241  1
  La3+  La67  1  0.51018668  0.15709420  0.37650925  1
  La3+  La68  1  -0.00050411  0.50680477  0.87776353  1
  La3+  La69  1  0.50336028  0.50500021  0.13813221  1
  La3+  La70  1  0.50308707  0.83591630  0.86279984  1
  La3+  La71  1  0.00449835  0.83018459  0.38343211  1
  La3+  La72  1  0.24925474  0.16555371  0.79117691  1
  La3+  La73  1  0.75027922  0.79013800  0.01333439  1
  La3+  La74  1  0.74465461  0.22254920  0.79063488  1
  La3+  La75  1  0.75460492  0.79974794  0.50719797  1
  La3+  La76  1  0.24827257  0.50036816  0.01637783  1
  La3+  La77  1  0.24961959  0.22540794  0.24573273  1
  La3+  La78  1  0.75233111  0.17519793  0.43892823  1
  La3+  La79  1  0.24768895  0.53474678  0.54430972  1
  La3+  La80  1  0.25056020  0.79874936  0.76832009  1
  La3+  La81  1  0.75153143  0.83049721  0.23460936  1
  La3+  La82  1  0.24764725  0.83113771  0.48385032  1
  La3+  La83  1  0.74945793  0.49922637  0.48866126  1
  Ru4+  Ru84  1  -0.00811669  0.01238259  0.01067542  1
  Ru4+  Ru85  1  -0.00475323  0.00287057  0.25437424  1
  Ru4+  Ru86  1  0.01270674  0.00776322  0.50401498  1
  Ru4+  Ru87  1  -0.00308136  0.00046980  0.74011979  1
  Ru4+  Ru88  1  0.00122849  0.33811460  -0.00758817  1
  Ru4+  Ru89  1  -0.02053960  0.32673435  0.25735731  1
  Ru4+  Ru90  1  -0.00271387  0.34514155  0.50293049  1
  Ru4+  Ru91  1  -0.00655172  0.32980872  0.74570557  1
  Ru4+  Ru92  1  0.01238533  0.67083178  -0.00597718  1
  Ru4+  Ru93  1  0.00386639  0.65948699  0.24535244  1
  Ru4+  Ru94  1  0.00612258  0.65044880  0.50660429  1
  Ru4+  Ru95  1  -0.00447655  0.66737362  0.76481016  1
  Ru4+  Ru96  1  0.50333029  -0.00057221  0.01674871  1
  Ru4+  Ru97  1  0.49821710  -0.00907321  0.25825059  1
  Ru4+  Ru98  1  0.50016406  -0.01510193  0.49336082  1
  Ru4+  Ru99  1  0.49255340  -0.00621184  0.72408232  1
  Ru4+  Ru100  1  0.49822908  0.33971134  -0.01220340  1
  Ru4+  Ru101  1  0.51407242  0.32690180  0.25718900  1
  Ru4+  Ru102  1  0.48348538  0.34336579  0.50762559  1
  Ru4+  Ru103  1  0.48853738  0.32896238  0.74263657  1
  Ru4+  Ru104  1  0.49956516  0.67904659  -0.00144751  1
  Ru4+  Ru105  1  0.49401807  0.68909514  0.26331441  1
  Ru4+  Ru106  1  0.48862170  0.68078301  0.48954232  1
  Ru4+  Ru107  1  0.49462031  0.68439174  0.75278909  1
  Ru4+  Ru108  1  0.10764055  0.15553079  0.00522955  1
  Ru4+  Ru109  1  0.10654351  0.16461529  0.24144733  1
  Ru4+  Ru110  1  0.10815100  0.15685254  0.50331216  1
  Ru4+  Ru111  1  0.11487182  0.16501280  0.74668180  1
  Ru4+  Ru112  1  0.10910573  0.50123538  -0.00079999  1
  Ru4+  Ru113  1  0.11295079  0.50563374  0.24887712  1
  Ru4+  Ru114  1  0.09423774  0.51108817  0.50251121  1
  Ru4+  Ru115  1  0.11393474  0.49451851  0.74788563  1
  Ru4+  Ru116  1  0.10653070  0.83206909  -0.00105264  1
  Ru4+  Ru117  1  0.11685468  0.83279461  0.24870925  1
  Ru4+  Ru118  1  0.10058645  0.83404360  0.49672908  1
  Ru4+  Ru119  1  0.10834990  0.83117557  0.74949289  1
  Ru4+  Ru120  1  0.61209394  0.17129889  -0.00111988  1
  Ru4+  Ru121  1  0.61066940  0.17472230  0.25839937  1
  Ru4+  Ru122  1  0.61168592  0.16808071  0.49687304  1
  Ru4+  Ru123  1  0.60736754  0.16201300  0.75905854  1
  Ru4+  Ru124  1  0.61813183  0.49314302  -0.00238844  1
  Ru4+  Ru125  1  0.61213795  0.49750803  0.25692117  1
  Ru4+  Ru126  1  0.60712229  0.49992118  0.49764516  1
  Ru4+  Ru127  1  0.61766216  0.50084299  0.75163041  1
  Ru4+  Ru128  1  0.60845539  0.83741657  0.00664453  1
  Ru4+  Ru129  1  0.61347491  0.83266223  0.25081029  1
  Ru4+  Ru130  1  0.60135031  0.82123450  0.49650973  1
  Ru4+  Ru131  1  0.61078199  0.82980987  0.74524871  1
  Ru4+  Ru132  1  0.38114181  0.16833240  -0.00064987  1
  Ru4+  Ru133  1  0.39160968  0.16464873  0.25208255  1
  Ru4+  Ru134  1  0.38786178  0.17683517  0.49618884  1
  Ru4+  Ru135  1  0.38749041  0.16754991  0.75173889  1
  Ru4+  Ru136  1  0.38330570  0.49057973  -0.00392028  1
  Ru4+  Ru137  1  0.38505517  0.50281969  0.25356102  1
  Ru4+  Ru138  1  0.38938460  0.49973320  0.48099709  1
  Ru4+  Ru139  1  0.37970699  0.50313089  0.74829813  1
  Ru4+  Ru140  1  0.38435302  0.83473108  0.00250702  1
  Ru4+  Ru141  1  0.38756897  0.82368735  0.25200071  1
  Ru4+  Ru142  1  0.39877682  0.82308245  0.49366500  1
  Ru4+  Ru143  1  0.39674172  0.82931160  0.75014728  1
  Ru4+  Ru144  1  0.88799118  0.16625988  0.00022457  1
  Ru4+  Ru145  1  0.89380969  0.17234184  0.23869409  1
  Ru4+  Ru146  1  0.88958493  0.17149629  0.50062640  1
  Ru4+  Ru147  1  0.89485580  0.16134428  0.75092646  1
  Ru4+  Ru148  1  0.88983590  0.49634129  0.00544754  1
  Ru4+  Ru149  1  0.89545357  0.49985706  0.25294388  1
  Ru4+  Ru150  1  0.89042238  0.50056248  0.50161431  1
  Ru4+  Ru151  1  0.88929184  0.49973868  0.75278770  1
  Ru4+  Ru152  1  0.88978325  0.83161570  0.00340048  1
  Ru4+  Ru153  1  0.89494114  0.83246679  0.24744922  1
  Ru4+  Ru154  1  0.89954001  0.83088577  0.49455304  1
  Ru4+  Ru155  1  0.88465040  0.83439358  0.74726367  1
  Ru4+  Ru156  1  0.75095308  0.05592269  0.76206833  1
  Ru4+  Ru157  1  0.74907821  0.94028072  -0.01984687  1
  Ru4+  Ru158  1  0.25046329  0.07297288  0.23948125  1
  Ru4+  Ru159  1  0.75006687  0.68723001  0.21435837  1
  Ru4+  Ru160  1  0.74884391  0.94200724  0.47145570  1
  Ru4+  Ru161  1  0.25228403  0.97601821  0.48686928  1
  Ru4+  Ru162  1  0.75134741  0.59422224  0.73524868  1
  Ru4+  Ru163  1  0.75100780  0.42090225  -0.00074300  1
  Ru4+  Ru164  1  0.24773360  0.39663734  0.48507941  1
  Ru4+  Ru165  1  0.24940146  0.69765956  0.53384603  1
  Ru4+  Ru166  1  0.75071214  0.23593401  -0.00821617  1
  Ru4+  Ru167  1  0.75019923  0.56056527  0.25266528  1
  Ru4+  Ru168  1  0.74864159  0.08147530  0.00722433  1
  Ru4+  Ru169  1  0.75247282  0.97213188  0.23306222  1
  Ru4+  Ru170  1  0.74734529  0.65025153  0.49285971  1
  Ru4+  Ru171  1  0.75246839  0.32069449  0.47403766  1
  Ru4+  Ru172  1  0.25158125  0.11246486  0.47803578  1
  Ru4+  Ru173  1  0.75018504  0.10430333  0.20299940  1
  Ru4+  Ru174  1  0.24980056  0.76139203  -0.00123071  1
  Ru4+  Ru175  1  0.75106102  0.59000681  0.01408691  1
  Ru4+  Ru176  1  0.75084301  0.42170359  0.73274574  1
  Ru4+  Ru177  1  0.25038763  0.95718448  0.74834161  1
  Ru4+  Ru178  1  0.74900630  0.07085012  0.55447714  1
  Ru4+  Ru179  1  0.75207752  0.25649023  0.24386638  1
  O2-  O180  1  0.17337521  0.09103803  -0.00749868  1
  O2-  O181  1  0.16744193  0.08440972  0.25301639  1
  O2-  O182  1  0.17135319  0.08195245  0.49562574  1
  O2-  O183  1  0.16874457  0.08078291  0.75190157  1
  O2-  O184  1  0.16542473  0.41200092  0.00007669  1
  O2-  O185  1  0.15566814  0.41551026  0.24988312  1
  O2-  O186  1  0.16176783  0.41910813  0.50207413  1
  O2-  O187  1  0.16017941  0.41072566  0.75785272  1
  O2-  O188  1  0.16697640  0.75023665  0.00064525  1
  O2-  O189  1  0.16291389  0.74517193  0.24800030  1
  O2-  O190  1  0.16453307  0.74408204  0.50169883  1
  O2-  O191  1  0.15813466  0.74523577  0.75242156  1
  O2-  O192  1  0.66519952  0.07883713  0.00288526  1
  O2-  O193  1  0.66032331  0.08738675  0.24260581  1
  O2-  O194  1  0.66484949  0.07896945  0.50540216  1
  O2-  O195  1  0.66845080  0.07557579  0.75167683  1
  O2-  O196  1  0.66834341  0.40793595  -0.00020658  1
  O2-  O197  1  0.66608386  0.41928052  0.24444235  1
  O2-  O198  1  0.66626643  0.42214536  0.50205934  1
  O2-  O199  1  0.66722039  0.41199883  0.74811137  1
  O2-  O200  1  0.66416154  0.74017288  -0.00064547  1
  O2-  O201  1  0.67038702  0.74099557  0.24102388  1
  O2-  O202  1  0.66585794  0.74301060  0.49672102  1
  O2-  O203  1  0.66548007  0.75069863  0.75262553  1
  O2-  O204  1  0.33252560  0.25321317  -0.00467104  1
  O2-  O205  1  0.34467700  0.25505628  0.24882728  1
  O2-  O206  1  0.32769018  0.24713573  0.49088037  1
  O2-  O207  1  0.32892461  0.25025904  0.76410615  1
  O2-  O208  1  0.33262494  0.58277581  0.02007327  1
  O2-  O209  1  0.33008369  0.58221325  0.23689757  1
  O2-  O210  1  0.33721181  0.58389789  0.51110336  1
  O2-  O211  1  0.33392933  0.58994653  0.73878639  1
  O2-  O212  1  0.33626021  0.91771193  -0.00212581  1
  O2-  O213  1  0.34132941  0.91376565  0.25351496  1
  O2-  O214  1  0.33528569  0.92110265  0.49987610  1
  O2-  O215  1  0.32744857  0.91938994  0.75129417  1
  O2-  O216  1  0.83560218  0.25199195  -0.00772950  1
  O2-  O217  1  0.83601714  0.25197765  0.25359692  1
  O2-  O218  1  0.83489361  0.25551159  0.49025482  1
  O2-  O219  1  0.83777414  0.24208258  0.76559344  1
  O2-  O220  1  0.83666001  0.58561059  0.00590346  1
  O2-  O221  1  0.83239108  0.57858480  0.24814521  1
  O2-  O222  1  0.83463059  0.58534174  0.49389553  1
  O2-  O223  1  0.83685746  0.58630306  0.74288013  1
  O2-  O224  1  0.82905298  0.92021986  0.00383430  1
  O2-  O225  1  0.83763483  0.92252751  0.25030844  1
  O2-  O226  1  0.83402798  0.91904399  0.49151340  1
  O2-  O227  1  0.83131424  0.91623096  0.75396758  1
  O2-  O228  1  0.16343319  0.24309038  -0.00352599  1
  O2-  O229  1  0.15579496  0.25680296  0.25424545  1
  O2-  O230  1  0.15241419  0.24634097  0.49786951  1
  O2-  O231  1  0.17193916  0.25209084  0.76388398  1
  O2-  O232  1  0.16401708  0.58381015  0.00814998  1
  O2-  O233  1  0.17164067  0.57850500  0.24569297  1
  O2-  O234  1  0.15851380  0.58316648  0.49736897  1
  O2-  O235  1  0.15689758  0.58543104  0.74771053  1
  O2-  O236  1  0.16590406  0.90547410  -0.00768700  1
  O2-  O237  1  0.16331361  0.91845165  0.25013671  1
  O2-  O238  1  0.16316432  0.92305537  0.49946425  1
  O2-  O239  1  0.16921396  0.91784401  0.74663216  1
  O2-  O240  1  0.66623238  0.25215106  -0.00416541  1
  O2-  O241  1  0.66941733  0.25257067  0.24259565  1
  O2-  O242  1  0.67173837  0.25768632  0.49027093  1
  O2-  O243  1  0.65038816  0.25613379  0.75176433  1
  O2-  O244  1  0.66788637  0.58840317  0.00547446  1
  O2-  O245  1  0.66892312  0.58085611  0.24441298  1
  O2-  O246  1  0.66708168  0.58599001  0.49563631  1
  O2-  O247  1  0.66884727  0.58889179  0.74304004  1
  O2-  O248  1  0.66712301  0.91963671  0.00698264  1
  O2-  O249  1  0.66884871  0.92519409  0.24330444  1
  O2-  O250  1  0.66490632  0.91798735  0.49649914  1
  O2-  O251  1  0.66171910  0.91664433  0.74908515  1
  O2-  O252  1  0.32962631  0.08491312  -0.00340305  1
  O2-  O253  1  0.33209403  0.08074749  0.25116444  1
  O2-  O254  1  0.33509864  0.08604557  0.49356653  1
  O2-  O255  1  0.32754188  0.08478885  0.75677890  1
  O2-  O256  1  0.32865421  0.41045145  0.00556411  1
  O2-  O257  1  0.34072009  0.41555077  0.24964789  1
  O2-  O258  1  0.33213615  0.41625358  0.50376654  1
  O2-  O259  1  0.33626906  0.41385196  0.75479577  1
  O2-  O260  1  0.33473029  0.74464261  0.00409757  1
  O2-  O261  1  0.32765371  0.75704458  0.23708649  1
  O2-  O262  1  0.32669076  0.74814897  0.51497753  1
  O2-  O263  1  0.33714083  0.74958294  0.73463202  1
  O2-  O264  1  0.82969705  0.08019229  -0.00103700  1
  O2-  O265  1  0.83353591  0.08911426  0.23829251  1
  O2-  O266  1  0.83300658  0.07975702  0.50514194  1
  O2-  O267  1  0.83300211  0.07693412  0.76323360  1
  O2-  O268  1  0.83243287  0.41562047  -0.00960256  1
  O2-  O269  1  0.84116425  0.41906502  0.25478864  1
  O2-  O270  1  0.82745683  0.41603724  0.47822458  1
  O2-  O271  1  0.83409225  0.41628217  0.75298006  1
  O2-  O272  1  0.84086411  0.74095557  0.00412689  1
  O2-  O273  1  0.83109964  0.74117756  0.24813059  1
  O2-  O274  1  0.84236161  0.73909664  0.49454951  1
  O2-  O275  1  0.84102846  0.74333168  0.74468576  1
  O2-  O276  1  0.04367279  0.09630000  0.26080643  1
  O2-  O277  1  0.02944313  0.55514731  0.44950521  1
  O2-  O278  1  0.43679733  0.92036379  0.46650826  1
  O2-  O279  1  0.54782633  0.56555769  0.00709369  1
  O2-  O280  1  0.95732917  0.43016082  0.25530083  1
  O2-  O281  1  0.54948410  0.58259452  0.51854957  1
  O2-  O282  1  0.55155278  0.91101308  0.75305472  1
  O2-  O283  1  0.96161632  0.22539532  0.76305103  1
  O2-  O284  1  0.54841638  0.57597576  0.25489119  1
  O2-  O285  1  0.45452014  0.90707397  0.01553744  1
  O2-  O286  1  0.05430910  0.41774221  0.48670676  1
  O2-  O287  1  0.55557526  0.90996855  0.49045252  1
  O2-  O288  1  0.47399674  0.79324670  0.51195930  1
  O2-  O289  1  0.45181169  0.09151492  0.48178558  1
  O2-  O290  1  0.04100943  0.44393546  0.75672740  1
  O2-  O291  1  0.44559441  0.23495092  0.71001933  1
  O2-  O292  1  0.45492195  0.45354074  0.52861221  1
  O2-  O293  1  0.04594096  0.76219670  0.24269470  1
  O2-  O294  1  0.04596785  0.09329739  0.25328432  1
  O2-  O295  1  0.52634659  0.20987044  0.23117872  1
  O2-  O296  1  0.02928137  0.77414362  0.95862542  1
  O2-  O297  1  0.56273326  0.74349450  0.26528703  1
  O2-  O298  1  0.47178740  0.78719358  0.72543167  1
  O2-  O299  1  0.53368018  0.21582086  0.22103035  1
  O2-  O300  1  0.95609581  0.23253365  0.77916661  1
  O2-  O301  1  0.55257672  0.08228333  0.69560618  1
  O2-  O302  1  0.45369019  0.76877936  0.99616620  1
  O2-  O303  1  0.56356912  0.77007881  0.57646941  1
  O2-  O304  1  0.46340070  0.24118851  0.44512856  1
  O2-  O305  1  0.45230623  0.43906620  0.76097857  1
  O2-  O306  1  0.01404323  0.12790831  1.01655506  1
  O2-  O307  1  0.95370296  0.10186369  0.49589920  1
  O2-  O308  1  0.44885425  0.09343596  0.98160536  1
  O2-  O309  1  0.54974398  0.41902535  0.48467214  1
  O2-  O310  1  0.03205652  0.91245071  0.96566940  1
  O2-  O311  1  0.46679788  0.78858544  0.71906017  1
  O2-  O312  1  0.94830964  0.58218578  0.26525419  1
  O2-  O313  1  0.45008412  0.24749159  0.01747458  1
  O2-  O314  1  0.06283009  0.24926119  0.74862302  1
  O2-  O315  1  0.55437614  0.09337101  0.01488474  1
  O2-  O316  1  0.04454405  0.89419000  0.72185774  1
  O2-  O317  1  0.54820385  0.43467044  0.76936978  1
  O2-  O318  1  0.96227751  0.08951018  0.79134679  1
  O2-  O319  1  0.04637075  0.43672842  0.99294909  1
  O2-  O320  1  0.45212676  0.56440844  0.99436055  1
  O2-  O321  1  0.47028209  0.80688178  0.25770549  1
  O2-  O322  1  0.96049645  0.21715850  0.28153759  1
  O2-  O323  1  0.04580811  0.90473281  0.25276237  1
  O2-  O324  1  0.06742610  0.60980798  0.57268082  1
  O2-  O325  1  0.43990381  0.07974766  0.98385490  1
  O2-  O326  1  0.44008975  0.93195293  0.19683678  1
  O2-  O327  1  0.91575971  0.32202743  0.69411871  1
  O2-  O328  1  0.56016760  0.25232794  0.51434811  1
  O2-  O329  1  0.92654315  0.08006770  0.03528622  1
  O2-  O330  1  0.45351181  0.22693314  0.72310358  1
  O2-  O331  1  0.92920668  0.07428951  0.28172631  1
  O2-  O332  1  0.07785422  0.73337767  0.06693697  1
  O2-  O333  1  0.55023281  0.42174335  0.27591001  1
  O2-  O334  1  0.43359346  0.07610361  0.72316600  1
  O2-  O335  1  0.55616509  0.58396684  0.03812601  1
  O2-  O336  1  0.43903737  0.58401843  0.19960609  1
  O2-  O337  1  0.41137047  0.71225692  0.46220554  1
  O2-  O338  1  0.57756198  0.27715357  0.33559337  1
  O2-  O339  1  0.56797502  0.72668362  0.72291304  1
  O2-  O340  1  0.58402523  0.10065438  0.85590914  1
  O2-  O341  1  0.41681496  0.26486513  0.55986831  1
  O2-  O342  1  0.55630894  0.58170474  0.77304520  1
  O2-  O343  1  0.56550738  0.72886195  0.43799074  1
  O2-  O344  1  0.44114522  0.07559854  0.28901361  1
  O2-  O345  1  0.44614845  0.57889089  0.77777584  1
  O2-  O346  1  0.06976030  0.06427235  0.43167446  1
  O2-  O347  1  0.93724955  0.91444259  0.02792438  1
  O2-  O348  1  0.06574472  0.26331138  0.98192287  1
  O2-  O349  1  0.93941406  0.73822921  0.21820800  1
  O2-  O350  1  0.93777882  0.40193393  0.02345558  1
  O2-  O351  1  0.06575446  0.59317934  0.27533050  1
  O2-  O352  1  0.42503751  0.91737313  0.68131236  1
  O2-  O353  1  0.43420361  0.38168343  0.41378810  1
  O2-  O354  1  0.56207587  0.74394136  0.04470328  1
  O2-  O355  1  0.56248007  0.92318948  0.26068688  1
  O2-  O356  1  0.41938571  0.71920888  0.82699382  1
  O2-  O357  1  0.91899899  0.08401443  0.66494805  1
  O2-  O358  1  0.44338636  0.58514355  0.96549158  1
  O2-  O359  1  0.08405196  0.07550808  0.92330624  1
  O2-  O360  1  0.56083385  0.74740681  0.25714830  1
  O2-  O361  1  0.06391102  0.07852611  0.58508846  1
  O2-  O362  1  0.42389741  0.90524050  0.83421852  1
  O2-  O363  1  0.08740616  0.90636746  0.08405585  1
  O2-  O364  1  0.09244157  0.09762425  0.09873242  1
  O2-  O365  1  0.45007679  0.30305108  0.86387257  1
  O2-  O366  1  0.93232242  0.41294464  0.52174207  1
  O2-  O367  1  0.41181016  0.70518103  0.27802212  1
  O2-  O368  1  0.55522034  0.07791818  0.69895815  1
  O2-  O369  1  0.93486558  0.92540676  0.76534289  1
  O2-  O370  1  0.44128646  0.58230282  0.47720037  1
  O2-  O371  1  0.93070520  0.28862010  0.16841408  1
  O2-  O372  1  0.25160293  0.00443818  0.35824017  1
  O2-  O373  1  0.24501620  0.32216599  0.38517006  1
  O2-  O374  1  0.74983069  0.00711220  0.36561247  1
  O2-  O375  1  0.24557685  0.64276821  0.42013442  1
  O2-  O376  1  0.74969667  0.65906861  0.84510131  1
  O2-  O377  1  0.24873176  0.33185432  0.14467797  1
  O2-  O378  1  0.75121538  0.65430370  0.36141473  1
  O2-  O379  1  0.74975218  0.31718095  0.70025548  1
  O2-  O380  1  0.75019642  0.32854164  0.90018974  1
  O2-  O381  1  0.24892762  0.67004512  0.83316913  1
  O2-  O382  1  0.24841452  0.66384715  0.92639434  1
  O2-  O383  1  0.75075354  0.66593937  0.62274674  1
  O2-  O384  1  0.25348752  -0.00116535  0.86538544  1
  O2-  O385  1  0.74965320  -0.00599873  0.64838912  1
  O2-  O386  1  0.74854702  0.36629304  0.57858496  1
  O2-  O387  1  0.74988066  0.32466364  0.06396230  1
  O2-  O388  1  0.24815509  0.31940547  0.57805978  1
  O2-  O389  1  0.24638103  0.67509521  0.33407607  1
  O2-  O390  1  0.75252502  0.32619069  0.35059613  1
  O2-  O391  1  0.75163384  0.35228486  0.19451531  1
  O2-  O392  1  0.25019714  -0.00501413  0.61477848  1
  O2-  O393  1  0.24702356  0.33578687  0.66858564  1
  O2-  O394  1  0.25289261  -0.02262157  0.16832777  1
  O2-  O395  1  0.25267027  -0.00357095  0.07714467  1
  O2-  O396  1  0.25042615  0.49230211  0.31644327  1
  O2-  O397  1  0.25214073  0.83292190  0.91450358  1
  O2-  O398  1  0.74940675  0.18984614  0.57416259  1
  O2-  O399  1  0.75139619  0.50613657  0.64255679  1
  O2-  O400  1  0.74773951  0.15280571  0.30678386  1
  O2-  O401  1  0.24963362  0.84441960  0.35673300  1
  O2-  O402  1  0.75059944  0.82988473  0.71270637  1
  O2-  O403  1  0.75003646  0.85405349  0.63368891  1
  O2-  O404  1  0.74951059  0.51168534  0.93591875  1
  O2-  O405  1  0.24694064  0.82775507  0.63218030  1
  O2-  O406  1  0.74980519  0.16130798  0.09730961  1
  O2-  O407  1  0.25143364  0.14293954  0.13695305  1
  O2-  O408  1  0.74963508  0.13785129  0.89951998  1
  O2-  O409  1  0.24837036  0.18107432  0.56646044  1
  O2-  O410  1  0.25500827  0.49200121  0.89018091  1
  O2-  O411  1  0.24891892  0.15673276  0.64931320  1
  O2-  O412  1  0.25037065  0.48800392  0.40270810  1
  O2-  O413  1  0.74826607  0.84899940  0.37147636  1
  O2-  O414  1  0.75261798  0.13236449  0.68251434  1
  O2-  O415  1  0.74942667  0.85964011  0.89187795  1
  O2-  O416  1  0.25110431  0.83935305  0.08358728  1
  O2-  O417  1  0.24791849  0.82495776  0.16624127  1
  O2-  O418  1  0.75055908  0.50566715  0.80682469  1
  O2-  O419  1  0.24865971  0.49285297  0.66145212  1
  O2-  O420  1  0.47224637  0.65150050  0.62638361  1
  O2-  O421  1  0.95415124  0.00380444  0.90599618  1
  O2-  O422  1  0.46168153  0.36968485  0.63077068  1
  O2-  O423  1  0.55006048  0.32915015  0.65550586  1
  O2-  O424  1  0.99991770  0.32498783  0.61884301  1
  O2-  O425  1  0.00759702  0.64403965  0.11793328  1
  O2-  O426  1  0.53008082  -0.02159479  0.90078064  1
  O2-  O427  1  0.95251960  0.66626089  0.88148364  1
  O2-  O428  1  0.53279243  0.01697163  0.37694540  1
  O2-  O429  1  0.97629582  -0.02045702  0.38621903  1
  O2-  O430  1  0.04293849  -0.01107545  0.82892937  1
  O2-  O431  1  0.97343639  0.67578001  0.63437339  1
  O2-  O432  1  0.49176386  0.65261555  0.37441532  1
  O2-  O433  1  0.97632879  0.32939734  0.38466060  1
  O2-  O434  1  0.01816605  0.34016972  0.86805152  1
  O2-  O435  1  0.03177438  -0.00549397  0.12738534  1
  O2-  O436  1  0.95692538  -0.00241994  0.14261536  1
  O2-  O437  1  0.48683225  0.01093001  0.84884537  1
  O2-  O438  1  0.97787099  -0.02947185  0.61087152  1
  O2-  O439  1  0.04930428  0.64947448  0.86294004  1
  O2-  O440  1  0.01383345  0.69024759  0.38246881  1
  O2-  O441  1  0.48377827  0.00387350  0.60514058  1
  O2-  O442  1  0.52953831  0.68523982  0.87659020  1
  O2-  O443  1  0.53058211  0.34513688  0.11761201  1
