# generated using pymatgen
data_La7(Ru4O11)2
_symmetry_space_group_name_H-M   'P 1'
_cell_length_a   23.99055129
_cell_length_b   16.83081817
_cell_length_c   15.42698330
_cell_angle_alpha   89.99896054
_cell_angle_beta   90.00079229
_cell_angle_gamma   90.00141237
_symmetry_Int_Tables_number   1
_chemical_formula_structural   La7(Ru4O11)2
_chemical_formula_sum   'La84 Ru96 O264'
_cell_volume   6229.11666970
_cell_formula_units_Z   12
loop_
 _symmetry_equiv_pos_site_id
 _symmetry_equiv_pos_as_xyz
  1  'x, y, z'
loop_
 _atom_type_symbol
 _atom_type_oxidation_number
  La3+  3.0
  Ru4+  4.0
  O2-  -2.0
loop_
 _atom_site_type_symbol
 _atom_site_label
 _atom_site_symmetry_multiplicity
 _atom_site_fract_x
 _atom_site_fract_y
 _atom_site_fract_z
 _atom_site_occupancy
  La3+  La0  1  0.13985745  0.00052610  0.13027073  1
  La3+  La1  1  0.13702299  0.00398598  0.37533022  1
  La3+  La2  1  0.14166313  -0.00083617  0.62592400  1
  La3+  La3  1  0.13796234  -0.00178964  0.86938381  1
  La3+  La4  1  0.13993418  0.33316933  0.12339501  1
  La3+  La5  1  0.14136839  0.32960752  0.37425402  1
  La3+  La6  1  0.13957390  0.33110130  0.62515978  1
  La3+  La7  1  0.14001375  0.33137782  0.87421281  1
  La3+  La8  1  0.13697467  0.66305698  0.12499199  1
  La3+  La9  1  0.13581955  0.66565984  0.37077370  1
  La3+  La10  1  0.13816318  0.66687647  0.62895753  1
  La3+  La11  1  0.14164486  0.66629152  0.87362716  1
  La3+  La12  1  0.63095600  -0.00931561  0.12922904  1
  La3+  La13  1  0.63352600  -0.00651383  0.37057888  1
  La3+  La14  1  0.63730744  0.00152402  0.62290490  1
  La3+  La15  1  0.63928337  -0.00173069  0.88196958  1
  La3+  La16  1  0.63958780  0.33339971  0.12554786  1
  La3+  La17  1  0.64057445  0.33507133  0.37780583  1
  La3+  La18  1  0.63495049  0.33482639  0.62058247  1
  La3+  La19  1  0.63850068  0.33453926  0.87611575  1
  La3+  La20  1  0.63973028  0.66674465  0.12574456  1
  La3+  La21  1  0.64143861  0.66697095  0.37478071  1
  La3+  La22  1  0.63693643  0.66677749  0.62582332  1
  La3+  La23  1  0.63979450  0.66791984  0.87225351  1
  La3+  La24  1  0.36596614  0.00564177  0.12120677  1
  La3+  La25  1  0.35593161  0.00199975  0.37274076  1
  La3+  La26  1  0.35857021  0.00259367  0.62435910  1
  La3+  La27  1  0.36680142  0.00855534  0.88221784  1
  La3+  La28  1  0.35840174  0.33151959  0.12432987  1
  La3+  La29  1  0.36052129  0.33123201  0.37677034  1
  La3+  La30  1  0.36278839  0.32984741  0.62659777  1
  La3+  La31  1  0.35793190  0.33342703  0.88116729  1
  La3+  La32  1  0.36276098  0.66639108  0.12332095  1
  La3+  La33  1  0.36286189  0.66710577  0.37435451  1
  La3+  La34  1  0.36305151  0.66655148  0.62723714  1
  La3+  La35  1  0.35836034  0.66607503  0.87321128  1
  La3+  La36  1  0.86130219  -0.00059775  0.12024224  1
  La3+  La37  1  0.86274595  -0.00004284  0.37610097  1
  La3+  La38  1  0.86225148  0.00165287  0.62442999  1
  La3+  La39  1  0.86186635  -0.00019131  0.87889232  1
  La3+  La40  1  0.86227808  0.33229951  0.12378821  1
  La3+  La41  1  0.86471006  0.33457837  0.37833587  1
  La3+  La42  1  0.86214785  0.33030912  0.62087763  1
  La3+  La43  1  0.86566090  0.33217549  0.87906605  1
  La3+  La44  1  0.85909019  0.66719818  0.12677845  1
  La3+  La45  1  0.86004711  0.66810960  0.37324378  1
  La3+  La46  1  0.85809978  0.66815547  0.62547463  1
  La3+  La47  1  0.85701218  0.66854512  0.87662935  1
  La3+  La48  1  -0.00212371  0.49652472  0.13237129  1
  La3+  La49  1  0.00197976  0.50266634  0.11137363  1
  La3+  La50  1  -0.00261181  0.50651693  0.62467187  1
  La3+  La51  1  0.50164568  0.50068091  0.12535201  1
  La3+  La52  1  0.49613790  0.16735848  0.88013797  1
  La3+  La53  1  0.49991055  0.83663853  0.87033575  1
  La3+  La54  1  0.50074597  0.16670583  0.39004734  1
  La3+  La55  1  0.49584664  0.16059681  0.12862976  1
  La3+  La56  1  0.49912089  0.16905365  0.10897209  1
  La3+  La57  1  -0.00007748  0.83131106  0.11832948  1
  La3+  La58  1  -0.00164212  0.15565652  0.12391669  1
  La3+  La59  1  0.00078732  0.83344605  0.87964395  1
  La3+  La60  1  0.49936294  0.50086340  0.39237910  1
  La3+  La61  1  0.50387542  0.82787126  0.62124941  1
  La3+  La62  1  -0.00009603  0.49700127  0.36898708  1
  La3+  La63  1  0.00071723  0.83581491  0.86262026  1
  La3+  La64  1  0.50400939  0.49704863  0.37140718  1
  La3+  La65  1  0.00189976  0.83401411  0.61188905  1
  La3+  La66  1  -0.00243016  0.16867153  0.37562079  1
  La3+  La67  1  0.49805007  0.83261492  0.35953799  1
  La3+  La68  1  0.49839438  0.16618062  0.36875230  1
  La3+  La69  1  -0.00060612  0.16600102  0.14311955  1
  La3+  La70  1  0.50048625  0.83679029  0.13563112  1
  La3+  La71  1  0.00194217  0.83435003  0.62853447  1
  La3+  La72  1  0.75047200  0.18445232  0.82014418  1
  La3+  La73  1  0.24945252  0.52978173  -0.03273133  1
  La3+  La74  1  0.75041876  0.78242646  0.79094239  1
  La3+  La75  1  0.25019318  0.50864130  0.48979749  1
  La3+  La76  1  0.24997602  0.49844996  0.23670630  1
  La3+  La77  1  0.24981089  0.77666938  0.01599092  1
  La3+  La78  1  0.24989984  0.86734603  0.26662024  1
  La3+  La79  1  0.74940292  0.78796374  0.22157419  1
  La3+  La80  1  0.75030720  0.17469265  0.21161400  1
  La3+  La81  1  0.24997376  0.83671402  0.71070541  1
  La3+  La82  1  0.75078354  0.49455924  -0.03833740  1
  La3+  La83  1  0.25036005  0.12944447  0.22476803  1
  Ru4+  Ru84  1  0.00074339  0.00217000  0.00001149  1
  Ru4+  Ru85  1  -0.00466013  -0.00705458  0.24518467  1
  Ru4+  Ru86  1  0.00396451  0.00520896  0.50058549  1
  Ru4+  Ru87  1  -0.00415238  0.01301167  0.75500085  1
  Ru4+  Ru88  1  0.00278139  0.34001468  -0.00874289  1
  Ru4+  Ru89  1  -0.00123053  0.33638377  0.24889050  1
  Ru4+  Ru90  1  0.00743177  0.33686428  0.49672476  1
  Ru4+  Ru91  1  0.00353334  0.32809501  0.75749712  1
  Ru4+  Ru92  1  -0.00187325  0.66491477  -0.00009974  1
  Ru4+  Ru93  1  -0.00626905  0.67323593  0.25439762  1
  Ru4+  Ru94  1  0.00094654  0.66856697  0.49246999  1
  Ru4+  Ru95  1  0.00017849  0.66144905  0.75308656  1
  Ru4+  Ru96  1  0.49702726  0.00045434  0.00225735  1
  Ru4+  Ru97  1  0.49905364  -0.00047775  0.24879412  1
  Ru4+  Ru98  1  0.50086698  0.00248022  0.50272940  1
  Ru4+  Ru99  1  0.49915844  0.00600902  0.74554684  1
  Ru4+  Ru100  1  0.50070432  0.33117526  -0.00714791  1
  Ru4+  Ru101  1  0.49932286  0.33333961  0.25149648  1
  Ru4+  Ru102  1  0.49577878  0.33004575  0.50503352  1
  Ru4+  Ru103  1  0.49738605  0.33452233  0.74786864  1
  Ru4+  Ru104  1  0.50071626  0.66380797  0.00427050  1
  Ru4+  Ru105  1  0.50099001  0.66735095  0.25229577  1
  Ru4+  Ru106  1  0.49997415  0.66604124  0.49816715  1
  Ru4+  Ru107  1  0.49521053  0.65880780  0.75176060  1
  Ru4+  Ru108  1  0.11391504  0.16922658  -0.00376529  1
  Ru4+  Ru109  1  0.11462410  0.17038511  0.24993400  1
  Ru4+  Ru110  1  0.11478987  0.15974826  0.50282550  1
  Ru4+  Ru111  1  0.11032566  0.16985966  0.74917633  1
  Ru4+  Ru112  1  0.10881641  0.49972101  0.00108605  1
  Ru4+  Ru113  1  0.11487307  0.49494381  0.24973399  1
  Ru4+  Ru114  1  0.10976226  0.49830463  0.50035640  1
  Ru4+  Ru115  1  0.11318439  0.50246237  0.75027965  1
  Ru4+  Ru116  1  0.11169777  0.83106427  -0.00006799  1
  Ru4+  Ru117  1  0.11020934  0.83184197  0.24776250  1
  Ru4+  Ru118  1  0.11325510  0.83137045  0.49634192  1
  Ru4+  Ru119  1  0.11629074  0.82992105  0.74950747  1
  Ru4+  Ru120  1  0.61644715  0.16747515  -0.00057629  1
  Ru4+  Ru121  1  0.61006502  0.16095163  0.25178488  1
  Ru4+  Ru122  1  0.61239308  0.16746550  0.49979366  1
  Ru4+  Ru123  1  0.60978229  0.16523274  0.75015832  1
  Ru4+  Ru124  1  0.61201409  0.50425220  0.00104474  1
  Ru4+  Ru125  1  0.61361032  0.50051529  0.25026541  1
  Ru4+  Ru126  1  0.61471024  0.50549788  0.50223118  1
  Ru4+  Ru127  1  0.61128384  0.50069807  0.75106748  1
  Ru4+  Ru128  1  0.61526188  0.83459863  0.00195716  1
  Ru4+  Ru129  1  0.60989244  0.83585892  0.24953812  1
  Ru4+  Ru130  1  0.61293907  0.83293571  0.49862981  1
  Ru4+  Ru131  1  0.61513913  0.83949708  0.74964560  1
  Ru4+  Ru132  1  0.38688881  0.16784508  -0.00248426  1
  Ru4+  Ru133  1  0.38957829  0.16646805  0.24889931  1
  Ru4+  Ru134  1  0.38508270  0.16666433  0.49886939  1
  Ru4+  Ru135  1  0.39027306  0.16971910  0.75129575  1
  Ru4+  Ru136  1  0.38996258  0.50231264  -0.00044140  1
  Ru4+  Ru137  1  0.38716377  0.49952545  0.24964452  1
  Ru4+  Ru138  1  0.39141648  0.49973159  0.50043367  1
  Ru4+  Ru139  1  0.38591804  0.50241128  0.75002339  1
  Ru4+  Ru140  1  0.38974426  0.83339783  0.00147753  1
  Ru4+  Ru141  1  0.38926406  0.83396965  0.25011917  1
  Ru4+  Ru142  1  0.38670267  0.83151013  0.49912287  1
  Ru4+  Ru143  1  0.38571413  0.83292258  0.75037370  1
  Ru4+  Ru144  1  0.88210225  0.16248210  -0.00097269  1
  Ru4+  Ru145  1  0.88933369  0.16591630  0.24927361  1
  Ru4+  Ru146  1  0.88428026  0.16534969  0.49966659  1
  Ru4+  Ru147  1  0.89029680  0.16486862  0.75068779  1
  Ru4+  Ru148  1  0.89037390  0.50101448  -0.00153498  1
  Ru4+  Ru149  1  0.88507079  0.49931167  0.25089128  1
  Ru4+  Ru150  1  0.88327534  0.50291287  0.50205378  1
  Ru4+  Ru151  1  0.88946845  0.50949849  0.75040551  1
  Ru4+  Ru152  1  0.88502743  0.83326136  0.00060594  1
  Ru4+  Ru153  1  0.89040499  0.83068073  0.25030471  1
  Ru4+  Ru154  1  0.88855443  0.83317259  0.49904865  1
  Ru4+  Ru155  1  0.88696035  0.83458522  0.74968943  1
  Ru4+  Ru156  1  0.25014324  0.93627289  0.02045349  1
  Ru4+  Ru157  1  0.74954312  0.09319550  0.48375875  1
  Ru4+  Ru158  1  0.24985358  0.09310643  -0.00066353  1
  Ru4+  Ru159  1  0.75014347  0.42623918  0.74577235  1
  Ru4+  Ru160  1  0.74973439  0.06807358  0.74258576  1
  Ru4+  Ru161  1  0.25010467  0.72367971  0.25050198  1
  Ru4+  Ru162  1  0.74966135  0.63275880  -0.01796299  1
  Ru4+  Ru163  1  0.74986833  0.58277788  0.49455376  1
  Ru4+  Ru164  1  0.25042053  0.27039172  0.26364573  1
  Ru4+  Ru165  1  0.74978410  0.90730359  0.48318276  1
  Ru4+  Ru166  1  0.75052473  0.30100380  0.25698143  1
  Ru4+  Ru167  1  0.24980967  0.37526589  0.49296318  1
  Ru4+  Ru168  1  0.74958893  0.91791012  0.75183911  1
  Ru4+  Ru169  1  0.25020472  0.09172047  0.74211836  1
  Ru4+  Ru170  1  0.75112086  0.91884662  0.24797379  1
  Ru4+  Ru171  1  0.25001166  0.91882635  0.49145726  1
  Ru4+  Ru172  1  0.75017019  0.29248696  0.72175596  1
  Ru4+  Ru173  1  0.25008995  0.41506291  0.75560164  1
  Ru4+  Ru174  1  0.24983029  0.76255303  0.49050838  1
  Ru4+  Ru175  1  0.74966246  0.42220888  0.49870679  1
  Ru4+  Ru176  1  0.75014877  0.05072453  0.24793078  1
  Ru4+  Ru177  1  0.24967527  0.39179794  0.00581133  1
  Ru4+  Ru178  1  0.74994690  0.36301220  0.01169041  1
  Ru4+  Ru179  1  0.24991809  0.63734830  0.50667015  1
  O2-  O180  1  0.16583775  0.08140910  0.00180365  1
  O2-  O181  1  0.16385666  0.07921140  0.24885217  1
  O2-  O182  1  0.16777884  0.08294708  0.49851187  1
  O2-  O183  1  0.16545376  0.08375742  0.75091573  1
  O2-  O184  1  0.16791606  0.41269553  0.00025495  1
  O2-  O185  1  0.16739610  0.41314264  0.25046027  1
  O2-  O186  1  0.16759045  0.41094403  0.50028756  1
  O2-  O187  1  0.16606152  0.41487644  0.75123675  1
  O2-  O188  1  0.16236169  0.74408648  0.00073640  1
  O2-  O189  1  0.17092800  0.74700171  0.25171114  1
  O2-  O190  1  0.16795100  0.74781154  0.49868335  1
  O2-  O191  1  0.16966040  0.74655552  0.74840325  1
  O2-  O192  1  0.66494204  0.08107525  0.00186308  1
  O2-  O193  1  0.66521990  0.07684466  0.24886219  1
  O2-  O194  1  0.66821313  0.08062102  0.49736075  1
  O2-  O195  1  0.66565892  0.07904767  0.75101624  1
  O2-  O196  1  0.66819475  0.41134558  -0.00128482  1
  O2-  O197  1  0.66435393  0.41402559  0.25086236  1
  O2-  O198  1  0.66688263  0.41375562  0.50043290  1
  O2-  O199  1  0.66661671  0.41403943  0.74808657  1
  O2-  O200  1  0.66364886  0.74697280  -0.00102708  1
  O2-  O201  1  0.66085156  0.74650095  0.25171782  1
  O2-  O202  1  0.66391032  0.74925004  0.50148853  1
  O2-  O203  1  0.66337710  0.74388398  0.74742260  1
  O2-  O204  1  0.33252989  0.25147970  0.00256243  1
  O2-  O205  1  0.33375272  0.25479523  0.25112611  1
  O2-  O206  1  0.33413807  0.25157854  0.50030166  1
  O2-  O207  1  0.33144463  0.24889375  0.74852498  1
  O2-  O208  1  0.33549134  0.58786809  0.00171291  1
  O2-  O209  1  0.33275238  0.58684835  0.25036424  1
  O2-  O210  1  0.33584025  0.58949447  0.49954410  1
  O2-  O211  1  0.33532416  0.58460756  0.74954507  1
  O2-  O212  1  0.33461996  0.92090765  0.00045080  1
  O2-  O213  1  0.33549317  0.91961391  0.24776182  1
  O2-  O214  1  0.33194954  0.91831223  0.49908216  1
  O2-  O215  1  0.33224608  0.91917019  0.74977150  1
  O2-  O216  1  0.83296749  0.25338580  -0.00204242  1
  O2-  O217  1  0.83459259  0.25657264  0.25067455  1
  O2-  O218  1  0.83284949  0.25201952  0.50151911  1
  O2-  O219  1  0.83515297  0.25431503  0.74956345  1
  O2-  O220  1  0.83187471  0.58723770  0.00079539  1
  O2-  O221  1  0.83562429  0.58522271  0.25137557  1
  O2-  O222  1  0.83276847  0.58580209  0.50069412  1
  O2-  O223  1  0.83028524  0.58134261  0.74762569  1
  O2-  O224  1  0.83714501  0.91960683  0.00219477  1
  O2-  O225  1  0.83568411  0.92021694  0.24856314  1
  O2-  O226  1  0.83256653  0.91890370  0.49726344  1
  O2-  O227  1  0.83306206  0.92008064  0.75018841  1
  O2-  O228  1  0.16829870  0.25071393  0.00258079  1
  O2-  O229  1  0.16701046  0.25378295  0.24777722  1
  O2-  O230  1  0.16223887  0.24937634  0.50054251  1
  O2-  O231  1  0.16688159  0.25018492  0.75124979  1
  O2-  O232  1  0.16496373  0.58813849  0.00029021  1
  O2-  O233  1  0.16800895  0.58688467  0.24970741  1
  O2-  O234  1  0.16363146  0.58778629  0.49877046  1
  O2-  O235  1  0.16609625  0.58470600  0.75003022  1
  O2-  O236  1  0.16578659  0.92147485  0.00203786  1
  O2-  O237  1  0.16168919  0.91910313  0.24879890  1
  O2-  O238  1  0.16789517  0.91735732  0.49868534  1
  O2-  O239  1  0.16648992  0.91814246  0.75163871  1
  O2-  O240  1  0.66616320  0.25385450  -0.00153466  1
  O2-  O241  1  0.66587915  0.25663921  0.25077814  1
  O2-  O242  1  0.66464698  0.25307678  0.50015290  1
  O2-  O243  1  0.66702829  0.25479908  0.74810223  1
  O2-  O244  1  0.66731842  0.58677479  -0.00220612  1
  O2-  O245  1  0.66433769  0.58534070  0.25131201  1
  O2-  O246  1  0.66870805  0.58425323  0.50121812  1
  O2-  O247  1  0.66359003  0.58380912  0.74816305  1
  O2-  O248  1  0.66524865  0.91857923  0.00335623  1
  O2-  O249  1  0.66762241  0.91960966  0.24888957  1
  O2-  O250  1  0.66828574  0.91950091  0.49685363  1
  O2-  O251  1  0.66600822  0.92066345  0.75069424  1
  O2-  O252  1  0.33161722  0.08196671  0.00253474  1
  O2-  O253  1  0.33539629  0.07948062  0.24956270  1
  O2-  O254  1  0.33585449  0.08189812  0.49977791  1
  O2-  O255  1  0.33328267  0.08271169  0.75010419  1
  O2-  O256  1  0.33106967  0.41537248  0.00137051  1
  O2-  O257  1  0.33369524  0.41443051  0.25101797  1
  O2-  O258  1  0.33232179  0.40979345  0.49965724  1
  O2-  O259  1  0.33397548  0.41478299  0.75070183  1
  O2-  O260  1  0.33809053  0.74406108  -0.00087640  1
  O2-  O261  1  0.33283071  0.74597797  0.24894395  1
  O2-  O262  1  0.33252545  0.74896088  0.49867243  1
  O2-  O263  1  0.33345835  0.74694046  0.74819644  1
  O2-  O264  1  0.83447824  0.08007280  0.00145060  1
  O2-  O265  1  0.83487937  0.07700090  0.24927591  1
  O2-  O266  1  0.83325626  0.08148865  0.49886628  1
  O2-  O267  1  0.83271593  0.07888781  0.75032992  1
  O2-  O268  1  0.83174116  0.41085663  0.00027396  1
  O2-  O269  1  0.83296653  0.41473544  0.24975327  1
  O2-  O270  1  0.82979076  0.41370177  0.50035516  1
  O2-  O271  1  0.83540313  0.41588317  0.74901154  1
  O2-  O272  1  0.83625847  0.74826531  0.00156801  1
  O2-  O273  1  0.83531909  0.74567677  0.25151193  1
  O2-  O274  1  0.83551778  0.74970841  0.49929582  1
  O2-  O275  1  0.83668246  0.74531835  0.74612753  1
  O2-  O276  1  0.45084712  0.76596401  0.73833624  1
  O2-  O277  1  0.45576174  0.56911665  0.26128863  1
  O2-  O278  1  0.45413409  0.43912731  0.97444783  1
  O2-  O279  1  0.04555820  0.56706119  0.23007026  1
  O2-  O280  1  0.54313476  0.90283440  0.25814897  1
  O2-  O281  1  0.54605045  0.76285373  0.23830620  1
  O2-  O282  1  0.95576038  0.24414580  0.48877271  1
  O2-  O283  1  0.45330118  0.10699878  0.01106730  1
  O2-  O284  1  0.54553223  0.44043555  0.96912391  1
  O2-  O285  1  0.45444986  0.42915605  0.23723498  1
  O2-  O286  1  0.04629855  0.09628483  0.73717574  1
  O2-  O287  1  0.54567617  0.23395651  0.24203816  1
  O2-  O288  1  0.54865999  0.76238850  0.77039381  1
  O2-  O289  1  0.04524320  0.22338151  0.03658086  1
  O2-  O290  1  0.54974936  0.09419325  0.76310578  1
  O2-  O291  1  0.95782107  0.44244875  0.48387368  1
  O2-  O292  1  0.05175235  0.09278943  0.45586898  1
  O2-  O293  1  0.45469681  0.57350211  0.98698314  1
  O2-  O294  1  0.44789400  0.09396618  0.98799058  1
  O2-  O295  1  0.04639386  0.56932098  0.26913147  1
  O2-  O296  1  0.46275532  0.21975844  0.74378179  1
  O2-  O297  1  0.04588869  0.10004728  0.26410865  1
  O2-  O298  1  0.55220609  0.90855449  0.23402428  1
  O2-  O299  1  0.55123211  0.09726318  0.98757759  1
  O2-  O300  1  0.54552668  0.42985260  0.76254450  1
  O2-  O301  1  0.04607399  0.09495803  0.98438165  1
  O2-  O302  1  0.95586023  0.76672558  0.73664529  1
  O2-  O303  1  0.95773231  0.44240670  0.48370874  1
  O2-  O304  1  0.05319204  0.56812223  0.73761097  1
  O2-  O305  1  0.04467702  0.90134065  0.98786349  1
  O2-  O306  1  0.05274941  0.42639542  0.54642835  1
  O2-  O307  1  0.54967579  0.43241929  0.51524407  1
  O2-  O308  1  0.45536648  0.89210054  0.52751047  1
  O2-  O309  1  0.02973912  0.79188977  0.25009816  1
  O2-  O310  1  0.05269639  0.90821255  0.48274262  1
  O2-  O311  1  0.44782322  0.09058811  0.76792247  1
  O2-  O312  1  0.96970238  0.52367619  0.77435827  1
  O2-  O313  1  0.54448676  0.76847310  0.01211275  1
  O2-  O314  1  0.55085556  0.23235689  0.71677692  1
  O2-  O315  1  0.95514205  0.76454129  0.49236024  1
  O2-  O316  1  0.94779878  0.09520285  0.48496252  1
  O2-  O317  1  0.54143040  0.88391259  0.45817868  1
  O2-  O318  1  0.04549927  0.90120556  0.76259938  1
  O2-  O319  1  0.54875456  0.76577428  0.73124851  1
  O2-  O320  1  0.94961211  0.23648772  0.01960193  1
  O2-  O321  1  0.45762406  0.22268925  0.72960297  1
  O2-  O322  1  0.95164405  0.23065907  0.98106283  1
  O2-  O323  1  0.95652277  0.89207389  0.45931093  1
  O2-  O324  1  0.43543857  0.92367836  0.27924348  1
  O2-  O325  1  0.56217092  0.07521102  0.52785155  1
  O2-  O326  1  0.56548815  0.59346596  0.52376130  1
  O2-  O327  1  0.92384159  0.38421077  0.55874546  1
  O2-  O328  1  0.93361166  0.74101757  0.27691666  1
  O2-  O329  1  0.93514446  0.40944054  0.27611955  1
  O2-  O330  1  0.56944002  0.27089333  0.79982318  1
  O2-  O331  1  0.06256343  0.73671047  0.96498814  1
  O2-  O332  1  0.92190813  0.59499683  0.67748128  1
  O2-  O333  1  0.43542018  0.26042850  0.97462472  1
  O2-  O334  1  0.56890513  0.93639422  0.28481870  1
  O2-  O335  1  0.93542373  0.40848305  0.97554207  1
  O2-  O336  1  0.05651615  0.08530383  0.44854883  1
  O2-  O337  1  0.57033911  0.40007831  0.03958185  1
  O2-  O338  1  0.92204835  0.61205727  0.81182288  1
  O2-  O339  1  0.43386502  0.73970524  0.52643982  1
  O2-  O340  1  0.93730860  0.92457721  0.77819436  1
  O2-  O341  1  0.07150054  0.28289428  0.94467650  1
  O2-  O342  1  0.57219914  0.93926051  0.55989324  1
  O2-  O343  1  0.56564933  0.59521235  0.02593370  1
  O2-  O344  1  0.42921178  0.06590015  0.03202480  1
  O2-  O345  1  0.06377042  0.74059347  0.72313556  1
  O2-  O346  1  0.05680557  0.41265678  0.55692095  1
  O2-  O347  1  0.06868881  0.05678405  0.58333673  1
  O2-  O348  1  0.06224135  0.26539918  0.68726213  1
  O2-  O349  1  0.05935082  0.92303003  0.78521039  1
  O2-  O350  1  0.06090616  0.92049968  0.47343820  1
  O2-  O351  1  0.56358530  0.92743005  0.97502375  1
  O2-  O352  1  0.93370256  0.07640473  0.77579430  1
  O2-  O353  1  0.06226673  0.26443063  0.80729753  1
  O2-  O354  1  0.06749767  0.74983388  0.56150353  1
  O2-  O355  1  0.43604157  0.07177197  0.22371371  1
  O2-  O356  1  0.43425115  0.92396907  0.69850945  1
  O2-  O357  1  0.43055117  0.39726826  0.05017801  1
  O2-  O358  1  0.93062459  0.94398799  0.56064110  1
  O2-  O359  1  0.93544320  0.59179766  0.97663158  1
  O2-  O360  1  0.05971784  0.07281253  0.27813741  1
  O2-  O361  1  0.43740811  0.73618679  0.03440018  1
  O2-  O362  1  0.06838970  0.39081071  0.41415927  1
  O2-  O363  1  0.43435248  0.40974013  0.52460894  1
  O2-  O364  1  0.41467656  0.28948487  0.79915295  1
  O2-  O365  1  0.93454557  0.25551847  0.47200044  1
  O2-  O366  1  0.42734819  0.93587283  0.45630516  1
  O2-  O367  1  0.43875390  0.26041403  0.46339984  1
  O2-  O368  1  0.56280149  0.40282483  0.52492619  1
  O2-  O369  1  0.06345919  0.73354245  0.43243911  1
  O2-  O370  1  0.08240334  0.72083425  0.21644476  1
  O2-  O371  1  0.43237855  0.92190667  0.79944337  1
  O2-  O372  1  0.25053518  0.32566421  0.38827201  1
  O2-  O373  1  0.75010978  0.66334370  0.40892853  1
  O2-  O374  1  0.25036036  0.00642983  0.92544149  1
  O2-  O375  1  0.74994757  0.33872774  0.14022122  1
  O2-  O376  1  0.25013907  0.66483915  0.82994663  1
  O2-  O377  1  0.24990832  0.31681609  0.59109891  1
  O2-  O378  1  0.24933928  0.00202454  0.14252650  1
  O2-  O379  1  0.74974683  0.00341586  0.93238599  1
  O2-  O380  1  0.25006977  -0.00725504  0.35365035  1
  O2-  O381  1  0.25037752  0.00199680  0.57695873  1
  O2-  O382  1  0.75015285  0.00084516  0.55543838  1
  O2-  O383  1  0.74992150  0.66111582  0.17779700  1
  O2-  O384  1  0.74900592  0.66209955  0.85407814  1
  O2-  O385  1  0.75019520  -0.01031653  0.65880331  1
  O2-  O386  1  0.24987609  0.33210225  0.68284723  1
  O2-  O387  1  0.25043977  -0.00437385  0.67107012  1
  O2-  O388  1  0.74977468  -0.00580671  0.84108069  1
  O2-  O389  1  0.75002168  0.68126159  0.08926456  1
  O2-  O390  1  0.25024466  0.33301647  0.15303184  1
  O2-  O391  1  0.74960337  0.33715088  0.85629249  1
  O2-  O392  1  0.24992255  -0.00032129  0.81085803  1
  O2-  O393  1  0.74971722  0.34212548  0.36475262  1
  O2-  O394  1  0.25007531  0.66657803  0.92142992  1
  O2-  O395  1  0.74991918  -0.00265540  0.36469831  1
  O2-  O396  1  0.75004350  0.84233031  0.36640392  1
  O2-  O397  1  0.74996935  0.83937687  0.65585126  1
  O2-  O398  1  0.75011265  0.84112842  0.10018507  1
  O2-  O399  1  0.25024551  0.82798891  0.83150000  1
  O2-  O400  1  0.24999101  0.84646666  0.12934948  1
  O2-  O401  1  0.25013664  0.16010450  0.60334066  1
  O2-  O402  1  0.25013297  0.49727377  0.36367347  1
  O2-  O403  1  0.24999753  0.17861377  0.35294939  1
  O2-  O404  1  0.25017679  0.83448491  0.57956315  1
  O2-  O405  1  0.74973957  0.16505231  0.65848011  1
  O2-  O406  1  0.74990271  0.17008718  0.56407550  1
  O2-  O407  1  0.25013543  0.50982463  0.70132139  1
  O2-  O408  1  0.24988671  0.49541602  0.61700652  1
  O2-  O409  1  0.74990450  0.16490670  0.08679338  1
  O2-  O410  1  0.74998587  0.82963061  0.56517414  1
  O2-  O411  1  0.25017717  0.49647350  0.10209952  1
  O2-  O412  1  0.74985563  0.50011486  0.18489824  1
  O2-  O413  1  0.25008636  0.85512985  0.91180757  1
  O2-  O414  1  0.74982002  0.49825848  0.40951605  1
  O2-  O415  1  0.74979346  0.16270689  0.36765733  1
  O2-  O416  1  0.75002853  0.83800901  0.90524605  1
  O2-  O417  1  0.74977881  0.49956851  0.82691774  1
  O2-  O418  1  0.24974761  0.16223565  0.91217596  1
  O2-  O419  1  0.74967662  0.49970325  0.10207554  1
  O2-  O420  1  0.47113438  -0.00018726  0.88191865  1
  O2-  O421  1  0.52935184  0.67185582  0.62724176  1
  O2-  O422  1  0.98152004  0.68348010  0.87941062  1
  O2-  O423  1  0.47037956  0.65920280  0.62737349  1
  O2-  O424  1  0.97302634  0.33350875  0.86607169  1
  O2-  O425  1  0.53275593  -0.00009399  0.86711538  1
  O2-  O426  1  0.96943629  0.67683996  0.60956916  1
  O2-  O427  1  0.97397703  0.65655705  0.37838722  1
  O2-  O428  1  0.04012363  0.65944259  0.10989512  1
  O2-  O429  1  0.54395462  0.66478804  0.37561593  1
  O2-  O430  1  0.95547915  0.66700059  0.12513969  1
  O2-  O431  1  0.52400085  0.32799893  0.12732711  1
  O2-  O432  1  0.04362677  0.33789993  0.12763970  1
  O2-  O433  1  0.47535513  0.33425242  0.62913770  1
  O2-  O434  1  0.47995019  0.01684493  0.37384244  1
  O2-  O435  1  0.52306689  0.66569935  0.13279956  1
  O2-  O436  1  0.47816717  -0.01209389  0.12504341  1
  O2-  O437  1  0.97514875  -0.00160570  0.88443721  1
  O2-  O438  1  0.95654282  0.33658202  0.12924577  1
  O2-  O439  1  0.47710573  0.00875249  0.61924704  1
  O2-  O440  1  0.45590466  0.66818992  0.37685992  1
  O2-  O441  1  0.02814054  0.65333591  0.62768734  1
  O2-  O442  1  0.48118619  0.33959755  0.87531028  1
  O2-  O443  1  0.97836394  0.32823145  0.36865179  1
