# generated using pymatgen
data_La7(Ru4O11)2
_symmetry_space_group_name_H-M   'P 1'
_cell_length_a   23.99252294
_cell_length_b   16.83189748
_cell_length_c   15.42930703
_cell_angle_alpha   89.99760441
_cell_angle_beta   90.00027065
_cell_angle_gamma   90.00203200
_symmetry_Int_Tables_number   1
_chemical_formula_structural   La7(Ru4O11)2
_chemical_formula_sum   'La84 Ru96 O264'
_cell_volume   6230.96650261
_cell_formula_units_Z   12
loop_
 _symmetry_equiv_pos_site_id
 _symmetry_equiv_pos_as_xyz
  1  'x, y, z'
loop_
 _atom_type_symbol
 _atom_type_oxidation_number
  La3+  3.0
  Ru4+  4.0
  O2-  -2.0
loop_
 _atom_site_type_symbol
 _atom_site_label
 _atom_site_symmetry_multiplicity
 _atom_site_fract_x
 _atom_site_fract_y
 _atom_site_fract_z
 _atom_site_occupancy
  La3+  La0  1  0.14023118  -0.00325206  0.12533601  1
  La3+  La1  1  0.14427581  -0.00059082  0.37643502  1
  La3+  La2  1  0.15174555  -0.00563857  0.62899346  1
  La3+  La3  1  0.14273715  -0.00583926  0.87206243  1
  La3+  La4  1  0.13913784  0.33367219  0.13027075  1
  La3+  La5  1  0.14027812  0.32951290  0.36829160  1
  La3+  La6  1  0.13907979  0.32753039  0.62533468  1
  La3+  La7  1  0.13617917  0.33588303  0.87698092  1
  La3+  La8  1  0.14301555  0.66667032  0.12561933  1
  La3+  La9  1  0.13359398  0.66145364  0.37798842  1
  La3+  La10  1  0.13739594  0.66781537  0.62401615  1
  La3+  La11  1  0.14049418  0.67121937  0.87163546  1
  La3+  La12  1  0.64391845  0.00146818  0.12541848  1
  La3+  La13  1  0.64007451  -0.00035395  0.37400759  1
  La3+  La14  1  0.63680932  -0.00031085  0.62942069  1
  La3+  La15  1  0.63858945  -0.00544659  0.87707596  1
  La3+  La16  1  0.64279567  0.33555807  0.12901258  1
  La3+  La17  1  0.64636473  0.33135105  0.37021091  1
  La3+  La18  1  0.64255555  0.33331280  0.62864651  1
  La3+  La19  1  0.64086000  0.33156064  0.87168680  1
  La3+  La20  1  0.64491468  0.66661165  0.12178481  1
  La3+  La21  1  0.63554682  0.66370278  0.37371548  1
  La3+  La22  1  0.63767594  0.66485595  0.61968762  1
  La3+  La23  1  0.63734711  0.66732284  0.88249601  1
  La3+  La24  1  0.36137040  0.00033372  0.12541626  1
  La3+  La25  1  0.35946283  0.00395463  0.37133351  1
  La3+  La26  1  0.35365425  -0.00124794  0.62593675  1
  La3+  La27  1  0.35408739  -0.00170352  0.87441964  1
  La3+  La28  1  0.36035221  0.33277877  0.12534113  1
  La3+  La29  1  0.36149753  0.33196104  0.36951490  1
  La3+  La30  1  0.36216998  0.33230147  0.62853593  1
  La3+  La31  1  0.36303433  0.33078399  0.87823137  1
  La3+  La32  1  0.35879484  0.66651017  0.12482858  1
  La3+  La33  1  0.36130514  0.66638512  0.37067747  1
  La3+  La34  1  0.36145962  0.66865476  0.62710652  1
  La3+  La35  1  0.35741245  0.67040831  0.87543538  1
  La3+  La36  1  0.85546027  0.00226982  0.12670153  1
  La3+  La37  1  0.85969041  0.00227054  0.37139966  1
  La3+  La38  1  0.86329854  0.00247285  0.62637176  1
  La3+  La39  1  0.86385258  -0.00023323  0.87502424  1
  La3+  La40  1  0.84902802  0.34027151  0.12884741  1
  La3+  La41  1  0.85198200  0.33406465  0.36814055  1
  La3+  La42  1  0.86061440  0.33349789  0.62953527  1
  La3+  La43  1  0.85593951  0.33394462  0.87241338  1
  La3+  La44  1  0.86928604  0.65274257  0.13883486  1
  La3+  La45  1  0.87261373  0.65449257  0.36544240  1
  La3+  La46  1  0.86500786  0.66174674  0.61973584  1
  La3+  La47  1  0.86096382  0.66322332  0.87930607  1
  La3+  La48  1  0.50380746  0.49975306  0.88611487  1
  La3+  La49  1  0.49966208  0.49520105  0.37960725  1
  La3+  La50  1  0.49031117  0.83844840  0.38823451  1
  La3+  La51  1  0.50307062  0.83273134  0.62165515  1
  La3+  La52  1  0.49240648  0.82836459  0.87512681  1
  La3+  La53  1  0.00166506  0.16600785  0.11508750  1
  La3+  La54  1  0.49971071  0.16712086  0.37348610  1
  La3+  La55  1  0.49235931  0.51358572  0.63916444  1
  La3+  La56  1  0.49253079  0.17524836  0.62685729  1
  La3+  La57  1  0.49844356  0.49191741  0.86706422  1
  La3+  La58  1  0.50025337  0.50569710  0.13218041  1
  La3+  La59  1  -0.00825997  0.51963198  0.37110471  1
  La3+  La60  1  -0.00421269  0.50078079  0.13899229  1
  La3+  La61  1  0.49827022  0.16705910  0.11303732  1
  La3+  La62  1  -0.00114164  0.50290279  0.87110139  1
  La3+  La63  1  0.00235392  0.83721110  0.37740282  1
  La3+  La64  1  0.00101925  0.15688338  0.87369172  1
  La3+  La65  1  0.50846991  0.82176784  0.13559306  1
  La3+  La66  1  0.00577038  0.51846093  0.62868359  1
  La3+  La67  1  0.00278833  0.81908881  0.86284297  1
  La3+  La68  1  0.49881390  0.17346410  0.60701134  1
  La3+  La69  1  -0.00069957  0.83502014  0.63214159  1
  La3+  La70  1  0.00087582  0.16659175  0.85398278  1
  La3+  La71  1  -0.00456828  0.50239212  0.12233092  1
  La3+  La72  1  0.75229951  0.77380096  0.26586959  1
  La3+  La73  1  0.25033301  0.47719496  0.52175349  1
  La3+  La74  1  0.75065273  0.45478775  0.49677949  1
  La3+  La75  1  0.74938845  0.85061914  0.73460768  1
  La3+  La76  1  0.74908240  0.14633790  0.58201721  1
  La3+  La77  1  0.24979360  0.19180064  0.00415746  1
  La3+  La78  1  0.25220921  0.44896262  0.76544284  1
  La3+  La79  1  0.25029217  0.50612509  0.24144063  1
  La3+  La80  1  0.74999858  0.17532017  0.22080533  1
  La3+  La81  1  0.75000121  0.49823038  0.73857603  1
  La3+  La82  1  0.75050130  0.83233883  0.51618977  1
  La3+  La83  1  0.75132158  0.83221319  -0.04658173  1
  Ru4+  Ru84  1  -0.00615044  -0.00814066  0.00076404  1
  Ru4+  Ru85  1  0.00331147  0.00855548  0.25287799  1
  Ru4+  Ru86  1  0.00166686  0.01299131  0.50079980  1
  Ru4+  Ru87  1  0.00170705  -0.00186084  0.74650292  1
  Ru4+  Ru88  1  -0.00143745  0.33416442  0.00459641  1
  Ru4+  Ru89  1  -0.00461801  0.30738721  0.25008625  1
  Ru4+  Ru90  1  -0.00400048  0.34045572  0.49451446  1
  Ru4+  Ru91  1  -0.00054255  0.33010664  0.75257816  1
  Ru4+  Ru92  1  -0.00103862  0.67453846  -0.00465672  1
  Ru4+  Ru93  1  -0.00262192  0.66894895  0.25388227  1
  Ru4+  Ru94  1  0.00384390  0.67856200  0.50323835  1
  Ru4+  Ru95  1  -0.00144006  0.66862905  0.75506693  1
  Ru4+  Ru96  1  0.49634256  -0.00069469  -0.00074042  1
  Ru4+  Ru97  1  0.50438454  -0.00267233  0.25479529  1
  Ru4+  Ru98  1  0.49836029  0.00415004  0.50309495  1
  Ru4+  Ru99  1  0.49561924  0.00525521  0.74035855  1
  Ru4+  Ru100  1  0.50281650  0.33059598  -0.00031709  1
  Ru4+  Ru101  1  0.49335654  0.32206783  0.25236332  1
  Ru4+  Ru102  1  0.50568515  0.34307525  0.49553672  1
  Ru4+  Ru103  1  0.50013150  0.33269974  0.76001617  1
  Ru4+  Ru104  1  0.49587316  0.66198958  0.00360792  1
  Ru4+  Ru105  1  0.49531585  0.66676804  0.25790726  1
  Ru4+  Ru106  1  0.50220279  0.66638526  0.50921224  1
  Ru4+  Ru107  1  0.49756720  0.65895195  0.75516248  1
  Ru4+  Ru108  1  0.11253255  0.16195178  0.00154048  1
  Ru4+  Ru109  1  0.10839189  0.17278835  0.25787927  1
  Ru4+  Ru110  1  0.10574615  0.14927464  0.50100964  1
  Ru4+  Ru111  1  0.11032684  0.16703996  0.74993405  1
  Ru4+  Ru112  1  0.11367577  0.50064396  0.00113890  1
  Ru4+  Ru113  1  0.11359638  0.49710597  0.25233786  1
  Ru4+  Ru114  1  0.11243076  0.49368154  0.50467546  1
  Ru4+  Ru115  1  0.11039910  0.49648893  0.75246400  1
  Ru4+  Ru116  1  0.11207400  0.83506984  0.00009647  1
  Ru4+  Ru117  1  0.11002747  0.83588606  0.24639141  1
  Ru4+  Ru118  1  0.10944616  0.83292623  0.49975983  1
  Ru4+  Ru119  1  0.11746463  0.83022577  0.74874747  1
  Ru4+  Ru120  1  0.61407272  0.16334682  -0.00203610  1
  Ru4+  Ru121  1  0.60817613  0.15882064  0.25370306  1
  Ru4+  Ru122  1  0.60761426  0.16618736  0.50178667  1
  Ru4+  Ru123  1  0.61401042  0.16228417  0.75603344  1
  Ru4+  Ru124  1  0.61558632  0.50087566  0.00105868  1
  Ru4+  Ru125  1  0.61535889  0.50262161  0.24987674  1
  Ru4+  Ru126  1  0.60588705  0.49443485  0.49855583  1
  Ru4+  Ru127  1  0.61044463  0.50352913  0.75097971  1
  Ru4+  Ru128  1  0.61545565  0.83882895  0.00261977  1
  Ru4+  Ru129  1  0.60774118  0.82819825  0.25029127  1
  Ru4+  Ru130  1  0.61204288  0.83214517  0.49815725  1
  Ru4+  Ru131  1  0.61299538  0.82336636  0.75130241  1
  Ru4+  Ru132  1  0.39207458  0.16677057  -0.00485367  1
  Ru4+  Ru133  1  0.38561707  0.17744348  0.24630680  1
  Ru4+  Ru134  1  0.38624789  0.15911473  0.49955429  1
  Ru4+  Ru135  1  0.38779111  0.16555140  0.75011307  1
  Ru4+  Ru136  1  0.38397493  0.49884742  0.00167467  1
  Ru4+  Ru137  1  0.39072617  0.50281334  0.24960884  1
  Ru4+  Ru138  1  0.39165941  0.50087710  0.50305799  1
  Ru4+  Ru139  1  0.39616527  0.50292389  0.75270284  1
  Ru4+  Ru140  1  0.38661092  0.83930549  -0.00201740  1
  Ru4+  Ru141  1  0.38801600  0.83235652  0.24982981  1
  Ru4+  Ru142  1  0.38781274  0.83779029  0.50081406  1
  Ru4+  Ru143  1  0.38480465  0.83232777  0.74932729  1
  Ru4+  Ru144  1  0.88788175  0.16221224  -0.00266957  1
  Ru4+  Ru145  1  0.89851048  0.17862165  0.25088637  1
  Ru4+  Ru146  1  0.88829107  0.16779191  0.50012534  1
  Ru4+  Ru147  1  0.88501669  0.16543104  0.74954565  1
  Ru4+  Ru148  1  0.88833035  0.49933457  0.00283279  1
  Ru4+  Ru149  1  0.88526041  0.50303261  0.24880116  1
  Ru4+  Ru150  1  0.89111712  0.48942841  0.49179663  1
  Ru4+  Ru151  1  0.89058353  0.49752012  0.74996177  1
  Ru4+  Ru152  1  0.89274837  0.83643523  0.00487933  1
  Ru4+  Ru153  1  0.89080241  0.83202525  0.25029528  1
  Ru4+  Ru154  1  0.88881684  0.83343293  0.49952155  1
  Ru4+  Ru155  1  0.88662906  0.83090644  0.74943325  1
  Ru4+  Ru156  1  0.74988200  0.03555861  0.47237282  1
  Ru4+  Ru157  1  0.75053329  0.59985618  0.47812531  1
  Ru4+  Ru158  1  0.25050128  0.90753242  0.24744958  1
  Ru4+  Ru159  1  0.24933597  0.23810288  0.74046927  1
  Ru4+  Ru160  1  0.25131690  0.61506333  0.50962157  1
  Ru4+  Ru161  1  0.74999243  0.99728989  0.75054859  1
  Ru4+  Ru162  1  0.24978177  0.76974296  0.50587230  1
  Ru4+  Ru163  1  0.24885881  0.76065187  0.23811958  1
  Ru4+  Ru164  1  0.25003667  0.08720784  0.74923852  1
  Ru4+  Ru165  1  0.24934998  0.91207686  0.49753289  1
  Ru4+  Ru166  1  0.24963392  0.22178847  0.50656461  1
  Ru4+  Ru167  1  0.25072031  0.04692613  -0.00765326  1
  Ru4+  Ru168  1  0.75014089  0.25358782  0.00158091  1
  Ru4+  Ru169  1  0.74955082  0.27192548  0.49738296  1
  Ru4+  Ru170  1  0.24983990  0.60537703  0.75419188  1
  Ru4+  Ru171  1  0.75132641  0.57997007  0.02642552  1
  Ru4+  Ru172  1  0.24956857  0.57066180  -0.00730261  1
  Ru4+  Ru173  1  0.24968063  0.09193940  0.24614410  1
  Ru4+  Ru174  1  0.74956181  0.08316234  0.00143848  1
  Ru4+  Ru175  1  0.24959544  0.77272928  -0.01711897  1
  Ru4+  Ru176  1  0.25032384  0.34910712  0.47584753  1
  Ru4+  Ru177  1  0.74934328  0.70701264  0.76170973  1
  Ru4+  Ru178  1  0.74966693  0.40528409  0.02902235  1
  Ru4+  Ru179  1  0.75032769  0.93709824  0.25298683  1
  O2-  O180  1  0.17095443  0.07966093  -0.00108024  1
  O2-  O181  1  0.16414458  0.08234592  0.24716768  1
  O2-  O182  1  0.17147286  0.08443594  0.49640475  1
  O2-  O183  1  0.16994318  0.08250494  0.75310071  1
  O2-  O184  1  0.16299707  0.41280780  -0.00449961  1
  O2-  O185  1  0.17211623  0.41410139  0.24972283  1
  O2-  O186  1  0.16174169  0.40945914  0.50065733  1
  O2-  O187  1  0.16223327  0.40945296  0.74860988  1
  O2-  O188  1  0.16708144  0.74872568  -0.00136760  1
  O2-  O189  1  0.16536634  0.75067015  0.25146222  1
  O2-  O190  1  0.16474332  0.74834182  0.50029248  1
  O2-  O191  1  0.16969652  0.74663761  0.74696151  1
  O2-  O192  1  0.66827448  0.08374233  -0.00406581  1
  O2-  O193  1  0.66995094  0.08095459  0.25187059  1
  O2-  O194  1  0.66654542  0.07590206  0.50075241  1
  O2-  O195  1  0.67424790  0.07703538  0.74531048  1
  O2-  O196  1  0.66633582  0.41139407  0.00148298  1
  O2-  O197  1  0.66201163  0.41592690  0.24907980  1
  O2-  O198  1  0.66206500  0.41072527  0.50764921  1
  O2-  O199  1  0.66956086  0.41127829  0.74846141  1
  O2-  O200  1  0.66901845  0.75051789  -0.00829315  1
  O2-  O201  1  0.66356157  0.74156802  0.26096727  1
  O2-  O202  1  0.66939580  0.74838764  0.49540854  1
  O2-  O203  1  0.66740562  0.74490448  0.75037424  1
  O2-  O204  1  0.33364384  0.25460994  0.00090988  1
  O2-  O205  1  0.33093827  0.25358331  0.24882558  1
  O2-  O206  1  0.33372119  0.25217744  0.50047494  1
  O2-  O207  1  0.32922039  0.25196643  0.75010410  1
  O2-  O208  1  0.33185748  0.58582683  -0.00210725  1
  O2-  O209  1  0.33744975  0.58574847  0.24928437  1
  O2-  O210  1  0.33302251  0.59046383  0.50007753  1
  O2-  O211  1  0.33216103  0.58923352  0.75037698  1
  O2-  O212  1  0.33029755  0.91735755  0.00587822  1
  O2-  O213  1  0.33353746  0.91852438  0.24934380  1
  O2-  O214  1  0.33274164  0.92024510  0.49624726  1
  O2-  O215  1  0.33755045  0.91768642  0.74825348  1
  O2-  O216  1  0.83291175  0.25178042  -0.00241925  1
  O2-  O217  1  0.83171062  0.24415058  0.25111450  1
  O2-  O218  1  0.83416372  0.25278022  0.50397528  1
  O2-  O219  1  0.83855105  0.25283726  0.75308785  1
  O2-  O220  1  0.83215463  0.58761270  0.00481623  1
  O2-  O221  1  0.82974132  0.58604125  0.25310634  1
  O2-  O222  1  0.83320968  0.58274516  0.49661266  1
  O2-  O223  1  0.83899496  0.58553047  0.74988817  1
  O2-  O224  1  0.83189518  0.91667838  -0.01233111  1
  O2-  O225  1  0.83685445  0.91922630  0.25081874  1
  O2-  O226  1  0.83485908  0.91903526  0.50066307  1
  O2-  O227  1  0.83088572  0.92416574  0.75211535  1
  O2-  O228  1  0.16423616  0.25575876  -0.00267441  1
  O2-  O229  1  0.16745744  0.25135585  0.25075061  1
  O2-  O230  1  0.16460388  0.24710415  0.50266313  1
  O2-  O231  1  0.16551898  0.25220053  0.75192572  1
  O2-  O232  1  0.16685115  0.58505360  -0.00208994  1
  O2-  O233  1  0.16268446  0.58591887  0.25166532  1
  O2-  O234  1  0.16890379  0.59013140  0.49903627  1
  O2-  O235  1  0.16673919  0.58718784  0.74884677  1
  O2-  O236  1  0.16187602  0.91974918  -0.00019146  1
  O2-  O237  1  0.16920808  0.91423502  0.24731067  1
  O2-  O238  1  0.16869259  0.91742737  0.49716952  1
  O2-  O239  1  0.16575823  0.91617322  0.75410836  1
  O2-  O240  1  0.66886777  0.25088488  -0.00074522  1
  O2-  O241  1  0.66018528  0.24795596  0.24513363  1
  O2-  O242  1  0.66572818  0.25385705  0.50303818  1
  O2-  O243  1  0.66236195  0.24985520  0.75114435  1
  O2-  O244  1  0.66959468  0.58557586  -0.00365070  1
  O2-  O245  1  0.66357618  0.58616852  0.25506815  1
  O2-  O246  1  0.66718720  0.58421888  0.49653643  1
  O2-  O247  1  0.66225992  0.58799396  0.74993650  1
  O2-  O248  1  0.67439464  0.91455288  -0.00963043  1
  O2-  O249  1  0.66494879  0.91780982  0.25144403  1
  O2-  O250  1  0.66517345  0.91879300  0.50310859  1
  O2-  O251  1  0.66858446  0.92180576  0.74817756  1
  O2-  O252  1  0.33059623  0.08066973  0.00124217  1
  O2-  O253  1  0.33595504  0.08439234  0.25025112  1
  O2-  O254  1  0.33523798  0.07778484  0.49857204  1
  O2-  O255  1  0.33474839  0.08225262  0.74819794  1
  O2-  O256  1  0.33503290  0.41251863  -0.00238881  1
  O2-  O257  1  0.33213540  0.41328279  0.24808750  1
  O2-  O258  1  0.33866221  0.41077696  0.50005443  1
  O2-  O259  1  0.34248542  0.40772212  0.75055050  1
  O2-  O260  1  0.33278268  0.75195273  -0.00172651  1
  O2-  O261  1  0.32987954  0.75233777  0.24807291  1
  O2-  O262  1  0.33372599  0.74968782  0.50081189  1
  O2-  O263  1  0.33555361  0.74668956  0.74874073  1
  O2-  O264  1  0.83296510  0.08111618  -0.00466695  1
  O2-  O265  1  0.83657517  0.08721066  0.25116728  1
  O2-  O266  1  0.83194643  0.07585701  0.49879341  1
  O2-  O267  1  0.82879922  0.07484567  0.75468331  1
  O2-  O268  1  0.83484191  0.41523646  -0.00165307  1
  O2-  O269  1  0.83816338  0.41696533  0.24857935  1
  O2-  O270  1  0.83988153  0.40776926  0.50639574  1
  O2-  O271  1  0.83112537  0.41187786  0.75152467  1
  O2-  O272  1  0.83647430  0.75213132  -0.00390507  1
  O2-  O273  1  0.84202179  0.73862437  0.24776513  1
  O2-  O274  1  0.83551453  0.74813344  0.49744012  1
  O2-  O275  1  0.83032599  0.74542519  0.74927032  1
  O2-  O276  1  0.04820581  0.76585426  0.25617350  1
  O2-  O277  1  0.95663972  0.90384923  0.50780770  1
  O2-  O278  1  0.95512888  0.58059685  0.50666138  1
  O2-  O279  1  0.45170819  0.42941504  0.99304034  1
  O2-  O280  1  0.55401252  0.08763273  0.01061442  1
  O2-  O281  1  0.54411320  0.56653583  0.26315370  1
  O2-  O282  1  0.93882130  0.09208158  0.50816558  1
  O2-  O283  1  0.05076199  0.57587404  0.23533416  1
  O2-  O284  1  0.05460491  0.90444351  0.76032109  1
  O2-  O285  1  0.05267205  0.76574236  0.99432238  1
  O2-  O286  1  0.45042100  0.24498095  -0.00300121  1
  O2-  O287  1  0.53011910  0.44859877  0.54085629  1
  O2-  O288  1  0.45025547  0.90581183  0.26490279  1
  O2-  O289  1  0.95128146  0.23672036  0.98337865  1
  O2-  O290  1  0.44944819  0.10261985  0.23765064  1
  O2-  O291  1  0.05015484  0.23553082  0.97538853  1
  O2-  O292  1  0.94801666  0.75525818  0.02044129  1
  O2-  O293  1  0.97843359  0.19260389  0.24707617  1
  O2-  O294  1  0.95037236  0.56843033  0.23712376  1
  O2-  O295  1  0.55267604  0.91094872  0.23995076  1
  O2-  O296  1  0.04084851  0.24901270  0.53622741  1
  O2-  O297  1  0.45644357  0.87402467  0.04198321  1
  O2-  O298  1  0.05040105  0.09657964  0.25391232  1
  O2-  O299  1  0.45088882  0.76266273  0.51382109  1
  O2-  O300  1  0.04598581  0.56798236  0.75981493  1
  O2-  O301  1  0.96661710  0.43797262  0.54390059  1
  O2-  O302  1  0.04991857  0.55965604  0.47985789  1
  O2-  O303  1  0.54767689  0.90617671  0.73002127  1
  O2-  O304  1  0.96270357  0.89639350  0.95290993  1
  O2-  O305  1  0.54834121  0.90027239  0.76883939  1
  O2-  O306  1  0.45175301  0.23692611  0.49977947  1
  O2-  O307  1  0.53608692  0.09781903  0.71169145  1
  O2-  O308  1  0.54469476  0.75288560  0.00898992  1
  O2-  O309  1  0.45454657  0.76751569  0.73571247  1
  O2-  O310  1  0.54613047  0.88353945  0.95945807  1
  O2-  O311  1  0.45621346  0.43465593  0.25529328  1
  O2-  O312  1  0.94904202  0.90340806  0.74716906  1
  O2-  O313  1  0.53536678  0.77096609  0.29707964  1
  O2-  O314  1  0.54732557  0.90668921  0.49015282  1
  O2-  O315  1  0.45048330  0.24300556  1.00616800  1
  O2-  O316  1  0.95368211  0.75885612  0.48240160  1
  O2-  O317  1  0.54775951  0.23528502  0.75753700  1
  O2-  O318  1  0.04188132  0.44040669  0.00348319  1
  O2-  O319  1  0.54349668  0.22640171  0.97328001  1
  O2-  O320  1  0.02378098  0.12003137  0.52280879  1
  O2-  O321  1  0.94898354  0.90388981  0.75730048  1
  O2-  O322  1  0.44920817  0.09002056  0.98968831  1
  O2-  O323  1  0.54858400  0.43582630  0.01261999  1
  O2-  O324  1  0.93559372  0.74384312  0.72297035  1
  O2-  O325  1  0.06701830  0.60106874  0.54831758  1
  O2-  O326  1  0.56318496  0.59176105  0.01920971  1
  O2-  O327  1  0.93725185  0.06364132  0.21669722  1
  O2-  O328  1  0.06340341  0.27532269  0.45631292  1
  O2-  O329  1  0.43454406  0.26582278  0.17533784  1
  O2-  O330  1  0.05898994  0.59309834  0.04175942  1
  O2-  O331  1  0.57743460  0.39795535  0.44178782  1
  O2-  O332  1  0.43157596  0.73949833  0.27700340  1
  O2-  O333  1  0.57213269  0.26419157  0.04173356  1
  O2-  O334  1  0.06147945  0.08008045  0.73364140  1
  O2-  O335  1  0.42198789  0.93553606  0.94018436  1
  O2-  O336  1  0.06082981  0.26826853  0.31846206  1
  O2-  O337  1  0.93100823  0.95372894  0.06769084  1
  O2-  O338  1  0.07014033  0.24296010  0.18354224  1
  O2-  O339  1  0.43807456  0.59328782  0.53517458  1
  O2-  O340  1  0.56735029  0.74587315  0.02423123  1
  O2-  O341  1  0.07859220  0.08037650  0.41495897  1
  O2-  O342  1  0.93897683  0.58557419  0.22558642  1
  O2-  O343  1  0.94027882  0.58694185  0.98225245  1
  O2-  O344  1  0.06559858  0.74009058  0.76636010  1
  O2-  O345  1  0.56414770  0.58964043  0.52123998  1
  O2-  O346  1  0.05911826  0.59128080  0.47244516  1
  O2-  O347  1  0.43317129  0.25934807  0.72400400  1
  O2-  O348  1  0.06260844  0.93220247  0.21776491  1
  O2-  O349  1  0.93139387  0.58732027  0.51781432  1
  O2-  O350  1  0.06052646  0.40295290  0.78870202  1
  O2-  O351  1  0.91832399  0.27119194  0.18351541  1
  O2-  O352  1  0.43679357  0.73707425  0.96082231  1
  O2-  O353  1  0.58498425  0.06829768  0.80977974  1
  O2-  O354  1  0.43392679  0.24372189  0.31945465  1
  O2-  O355  1  0.58295961  0.73953873  0.18552545  1
  O2-  O356  1  0.56387369  0.74386437  0.52273432  1
  O2-  O357  1  0.56130138  0.41321720  0.76589994  1
  O2-  O358  1  0.93877236  0.40584874  0.71852605  1
  O2-  O359  1  0.56101628  0.07020301  0.32934783  1
  O2-  O360  1  0.08851444  0.06465472  0.57196612  1
  O2-  O361  1  0.93829014  0.07879503  0.73592387  1
  O2-  O362  1  0.43866792  0.07027594  0.23514343  1
  O2-  O363  1  0.93435235  0.59588955  0.28709348  1
  O2-  O364  1  0.93528213  0.27691953  0.33204151  1
  O2-  O365  1  0.93289722  0.38715611  0.42976673  1
  O2-  O366  1  0.43912537  0.58408908  0.02202384  1
  O2-  O367  1  0.05683778  0.41560990  0.22512520  1
  O2-  O368  1  0.94040289  0.74581490  0.29070185  1
  O2-  O369  1  0.05997043  0.06649028  0.03274324  1
  O2-  O370  1  0.57064953  0.08880003  0.18344013  1
  O2-  O371  1  0.58397863  0.93206820  0.05888614  1
  O2-  O372  1  0.24927736  0.01056227  0.85229889  1
  O2-  O373  1  0.24907352  0.69188684  0.41888243  1
  O2-  O374  1  0.24972093  0.66920794  0.05304859  1
  O2-  O375  1  0.75022441  0.65027951  0.65888182  1
  O2-  O376  1  0.74689864  0.32784593  0.13050427  1
  O2-  O377  1  0.25042561  0.66545178  0.90010165  1
  O2-  O378  1  0.74995328  0.00644507  0.09358108  1
  O2-  O379  1  0.75038844  0.68060508  0.57317243  1
  O2-  O380  1  0.25224915  0.00755551  0.65683537  1
  O2-  O381  1  0.74966069  0.66311535  0.17119780  1
  O2-  O382  1  0.24922043  0.33145672  0.65385329  1
  O2-  O383  1  0.75070240  0.68122177  0.08238214  1
  O2-  O384  1  0.74977023  0.33735459  0.60677972  1
  O2-  O385  1  0.74884633  0.65874701  0.87311078  1
  O2-  O386  1  0.25173929  -0.00431834  0.34461653  1
  O2-  O387  1  0.75113354  0.33374613  0.90992180  1
  O2-  O388  1  0.74901799  0.32606435  0.31601734  1
  O2-  O389  1  0.25003419  0.66662234  0.30454661  1
  O2-  O390  1  0.75096333  0.00668901  0.35154584  1
  O2-  O391  1  0.25010780  0.68098238  0.61550494  1
  O2-  O392  1  0.74868755  0.35071488  0.40291698  1
  O2-  O393  1  0.75005326  -0.00668455  0.60422496  1
  O2-  O394  1  0.24991959  0.66315606  0.17516749  1
  O2-  O395  1  0.25052300  0.00049634  0.15714262  1
  O2-  O396  1  0.75060794  0.49183885  0.95634268  1
  O2-  O397  1  0.25047388  0.15444476  0.41507903  1
  O2-  O398  1  0.25006105  0.17532700  0.32962391  1
  O2-  O399  1  0.74925752  0.16853917  0.35161189  1
  O2-  O400  1  0.25059379  0.50881282  0.38262058  1
  O2-  O401  1  0.25078594  0.17147837  0.61008584  1
  O2-  O402  1  0.74978493  0.85269393  0.38233923  1
  O2-  O403  1  0.25049217  0.81827743  0.87994431  1
  O2-  O404  1  0.25010564  0.16232746  0.15328511  1
  O2-  O405  1  0.24936268  0.82322749  0.09426865  1
  O2-  O406  1  0.25048477  0.84149513  0.59875812  1
  O2-  O407  1  0.74986454  0.16571227  0.43866966  1
  O2-  O408  1  0.75122264  0.17388303  0.70011366  1
  O2-  O409  1  0.74968366  0.52139019  0.60909104  1
  O2-  O410  1  0.74979837  0.82397014  0.08605839  1
  O2-  O411  1  0.75019601  0.16675520  0.08231605  1
  O2-  O412  1  0.24972468  0.51497944  0.88842411  1
  O2-  O413  1  0.25025412  0.53355389  0.65147243  1
  O2-  O414  1  0.74934722  0.53017467  0.37859329  1
  O2-  O415  1  0.74988866  0.49545260  0.86953519  1
  O2-  O416  1  0.74931702  0.86727734  0.16253598  1
  O2-  O417  1  0.74989703  0.49839641  0.11785153  1
  O2-  O418  1  0.24987589  0.17139259  0.84443615  1
  O2-  O419  1  0.24982039  0.50473532  0.08646239  1
  O2-  O420  1  0.47648060  0.65473457  0.38296530  1
  O2-  O421  1  0.02716808  0.66871569  0.37706572  1
  O2-  O422  1  0.54379235  0.30986731  0.34705728  1
  O2-  O423  1  0.52818582  0.65060998  0.12655949  1
  O2-  O424  1  0.45133578  0.34535823  0.86110824  1
  O2-  O425  1  0.95321622  0.36928399  0.10592883  1
  O2-  O426  1  0.02631689  -0.02582552  0.62411969  1
  O2-  O427  1  0.45544053  0.35903422  0.39991330  1
  O2-  O428  1  0.96773313  0.00075969  0.61989894  1
  O2-  O429  1  0.02572631  0.01165714  0.87569970  1
  O2-  O430  1  0.95379748  0.67652584  0.85991996  1
  O2-  O431  1  0.04285176  0.65069474  0.88904465  1
  O2-  O432  1  0.04363741  0.33125013  0.10047953  1
  O2-  O433  1  0.98093613  0.66613374  0.62468281  1
  O2-  O434  1  0.47033531  0.00871671  0.85403422  1
  O2-  O435  1  0.52384179  0.66661648  0.63566602  1
  O2-  O436  1  0.45587432  0.68037817  0.13948107  1
  O2-  O437  1  0.52547078  -0.00746969  0.88491463  1
  O2-  O438  1  0.54271812  0.33946367  0.88324478  1
  O2-  O439  1  0.52352152  0.34323783  0.13954096  1
  O2-  O440  1  0.01585505  -0.01974497  0.37266221  1
  O2-  O441  1  0.45935475  -0.00006025  0.12031066  1
  O2-  O442  1  0.51941330  -0.00253636  0.12251538  1
  O2-  O443  1  0.47797029  0.34273014  0.62251270  1
