# generated using pymatgen
data_La7(Ru4O11)2
_symmetry_space_group_name_H-M   'P 1'
_cell_length_a   23.99090086
_cell_length_b   16.83100018
_cell_length_c   15.42757629
_cell_angle_alpha   90.00086807
_cell_angle_beta   89.99994660
_cell_angle_gamma   90.00057375
_symmetry_Int_Tables_number   1
_chemical_formula_structural   La7(Ru4O11)2
_chemical_formula_sum   'La84 Ru96 O264'
_cell_volume   6229.51424743
_cell_formula_units_Z   12
loop_
 _symmetry_equiv_pos_site_id
 _symmetry_equiv_pos_as_xyz
  1  'x, y, z'
loop_
 _atom_type_symbol
 _atom_type_oxidation_number
  La3+  3.0
  Ru4+  4.0
  O2-  -2.0
loop_
 _atom_site_type_symbol
 _atom_site_label
 _atom_site_symmetry_multiplicity
 _atom_site_fract_x
 _atom_site_fract_y
 _atom_site_fract_z
 _atom_site_occupancy
  La3+  La0  1  0.14103715  0.00144684  0.12280974  1
  La3+  La1  1  0.14043617  -0.00202937  0.37736024  1
  La3+  La2  1  0.13900889  -0.00084601  0.62363215  1
  La3+  La3  1  0.14118699  0.00124464  0.87680864  1
  La3+  La4  1  0.13780920  0.33051608  0.12787004  1
  La3+  La5  1  0.14132876  0.33452864  0.37646583  1
  La3+  La6  1  0.14054031  0.33434841  0.62567581  1
  La3+  La7  1  0.13927247  0.33250506  0.87370358  1
  La3+  La8  1  0.13927403  0.66934641  0.12677511  1
  La3+  La9  1  0.14027661  0.66550183  0.37552706  1
  La3+  La10  1  0.14006302  0.66503247  0.62526154  1
  La3+  La11  1  0.14144767  0.66857687  0.87169552  1
  La3+  La12  1  0.63793875  -0.00170991  0.12433447  1
  La3+  La13  1  0.63938602  -0.00212910  0.37450972  1
  La3+  La14  1  0.64026477  -0.00079751  0.62678138  1
  La3+  La15  1  0.64173378  0.00102439  0.87081405  1
  La3+  La16  1  0.63305343  0.33296199  0.12486884  1
  La3+  La17  1  0.63996775  0.33409671  0.37695175  1
  La3+  La18  1  0.63831200  0.33398102  0.62715034  1
  La3+  La19  1  0.63849102  0.33194370  0.87222867  1
  La3+  La20  1  0.63701736  0.66853122  0.12596067  1
  La3+  La21  1  0.63471744  0.66583104  0.37467464  1
  La3+  La22  1  0.63945125  0.66702710  0.62709339  1
  La3+  La23  1  0.63790060  0.66874911  0.87328347  1
  La3+  La24  1  0.35882850  0.00137729  0.12114081  1
  La3+  La25  1  0.36216019  -0.00105331  0.37639731  1
  La3+  La26  1  0.36083163  -0.00086189  0.62476801  1
  La3+  La27  1  0.35837340  0.00154209  0.87431785  1
  La3+  La28  1  0.36265104  0.33046724  0.12751383  1
  La3+  La29  1  0.36102249  0.33544488  0.37652479  1
  La3+  La30  1  0.35933219  0.33445476  0.62370323  1
  La3+  La31  1  0.35769619  0.32952728  0.87522415  1
  La3+  La32  1  0.35852756  0.66716210  0.12340303  1
  La3+  La33  1  0.35584743  0.66517763  0.37696967  1
  La3+  La34  1  0.35911694  0.66543006  0.62521399  1
  La3+  La35  1  0.36115531  0.66838193  0.87224402  1
  La3+  La36  1  0.86250568  -0.00155768  0.12586590  1
  La3+  La37  1  0.86336662  -0.00001648  0.37617150  1
  La3+  La38  1  0.86009699  -0.00007931  0.62708294  1
  La3+  La39  1  0.85964918  -0.00074231  0.87064825  1
  La3+  La40  1  0.86629894  0.33184681  0.12504604  1
  La3+  La41  1  0.86134992  0.33408228  0.37757154  1
  La3+  La42  1  0.85966664  0.33290015  0.62729279  1
  La3+  La43  1  0.86383567  0.33136177  0.87216667  1
  La3+  La44  1  0.86201403  0.66786022  0.12519191  1
  La3+  La45  1  0.86183560  0.66612684  0.37526616  1
  La3+  La46  1  0.86052784  0.66783738  0.62750323  1
  La3+  La47  1  0.86112921  0.66821393  0.87276662  1
  La3+  La48  1  0.00206389  0.82858606  0.13367181  1
  La3+  La49  1  0.00155041  0.16310201  0.88943073  1
  La3+  La50  1  0.50027760  0.16704517  0.63381539  1
  La3+  La51  1  -0.00178768  0.49996410  0.13189937  1
  La3+  La52  1  0.49625972  0.83517932  0.63539062  1
  La3+  La53  1  0.49902615  0.16720371  0.87357514  1
  La3+  La54  1  0.50025580  0.49957172  0.12242461  1
  La3+  La55  1  0.00107610  0.83663084  0.88380929  1
  La3+  La56  1  0.50080735  0.83132269  0.38099751  1
  La3+  La57  1  0.50073324  0.49871657  0.37247706  1
  La3+  La58  1  0.50008309  0.49858120  0.88732531  1
  La3+  La59  1  0.00196831  0.83458959  0.38871938  1
  La3+  La60  1  -0.00219622  0.17006790  0.61866900  1
  La3+  La61  1  0.49957506  0.16915534  0.38246346  1
  La3+  La62  1  0.00187426  0.83907148  0.11482301  1
  La3+  La63  1  -0.00212253  0.49561410  0.61589460  1
  La3+  La64  1  -0.00206109  0.16979392  0.63599672  1
  La3+  La65  1  0.50052025  0.83284304  0.61400167  1
  La3+  La66  1  -0.00214353  0.82907584  0.86375137  1
  La3+  La67  1  -0.00063406  0.16895499  0.86856730  1
  La3+  La68  1  -0.00043239  0.50007035  0.88315449  1
  La3+  La69  1  0.00558586  0.83880340  0.62658313  1
  La3+  La70  1  0.00092869  0.50315971  0.37487528  1
  La3+  La71  1  -0.00259679  0.82824383  0.36839979  1
  La3+  La72  1  0.75084729  0.16491263  0.22326122  1
  La3+  La73  1  0.25019738  0.12470946  0.45839697  1
  La3+  La74  1  0.75012850  0.15746773  -0.03614661  1
  La3+  La75  1  0.25027266  0.49702009  0.05485488  1
  La3+  La76  1  0.74978666  0.45999197  0.26432977  1
  La3+  La77  1  0.75008773  0.88097516  0.49818588  1
  La3+  La78  1  0.24997804  0.83273952  -0.03389343  1
  La3+  La79  1  0.74991476  0.83550233  0.00020575  1
  La3+  La80  1  0.24990094  0.16601291  0.78729451  1
  La3+  La81  1  0.74992488  0.52250431  0.01521024  1
  La3+  La82  1  0.74954757  0.46094747  0.47567793  1
  La3+  La83  1  0.74996931  0.23104014  0.51567369  1
  Ru4+  Ru84  1  0.00011349  -0.00041996  -0.00000657  1
  Ru4+  Ru85  1  -0.00241199  0.00554973  0.24884930  1
  Ru4+  Ru86  1  0.00254498  -0.00886475  0.49799432  1
  Ru4+  Ru87  1  0.00022507  0.00416267  0.74677984  1
  Ru4+  Ru88  1  0.00339230  0.33833210  -0.00122287  1
  Ru4+  Ru89  1  -0.00151054  0.33089813  0.25428804  1
  Ru4+  Ru90  1  0.00169996  0.32910250  0.49632686  1
  Ru4+  Ru91  1  -0.00220194  0.33488767  0.75144499  1
  Ru4+  Ru92  1  0.00339509  0.67055252  0.00141333  1
  Ru4+  Ru93  1  0.00182369  0.66388732  0.24906792  1
  Ru4+  Ru94  1  -0.00256019  0.67010003  0.50521823  1
  Ru4+  Ru95  1  -0.00094244  0.66886362  0.74346525  1
  Ru4+  Ru96  1  0.50084685  0.00244135  -0.00151296  1
  Ru4+  Ru97  1  0.49886135  0.00187735  0.25204979  1
  Ru4+  Ru98  1  0.49974800  0.00055428  0.50174371  1
  Ru4+  Ru99  1  0.49826482  0.00287109  0.75130611  1
  Ru4+  Ru100  1  0.50231845  0.32930723  0.00399665  1
  Ru4+  Ru101  1  0.49760245  0.33223042  0.24677156  1
  Ru4+  Ru102  1  0.50282702  0.33129534  0.50524625  1
  Ru4+  Ru103  1  0.49825731  0.34050681  0.74810269  1
  Ru4+  Ru104  1  0.49748943  0.66889522  0.00183637  1
  Ru4+  Ru105  1  0.50283534  0.66694946  0.25205524  1
  Ru4+  Ru106  1  0.49867061  0.66168649  0.49979026  1
  Ru4+  Ru107  1  0.49960301  0.66452275  0.74909067  1
  Ru4+  Ru108  1  0.11426101  0.16410336  0.00001633  1
  Ru4+  Ru109  1  0.11367875  0.16619894  0.25186316  1
  Ru4+  Ru110  1  0.11274991  0.16498903  0.49763535  1
  Ru4+  Ru111  1  0.11196199  0.16645659  0.74852030  1
  Ru4+  Ru112  1  0.11312424  0.49681603  -0.00156573  1
  Ru4+  Ru113  1  0.11505506  0.50319179  0.25052825  1
  Ru4+  Ru114  1  0.11722232  0.49646220  0.49984464  1
  Ru4+  Ru115  1  0.11449832  0.50053228  0.75119983  1
  Ru4+  Ru116  1  0.10968780  0.83345370  -0.00017411  1
  Ru4+  Ru117  1  0.11619190  0.83036165  0.25024533  1
  Ru4+  Ru118  1  0.11203311  0.83523139  0.50019760  1
  Ru4+  Ru119  1  0.11473823  0.82938983  0.74878700  1
  Ru4+  Ru120  1  0.60827145  0.16634032  0.00160810  1
  Ru4+  Ru121  1  0.61134329  0.16496077  0.25079620  1
  Ru4+  Ru122  1  0.61078294  0.16621595  0.49997789  1
  Ru4+  Ru123  1  0.61566161  0.16736225  0.75015588  1
  Ru4+  Ru124  1  0.61061654  0.49811989  0.00054536  1
  Ru4+  Ru125  1  0.61205578  0.49577415  0.24938406  1
  Ru4+  Ru126  1  0.61067629  0.50095407  0.49923018  1
  Ru4+  Ru127  1  0.61142335  0.49773301  0.74919765  1
  Ru4+  Ru128  1  0.61138262  0.83327659  -0.00064864  1
  Ru4+  Ru129  1  0.61262267  0.83337301  0.24968736  1
  Ru4+  Ru130  1  0.61138171  0.83385522  0.50039174  1
  Ru4+  Ru131  1  0.61532189  0.83480456  0.75218538  1
  Ru4+  Ru132  1  0.38757703  0.16461616  0.00052101  1
  Ru4+  Ru133  1  0.38728958  0.16817308  0.24950804  1
  Ru4+  Ru134  1  0.38874634  0.16459678  0.49918833  1
  Ru4+  Ru135  1  0.38766169  0.16566645  0.74976734  1
  Ru4+  Ru136  1  0.38912749  0.50168901  -0.00000139  1
  Ru4+  Ru137  1  0.38639284  0.49880040  0.24918672  1
  Ru4+  Ru138  1  0.38587313  0.50156786  0.50187486  1
  Ru4+  Ru139  1  0.38987553  0.49478269  0.75029582  1
  Ru4+  Ru140  1  0.38767126  0.83094270  -0.00118047  1
  Ru4+  Ru141  1  0.38369754  0.83481391  0.24842471  1
  Ru4+  Ru142  1  0.38673983  0.83501570  0.49945253  1
  Ru4+  Ru143  1  0.38538869  0.83015989  0.75112950  1
  Ru4+  Ru144  1  0.88692398  0.16152188  0.00091650  1
  Ru4+  Ru145  1  0.88857459  0.16702611  0.24961271  1
  Ru4+  Ru146  1  0.88626943  0.17174410  0.49948617  1
  Ru4+  Ru147  1  0.88529000  0.16694064  0.74993149  1
  Ru4+  Ru148  1  0.88824151  0.49817210  -0.00083513  1
  Ru4+  Ru149  1  0.88924911  0.49914472  0.24915196  1
  Ru4+  Ru150  1  0.88583448  0.50406845  0.50116163  1
  Ru4+  Ru151  1  0.88815854  0.49899106  0.75085603  1
  Ru4+  Ru152  1  0.88892884  0.83668609  -0.00017206  1
  Ru4+  Ru153  1  0.88474590  0.83290760  0.24974202  1
  Ru4+  Ru154  1  0.88873514  0.83446559  0.50004054  1
  Ru4+  Ru155  1  0.88555620  0.83374836  0.75043729  1
  Ru4+  Ru156  1  0.25021005  0.37053285  -0.01271602  1
  Ru4+  Ru157  1  0.74985103  0.58900605  0.73874604  1
  Ru4+  Ru158  1  0.75004759  0.39503472  0.01397337  1
  Ru4+  Ru159  1  0.74988137  0.27026014  0.03141996  1
  Ru4+  Ru160  1  0.75011569  0.64891354  -0.00860762  1
  Ru4+  Ru161  1  0.74982120  0.03124395  0.25741714  1
  Ru4+  Ru162  1  0.74967589  0.59515439  0.52148246  1
  Ru4+  Ru163  1  0.25016886  0.23695697  0.00482832  1
  Ru4+  Ru164  1  0.74968956  0.02738015  0.00057073  1
  Ru4+  Ru165  1  0.75011210  0.74063406  0.51868951  1
  Ru4+  Ru166  1  0.24989480  0.08692086  0.24994021  1
  Ru4+  Ru167  1  0.74994091  0.76342074  0.25148440  1
  Ru4+  Ru168  1  0.74983133  0.41367508  0.73376199  1
  Ru4+  Ru169  1  0.75006900  0.06456107  0.50500849  1
  Ru4+  Ru170  1  0.24994798  0.42329922  0.24927079  1
  Ru4+  Ru171  1  0.74973934  0.59418295  0.23954247  1
  Ru4+  Ru172  1  0.24983649  0.57826670  0.24884225  1
  Ru4+  Ru173  1  0.75007898  0.29912703  0.25873704  1
  Ru4+  Ru174  1  0.25001993  0.91114049  0.74662604  1
  Ru4+  Ru175  1  0.25010030  0.62267682  -0.00662056  1
  Ru4+  Ru176  1  0.25034003  0.42268602  0.74365140  1
  Ru4+  Ru177  1  0.25005693  0.74827957  0.50596166  1
  Ru4+  Ru178  1  0.24987928  0.91655822  0.25032457  1
  Ru4+  Ru179  1  0.25042099  0.26284786  0.50136501  1
  O2-  O180  1  0.16693228  0.08105394  0.00077011  1
  O2-  O181  1  0.16751142  0.08282565  0.24849051  1
  O2-  O182  1  0.16729899  0.07826162  0.50313445  1
  O2-  O183  1  0.16598019  0.07975350  0.74897042  1
  O2-  O184  1  0.16710025  0.41239446  0.00168732  1
  O2-  O185  1  0.16766890  0.41399674  0.24630005  1
  O2-  O186  1  0.16643932  0.41598467  0.50082533  1
  O2-  O187  1  0.16544131  0.41400872  0.74978630  1
  O2-  O188  1  0.16736970  0.74663168  0.00032994  1
  O2-  O189  1  0.16803232  0.74780864  0.24873484  1
  O2-  O190  1  0.16741387  0.74813639  0.50013009  1
  O2-  O191  1  0.16786366  0.74918072  0.75056143  1
  O2-  O192  1  0.66662317  0.07936011  -0.00016885  1
  O2-  O193  1  0.66621325  0.07891694  0.24988868  1
  O2-  O194  1  0.66632493  0.08015694  0.49977787  1
  O2-  O195  1  0.66583476  0.08129871  0.74908762  1
  O2-  O196  1  0.66622746  0.41243524  -0.00069575  1
  O2-  O197  1  0.66461229  0.41166700  0.24892290  1
  O2-  O198  1  0.66373076  0.41252421  0.50182041  1
  O2-  O199  1  0.66766099  0.41437892  0.75064859  1
  O2-  O200  1  0.66898447  0.74651246  -0.00019890  1
  O2-  O201  1  0.66664993  0.74849482  0.24894327  1
  O2-  O202  1  0.66558752  0.74586460  0.50047434  1
  O2-  O203  1  0.66531091  0.74778847  0.75193651  1
  O2-  O204  1  0.33335465  0.25200184  0.00157418  1
  O2-  O205  1  0.33288675  0.25266637  0.24871124  1
  O2-  O206  1  0.33434330  0.25267998  0.49950050  1
  O2-  O207  1  0.33343036  0.25150027  0.74981357  1
  O2-  O208  1  0.33382452  0.58675699  -0.00086794  1
  O2-  O209  1  0.33392030  0.58504917  0.24878942  1
  O2-  O210  1  0.33489433  0.58435663  0.50063904  1
  O2-  O211  1  0.33670737  0.58349454  0.75038496  1
  O2-  O212  1  0.32986248  0.91846099  0.00024563  1
  O2-  O213  1  0.33113815  0.91940779  0.25232589  1
  O2-  O214  1  0.33360614  0.91993212  0.49973503  1
  O2-  O215  1  0.33220424  0.91906706  0.74906896  1
  O2-  O216  1  0.83457118  0.25533435  0.00141817  1
  O2-  O217  1  0.83428175  0.25617587  0.24952428  1
  O2-  O218  1  0.83768926  0.25598310  0.49892414  1
  O2-  O219  1  0.83591134  0.25230825  0.75054727  1
  O2-  O220  1  0.83276497  0.59000720  0.00115072  1
  O2-  O221  1  0.83368456  0.58677804  0.24924941  1
  O2-  O222  1  0.83231210  0.58707335  0.50165069  1
  O2-  O223  1  0.83311111  0.58620072  0.74941064  1
  O2-  O224  1  0.83161146  0.91878314  0.00017192  1
  O2-  O225  1  0.83304587  0.92045573  0.25005957  1
  O2-  O226  1  0.83918220  0.92194011  0.49964898  1
  O2-  O227  1  0.83245512  0.91914505  0.74967327  1
  O2-  O228  1  0.16716475  0.25334151  0.00114518  1
  O2-  O229  1  0.16707689  0.25016551  0.24649550  1
  O2-  O230  1  0.16527760  0.25273778  0.50100488  1
  O2-  O231  1  0.16745958  0.25267548  0.75046739  1
  O2-  O232  1  0.16757591  0.58806400  0.00202190  1
  O2-  O233  1  0.16792590  0.58486501  0.24795575  1
  O2-  O234  1  0.16592992  0.58447842  0.50020592  1
  O2-  O235  1  0.16746302  0.58534311  0.74879548  1
  O2-  O236  1  0.16831900  0.92142381  -0.00017500  1
  O2-  O237  1  0.16679427  0.92027323  0.24961265  1
  O2-  O238  1  0.16711596  0.91969838  0.50166311  1
  O2-  O239  1  0.16672979  0.91951677  0.74960772  1
  O2-  O240  1  0.66604329  0.25435969  -0.00073594  1
  O2-  O241  1  0.66761455  0.25495722  0.24912905  1
  O2-  O242  1  0.66194710  0.25541833  0.49932135  1
  O2-  O243  1  0.66383664  0.25197131  0.75030100  1
  O2-  O244  1  0.66445469  0.59035559  -0.00069099  1
  O2-  O245  1  0.66706877  0.58846553  0.24907117  1
  O2-  O246  1  0.66755488  0.58707464  0.50092426  1
  O2-  O247  1  0.66600417  0.58600901  0.75102763  1
  O2-  O248  1  0.67054617  0.91731264  0.00118404  1
  O2-  O249  1  0.66876558  0.91898858  0.25048414  1
  O2-  O250  1  0.66297106  0.92223879  0.49874667  1
  O2-  O251  1  0.66861492  0.91797665  0.75056628  1
  O2-  O252  1  0.33501355  0.08274984  -0.00088045  1
  O2-  O253  1  0.33327952  0.08146046  0.25059979  1
  O2-  O254  1  0.33368483  0.07802155  0.50127593  1
  O2-  O255  1  0.33366870  0.08102222  0.74797505  1
  O2-  O256  1  0.33296571  0.41164457  0.00155243  1
  O2-  O257  1  0.33210140  0.41435055  0.24743355  1
  O2-  O258  1  0.33232243  0.41590409  0.49995521  1
  O2-  O259  1  0.33126083  0.41519308  0.74969379  1
  O2-  O260  1  0.33204315  0.74947832  -0.00031004  1
  O2-  O261  1  0.33158985  0.75077703  0.25047676  1
  O2-  O262  1  0.33112017  0.74868543  0.49991112  1
  O2-  O263  1  0.33285675  0.74857457  0.75037077  1
  O2-  O264  1  0.83423907  0.07815375  0.00075207  1
  O2-  O265  1  0.83381752  0.07736579  0.25016793  1
  O2-  O266  1  0.83347532  0.07891963  0.50027596  1
  O2-  O267  1  0.83500876  0.07918655  0.74950399  1
  O2-  O268  1  0.83584433  0.41183904  0.00140477  1
  O2-  O269  1  0.83513966  0.41102041  0.24917989  1
  O2-  O270  1  0.83354479  0.41174458  0.50040241  1
  O2-  O271  1  0.83261381  0.41515265  0.74985267  1
  O2-  O272  1  0.82962327  0.74526200  0.00020091  1
  O2-  O273  1  0.83135083  0.74846072  0.24907465  1
  O2-  O274  1  0.83188223  0.74609517  0.50214321  1
  O2-  O275  1  0.83489464  0.74803266  0.75043885  1
  O2-  O276  1  0.45573910  0.23354167  0.76041623  1
  O2-  O277  1  0.04333322  0.55985156  0.72069868  1
  O2-  O278  1  0.54571965  0.22733906  0.22072400  1
  O2-  O279  1  0.46513452  0.78157249  0.24749776  1
  O2-  O280  1  0.95336465  0.76249229  0.01359915  1
  O2-  O281  1  0.95064882  0.42408577  0.23858575  1
  O2-  O282  1  0.94456176  0.41845815  0.46336465  1
  O2-  O283  1  0.54494823  0.09401198  0.26734583  1
  O2-  O284  1  0.04661144  0.57128176  0.51915169  1
  O2-  O285  1  0.46420615  0.78115808  0.25246625  1
  O2-  O286  1  0.95623776  0.55481983  0.03333435  1
  O2-  O287  1  0.03236865  0.10578246  0.25430387  1
  O2-  O288  1  0.04486563  0.43802874  0.22387036  1
  O2-  O289  1  0.45287271  0.23126345  0.24436410  1
  O2-  O290  1  0.54703012  0.76410985  0.73695508  1
  O2-  O291  1  0.45229652  0.56814389  0.26361774  1
  O2-  O292  1  0.04496741  0.10714365  0.53681563  1
  O2-  O293  1  0.95527240  0.23309709  0.02067752  1
  O2-  O294  1  0.95164605  0.23815685  0.98239735  1
  O2-  O295  1  0.04436946  0.55746685  0.02800638  1
  O2-  O296  1  0.04651770  0.23819126  0.51693343  1
  O2-  O297  1  0.54593619  0.09941875  0.76490045  1
  O2-  O298  1  0.95261048  0.57149457  0.23536280  1
  O2-  O299  1  0.54337178  0.88084955  0.99532106  1
  O2-  O300  1  0.55405618  0.76323836  0.23372747  1
  O2-  O301  1  0.04890186  0.43040112  0.49021032  1
  O2-  O302  1  0.95086804  0.09473088  0.52111417  1
  O2-  O303  1  0.54754870  0.23185369  0.51293488  1
  O2-  O304  1  0.04777629  0.90184884  0.26410503  1
  O2-  O305  1  0.04676795  0.89993221  0.75981671  1
  O2-  O306  1  0.45327044  0.23469632  0.01388410  1
  O2-  O307  1  0.44986246  0.23294104  0.25758238  1
  O2-  O308  1  0.04573903  0.43005618  0.76605135  1
  O2-  O309  1  0.04776512  0.56896255  0.47996531  1
  O2-  O310  1  0.45369650  0.43120049  0.01314112  1
  O2-  O311  1  0.95107404  0.56931031  0.73573166  1
  O2-  O312  1  0.95292586  0.10016192  0.48231995  1
  O2-  O313  1  0.95212353  0.90331296  0.23667689  1
  O2-  O314  1  0.54625778  0.57176642  0.01238955  1
  O2-  O315  1  0.45092810  0.23326819  0.51666981  1
  O2-  O316  1  0.55794422  0.57672352  0.27073142  1
  O2-  O317  1  0.96351067  0.77714145  0.53530603  1
  O2-  O318  1  0.45834004  0.88466910  0.99553342  1
  O2-  O319  1  0.44488347  0.41905481  0.47518247  1
  O2-  O320  1  0.03235623  0.22841371  0.25416285  1
  O2-  O321  1  0.47640724  0.47171419  0.76298575  1
  O2-  O322  1  0.46993580  0.89931382  0.24661958  1
  O2-  O323  1  0.45491412  0.56962048  0.51173833  1
  O2-  O324  1  0.43594872  0.92919924  0.71604221  1
  O2-  O325  1  0.57127630  0.26841016  0.28912287  1
  O2-  O326  1  0.07457810  0.05063949  0.28982556  1
  O2-  O327  1  0.92868214  0.40345551  0.55140048  1
  O2-  O328  1  0.07099112  0.05321438  0.44493764  1
  O2-  O329  1  0.56453406  0.92907776  0.30776068  1
  O2-  O330  1  0.56564132  0.25829807  0.02506833  1
  O2-  O331  1  0.93584438  0.73581381  0.21537541  1
  O2-  O332  1  0.07213576  0.59818999  0.79364532  1
  O2-  O333  1  0.42083419  0.72160384  0.18358625  1
  O2-  O334  1  0.43278997  0.40973154  0.30393630  1
  O2-  O335  1  0.93431328  0.59023692  0.47173137  1
  O2-  O336  1  0.42464046  0.71321452  0.32726392  1
  O2-  O337  1  0.92242939  0.73107438  0.44911992  1
  O2-  O338  1  0.06293764  0.26307751  0.71558670  1
  O2-  O339  1  0.56770651  0.92408766  0.20175278  1
  O2-  O340  1  0.56655771  0.40595844  0.72545080  1
  O2-  O341  1  0.93560010  0.92967138  0.78387289  1
  O2-  O342  1  0.42401236  0.94410898  0.96636019  1
  O2-  O343  1  0.06624595  0.59211690  0.27842436  1
  O2-  O344  1  0.43545434  0.74020388  0.52633878  1
  O2-  O345  1  0.06387716  0.74103112  0.72269274  1
  O2-  O346  1  0.43736807  0.06734018  0.46708480  1
  O2-  O347  1  0.93329871  0.40653272  0.77849232  1
  O2-  O348  1  0.43650313  0.73599109  0.78180614  1
  O2-  O349  1  0.94458129  0.41880521  0.46371890  1
  O2-  O350  1  0.41911762  0.94821008  0.21547485  1
  O2-  O351  1  0.56436517  0.92676688  0.52647999  1
  O2-  O352  1  0.56635723  0.59374863  0.47518815  1
  O2-  O353  1  0.42994487  0.39259316  0.67681994  1
  O2-  O354  1  0.07345880  0.40290340  0.29619481  1
  O2-  O355  1  0.06509090  0.25958755  0.96513330  1
  O2-  O356  1  0.92362778  0.60322197  0.95226952  1
  O2-  O357  1  0.56515802  0.40824415  0.02522696  1
  O2-  O358  1  0.43583193  0.40361136  0.18797981  1
  O2-  O359  1  0.55658021  0.58602705  0.26932849  1
  O2-  O360  1  0.06532462  0.07409777  0.97307675  1
  O2-  O361  1  0.07353044  0.60098843  0.95601515  1
  O2-  O362  1  0.41927356  0.38792309  0.81030845  1
  O2-  O363  1  0.56689466  0.92501850  0.69655387  1
  O2-  O364  1  0.06234058  0.40625949  0.96756548  1
  O2-  O365  1  0.56386400  0.92943961  0.80780989  1
  O2-  O366  1  0.43771610  0.73331630  0.96803106  1
  O2-  O367  1  0.57339940  0.94660101  0.95761146  1
  O2-  O368  1  0.44453501  0.41634488  0.47611227  1
  O2-  O369  1  0.07696948  0.27233505  0.28343790  1
  O2-  O370  1  0.56443310  0.07502094  0.02491088  1
  O2-  O371  1  0.06370045  0.74241994  0.27782484  1
  O2-  O372  1  0.24986599  -0.00454105  0.84107423  1
  O2-  O373  1  0.75008483  0.33489322  0.40121663  1
  O2-  O374  1  0.24984109  0.66372751  0.41879373  1
  O2-  O375  1  0.24993350  0.67190649  0.59086843  1
  O2-  O376  1  0.24987013  0.00114924  0.15653983  1
  O2-  O377  1  0.75003529  0.66369495  0.42787883  1
  O2-  O378  1  0.75036996  -0.00313229  0.59908103  1
  O2-  O379  1  0.24937087  0.34544411  0.58531036  1
  O2-  O380  1  0.74999279  0.33563470  0.90536868  1
  O2-  O381  1  0.74989784  0.32963067  0.81406829  1
  O2-  O382  1  0.74991125  0.67571824  0.14695215  1
  O2-  O383  1  0.24980052  0.66851119  0.10567444  1
  O2-  O384  1  0.75028019  -0.00951547  0.88888058  1
  O2-  O385  1  0.24992800  0.67047265  0.32944176  1
  O2-  O386  1  0.74994042  -0.00149865  0.39902963  1
  O2-  O387  1  0.24967755  0.34432020  0.41453611  1
  O2-  O388  1  0.24960837  0.33372608  0.84581444  1
  O2-  O389  1  0.75014639  0.67657082  0.31823929  1
  O2-  O390  1  0.24997718  0.32983602  0.32594416  1
  O2-  O391  1  0.75019279  -0.00798832  0.11391576  1
  O2-  O392  1  0.74995547  0.33341171  0.65168698  1
  O2-  O393  1  0.24998225  0.67658187  0.89107949  1
  O2-  O394  1  0.75005392  0.66556425  0.65425963  1
  O2-  O395  1  0.24973798  0.32763484  0.67391794  1
  O2-  O396  1  0.25005825  0.16543295  0.32987893  1
  O2-  O397  1  0.24998501  0.16806748  0.91800968  1
  O2-  O398  1  0.74998484  0.82012225  0.61805469  1
  O2-  O399  1  0.75004672  0.16840627  0.69639471  1
  O2-  O400  1  0.24996305  0.50055169  0.34195782  1
  O2-  O401  1  0.74928787  0.17772508  0.34647234  1
  O2-  O402  1  0.75000963  0.49846404  0.14115244  1
  O2-  O403  1  0.24979304  0.49455872  0.66322087  1
  O2-  O404  1  0.24968775  0.50063352  0.90720587  1
  O2-  O405  1  0.24989866  0.83977478  0.66384077  1
  O2-  O406  1  0.24983348  0.17503422  0.58042700  1
  O2-  O407  1  0.75010738  0.82146028  0.36986483  1
  O2-  O408  1  0.74996412  0.50520333  0.61464118  1
  O2-  O409  1  0.24999055  0.83615906  0.09858238  1
  O2-  O410  1  0.24999040  0.50771602  0.81937609  1
  O2-  O411  1  0.74988401  0.14699979  0.61427801  1
  O2-  O412  1  0.25007511  0.17109483  0.09187737  1
  O2-  O413  1  0.24995787  0.16515446  0.66419984  1
  O2-  O414  1  0.24983581  0.82837569  0.18526047  1
  O2-  O415  1  0.75004601  0.16586793  0.84452904  1
  O2-  O416  1  0.74936750  0.16726950  0.09939075  1
  O2-  O417  1  0.75014032  0.49993089  0.80654362  1
  O2-  O418  1  0.75022672  0.49767290  0.89152940  1
  O2-  O419  1  0.74976616  0.13997366  0.41895371  1
  O2-  O420  1  0.03554668  0.67011636  0.38676683  1
  O2-  O421  1  0.47488975  0.00765261  0.87018724  1
  O2-  O422  1  0.02173349  0.33112352  0.38239688  1
  O2-  O423  1  0.52500885  0.33741786  0.13128570  1
  O2-  O424  1  0.97487411  0.33077583  0.87716000  1
  O2-  O425  1  0.97198174  -0.00314789  0.37436647  1
  O2-  O426  1  0.47212261  0.32303824  0.37875263  1
  O2-  O427  1  0.02507166  -0.00335357  0.87312581  1
  O2-  O428  1  0.52436419  0.67679918  0.37598433  1
  O2-  O429  1  0.96138715  0.67465336  0.86363254  1
  O2-  O430  1  0.47549034  0.66504197  0.63100688  1
  O2-  O431  1  0.47709904  0.65712695  0.11667124  1
  O2-  O432  1  0.96615418  0.66452443  0.36112316  1
  O2-  O433  1  0.46912243  0.00650748  0.11781201  1
  O2-  O434  1  0.97292400  -0.00062060  0.12306210  1
  O2-  O435  1  0.52585334  0.32945207  0.62333262  1
  O2-  O436  1  0.02513659  0.66698888  0.62110985  1
  O2-  O437  1  0.97623600  0.32512920  0.63141983  1
  O2-  O438  1  0.53144331  0.33974975  0.38402709  1
  O2-  O439  1  0.02868126  0.66921600  0.12487224  1
  O2-  O440  1  0.47979836  0.32831599  0.88437588  1
  O2-  O441  1  0.03473281  0.68353515  0.87598061  1
  O2-  O442  1  0.52201348  0.01067691  0.62362137  1
  O2-  O443  1  0.52736296  0.00228647  0.12088044  1
