# generated using pymatgen
data_La7(Ru4O11)2
_symmetry_space_group_name_H-M   'P 1'
_cell_length_a   23.98997101
_cell_length_b   16.82990321
_cell_length_c   15.42736878
_cell_angle_alpha   89.99954083
_cell_angle_beta   89.99978511
_cell_angle_gamma   90.00005578
_symmetry_Int_Tables_number   1
_chemical_formula_structural   La7(Ru4O11)2
_chemical_formula_sum   'La84 Ru96 O264'
_cell_volume   6228.78302219
_cell_formula_units_Z   12
loop_
 _symmetry_equiv_pos_site_id
 _symmetry_equiv_pos_as_xyz
  1  'x, y, z'
loop_
 _atom_type_symbol
 _atom_type_oxidation_number
  La3+  3.0
  Ru4+  4.0
  O2-  -2.0
loop_
 _atom_site_type_symbol
 _atom_site_label
 _atom_site_symmetry_multiplicity
 _atom_site_fract_x
 _atom_site_fract_y
 _atom_site_fract_z
 _atom_site_occupancy
  La3+  La0  1  0.14039126  -0.00155352  0.12301183  1
  La3+  La1  1  0.13746842  -0.00003235  0.37566579  1
  La3+  La2  1  0.13637354  0.00123221  0.62436945  1
  La3+  La3  1  0.14070665  0.00039350  0.87765145  1
  La3+  La4  1  0.14199702  0.33399274  0.12357516  1
  La3+  La5  1  0.14205627  0.33453480  0.37686231  1
  La3+  La6  1  0.13918530  0.33376840  0.62667195  1
  La3+  La7  1  0.13855240  0.33446834  0.87318892  1
  La3+  La8  1  0.14023126  0.66646975  0.12825615  1
  La3+  La9  1  0.13747473  0.66462073  0.37300561  1
  La3+  La10  1  0.13661243  0.66445112  0.62628222  1
  La3+  La11  1  0.13852159  0.66625429  0.87477811  1
  La3+  La12  1  0.63850209  0.00068704  0.12668775  1
  La3+  La13  1  0.64157978  0.00029563  0.37459727  1
  La3+  La14  1  0.64107361  0.00058010  0.62355225  1
  La3+  La15  1  0.63861616  0.00092042  0.87312191  1
  La3+  La16  1  0.63754502  0.33337358  0.12446373  1
  La3+  La17  1  0.63817807  0.33432422  0.37767743  1
  La3+  La18  1  0.63850370  0.33507189  0.62343456  1
  La3+  La19  1  0.63825629  0.33341663  0.87526059  1
  La3+  La20  1  0.63839819  0.66564540  0.12562590  1
  La3+  La21  1  0.63821623  0.66533942  0.37524741  1
  La3+  La22  1  0.63862171  0.66526085  0.62476318  1
  La3+  La23  1  0.63866996  0.66676399  0.87311679  1
  La3+  La24  1  0.36009321  -0.00199615  0.12066869  1
  La3+  La25  1  0.36346712  0.00054392  0.37387856  1
  La3+  La26  1  0.36296327  0.00139918  0.62606073  1
  La3+  La27  1  0.36067655  0.00040395  0.87919766  1
  La3+  La28  1  0.35969670  0.33505404  0.12412871  1
  La3+  La29  1  0.35777625  0.33433223  0.37643560  1
  La3+  La30  1  0.35998652  0.33326548  0.62485511  1
  La3+  La31  1  0.36132508  0.33378128  0.87403250  1
  La3+  La32  1  0.35914979  0.66586550  0.12678249  1
  La3+  La33  1  0.36082412  0.66497943  0.37301131  1
  La3+  La34  1  0.36115803  0.66469324  0.62623520  1
  La3+  La35  1  0.36099431  0.66457337  0.87450121  1
  La3+  La36  1  0.86203662  0.00028235  0.12682247  1
  La3+  La37  1  0.85948920  0.00211669  0.37602392  1
  La3+  La38  1  0.85953861  -0.00001063  0.62372878  1
  La3+  La39  1  0.86135763  -0.00101260  0.87290424  1
  La3+  La40  1  0.86659654  0.33596296  0.12046342  1
  La3+  La41  1  0.86233980  0.33406420  0.37538407  1
  La3+  La42  1  0.86149777  0.33432624  0.62348179  1
  La3+  La43  1  0.86594075  0.33621386  0.88001736  1
  La3+  La44  1  0.86254377  0.66578546  0.12538108  1
  La3+  La45  1  0.86211219  0.66539813  0.37600137  1
  La3+  La46  1  0.86284864  0.66528833  0.62379357  1
  La3+  La47  1  0.86357811  0.66620211  0.87482452  1
  La3+  La48  1  -0.00345560  0.50114684  0.11702936  1
  La3+  La49  1  -0.00129752  0.49750971  0.86539379  1
  La3+  La50  1  -0.00503597  0.16629222  0.86288794  1
  La3+  La51  1  0.00304931  0.83391691  0.36251639  1
  La3+  La52  1  -0.00004577  0.16727070  0.61468261  1
  La3+  La53  1  0.00511405  0.16848196  0.12148150  1
  La3+  La54  1  0.50034246  0.83205539  0.12070297  1
  La3+  La55  1  0.00278259  0.16816892  0.88182829  1
  La3+  La56  1  0.50080825  0.83346654  0.63585599  1
  La3+  La57  1  0.49974479  0.83445024  0.14320578  1
  La3+  La58  1  0.49717437  0.17142727  0.62000803  1
  La3+  La59  1  0.50173803  0.17186966  0.13188186  1
  La3+  La60  1  -0.00362498  0.82762043  0.38175305  1
  La3+  La61  1  0.50318475  0.17330717  0.36763861  1
  La3+  La62  1  0.49911374  0.83265536  0.38395639  1
  La3+  La63  1  0.49951688  0.50002556  0.86631938  1
  La3+  La64  1  0.50069057  0.83297581  0.88329973  1
  La3+  La65  1  0.50111214  0.16564551  0.63886327  1
  La3+  La66  1  0.49732193  0.16238639  0.11299009  1
  La3+  La67  1  0.50120546  0.49946812  0.61537596  1
  La3+  La68  1  -0.00290206  0.16864583  0.14036217  1
  La3+  La69  1  0.49568497  0.16829141  0.38596436  1
  La3+  La70  1  0.50025291  0.50116149  0.63281615  1
  La3+  La71  1  0.00141765  0.50427990  0.88633773  1
  La3+  La72  1  0.74999760  0.87653073  0.77397410  1
  La3+  La73  1  0.74988253  0.21774954  0.00550881  1
  La3+  La74  1  0.74983824  0.12767940  0.70689846  1
  La3+  La75  1  0.25026647  0.82432002  0.46893355  1
  La3+  La76  1  0.75011539  0.53117291  -0.02530428  1
  La3+  La77  1  0.75007846  0.86627156  0.45929988  1
  La3+  La78  1  0.24997253  0.16619420  0.75086810  1
  La3+  La79  1  0.24987069  0.83163103  0.23832050  1
  La3+  La80  1  0.25010331  0.83132791  0.78119829  1
  La3+  La81  1  0.24992878  0.20031851  0.25339189  1
  La3+  La82  1  0.74995640  0.83333649  -0.00803134  1
  La3+  La83  1  0.75008486  0.52830014  0.25098727  1
  Ru4+  Ru84  1  -0.00196681  -0.00765769  -0.00232905  1
  Ru4+  Ru85  1  0.00015207  -0.00128642  0.24664483  1
  Ru4+  Ru86  1  -0.00344666  0.00625352  0.50495599  1
  Ru4+  Ru87  1  -0.00105425  -0.00200487  0.74890929  1
  Ru4+  Ru88  1  0.00100544  0.34098091  0.00192928  1
  Ru4+  Ru89  1  -0.00159318  0.33746281  0.25070102  1
  Ru4+  Ru90  1  -0.00166731  0.33535400  0.49813446  1
  Ru4+  Ru91  1  -0.00174173  0.33911640  0.74927808  1
  Ru4+  Ru92  1  -0.00080547  0.66953417  0.00156110  1
  Ru4+  Ru93  1  0.00158205  0.66385669  0.24851969  1
  Ru4+  Ru94  1  0.00179830  0.66386157  0.50052459  1
  Ru4+  Ru95  1  -0.00180125  0.67159909  0.74850820  1
  Ru4+  Ru96  1  0.50216004  0.00585798  -0.00276287  1
  Ru4+  Ru97  1  0.50175304  -0.00602127  0.25369235  1
  Ru4+  Ru98  1  0.49741961  -0.00406732  0.49966086  1
  Ru4+  Ru99  1  0.49975348  -0.00028596  0.74871908  1
  Ru4+  Ru100  1  0.50038886  0.33774463  0.00042008  1
  Ru4+  Ru101  1  0.49934461  0.33239963  0.24891556  1
  Ru4+  Ru102  1  0.50023986  0.32626508  0.49918296  1
  Ru4+  Ru103  1  0.50207405  0.32885094  0.75090265  1
  Ru4+  Ru104  1  0.49866865  0.66365088  -0.00236888  1
  Ru4+  Ru105  1  0.50034211  0.66626342  0.25266809  1
  Ru4+  Ru106  1  0.50268382  0.67024981  0.49896236  1
  Ru4+  Ru107  1  0.50087013  0.66576379  0.74821738  1
  Ru4+  Ru108  1  0.11598068  0.16644859  0.00009216  1
  Ru4+  Ru109  1  0.11373812  0.16761244  0.25217396  1
  Ru4+  Ru110  1  0.11304829  0.16795827  0.49997045  1
  Ru4+  Ru111  1  0.11570913  0.16329149  0.74894984  1
  Ru4+  Ru112  1  0.11485085  0.49886197  0.00044156  1
  Ru4+  Ru113  1  0.11405581  0.49921860  0.25024761  1
  Ru4+  Ru114  1  0.11268016  0.50044989  0.50043110  1
  Ru4+  Ru115  1  0.11466572  0.49891040  0.74879826  1
  Ru4+  Ru116  1  0.11323331  0.83343281  -0.00087721  1
  Ru4+  Ru117  1  0.11219703  0.83203532  0.24885363  1
  Ru4+  Ru118  1  0.11597576  0.82867809  0.49971863  1
  Ru4+  Ru119  1  0.11082309  0.83180206  0.74892130  1
  Ru4+  Ru120  1  0.61167624  0.16567007  -0.00135947  1
  Ru4+  Ru121  1  0.61401013  0.16635583  0.25065422  1
  Ru4+  Ru122  1  0.61545062  0.16816236  0.50016062  1
  Ru4+  Ru123  1  0.61115331  0.16553562  0.74919121  1
  Ru4+  Ru124  1  0.61092442  0.49874706  0.00008395  1
  Ru4+  Ru125  1  0.61195255  0.50195763  0.25008011  1
  Ru4+  Ru126  1  0.61562044  0.50254338  0.49983701  1
  Ru4+  Ru127  1  0.61223691  0.50083987  0.74983287  1
  Ru4+  Ru128  1  0.61281811  0.83307599  -0.00043328  1
  Ru4+  Ru129  1  0.61179393  0.83339744  0.25029784  1
  Ru4+  Ru130  1  0.61282014  0.83417218  0.49985634  1
  Ru4+  Ru131  1  0.61180792  0.83438844  0.74884541  1
  Ru4+  Ru132  1  0.38587502  0.16407916  -0.00027748  1
  Ru4+  Ru133  1  0.38644283  0.16995028  0.24983105  1
  Ru4+  Ru134  1  0.38680072  0.16887305  0.49977418  1
  Ru4+  Ru135  1  0.38822556  0.16642504  0.75082367  1
  Ru4+  Ru136  1  0.38793806  0.49919156  0.00021832  1
  Ru4+  Ru137  1  0.38447979  0.50010374  0.25024652  1
  Ru4+  Ru138  1  0.38236755  0.49694821  0.49932776  1
  Ru4+  Ru139  1  0.38451739  0.50123494  0.75084475  1
  Ru4+  Ru140  1  0.38257655  0.83160918  -0.00064067  1
  Ru4+  Ru141  1  0.38771577  0.83299683  0.24985850  1
  Ru4+  Ru142  1  0.39006943  0.83329094  0.49987594  1
  Ru4+  Ru143  1  0.38879842  0.83388837  0.74992983  1
  Ru4+  Ru144  1  0.88248940  0.16497394  -0.00059414  1
  Ru4+  Ru145  1  0.88626596  0.16506036  0.25160700  1
  Ru4+  Ru146  1  0.88649146  0.16489665  0.50024729  1
  Ru4+  Ru147  1  0.88683430  0.16556605  0.74868124  1
  Ru4+  Ru148  1  0.88949670  0.50001871  -0.00040690  1
  Ru4+  Ru149  1  0.89009106  0.49992271  0.25046974  1
  Ru4+  Ru150  1  0.88813285  0.49771504  0.50067412  1
  Ru4+  Ru151  1  0.88740337  0.50087233  0.75075208  1
  Ru4+  Ru152  1  0.88955319  0.83528231  -0.00088526  1
  Ru4+  Ru153  1  0.88576307  0.83215996  0.24910022  1
  Ru4+  Ru154  1  0.88799161  0.83440487  0.50065323  1
  Ru4+  Ru155  1  0.89009376  0.83259376  0.75084708  1
  Ru4+  Ru156  1  0.75007471  0.72849445  0.75340231  1
  Ru4+  Ru157  1  0.25013575  0.09260616  0.49146499  1
  Ru4+  Ru158  1  0.75010222  0.39059536  0.25093821  1
  Ru4+  Ru159  1  0.25017098  0.57988170  0.00083596  1
  Ru4+  Ru160  1  0.74987036  0.39892876  0.00275633  1
  Ru4+  Ru161  1  0.25008418  0.71279935  0.73195669  1
  Ru4+  Ru162  1  0.25022796  0.71026518  0.50450031  1
  Ru4+  Ru163  1  0.75038166  0.24521741  0.50158905  1
  Ru4+  Ru164  1  0.74991652  0.42127544  0.75068069  1
  Ru4+  Ru165  1  0.75003409  0.72675241  0.50069244  1
  Ru4+  Ru166  1  0.74967172  0.91972430  0.25358848  1
  Ru4+  Ru167  1  0.25013191  0.25365677  0.00578489  1
  Ru4+  Ru168  1  0.25011878  0.06754427  0.24092793  1
  Ru4+  Ru169  1  0.24952662  0.57381957  0.49572853  1
  Ru4+  Ru170  1  0.24969563  0.75138682  0.00460924  1
  Ru4+  Ru171  1  0.25002370  0.95568470  0.76955647  1
  Ru4+  Ru172  1  0.75015182  0.95482858  0.00325997  1
  Ru4+  Ru173  1  0.25057647  0.93896096  0.50445536  1
  Ru4+  Ru174  1  0.74979707  0.27223417  0.75526536  1
  Ru4+  Ru175  1  0.75010202  0.25219352  0.25491952  1
  Ru4+  Ru176  1  0.74982262  0.07321818  -0.00154979  1
  Ru4+  Ru177  1  0.75019345  0.70997649  -0.01467502  1
  Ru4+  Ru178  1  0.74986826  0.57813596  0.75112617  1
  Ru4+  Ru179  1  0.74964530  0.74830523  0.25889799  1
  O2-  O180  1  0.16622842  0.08136625  0.00032660  1
  O2-  O181  1  0.16662225  0.08035020  0.24934762  1
  O2-  O182  1  0.16746108  0.07996766  0.50149120  1
  O2-  O183  1  0.16691672  0.07989996  0.74960990  1
  O2-  O184  1  0.16670680  0.41522138  -0.00175531  1
  O2-  O185  1  0.16778890  0.41656674  0.25006030  1
  O2-  O186  1  0.16749045  0.41622987  0.50042088  1
  O2-  O187  1  0.16769594  0.41410978  0.75114521  1
  O2-  O188  1  0.16908240  0.74805473  0.00018642  1
  O2-  O189  1  0.16875379  0.74857452  0.25109766  1
  O2-  O190  1  0.16641866  0.74477592  0.50110033  1
  O2-  O191  1  0.16688625  0.74536784  0.74940649  1
  O2-  O192  1  0.66790761  0.08023468  0.00017104  1
  O2-  O193  1  0.66670420  0.08137330  0.24969293  1
  O2-  O194  1  0.66744302  0.08278259  0.50043147  1
  O2-  O195  1  0.66549970  0.07975619  0.75032254  1
  O2-  O196  1  0.66594733  0.41318217  -0.00022674  1
  O2-  O197  1  0.66788168  0.41276732  0.24974542  1
  O2-  O198  1  0.66806605  0.41375063  0.49990554  1
  O2-  O199  1  0.66884785  0.41347228  0.75070651  1
  O2-  O200  1  0.66579077  0.74521778  -0.00041592  1
  O2-  O201  1  0.66779703  0.74648850  0.25040489  1
  O2-  O202  1  0.66784552  0.74648499  0.50003533  1
  O2-  O203  1  0.66767041  0.74642869  0.75117067  1
  O2-  O204  1  0.33238792  0.25203532  -0.00016766  1
  O2-  O205  1  0.33342333  0.25341412  0.24943207  1
  O2-  O206  1  0.33421587  0.25137003  0.50090574  1
  O2-  O207  1  0.33088236  0.25353005  0.75010288  1
  O2-  O208  1  0.33171795  0.58505313  0.00043094  1
  O2-  O209  1  0.33469270  0.58457964  0.25083586  1
  O2-  O210  1  0.33232546  0.58528474  0.49945019  1
  O2-  O211  1  0.33296320  0.58519234  0.74905075  1
  O2-  O212  1  0.33293239  0.91710744  0.00008534  1
  O2-  O213  1  0.33276912  0.91877576  0.25086291  1
  O2-  O214  1  0.33444308  0.92234030  0.50042572  1
  O2-  O215  1  0.33480847  0.92117106  0.74916324  1
  O2-  O216  1  0.83548624  0.25474308  -0.00021742  1
  O2-  O217  1  0.83186122  0.25271844  0.25030792  1
  O2-  O218  1  0.83180514  0.25352060  0.49977733  1
  O2-  O219  1  0.83290619  0.25384731  0.75047172  1
  O2-  O220  1  0.83456500  0.58747921  0.00004674  1
  O2-  O221  1  0.83383383  0.58712430  0.24997403  1
  O2-  O222  1  0.83322800  0.58537489  0.49975022  1
  O2-  O223  1  0.83258311  0.58552563  0.75007813  1
  O2-  O224  1  0.83338110  0.92102827  0.00075098  1
  O2-  O225  1  0.83231482  0.91864372  0.24933080  1
  O2-  O226  1  0.83426857  0.91929879  0.50062246  1
  O2-  O227  1  0.83530960  0.91919675  0.74856673  1
  O2-  O228  1  0.16824151  0.25217263  -0.00145517  1
  O2-  O229  1  0.16727399  0.25285206  0.24990000  1
  O2-  O230  1  0.16536067  0.25023424  0.50132109  1
  O2-  O231  1  0.16818581  0.25309757  0.75050217  1
  O2-  O232  1  0.16808869  0.58544360  -0.00030106  1
  O2-  O233  1  0.16644560  0.58338902  0.25075830  1
  O2-  O234  1  0.16717437  0.58499901  0.50020475  1
  O2-  O235  1  0.16596517  0.58581191  0.74945758  1
  O2-  O236  1  0.16545839  0.91739778  0.00086249  1
  O2-  O237  1  0.16725911  0.91867417  0.24990358  1
  O2-  O238  1  0.16679336  0.92164071  0.50240907  1
  O2-  O239  1  0.16490254  0.92124792  0.74984412  1
  O2-  O240  1  0.66376624  0.25443963  -0.00015673  1
  O2-  O241  1  0.66766723  0.25315440  0.24997197  1
  O2-  O242  1  0.66781495  0.25230417  0.49968121  1
  O2-  O243  1  0.66683604  0.25449918  0.75061658  1
  O2-  O244  1  0.66710259  0.58679295  0.00055196  1
  O2-  O245  1  0.66607406  0.58658404  0.25001462  1
  O2-  O246  1  0.66750059  0.58566429  0.49954017  1
  O2-  O247  1  0.66751429  0.58567630  0.75097631  1
  O2-  O248  1  0.66569626  0.92111070  -0.00017225  1
  O2-  O249  1  0.66728782  0.91928076  0.24942498  1
  O2-  O250  1  0.66523358  0.91888071  0.50049499  1
  O2-  O251  1  0.66564124  0.91986072  0.74956862  1
  O2-  O252  1  0.33275848  0.08273416  0.00067968  1
  O2-  O253  1  0.33194314  0.07950465  0.25100667  1
  O2-  O254  1  0.33256416  0.07943246  0.50075421  1
  O2-  O255  1  0.33357882  0.08038016  0.74918591  1
  O2-  O256  1  0.33389046  0.41535530  -0.00040737  1
  O2-  O257  1  0.33419123  0.41503499  0.24922328  1
  O2-  O258  1  0.33228117  0.41459061  0.50071492  1
  O2-  O259  1  0.33241191  0.41398850  0.74997359  1
  O2-  O260  1  0.33190764  0.74861539  0.00039014  1
  O2-  O261  1  0.33126660  0.74798257  0.25151492  1
  O2-  O262  1  0.33469973  0.74521638  0.49985879  1
  O2-  O263  1  0.33317034  0.74512007  0.74952919  1
  O2-  O264  1  0.83209640  0.08003809  0.00080960  1
  O2-  O265  1  0.83386757  0.08185640  0.24994346  1
  O2-  O266  1  0.83458229  0.08245738  0.49989172  1
  O2-  O267  1  0.83429186  0.08030111  0.74994799  1
  O2-  O268  1  0.83222773  0.41221118  -0.00018185  1
  O2-  O269  1  0.83207483  0.41349044  0.24979446  1
  O2-  O270  1  0.83231474  0.41426408  0.49967754  1
  O2-  O271  1  0.83178676  0.41367071  0.75035636  1
  O2-  O272  1  0.83509334  0.74555707  -0.00004600  1
  O2-  O273  1  0.83292051  0.74798405  0.25042443  1
  O2-  O274  1  0.83196434  0.74622968  0.50004790  1
  O2-  O275  1  0.83300342  0.74607035  0.75051641  1
  O2-  O276  1  0.95256221  0.43046076  0.75950231  1
  O2-  O277  1  0.45178535  0.76094588  0.01099352  1
  O2-  O278  1  0.44841547  0.24348816  0.77103476  1
  O2-  O279  1  0.95389490  0.10075027  0.26577024  1
  O2-  O280  1  0.04435349  0.56842956  0.73534635  1
  O2-  O281  1  0.04835026  0.09319114  0.98751263  1
  O2-  O282  1  0.53732129  0.55470233  0.99525321  1
  O2-  O283  1  0.94921966  0.43317614  0.51337449  1
  O2-  O284  1  0.04771889  0.23322361  0.72978097  1
  O2-  O285  1  0.54960506  0.90488917  0.01200501  1
  O2-  O286  1  0.95089724  0.23727211  0.73416329  1
  O2-  O287  1  0.46274870  0.11583662  0.25156331  1
  O2-  O288  1  0.95283130  0.23701902  0.98027457  1
  O2-  O289  1  0.45007487  0.56995206  0.01395780  1
  O2-  O290  1  0.95358054  0.56885282  0.26505532  1
  O2-  O291  1  0.95318924  0.76101198  0.26399768  1
  O2-  O292  1  0.04851494  0.23854153  0.76869294  1
  O2-  O293  1  0.95329642  0.23807927  0.01948343  1
  O2-  O294  1  0.02727951  0.45964355  0.23460029  1
  O2-  O295  1  0.54803885  0.76169317  0.01040853  1
  O2-  O296  1  0.54682280  0.43145128  0.51997830  1
  O2-  O297  1  0.04924502  0.42892071  0.01498424  1
  O2-  O298  1  0.45316321  0.42947380  0.98295084  1
  O2-  O299  1  0.54488781  0.90129379  0.48701840  1
  O2-  O300  1  0.04294881  0.89645378  0.51345941  1
  O2-  O301  1  0.45937034  0.10907339  0.26782432  1
  O2-  O302  1  0.45111234  0.90311018  0.01900735  1
  O2-  O303  1  0.95682290  0.10378661  0.02765999  1
  O2-  O304  1  0.95597621  0.43890003  0.98882562  1
  O2-  O305  1  0.04626225  0.57145137  0.01502166  1
  O2-  O306  1  0.94927772  0.42836956  0.01253028  1
  O2-  O307  1  0.95315831  0.76665012  0.76428972  1
  O2-  O308  1  0.46260505  0.55526592  0.47960293  1
  O2-  O309  1  0.54657088  0.23611270  0.01108228  1
  O2-  O310  1  0.54292971  0.43379906  0.48122175  1
  O2-  O311  1  0.94917100  0.90106771  0.51443285  1
  O2-  O312  1  0.45693550  0.56320046  0.50853121  1
  O2-  O313  1  0.55118769  0.09626963  0.26421520  1
  O2-  O314  1  0.54015816  0.44143512  0.22494377  1
  O2-  O315  1  0.95247349  0.09714410  0.73328651  1
  O2-  O316  1  0.53474427  0.11439752  0.50425820  1
  O2-  O317  1  0.45198283  0.90170582  0.97974714  1
  O2-  O318  1  0.96044707  0.89292894  0.21994460  1
  O2-  O319  1  0.03873014  0.44663371  0.50655058  1
  O2-  O320  1  0.53927815  0.10893596  0.52029558  1
  O2-  O321  1  0.04859740  0.09388154  0.76278460  1
  O2-  O322  1  0.54829242  0.42725828  0.01404217  1
  O2-  O323  1  0.04302837  0.89626570  0.51320359  1
  O2-  O324  1  0.43365341  0.40735831  0.54889288  1
  O2-  O325  1  0.43089518  0.60790573  0.56811418  1
  O2-  O326  1  0.43656396  0.73867234  0.80822471  1
  O2-  O327  1  0.43428954  0.60259047  0.44249179  1
  O2-  O328  1  0.43577800  0.26455698  0.03265427  1
  O2-  O329  1  0.06414591  0.73535482  0.96783172  1
  O2-  O330  1  0.56358062  0.93021201  0.71627343  1
  O2-  O331  1  0.56605705  0.73979216  0.44866525  1
  O2-  O332  1  0.92692668  0.06359724  0.95456279  1
  O2-  O333  1  0.43504512  0.07307566  0.97133119  1
  O2-  O334  1  0.06455958  0.26133773  0.20024818  1
  O2-  O335  1  0.43565103  0.40521270  0.80568962  1
  O2-  O336  1  0.43392952  0.40733696  0.69851238  1
  O2-  O337  1  0.06879878  0.39637565  0.31787686  1
  O2-  O338  1  0.44369146  0.25386872  0.77500142  1
  O2-  O339  1  0.93561933  0.73432989  0.46750449  1
  O2-  O340  1  0.43631668  0.40195604  0.44721973  1
  O2-  O341  1  0.43718820  0.59590588  0.78275612  1
  O2-  O342  1  0.06513495  0.40432949  0.72250695  1
  O2-  O343  1  0.93563879  0.40134544  0.28253078  1
  O2-  O344  1  0.41485810  0.04485510  0.20371842  1
  O2-  O345  1  0.06467116  0.73533930  0.71742590  1
  O2-  O346  1  0.58022614  0.04097539  0.44632549  1
  O2-  O347  1  0.06531233  0.06743977  0.19532916  1
  O2-  O348  1  0.06362487  0.73813566  0.21788839  1
  O2-  O349  1  0.07568587  0.39046165  0.53434457  1
  O2-  O350  1  0.56323959  0.40317257  0.71693064  1
  O2-  O351  1  0.43425239  0.07051035  0.47230111  1
  O2-  O352  1  0.06562805  0.74059841  0.47128188  1
  O2-  O353  1  0.07806656  0.93966193  0.45671583  1
  O2-  O354  1  0.43458725  0.73820356  0.22265367  1
  O2-  O355  1  0.56592906  0.74086209  0.55223608  1
  O2-  O356  1  0.56566552  0.07244240  0.97193027  1
  O2-  O357  1  0.93499375  0.26204933  0.22179965  1
  O2-  O358  1  0.56785231  0.39510955  0.29410551  1
  O2-  O359  1  0.07502672  0.38837902  0.18521006  1
  O2-  O360  1  0.43599706  0.73595247  0.69280398  1
  O2-  O361  1  0.06457824  0.26623620  0.03228239  1
  O2-  O362  1  0.93503558  0.92526232  0.97262814  1
  O2-  O363  1  0.56491182  0.73953677  0.72164070  1
  O2-  O364  1  0.92792077  0.93703012  0.29055515  1
  O2-  O365  1  0.06708061  0.07523814  0.29822517  1
  O2-  O366  1  0.57333570  0.61556031  0.95736481  1
  O2-  O367  1  0.93099783  0.39937549  0.96904543  1
  O2-  O368  1  0.06394744  0.59540343  0.21614685  1
  O2-  O369  1  0.06530800  0.59470672  0.47280903  1
  O2-  O370  1  0.06444377  0.07415554  0.47278836  1
  O2-  O371  1  0.06339833  0.26030111  0.30066699  1
  O2-  O372  1  0.24969924  0.01467828  0.58537000  1
  O2-  O373  1  0.74983135  0.65542446  0.08447130  1
  O2-  O374  1  0.25014074  0.66732263  0.92625156  1
  O2-  O375  1  0.24972323  0.01208992  0.67242551  1
  O2-  O376  1  0.74975705  0.66495730  0.17791924  1
  O2-  O377  1  0.75011807  0.00341632  0.32956931  1
  O2-  O378  1  0.24981467  -0.00165773  0.89945528  1
  O2-  O379  1  0.74979550  -0.00109765  0.59628519  1
  O2-  O380  1  0.25020976  0.33289952  0.40420922  1
  O2-  O381  1  0.74992697  0.32963047  0.90204654  1
  O2-  O382  1  0.25027414  0.66252546  0.39760945  1
  O2-  O383  1  0.75002847  0.66297648  0.65135962  1
  O2-  O384  1  0.25015082  0.66939853  0.14939490  1
  O2-  O385  1  0.74974904  -0.00033112  0.84734634  1
  O2-  O386  1  0.25010518  0.65732061  0.83230227  1
  O2-  O387  1  0.75006596  0.33657818  0.65183857  1
  O2-  O388  1  0.75011276  -0.00080505  0.42079088  1
  O2-  O389  1  0.75000441  0.32919673  0.09877820  1
  O2-  O390  1  0.74995191  -0.00140962  0.15619042  1
  O2-  O391  1  0.24989825  -0.00404208  0.15207089  1
  O2-  O392  1  0.24992023  0.66015380  0.60519997  1
  O2-  O393  1  0.25026652  0.33039441  0.09284058  1
  O2-  O394  1  0.24992814  0.00970044  0.41380169  1
  O2-  O395  1  0.25000132  -0.01165637  0.32557278  1
  O2-  O396  1  0.74992376  0.82754075  0.58134839  1
  O2-  O397  1  0.25004048  0.83151846  0.66222157  1
  O2-  O398  1  0.75019878  0.83188818  0.18764307  1
  O2-  O399  1  0.25005521  0.16671046  0.63466355  1
  O2-  O400  1  0.74996763  0.82600354  0.66440726  1
  O2-  O401  1  0.24987358  0.83563514  0.35610178  1
  O2-  O402  1  0.75000454  0.17154325  0.58242976  1
  O2-  O403  1  0.25010730  0.16706894  0.86708033  1
  O2-  O404  1  0.24999934  0.50106175  0.66666294  1
  O2-  O405  1  0.25000626  0.17696961  0.55665779  1
  O2-  O406  1  0.25001452  0.16569878  0.40705113  1
  O2-  O407  1  0.75013022  0.14933410  0.90327582  1
  O2-  O408  1  0.25005307  0.50157121  0.34512032  1
  O2-  O409  1  0.74989790  0.83343774  0.10852004  1
  O2-  O410  1  0.75000668  0.15391349  0.11173765  1
  O2-  O411  1  0.74991025  0.49639251  0.10985138  1
  O2-  O412  1  0.74996480  0.16121897  0.19618124  1
  O2-  O413  1  0.24995663  0.50118736  0.84482406  1
  O2-  O414  1  0.25002538  0.83306502  0.89836862  1
  O2-  O415  1  0.75007593  0.17820804  0.82500213  1
  O2-  O416  1  0.24989198  0.16182331  0.94760265  1
  O2-  O417  1  0.25004073  0.83471227  0.58711310  1
  O2-  O418  1  0.25007170  0.49823610  0.58237025  1
  O2-  O419  1  0.74993157  0.82443281  0.87632949  1
  O2-  O420  1  0.02711991  0.32747447  0.62642193  1
  O2-  O421  1  0.97348318  0.00125552  0.62484157  1
  O2-  O422  1  0.46527171  -0.00294855  0.11846372  1
  O2-  O423  1  0.52416898  0.65764635  0.62639359  1
  O2-  O424  1  0.53890822  0.00123440  0.12725687  1
  O2-  O425  1  0.97266622  0.66434331  0.87538002  1
  O2-  O426  1  0.02438529  0.66766264  0.36814955  1
  O2-  O427  1  0.97339409  0.33580277  0.12466408  1
  O2-  O428  1  0.52537326  0.66392087  0.36775185  1
  O2-  O429  1  0.97280080  0.00046188  0.12375906  1
  O2-  O430  1  0.46913494  -0.00222781  0.87028117  1
  O2-  O431  1  0.52756112  0.33071032  0.12680761  1
  O2-  O432  1  0.47330386  -0.00407963  0.37047975  1
  O2-  O433  1  0.53078490  -0.00359312  0.87152870  1
  O2-  O434  1  0.97169748  0.66576188  0.12271073  1
  O2-  O435  1  0.97236916  0.66591428  0.62388716  1
  O2-  O436  1  0.96861900  0.00310264  0.38222966  1
  O2-  O437  1  0.02579603  -0.00449377  0.37247319  1
  O2-  O438  1  0.47640444  0.32426580  0.62356385  1
  O2-  O439  1  0.97735754  -0.00113090  0.86682363  1
  O2-  O440  1  0.97411158  0.33038821  0.86955847  1
  O2-  O441  1  0.46974347  0.66398147  0.12500670  1
  O2-  O442  1  0.53342721  0.66552494  0.12824762  1
  O2-  O443  1  0.96824974  0.33240007  0.62458139  1
