# generated using pymatgen
data_La7(Ru4O11)2
_symmetry_space_group_name_H-M   'P 1'
_cell_length_a   23.98954730
_cell_length_b   16.82940643
_cell_length_c   15.42656188
_cell_angle_alpha   89.99885726
_cell_angle_beta   89.99954588
_cell_angle_gamma   89.99989958
_symmetry_Int_Tables_number   1
_chemical_formula_structural   La7(Ru4O11)2
_chemical_formula_sum   'La84 Ru96 O264'
_cell_volume   6228.16338238
_cell_formula_units_Z   12
loop_
 _symmetry_equiv_pos_site_id
 _symmetry_equiv_pos_as_xyz
  1  'x, y, z'
loop_
 _atom_type_symbol
 _atom_type_oxidation_number
  La3+  3.0
  Ru4+  4.0
  O2-  -2.0
loop_
 _atom_site_type_symbol
 _atom_site_label
 _atom_site_symmetry_multiplicity
 _atom_site_fract_x
 _atom_site_fract_y
 _atom_site_fract_z
 _atom_site_occupancy
  La3+  La0  1  0.13618061  -0.00402078  0.12991570  1
  La3+  La1  1  0.13258660  -0.00712515  0.37098318  1
  La3+  La2  1  0.14082295  -0.00072205  0.62136106  1
  La3+  La3  1  0.13876028  0.00162903  0.87474491  1
  La3+  La4  1  0.13632190  0.33253103  0.12239160  1
  La3+  La5  1  0.13610880  0.33221479  0.37603754  1
  La3+  La6  1  0.13925068  0.33153524  0.62736296  1
  La3+  La7  1  0.13751930  0.33230956  0.87438510  1
  La3+  La8  1  0.13953542  0.66765930  0.12681892  1
  La3+  La9  1  0.13958490  0.66871411  0.37523576  1
  La3+  La10  1  0.14009191  0.66744863  0.62530957  1
  La3+  La11  1  0.13899749  0.66576660  0.87314541  1
  La3+  La12  1  0.63684114  -0.00022651  0.12724068  1
  La3+  La13  1  0.64088049  -0.00003947  0.37780693  1
  La3+  La14  1  0.64169369  -0.00184150  0.62405206  1
  La3+  La15  1  0.64214006  -0.00022004  0.87085502  1
  La3+  La16  1  0.64157651  0.33314209  0.12685817  1
  La3+  La17  1  0.63656906  0.33446135  0.37342713  1
  La3+  La18  1  0.63909079  0.33343575  0.62744152  1
  La3+  La19  1  0.64309451  0.33331470  0.87031639  1
  La3+  La20  1  0.63962438  0.66785983  0.12573353  1
  La3+  La21  1  0.63913362  0.66633891  0.37823984  1
  La3+  La22  1  0.64077818  0.66796256  0.62594114  1
  La3+  La23  1  0.63903390  0.66714833  0.87470696  1
  La3+  La24  1  0.36072221  -0.00072906  0.12575103  1
  La3+  La25  1  0.36218650  -0.00195972  0.37818017  1
  La3+  La26  1  0.35924872  -0.00007133  0.62272625  1
  La3+  La27  1  0.36266263  0.00055448  0.87337303  1
  La3+  La28  1  0.36461916  0.33285699  0.12175776  1
  La3+  La29  1  0.36302153  0.33295475  0.37632264  1
  La3+  La30  1  0.35957932  0.33143428  0.62660342  1
  La3+  La31  1  0.36479251  0.33337006  0.87587089  1
  La3+  La32  1  0.36396037  0.66511798  0.12365998  1
  La3+  La33  1  0.36076439  0.66778395  0.37470722  1
  La3+  La34  1  0.36049276  0.66713636  0.62504854  1
  La3+  La35  1  0.36587926  0.66361280  0.87720549  1
  La3+  La36  1  0.86239485  -0.00016933  0.12572682  1
  La3+  La37  1  0.85921760  0.00060054  0.37893778  1
  La3+  La38  1  0.85774107  -0.00105473  0.62535777  1
  La3+  La39  1  0.85673598  -0.00426047  0.87088192  1
  La3+  La40  1  0.85807789  0.33344198  0.12583115  1
  La3+  La41  1  0.86066318  0.33357596  0.37371502  1
  La3+  La42  1  0.86209937  0.33428210  0.62818035  1
  La3+  La43  1  0.85820291  0.33524460  0.87256029  1
  La3+  La44  1  0.86060859  0.66664086  0.12524544  1
  La3+  La45  1  0.85928937  0.66818679  0.37456290  1
  La3+  La46  1  0.85940228  0.66816864  0.62581393  1
  La3+  La47  1  0.86206975  0.66713591  0.87363130  1
  La3+  La48  1  -0.00071059  0.16675073  0.88796354  1
  La3+  La49  1  0.49771363  0.49829858  0.11402295  1
  La3+  La50  1  -0.00162504  0.83336582  0.63150446  1
  La3+  La51  1  0.49942295  0.49843328  0.36590658  1
  La3+  La52  1  0.49726786  0.49959806  0.13090206  1
  La3+  La53  1  0.00035147  0.50021342  0.61802506  1
  La3+  La54  1  -0.00087053  0.83596132  0.88244471  1
  La3+  La55  1  0.49798422  0.49865211  0.61862070  1
  La3+  La56  1  -0.00174033  0.50321875  0.38614913  1
  La3+  La57  1  -0.00185925  0.83620356  0.86552838  1
  La3+  La58  1  0.50011473  0.16797008  0.61438209  1
  La3+  La59  1  0.50152789  0.83705170  0.38299883  1
  La3+  La60  1  0.49990248  0.50575366  0.87533388  1
  La3+  La61  1  0.50174060  0.50186741  0.89151269  1
  La3+  La62  1  0.00006167  0.16630726  0.36682785  1
  La3+  La63  1  -0.00160128  0.49942998  0.12780108  1
  La3+  La64  1  0.00253045  0.49741403  0.36579219  1
  La3+  La65  1  0.50074255  0.16798466  0.63695427  1
  La3+  La66  1  0.50020060  0.16758346  0.88533054  1
  La3+  La67  1  0.49671088  0.16508652  0.12550903  1
  La3+  La68  1  0.00409392  0.83681166  0.37715253  1
  La3+  La69  1  0.00010443  0.50029759  0.88488986  1
  La3+  La70  1  -0.00062234  0.83403788  0.13519166  1
  La3+  La71  1  0.49729909  0.83278194  0.62890810  1
  La3+  La72  1  0.74996696  0.83587543  0.51236196  1
  La3+  La73  1  0.24947842  0.50052346  0.03628530  1
  La3+  La74  1  0.74989790  0.16524900  0.73093465  1
  La3+  La75  1  0.25011632  0.16484549  -0.02404146  1
  La3+  La76  1  0.25005627  0.50603196  0.50090847  1
  La3+  La77  1  0.74997964  0.20215503  0.27295088  1
  La3+  La78  1  0.24993606  0.15843511  0.31703664  1
  La3+  La79  1  0.25017791  0.54333695  0.25138956  1
  La3+  La80  1  0.75012854  0.79867034  -0.00503366  1
  La3+  La81  1  0.25019319  0.16596595  0.73705899  1
  La3+  La82  1  0.74978216  0.83067880  0.19989861  1
  La3+  La83  1  0.75012426  0.20350242  -0.00080622  1
  Ru4+  Ru84  1  0.00046454  -0.00060910  0.00383232  1
  Ru4+  Ru85  1  -0.00221906  0.00012771  0.25135717  1
  Ru4+  Ru86  1  -0.00053303  -0.00018860  0.49791697  1
  Ru4+  Ru87  1  0.00161203  0.01005375  0.74459057  1
  Ru4+  Ru88  1  -0.00231169  0.33209502  0.00366105  1
  Ru4+  Ru89  1  -0.00012108  0.32915169  0.24695083  1
  Ru4+  Ru90  1  -0.00188655  0.32844003  0.50331188  1
  Ru4+  Ru91  1  0.00225942  0.32896347  0.74801706  1
  Ru4+  Ru92  1  -0.00012539  0.66809903  0.00094688  1
  Ru4+  Ru93  1  -0.00092406  0.66907706  0.24993279  1
  Ru4+  Ru94  1  0.00180391  0.66833150  0.50041804  1
  Ru4+  Ru95  1  -0.00222258  0.66393834  0.74753313  1
  Ru4+  Ru96  1  0.50175390  -0.00200661  -0.00320767  1
  Ru4+  Ru97  1  0.49986379  -0.00055735  0.25002230  1
  Ru4+  Ru98  1  0.49808184  -0.00099934  0.50390306  1
  Ru4+  Ru99  1  0.49480537  0.00002044  0.75528077  1
  Ru4+  Ru100  1  0.50188503  0.32400670  -0.00111326  1
  Ru4+  Ru101  1  0.49991017  0.33029961  0.25313274  1
  Ru4+  Ru102  1  0.50243036  0.33406925  0.49857124  1
  Ru4+  Ru103  1  0.49756344  0.33745648  0.74950164  1
  Ru4+  Ru104  1  0.50190884  0.66875753  0.00010570  1
  Ru4+  Ru105  1  0.49843468  0.67193267  0.24897036  1
  Ru4+  Ru106  1  0.49830483  0.67078668  0.49862129  1
  Ru4+  Ru107  1  0.49980756  0.66609784  0.75051343  1
  Ru4+  Ru108  1  0.11078825  0.16599331  -0.00048985  1
  Ru4+  Ru109  1  0.10960320  0.16562083  0.25109538  1
  Ru4+  Ru110  1  0.11247740  0.16437707  0.49903704  1
  Ru4+  Ru111  1  0.11088936  0.16653480  0.75010593  1
  Ru4+  Ru112  1  0.10995441  0.50024896  0.00067347  1
  Ru4+  Ru113  1  0.11263430  0.50041365  0.24886792  1
  Ru4+  Ru114  1  0.11079080  0.50329493  0.50095134  1
  Ru4+  Ru115  1  0.11316845  0.50064733  0.74972220  1
  Ru4+  Ru116  1  0.11336060  0.83247811  0.00253030  1
  Ru4+  Ru117  1  0.11270796  0.83628833  0.24863982  1
  Ru4+  Ru118  1  0.11335107  0.83549623  0.50004405  1
  Ru4+  Ru119  1  0.11428939  0.83385859  0.74980000  1
  Ru4+  Ru120  1  0.61162812  0.16987157  0.00002835  1
  Ru4+  Ru121  1  0.60870041  0.16807136  0.24962471  1
  Ru4+  Ru122  1  0.61474473  0.16473811  0.49931172  1
  Ru4+  Ru123  1  0.61545513  0.16442329  0.75026228  1
  Ru4+  Ru124  1  0.61353306  0.50307228  0.00015854  1
  Ru4+  Ru125  1  0.61491464  0.49660748  0.24951185  1
  Ru4+  Ru126  1  0.61519401  0.49680126  0.50047789  1
  Ru4+  Ru127  1  0.61358453  0.49816779  0.74967928  1
  Ru4+  Ru128  1  0.60661025  0.83370177  -0.00018987  1
  Ru4+  Ru129  1  0.61035507  0.83221091  0.24873849  1
  Ru4+  Ru130  1  0.61165471  0.83399982  0.49971316  1
  Ru4+  Ru131  1  0.61593607  0.83250968  0.75286399  1
  Ru4+  Ru132  1  0.38935850  0.16665398  0.00005933  1
  Ru4+  Ru133  1  0.38953336  0.16536840  0.24913490  1
  Ru4+  Ru134  1  0.38662098  0.16467597  0.50008584  1
  Ru4+  Ru135  1  0.38812926  0.16624657  0.75015331  1
  Ru4+  Ru136  1  0.38521061  0.50478274  0.00092910  1
  Ru4+  Ru137  1  0.39039845  0.50075759  0.24911085  1
  Ru4+  Ru138  1  0.39046107  0.50065526  0.50073313  1
  Ru4+  Ru139  1  0.38681052  0.50229546  0.75007303  1
  Ru4+  Ru140  1  0.38653896  0.83154729  0.00105054  1
  Ru4+  Ru141  1  0.38849508  0.83482297  0.24942912  1
  Ru4+  Ru142  1  0.38456423  0.83451097  0.50026871  1
  Ru4+  Ru143  1  0.38759062  0.83453672  0.75062916  1
  Ru4+  Ru144  1  0.88892186  0.17079168  0.00084331  1
  Ru4+  Ru145  1  0.88956861  0.16521014  0.24974793  1
  Ru4+  Ru146  1  0.88931177  0.16539521  0.49932535  1
  Ru4+  Ru147  1  0.88788712  0.16310587  0.74936569  1
  Ru4+  Ru148  1  0.88764198  0.50030698  -0.00002054  1
  Ru4+  Ru149  1  0.88431295  0.49621012  0.24858173  1
  Ru4+  Ru150  1  0.88543537  0.49813933  0.50112809  1
  Ru4+  Ru151  1  0.88355709  0.50263551  0.75031463  1
  Ru4+  Ru152  1  0.89081022  0.83328433  -0.00001198  1
  Ru4+  Ru153  1  0.88852318  0.83454251  0.24981341  1
  Ru4+  Ru154  1  0.88839405  0.83335676  0.50021124  1
  Ru4+  Ru155  1  0.88163910  0.82970712  0.74936143  1
  Ru4+  Ru156  1  0.74978508  0.58197246  0.75122648  1
  Ru4+  Ru157  1  0.75024438  0.58431557  -0.00168242  1
  Ru4+  Ru158  1  0.24987479  0.37210846  0.51742990  1
  Ru4+  Ru159  1  0.25014958  0.75764856  -0.00307479  1
  Ru4+  Ru160  1  0.25037036  0.75071597  0.74728990  1
  Ru4+  Ru161  1  0.74983763  0.57724143  0.25831550  1
  Ru4+  Ru162  1  0.75052772  0.58006335  0.49508498  1
  Ru4+  Ru163  1  0.25001925  0.03784305  0.26128549  1
  Ru4+  Ru164  1  0.74989197  0.06596301  -0.00561606  1
  Ru4+  Ru165  1  0.24929675  0.62767842  -0.00803661  1
  Ru4+  Ru166  1  0.25007791  0.91368891  -0.00450360  1
  Ru4+  Ru167  1  0.25015862  0.23807284  0.50583846  1
  Ru4+  Ru168  1  0.25038786  0.41166177  0.26319879  1
  Ru4+  Ru169  1  0.25041683  0.91386643  0.74919899  1
  Ru4+  Ru170  1  0.75012593  0.06407585  0.23886916  1
  Ru4+  Ru171  1  0.75023274  0.93473513  -0.00319661  1
  Ru4+  Ru172  1  0.75013472  0.41891000  0.49765653  1
  Ru4+  Ru173  1  0.25041301  0.41884395  0.75193854  1
  Ru4+  Ru174  1  0.25012475  0.75171206  0.24933692  1
  Ru4+  Ru175  1  0.24954549  0.38302159  -0.03118845  1
  Ru4+  Ru176  1  0.74993502  0.24173960  0.50163956  1
  Ru4+  Ru177  1  0.75000418  0.41097825  0.00063339  1
  Ru4+  Ru178  1  0.24979204  0.27769027  0.25930722  1
  Ru4+  Ru179  1  0.25024074  0.63827794  0.49969114  1
  O2-  O180  1  0.16685116  0.08085835  -0.00099328  1
  O2-  O181  1  0.16623202  0.07779780  0.25205606  1
  O2-  O182  1  0.16614078  0.08156954  0.49787081  1
  O2-  O183  1  0.16700443  0.07923054  0.75052161  1
  O2-  O184  1  0.16789831  0.41102474  -0.00105286  1
  O2-  O185  1  0.16618651  0.41290684  0.25080539  1
  O2-  O186  1  0.16562753  0.41021999  0.50049328  1
  O2-  O187  1  0.16806203  0.41497733  0.75097385  1
  O2-  O188  1  0.16743335  0.74760367  -0.00070747  1
  O2-  O189  1  0.16562252  0.74863338  0.25080160  1
  O2-  O190  1  0.16570533  0.74726447  0.49905603  1
  O2-  O191  1  0.16755476  0.74787817  0.75125705  1
  O2-  O192  1  0.66594715  0.08091516  0.00056994  1
  O2-  O193  1  0.66756902  0.07984504  0.24950379  1
  O2-  O194  1  0.66646878  0.08266919  0.50008112  1
  O2-  O195  1  0.66570303  0.08159403  0.74925872  1
  O2-  O196  1  0.66787486  0.41353742  0.00047815  1
  O2-  O197  1  0.66635807  0.41542827  0.25237626  1
  O2-  O198  1  0.66839309  0.41405368  0.49914581  1
  O2-  O199  1  0.66476451  0.41601700  0.74797685  1
  O2-  O200  1  0.66603896  0.74668174  0.00036251  1
  O2-  O201  1  0.66702733  0.74797063  0.24909176  1
  O2-  O202  1  0.66785219  0.74748623  0.49898695  1
  O2-  O203  1  0.66800331  0.74954269  0.75106112  1
  O2-  O204  1  0.33349494  0.25412000  -0.00089444  1
  O2-  O205  1  0.33519553  0.25505938  0.25103202  1
  O2-  O206  1  0.33276214  0.25202617  0.49873688  1
  O2-  O207  1  0.33454171  0.25371163  0.75146517  1
  O2-  O208  1  0.33273767  0.58895765  0.00092004  1
  O2-  O209  1  0.33450406  0.58795045  0.24908986  1
  O2-  O210  1  0.33142957  0.58833486  0.49910691  1
  O2-  O211  1  0.33457678  0.58420178  0.75120224  1
  O2-  O212  1  0.33163464  0.91877104  -0.00060342  1
  O2-  O213  1  0.33357647  0.91858183  0.25132964  1
  O2-  O214  1  0.33243935  0.91796935  0.49876860  1
  O2-  O215  1  0.33104937  0.91866292  0.75049226  1
  O2-  O216  1  0.83479409  0.25296665  -0.00099927  1
  O2-  O217  1  0.83679788  0.25318622  0.25122659  1
  O2-  O218  1  0.83370987  0.25398953  0.50046471  1
  O2-  O219  1  0.83352546  0.25124511  0.74727335  1
  O2-  O220  1  0.83335611  0.58659076  -0.00020031  1
  O2-  O221  1  0.83384021  0.58606619  0.24917081  1
  O2-  O222  1  0.83136922  0.58588946  0.49894726  1
  O2-  O223  1  0.83361015  0.58517025  0.75101629  1
  O2-  O224  1  0.83279229  0.91953146  0.00158159  1
  O2-  O225  1  0.83207800  0.91840689  0.24734899  1
  O2-  O226  1  0.83425097  0.91739822  0.49953348  1
  O2-  O227  1  0.83371593  0.91574756  0.74956256  1
  O2-  O228  1  0.16664133  0.25385517  -0.00116386  1
  O2-  O229  1  0.16542343  0.25553627  0.25059206  1
  O2-  O230  1  0.16721154  0.25166166  0.50079794  1
  O2-  O231  1  0.16566301  0.25416482  0.75123595  1
  O2-  O232  1  0.16554817  0.58804532  -0.00047409  1
  O2-  O233  1  0.16454511  0.58680730  0.25061615  1
  O2-  O234  1  0.16698917  0.58778596  0.50021616  1
  O2-  O235  1  0.16628813  0.58505791  0.75054675  1
  O2-  O236  1  0.16713747  0.91844279  -0.00070736  1
  O2-  O237  1  0.16884430  0.91803427  0.25288683  1
  O2-  O238  1  0.16762894  0.91938328  0.49685808  1
  O2-  O239  1  0.16728314  0.91848114  0.75021585  1
  O2-  O240  1  0.66596840  0.25409449  0.00059326  1
  O2-  O241  1  0.66416470  0.25448587  0.25154401  1
  O2-  O242  1  0.66698354  0.25286599  0.49874932  1
  O2-  O243  1  0.66671237  0.25192976  0.74733015  1
  O2-  O244  1  0.66711177  0.58561500  0.00028458  1
  O2-  O245  1  0.66584401  0.58654229  0.25003142  1
  O2-  O246  1  0.66880512  0.58442506  0.49843881  1
  O2-  O247  1  0.66644784  0.58632495  0.75064589  1
  O2-  O248  1  0.66643413  0.91892115  0.00048746  1
  O2-  O249  1  0.66755074  0.91833866  0.24765911  1
  O2-  O250  1  0.66701159  0.91864914  0.49956864  1
  O2-  O251  1  0.66656342  0.91630897  0.74986677  1
  O2-  O252  1  0.33307185  0.07963111  -0.00057880  1
  O2-  O253  1  0.33251029  0.07873712  0.25156625  1
  O2-  O254  1  0.33197026  0.08192662  0.49780239  1
  O2-  O255  1  0.33181878  0.07962576  0.75007636  1
  O2-  O256  1  0.33303513  0.41184261  -0.00045072  1
  O2-  O257  1  0.33437206  0.41232854  0.25032279  1
  O2-  O258  1  0.33515810  0.41175882  0.49888707  1
  O2-  O259  1  0.32974317  0.41465800  0.75173769  1
  O2-  O260  1  0.33424092  0.74796259  -0.00042353  1
  O2-  O261  1  0.33357837  0.74751753  0.25020002  1
  O2-  O262  1  0.33366531  0.74709898  0.49941176  1
  O2-  O263  1  0.33313663  0.74825558  0.75119834  1
  O2-  O264  1  0.83207195  0.08040188  0.00142187  1
  O2-  O265  1  0.83248466  0.07949110  0.24923249  1
  O2-  O266  1  0.83451766  0.08418470  0.50041102  1
  O2-  O267  1  0.83204386  0.08369804  0.74868189  1
  O2-  O268  1  0.83266682  0.41384122  0.00002618  1
  O2-  O269  1  0.83296550  0.41526124  0.25218819  1
  O2-  O270  1  0.83307276  0.41374286  0.49925221  1
  O2-  O271  1  0.83372134  0.41517738  0.74843143  1
  O2-  O272  1  0.83361278  0.74441347  -0.00070021  1
  O2-  O273  1  0.83272195  0.74824118  0.24811336  1
  O2-  O274  1  0.83297572  0.74675624  0.49947719  1
  O2-  O275  1  0.83208860  0.74806604  0.75248566  1
  O2-  O276  1  0.05470664  0.91171478  0.52268776  1
  O2-  O277  1  0.54761944  0.23535586  0.76604942  1
  O2-  O278  1  0.54470511  0.56874001  0.23621624  1
  O2-  O279  1  0.95432832  0.76518146  0.48773366  1
  O2-  O280  1  0.95391391  0.90108464  0.76318707  1
  O2-  O281  1  0.55555758  0.25172024  0.04997549  1
  O2-  O282  1  0.54844512  0.76369725  0.23499369  1
  O2-  O283  1  0.95182819  0.76767262  0.26351061  1
  O2-  O284  1  0.54788802  0.43291207  0.01565328  1
  O2-  O285  1  0.45535380  0.90409537  0.23505204  1
  O2-  O286  1  0.55398806  0.91568466  0.71624299  1
  O2-  O287  1  0.53910493  0.56016351  0.46495107  1
  O2-  O288  1  0.45092691  0.57560337  0.98772964  1
  O2-  O289  1  0.04763771  0.57231363  0.23320272  1
  O2-  O290  1  0.95399722  0.43448808  0.73100973  1
  O2-  O291  1  0.54527564  0.09777360  0.76358579  1
  O2-  O292  1  0.04526957  0.89717230  0.24354988  1
  O2-  O293  1  0.05284740  0.09882358  0.76205059  1
  O2-  O294  1  0.96818174  0.11787497  0.76979499  1
  O2-  O295  1  0.54505161  0.76071940  0.01629319  1
  O2-  O296  1  0.45341651  0.42705043  0.98634283  1
  O2-  O297  1  0.53406909  0.78004450  0.75981929  1
  O2-  O298  1  0.53366822  0.55101460  0.50173882  1
  O2-  O299  1  0.95457926  0.23263656  0.50131324  1
  O2-  O300  1  0.95134992  0.56808346  0.26156530  1
  O2-  O301  1  0.04656118  0.09878446  0.48430810  1
  O2-  O302  1  0.04904347  0.76158229  0.23436784  1
  O2-  O303  1  0.04475326  0.56601390  0.73847636  1
  O2-  O304  1  0.54484906  0.09296593  0.01205985  1
  O2-  O305  1  0.04802789  0.23628443  0.98798971  1
  O2-  O306  1  0.46233896  0.44638459  0.77725156  1
  O2-  O307  1  0.95393230  0.43495732  0.77048690  1
  O2-  O308  1  0.04589911  0.42864348  0.23401946  1
  O2-  O309  1  0.04640067  0.91215098  0.26726881  1
  O2-  O310  1  0.55659319  0.91660367  0.52422548  1
  O2-  O311  1  0.54720778  0.90390472  0.98606962  1
  O2-  O312  1  0.96082592  0.10572743  0.02955737  1
  O2-  O313  1  0.04686646  0.90561769  0.73598818  1
  O2-  O314  1  0.95930335  0.23212362  0.72151180  1
  O2-  O315  1  0.04540858  0.76380065  0.76540857  1
  O2-  O316  1  0.54582084  0.23459605  0.25067693  1
  O2-  O317  1  0.95308406  0.90441792  0.48494930  1
  O2-  O318  1  0.04577761  0.42925595  0.49144088  1
  O2-  O319  1  0.95346731  0.23524837  0.49228948  1
  O2-  O320  1  0.54468809  0.23264337  0.24603855  1
  O2-  O321  1  0.46021428  0.56542363  0.00953558  1
  O2-  O322  1  0.45216205  0.76172262  0.26712196  1
  O2-  O323  1  0.45412234  0.76442408  0.48608801  1
  O2-  O324  1  0.43561651  0.06948903  0.21607628  1
  O2-  O325  1  0.43539754  0.92937506  0.04906466  1
  O2-  O326  1  0.56604518  0.40880016  0.47203419  1
  O2-  O327  1  0.57606627  0.72429623  0.78250970  1
  O2-  O328  1  0.93625265  0.40118198  0.31741703  1
  O2-  O329  1  0.43540516  0.07561421  0.77788217  1
  O2-  O330  1  0.43565214  0.07649700  0.52800397  1
  O2-  O331  1  0.56706991  0.93454237  0.80372570  1
  O2-  O332  1  0.58473400  0.61535481  0.55244250  1
  O2-  O333  1  0.06721623  0.93707149  0.21860375  1
  O2-  O334  1  0.43429741  0.92356959  0.77733079  1
  O2-  O335  1  0.56293091  0.40463333  0.21468621  1
  O2-  O336  1  0.43483858  0.40818904  0.97055460  1
  O2-  O337  1  0.92189908  0.06332952  0.81053530  1
  O2-  O338  1  0.43479433  0.59323043  0.52685344  1
  O2-  O339  1  0.06339924  0.40268766  0.03177541  1
  O2-  O340  1  0.56382266  0.07192727  0.56426795  1
  O2-  O341  1  0.56939284  0.27446102  0.92144255  1
  O2-  O342  1  0.56484609  0.25723363  0.52927475  1
  O2-  O343  1  0.92926351  0.26606877  0.79022995  1
  O2-  O344  1  0.56593760  0.07591925  0.44593570  1
  O2-  O345  1  0.93258294  0.41097120  0.19080045  1
  O2-  O346  1  0.93620154  0.92037232  0.78119584  1
  O2-  O347  1  0.93032777  0.59079925  0.44347618  1
  O2-  O348  1  0.55202938  0.91034305  0.52136012  1
  O2-  O349  1  0.43502907  0.92659825  0.47070471  1
  O2-  O350  1  0.93443671  0.74113652  0.72461275  1
  O2-  O351  1  0.06340746  0.73656911  0.06505944  1
  O2-  O352  1  0.55427475  0.91606467  0.71646065  1
  O2-  O353  1  0.56115497  0.26411736  0.77693357  1
  O2-  O354  1  0.05537917  0.92083130  0.52521150  1
  O2-  O355  1  0.43760388  0.59690330  0.28357249  1
  O2-  O356  1  0.06689366  0.92052285  0.94298849  1
  O2-  O357  1  0.54796269  0.24080576  0.04296027  1
  O2-  O358  1  0.56312292  0.06728555  0.21559082  1
  O2-  O359  1  0.43364344  0.60225163  0.03667865  1
  O2-  O360  1  0.56262364  0.73704928  0.46399025  1
  O2-  O361  1  0.43385928  0.92562276  0.95739969  1
  O2-  O362  1  0.93155480  0.58836111  0.55714303  1
  O2-  O363  1  0.93148498  0.05705630  0.67421047  1
  O2-  O364  1  0.93756920  0.06839537  0.18774369  1
  O2-  O365  1  0.93804452  0.06789485  0.31115316  1
  O2-  O366  1  0.93367028  0.26102415  0.02566707  1
  O2-  O367  1  0.92882306  0.06799549  0.96355312  1
  O2-  O368  1  0.93725999  0.06725348  0.46715182  1
  O2-  O369  1  0.42739856  0.38778438  0.69215464  1
  O2-  O370  1  0.06302040  0.73720272  0.93402564  1
  O2-  O371  1  0.06257823  0.93181109  0.06378414  1
  O2-  O372  1  0.75001326  0.33351293  0.59277470  1
  O2-  O373  1  0.24976574  0.33798840  0.65647912  1
  O2-  O374  1  0.25014341  0.66522612  0.34469408  1
  O2-  O375  1  0.74984501  0.00025734  0.42080032  1
  O2-  O376  1  0.74972954  -0.00141721  0.58154694  1
  O2-  O377  1  0.74977473  0.66495178  0.34527373  1
  O2-  O378  1  0.24983081  -0.00194555  0.58239030  1
  O2-  O379  1  0.25011808  0.34391089  0.15740167  1
  O2-  O380  1  0.24999018  0.00514833  0.07122090  1
  O2-  O381  1  0.25007944  0.66518476  0.15612202  1
  O2-  O382  1  0.74969166  0.33286218  0.14780773  1
  O2-  O383  1  0.75002160  -0.00751849  0.33126455  1
  O2-  O384  1  0.74995226  0.66986140  0.17265974  1
  O2-  O385  1  0.75046870  0.33456327  0.85373610  1
  O2-  O386  1  0.74949226  -0.00108646  0.85604553  1
  O2-  O387  1  0.75006274  0.67159576  0.07769541  1
  O2-  O388  1  0.25009841  0.32597704  0.39703931  1
  O2-  O389  1  0.75002987  0.66850837  0.67043126  1
  O2-  O390  1  0.74998282  0.00092363  0.66895932  1
  O2-  O391  1  0.24981008  -0.01674221  0.15803876  1
  O2-  O392  1  0.74988633  0.66904201  0.57792993  1
  O2-  O393  1  0.25008159  0.31557102  0.07145551  1
  O2-  O394  1  0.24977011  0.00288191  0.67162065  1
  O2-  O395  1  0.24987297  0.66713537  0.65655676  1
  O2-  O396  1  0.75018075  0.49709277  0.66957343  1
  O2-  O397  1  0.24995113  0.83461802  0.17224539  1
  O2-  O398  1  0.24993411  0.16684351  0.85907670  1
  O2-  O399  1  0.74996599  0.50040720  0.08072440  1
  O2-  O400  1  0.74992205  0.17013276  0.58599069  1
  O2-  O401  1  0.24993885  0.83270421  0.66824676  1
  O2-  O402  1  0.24997452  0.83307894  0.58273428  1
  O2-  O403  1  0.74957200  0.83297225  0.62657862  1
  O2-  O404  1  0.25003125  0.49359297  0.88662592  1
  O2-  O405  1  0.75010997  0.49838438  0.16904797  1
  O2-  O406  1  0.75003782  0.50319522  0.34188084  1
  O2-  O407  1  0.25019332  0.16745490  0.17498660  1
  O2-  O408  1  0.74999374  0.16435632  0.86473671  1
  O2-  O409  1  0.75000651  0.15547888  0.13932213  1
  O2-  O410  1  0.74991172  0.83212644  0.39633456  1
  O2-  O411  1  0.24998824  0.83320955  0.08274141  1
  O2-  O412  1  0.24994656  0.16677079  0.09312646  1
  O2-  O413  1  0.74998361  0.16928328  0.41289653  1
  O2-  O414  1  0.74984563  0.49995193  0.91875676  1
  O2-  O415  1  0.75005187  0.49744916  0.82913882  1
  O2-  O416  1  0.25001067  0.17126860  0.61018394  1
  O2-  O417  1  0.75030531  0.83319527  0.70522005  1
  O2-  O418  1  0.75025382  0.83483087  0.31808376  1
  O2-  O419  1  0.75004775  0.50060829  0.58015446  1
  O2-  O420  1  0.03386281  0.00743143  0.86718942  1
  O2-  O421  1  0.97270152  -0.01084362  0.88538528  1
  O2-  O422  1  0.96753497  0.66896822  0.62780742  1
  O2-  O423  1  0.47943373  0.00817752  0.87817378  1
  O2-  O424  1  0.04336985  0.66713117  0.37712845  1
  O2-  O425  1  0.97443220  0.33847107  0.62376659  1
  O2-  O426  1  0.47296654  -0.00146668  0.62815942  1
  O2-  O427  1  0.52409086  0.33174671  0.37219563  1
  O2-  O428  1  0.97193283  0.66508665  0.87554804  1
  O2-  O429  1  0.53705515  0.67148501  0.63408976  1
  O2-  O430  1  0.53820645  0.65706439  0.88321801  1
  O2-  O431  1  0.47013101  0.00268352  0.37048458  1
  O2-  O432  1  0.47053522  0.33564850  0.12595254  1
  O2-  O433  1  0.45744489  0.66920025  0.86813139  1
  O2-  O434  1  0.04153067  0.66838824  0.62187432  1
  O2-  O435  1  0.46101325  0.67020604  0.63425962  1
  O2-  O436  1  0.97928653  0.33116093  0.12370651  1
  O2-  O437  1  0.97177853  0.66577160  0.12414613  1
  O2-  O438  1  0.52941140  -0.00874122  0.36667384  1
  O2-  O439  1  0.47311178  0.32698160  0.86989617  1
  O2-  O440  1  0.97692057  0.33755376  0.88156331  1
  O2-  O441  1  0.52528020  0.33749200  0.62922808  1
  O2-  O442  1  0.02880003  0.33025515  0.37337921  1
  O2-  O443  1  0.96360854  0.67238207  0.36768834  1
