# generated using pymatgen
data_La7(Ru4O11)2
_symmetry_space_group_name_H-M   'P 1'
_cell_length_a   23.99035003
_cell_length_b   16.83027086
_cell_length_c   15.42627578
_cell_angle_alpha   90.00011215
_cell_angle_beta   89.99820040
_cell_angle_gamma   90.00080558
_symmetry_Int_Tables_number   1
_chemical_formula_structural   La7(Ru4O11)2
_chemical_formula_sum   'La84 Ru96 O264'
_cell_volume   6228.57618506
_cell_formula_units_Z   12
loop_
 _symmetry_equiv_pos_site_id
 _symmetry_equiv_pos_as_xyz
  1  'x, y, z'
loop_
 _atom_type_symbol
 _atom_type_oxidation_number
  La3+  3.0
  Ru4+  4.0
  O2-  -2.0
loop_
 _atom_site_type_symbol
 _atom_site_label
 _atom_site_symmetry_multiplicity
 _atom_site_fract_x
 _atom_site_fract_y
 _atom_site_fract_z
 _atom_site_occupancy
  La3+  La0  1  0.13946301  -0.00058884  0.12488682  1
  La3+  La1  1  0.13873665  -0.00249691  0.37162896  1
  La3+  La2  1  0.13901455  -0.00196364  0.62844211  1
  La3+  La3  1  0.14441450  0.00160383  0.87978669  1
  La3+  La4  1  0.13869348  0.33064556  0.12591179  1
  La3+  La5  1  0.13282897  0.33055049  0.37119461  1
  La3+  La6  1  0.14244070  0.33630140  0.63136342  1
  La3+  La7  1  0.13894373  0.33416205  0.87492935  1
  La3+  La8  1  0.14036826  0.66767705  0.12612335  1
  La3+  La9  1  0.13228986  0.66332787  0.37851361  1
  La3+  La10  1  0.12947664  0.65893985  0.61949249  1
  La3+  La11  1  0.14157437  0.66345030  0.87684177  1
  La3+  La12  1  0.64480742  -0.00195349  0.12397243  1
  La3+  La13  1  0.63920480  -0.00091954  0.37476991  1
  La3+  La14  1  0.64034938  0.00150732  0.62548417  1
  La3+  La15  1  0.63829124  0.00041832  0.87263338  1
  La3+  La16  1  0.63847249  0.33222568  0.12529061  1
  La3+  La17  1  0.64389611  0.33123403  0.37766696  1
  La3+  La18  1  0.64061098  0.33453256  0.62419920  1
  La3+  La19  1  0.63724397  0.33640045  0.87219596  1
  La3+  La20  1  0.63506184  0.66233144  0.12980376  1
  La3+  La21  1  0.63398344  0.66245097  0.37424385  1
  La3+  La22  1  0.63498789  0.66585708  0.62180826  1
  La3+  La23  1  0.63951681  0.66755046  0.87630288  1
  La3+  La24  1  0.35727487  -0.00012325  0.12210366  1
  La3+  La25  1  0.36115855  -0.00206225  0.37448284  1
  La3+  La26  1  0.36119109  -0.00362956  0.62648373  1
  La3+  La27  1  0.35792871  0.00005948  0.87637537  1
  La3+  La28  1  0.35817555  0.33342193  0.12375406  1
  La3+  La29  1  0.37017564  0.32749150  0.37902669  1
  La3+  La30  1  0.36999181  0.32686379  0.61643010  1
  La3+  La31  1  0.35795869  0.33474546  0.87594589  1
  La3+  La32  1  0.35797387  0.66877551  0.12685529  1
  La3+  La33  1  0.36176875  0.66872490  0.37209208  1
  La3+  La34  1  0.36338929  0.66546455  0.62585675  1
  La3+  La35  1  0.36018106  0.66326514  0.87418443  1
  La3+  La36  1  0.85577835  -0.00083877  0.12408425  1
  La3+  La37  1  0.86089962  -0.00028490  0.37575288  1
  La3+  La38  1  0.86018187  0.00304690  0.62645831  1
  La3+  La39  1  0.86317479  0.00198128  0.87157496  1
  La3+  La40  1  0.85982064  0.32900757  0.12977838  1
  La3+  La41  1  0.86099445  0.33165343  0.37616938  1
  La3+  La42  1  0.85894352  0.33185257  0.61992412  1
  La3+  La43  1  0.85986861  0.33109054  0.87465080  1
  La3+  La44  1  0.86212159  0.66832422  0.12218248  1
  La3+  La45  1  0.86159883  0.66759114  0.37657713  1
  La3+  La46  1  0.86319247  0.66548002  0.62342349  1
  La3+  La47  1  0.86174250  0.66480147  0.87383755  1
  La3+  La48  1  0.00694867  0.84172906  0.12147009  1
  La3+  La49  1  0.50265113  0.17151852  0.86435676  1
  La3+  La50  1  0.50423345  0.50302462  0.11807954  1
  La3+  La51  1  0.49778178  0.16088357  0.61330249  1
  La3+  La52  1  0.00125533  0.49976722  0.13934928  1
  La3+  La53  1  0.49744562  0.83951463  0.86239339  1
  La3+  La54  1  0.49488131  0.50153413  0.36667348  1
  La3+  La55  1  0.50265346  0.49941314  0.38404872  1
  La3+  La56  1  0.49562311  0.16268852  0.11868688  1
  La3+  La57  1  0.49942659  0.83206209  0.13064055  1
  La3+  La58  1  0.49957512  0.50258195  0.87925012  1
  La3+  La59  1  0.00062077  0.83216543  0.38449992  1
  La3+  La60  1  -0.00374361  0.16554408  0.37352522  1
  La3+  La61  1  -0.00327258  0.83013958  0.86977932  1
  La3+  La62  1  -0.00082583  0.49899961  0.38759350  1
  La3+  La63  1  0.50095273  0.16711142  0.13891705  1
  La3+  La64  1  0.49583155  0.50170507  0.13576429  1
  La3+  La65  1  -0.00006611  0.49826556  0.62111187  1
  La3+  La66  1  0.00163516  0.49934315  0.37070832  1
  La3+  La67  1  0.49863558  0.16559376  0.88421344  1
  La3+  La68  1  0.49793650  0.83527679  0.38598315  1
  La3+  La69  1  0.00189072  0.83891492  0.14207700  1
  La3+  La70  1  0.49713126  0.17291586  0.62876947  1
  La3+  La71  1  0.50103403  0.16208621  0.39016864  1
  La3+  La72  1  0.75058928  0.17004769  0.50034778  1
  La3+  La73  1  0.75045151  0.49556179  0.21491320  1
  La3+  La74  1  0.75047852  0.12996050  0.00121755  1
  La3+  La75  1  0.75009955  0.49378941  0.50104207  1
  La3+  La76  1  0.24854229  0.51085059  0.50895408  1
  La3+  La77  1  0.25009949  0.86826010  0.79361512  1
  La3+  La78  1  0.74987136  0.83808077  -0.01547624  1
  La3+  La79  1  0.74993936  0.88150413  0.73896172  1
  La3+  La80  1  0.24981817  0.16534575  0.74109900  1
  La3+  La81  1  0.74906342  0.47298084  -0.00617468  1
  La3+  La82  1  0.25156232  0.14057361  0.50338226  1
  La3+  La83  1  0.24982683  0.49876407  0.01679183  1
  Ru4+  Ru84  1  0.00209225  0.00960561  -0.00035995  1
  Ru4+  Ru85  1  -0.00436371  0.00548128  0.24849931  1
  Ru4+  Ru86  1  -0.00170747  0.00338790  0.49862230  1
  Ru4+  Ru87  1  -0.00555442  0.00274566  0.75081446  1
  Ru4+  Ru88  1  -0.00262863  0.33790794  -0.00710751  1
  Ru4+  Ru89  1  -0.00017535  0.32918243  0.25310250  1
  Ru4+  Ru90  1  -0.00120903  0.32760994  0.50127629  1
  Ru4+  Ru91  1  -0.00013953  0.33201788  0.76292753  1
  Ru4+  Ru92  1  0.00004293  0.66360400  -0.00598186  1
  Ru4+  Ru93  1  0.00095799  0.66414812  0.24873846  1
  Ru4+  Ru94  1  0.00066058  0.66615159  0.50166620  1
  Ru4+  Ru95  1  -0.00068277  0.66710229  0.75033607  1
  Ru4+  Ru96  1  0.49767813  -0.00124644  0.00128668  1
  Ru4+  Ru97  1  0.49982773  -0.00104041  0.25553914  1
  Ru4+  Ru98  1  0.49853104  -0.00011760  0.50052635  1
  Ru4+  Ru99  1  0.50100843  -0.00289239  0.74587642  1
  Ru4+  Ru100  1  0.49826801  0.33616595  0.00017292  1
  Ru4+  Ru101  1  0.49756417  0.33050903  0.25406050  1
  Ru4+  Ru102  1  0.50192728  0.32717588  0.50097377  1
  Ru4+  Ru103  1  0.49701032  0.32662590  0.74831245  1
  Ru4+  Ru104  1  0.50220352  0.67040510  -0.00142635  1
  Ru4+  Ru105  1  0.49926515  0.66630640  0.25080959  1
  Ru4+  Ru106  1  0.49932871  0.68037355  0.50506549  1
  Ru4+  Ru107  1  0.49940233  0.67024256  0.75177479  1
  Ru4+  Ru108  1  0.10919464  0.16374112  0.00029898  1
  Ru4+  Ru109  1  0.11758496  0.16423148  0.24859453  1
  Ru4+  Ru110  1  0.10963260  0.16576546  0.50322670  1
  Ru4+  Ru111  1  0.10989850  0.16750170  0.75064809  1
  Ru4+  Ru112  1  0.11176627  0.50169983  -0.00118490  1
  Ru4+  Ru113  1  0.11173468  0.50105468  0.25243466  1
  Ru4+  Ru114  1  0.10966940  0.50185947  0.49902527  1
  Ru4+  Ru115  1  0.11377993  0.49906395  0.74989188  1
  Ru4+  Ru116  1  0.11593211  0.83644391  -0.00194833  1
  Ru4+  Ru117  1  0.11847351  0.82685952  0.25145254  1
  Ru4+  Ru118  1  0.11248358  0.83516180  0.50034687  1
  Ru4+  Ru119  1  0.11090066  0.83083462  0.74891153  1
  Ru4+  Ru120  1  0.61277750  0.16328780  0.00006741  1
  Ru4+  Ru121  1  0.61367490  0.16663131  0.25081079  1
  Ru4+  Ru122  1  0.61280267  0.16340620  0.49916687  1
  Ru4+  Ru123  1  0.61154071  0.16373960  0.75106433  1
  Ru4+  Ru124  1  0.60782263  0.50085043  0.00430518  1
  Ru4+  Ru125  1  0.61142358  0.50220732  0.24936459  1
  Ru4+  Ru126  1  0.61438853  0.49585269  0.49992537  1
  Ru4+  Ru127  1  0.61398599  0.50574929  0.74965561  1
  Ru4+  Ru128  1  0.61082363  0.83158431  0.00131314  1
  Ru4+  Ru129  1  0.61300839  0.83384340  0.24967913  1
  Ru4+  Ru130  1  0.61185304  0.83332814  0.49879473  1
  Ru4+  Ru131  1  0.60991145  0.83427114  0.75135653  1
  Ru4+  Ru132  1  0.38746037  0.16307803  -0.00118339  1
  Ru4+  Ru133  1  0.38500079  0.16745969  0.25293160  1
  Ru4+  Ru134  1  0.39099935  0.16481992  0.49759194  1
  Ru4+  Ru135  1  0.38860446  0.17128851  0.74835541  1
  Ru4+  Ru136  1  0.38798804  0.50093806  -0.00030631  1
  Ru4+  Ru137  1  0.38893737  0.50045425  0.24970318  1
  Ru4+  Ru138  1  0.38299225  0.50157540  0.50165068  1
  Ru4+  Ru139  1  0.38591121  0.50328530  0.74992057  1
  Ru4+  Ru140  1  0.38645922  0.83579804  0.00086551  1
  Ru4+  Ru141  1  0.38562941  0.82958932  0.25030575  1
  Ru4+  Ru142  1  0.38830939  0.83530672  0.50038651  1
  Ru4+  Ru143  1  0.39026375  0.83500920  0.74959320  1
  Ru4+  Ru144  1  0.89157457  0.16449934  -0.00105873  1
  Ru4+  Ru145  1  0.88583257  0.16984176  0.25056650  1
  Ru4+  Ru146  1  0.89047536  0.16604518  0.50040585  1
  Ru4+  Ru147  1  0.89034771  0.16529056  0.75073836  1
  Ru4+  Ru148  1  0.89393075  0.48957395  -0.00021223  1
  Ru4+  Ru149  1  0.88636201  0.50603900  0.24967159  1
  Ru4+  Ru150  1  0.88797750  0.50052794  0.50105398  1
  Ru4+  Ru151  1  0.88859534  0.49854755  0.75043966  1
  Ru4+  Ru152  1  0.88648675  0.83164188  -0.00256788  1
  Ru4+  Ru153  1  0.88667710  0.83531589  0.25323514  1
  Ru4+  Ru154  1  0.88859461  0.83348825  0.49864986  1
  Ru4+  Ru155  1  0.88959770  0.83455772  0.75033576  1
  Ru4+  Ru156  1  0.74993638  0.75810733  0.25721716  1
  Ru4+  Ru157  1  0.25000495  0.39043780  0.48088764  1
  Ru4+  Ru158  1  0.24999143  0.90751699  0.25541644  1
  Ru4+  Ru159  1  0.75070984  0.62569401  0.25906004  1
  Ru4+  Ru160  1  0.24954462  0.73210276  0.73752505  1
  Ru4+  Ru161  1  0.75024998  0.36636647  0.26775582  1
  Ru4+  Ru162  1  0.75012251  0.27090835  0.01502144  1
  Ru4+  Ru163  1  0.24977583  0.76860864  0.48549587  1
  Ru4+  Ru164  1  0.74988494  0.23424737  0.74604724  1
  Ru4+  Ru165  1  0.75020633  0.91012699  0.50303764  1
  Ru4+  Ru166  1  0.25029325  0.42527237  0.24899115  1
  Ru4+  Ru167  1  0.24995256  0.75516786  0.00186466  1
  Ru4+  Ru168  1  0.74984857  0.76466451  0.50039002  1
  Ru4+  Ru169  1  0.25006740  0.42499356  0.76136278  1
  Ru4+  Ru170  1  0.75014011  0.09315553  0.24732567  1
  Ru4+  Ru171  1  0.75039228  0.57739674  0.74731128  1
  Ru4+  Ru172  1  0.74992725  0.73002339  0.74269074  1
  Ru4+  Ru173  1  0.75031224  0.42675721  0.74509403  1
  Ru4+  Ru174  1  0.24879308  0.26690229  0.48317100  1
  Ru4+  Ru175  1  0.25025296  0.57707466  0.24659049  1
  Ru4+  Ru176  1  0.74981221  0.61179393  0.00333337  1
  Ru4+  Ru177  1  0.24938107  0.01197543  0.49908701  1
  Ru4+  Ru178  1  0.24990440  0.24885955  0.00437218  1
  Ru4+  Ru179  1  0.25078332  0.64044055  0.50116434  1
  O2-  O180  1  0.16439523  0.08253304  0.00146501  1
  O2-  O181  1  0.16448920  0.08057339  0.25072735  1
  O2-  O182  1  0.16558358  0.07745291  0.49942631  1
  O2-  O183  1  0.16868353  0.08198960  0.74595479  1
  O2-  O184  1  0.16484532  0.41494583  0.00177566  1
  O2-  O185  1  0.16951873  0.41511442  0.25226184  1
  O2-  O186  1  0.16312026  0.41358794  0.49833592  1
  O2-  O187  1  0.16953856  0.41817975  0.75074542  1
  O2-  O188  1  0.16666563  0.74668066  0.00144512  1
  O2-  O189  1  0.16746023  0.74672982  0.25256637  1
  O2-  O190  1  0.16547552  0.74569178  0.49970956  1
  O2-  O191  1  0.16480137  0.74727510  0.74744206  1
  O2-  O192  1  0.66566806  0.07880035  -0.00370998  1
  O2-  O193  1  0.66758578  0.08031945  0.25069094  1
  O2-  O194  1  0.66514663  0.07931085  0.49813868  1
  O2-  O195  1  0.66477778  0.07931026  0.75086280  1
  O2-  O196  1  0.66467807  0.41147640  0.00111316  1
  O2-  O197  1  0.66617786  0.41184063  0.24861719  1
  O2-  O198  1  0.66646981  0.41446737  0.50097384  1
  O2-  O199  1  0.66612753  0.41574705  0.74887983  1
  O2-  O200  1  0.66867143  0.74688998  -0.00073367  1
  O2-  O201  1  0.66555685  0.74683384  0.25094277  1
  O2-  O202  1  0.66906348  0.74739281  0.49925392  1
  O2-  O203  1  0.66647889  0.74587277  0.74775747  1
  O2-  O204  1  0.33309621  0.25395734  -0.00128048  1
  O2-  O205  1  0.33162028  0.25245954  0.25454169  1
  O2-  O206  1  0.33325451  0.25550579  0.50000849  1
  O2-  O207  1  0.33431455  0.25467724  0.74723539  1
  O2-  O208  1  0.33424063  0.58719026  0.00134099  1
  O2-  O209  1  0.33110206  0.58533991  0.25004178  1
  O2-  O210  1  0.33196368  0.58865323  0.50271533  1
  O2-  O211  1  0.33183292  0.58447353  0.74734029  1
  O2-  O212  1  0.33314025  0.91639064  -0.00190679  1
  O2-  O213  1  0.33395957  0.92026921  0.24990294  1
  O2-  O214  1  0.33329094  0.91658684  0.50043537  1
  O2-  O215  1  0.33277004  0.91977199  0.74771944  1
  O2-  O216  1  0.83350626  0.25146794  0.00194814  1
  O2-  O217  1  0.83222195  0.25043755  0.25070450  1
  O2-  O218  1  0.83348578  0.25097392  0.50100041  1
  O2-  O219  1  0.83356764  0.25112361  0.74798016  1
  O2-  O220  1  0.83386111  0.58495291  0.00084872  1
  O2-  O221  1  0.83326782  0.59028366  0.24861808  1
  O2-  O222  1  0.83030624  0.58712480  0.49937829  1
  O2-  O223  1  0.83209381  0.58646975  0.74732728  1
  O2-  O224  1  0.83462035  0.91914797  -0.00217497  1
  O2-  O225  1  0.83588228  0.91990028  0.25053561  1
  O2-  O226  1  0.83174740  0.91866498  0.49785733  1
  O2-  O227  1  0.83547441  0.92360907  0.75027580  1
  O2-  O228  1  0.16518118  0.25212049  -0.00033187  1
  O2-  O229  1  0.16629008  0.25233196  0.25101547  1
  O2-  O230  1  0.16770356  0.25237491  0.49545339  1
  O2-  O231  1  0.16815607  0.25117084  0.75100872  1
  O2-  O232  1  0.16828412  0.58590421  0.00254301  1
  O2-  O233  1  0.16737938  0.58523348  0.25271997  1
  O2-  O234  1  0.16638269  0.58890074  0.50163324  1
  O2-  O235  1  0.16699710  0.58503743  0.74506224  1
  O2-  O236  1  0.16768009  0.91599024  0.00113279  1
  O2-  O237  1  0.16677758  0.91905891  0.25091283  1
  O2-  O238  1  0.16471118  0.91758692  0.49940227  1
  O2-  O239  1  0.16828052  0.91881379  0.74765547  1
  O2-  O240  1  0.66647526  0.25409830  0.00017131  1
  O2-  O241  1  0.66606499  0.25375527  0.24947467  1
  O2-  O242  1  0.66464933  0.25367942  0.50026829  1
  O2-  O243  1  0.66654383  0.25394006  0.74909099  1
  O2-  O244  1  0.66844234  0.58787621  0.00014358  1
  O2-  O245  1  0.66739003  0.58787388  0.25155238  1
  O2-  O246  1  0.66837651  0.58632250  0.49918246  1
  O2-  O247  1  0.66753680  0.58523519  0.74855697  1
  O2-  O248  1  0.66451372  0.91892244  -0.00275869  1
  O2-  O249  1  0.66530360  0.91945268  0.25076631  1
  O2-  O250  1  0.66773874  0.91832859  0.49868360  1
  O2-  O251  1  0.66324308  0.92268398  0.75050779  1
  O2-  O252  1  0.33591030  0.08179744  -0.00003376  1
  O2-  O253  1  0.33617488  0.08167688  0.25092437  1
  O2-  O254  1  0.33785612  0.07871474  0.50080104  1
  O2-  O255  1  0.33361075  0.07928632  0.74843951  1
  O2-  O256  1  0.33197713  0.41431153  -0.00119628  1
  O2-  O257  1  0.33149501  0.41480864  0.25263198  1
  O2-  O258  1  0.33618381  0.40969508  0.49999067  1
  O2-  O259  1  0.33373415  0.41461110  0.74728179  1
  O2-  O260  1  0.33383725  0.74701032  0.00008253  1
  O2-  O261  1  0.33308545  0.74915813  0.24834569  1
  O2-  O262  1  0.33229111  0.74728171  0.50154949  1
  O2-  O263  1  0.33442708  0.74608489  0.74921140  1
  O2-  O264  1  0.83597779  0.07894156  -0.00161657  1
  O2-  O265  1  0.83343144  0.08051012  0.25093707  1
  O2-  O266  1  0.83470770  0.07948042  0.49824693  1
  O2-  O267  1  0.83327223  0.08136440  0.75139524  1
  O2-  O268  1  0.83249698  0.41511585  0.00163400  1
  O2-  O269  1  0.83201124  0.41165985  0.24925053  1
  O2-  O270  1  0.83267346  0.41661832  0.49937406  1
  O2-  O271  1  0.83366031  0.41596130  0.74900056  1
  O2-  O272  1  0.82972448  0.74664149  0.00250499  1
  O2-  O273  1  0.83264672  0.74603346  0.24920271  1
  O2-  O274  1  0.83109700  0.74705189  0.50005715  1
  O2-  O275  1  0.83398081  0.74631882  0.74803481  1
  O2-  O276  1  0.04909988  0.23401232  0.26387291  1
  O2-  O277  1  0.94905223  0.23672799  0.76485243  1
  O2-  O278  1  0.46600038  0.78074005  0.54010557  1
  O2-  O279  1  0.54616582  0.42607209  0.24135188  1
  O2-  O280  1  0.55445891  0.57226029  0.48643050  1
  O2-  O281  1  0.45273874  0.42419483  0.48504294  1
  O2-  O282  1  0.95005015  0.09919051  0.98996993  1
  O2-  O283  1  0.04879680  0.76487387  0.98250170  1
  O2-  O284  1  0.04331764  0.76478532  0.51220449  1
  O2-  O285  1  0.04452219  0.75662147  0.73517814  1
  O2-  O286  1  0.95419827  0.90561612  0.98701206  1
  O2-  O287  1  0.45557628  0.55714023  0.51279164  1
  O2-  O288  1  0.04978284  0.10180570  0.98745037  1
  O2-  O289  1  0.45991090  0.21950485  0.29174062  1
  O2-  O290  1  0.45066453  0.89925498  0.23923279  1
  O2-  O291  1  0.95514112  0.43678374  0.26586252  1
  O2-  O292  1  0.54859503  0.57541819  0.23752973  1
  O2-  O293  1  0.55006542  0.43129979  0.76545986  1
  O2-  O294  1  0.04690825  0.42849009  0.48912073  1
  O2-  O295  1  0.03428746  0.88904223  0.74755978  1
  O2-  O296  1  0.95392181  0.09727096  0.49349861  1
  O2-  O297  1  0.04766825  0.57247052  0.51353428  1
  O2-  O298  1  0.54997559  0.23513189  0.26698219  1
  O2-  O299  1  0.94922544  0.56922082  0.73718633  1
  O2-  O300  1  0.54808985  0.42714640  0.51691599  1
  O2-  O301  1  0.03456579  0.21934229  0.49724948  1
  O2-  O302  1  0.97819833  0.47030226  0.01327729  1
  O2-  O303  1  0.03777620  0.22200810  0.48436879  1
  O2-  O304  1  0.45471892  0.09937010  0.76208193  1
  O2-  O305  1  0.95094807  0.56569091  0.75735690  1
  O2-  O306  1  0.55226612  0.23912505  0.51405160  1
  O2-  O307  1  0.46243174  0.56966922  0.49015992  1
  O2-  O308  1  0.95823346  0.77120191  0.04006995  1
  O2-  O309  1  0.54948218  0.90334092  0.23681103  1
  O2-  O310  1  0.54238810  0.78069918  0.95940410  1
  O2-  O311  1  0.95295264  0.09732726  0.50277040  1
  O2-  O312  1  0.04977556  0.56305491  0.71941826  1
  O2-  O313  1  0.44631729  0.24421827  0.51813031  1
  O2-  O314  1  0.04075343  0.56561847  0.48892142  1
  O2-  O315  1  0.04759928  0.90428396  0.24435258  1
  O2-  O316  1  0.04452848  0.23253567  0.77871567  1
  O2-  O317  1  0.03273891  0.10911803  0.75325496  1
  O2-  O318  1  0.44988455  0.76291012  0.01817850  1
  O2-  O319  1  0.45063749  0.76194028  0.75951822  1
  O2-  O320  1  0.53978911  0.56445483  0.25927267  1
  O2-  O321  1  0.45557261  0.23011686  0.49910693  1
  O2-  O322  1  0.54665142  0.23445677  0.01104446  1
  O2-  O323  1  0.55076439  0.76307445  0.76393282  1
  O2-  O324  1  0.43691170  0.59085181  0.77500146  1
  O2-  O325  1  0.92992876  0.39284841  0.92443274  1
  O2-  O326  1  0.56268720  0.06786465  0.03267541  1
  O2-  O327  1  0.07842031  0.06560494  0.78482078  1
  O2-  O328  1  0.06294233  0.26139254  0.27750242  1
  O2-  O329  1  0.56621482  0.60069717  0.28734882  1
  O2-  O330  1  0.93375898  0.07349405  0.72317143  1
  O2-  O331  1  0.43472196  0.60402451  0.56195311  1
  O2-  O332  1  0.06286161  0.40322598  0.21498264  1
  O2-  O333  1  0.92930612  0.37795933  0.07172549  1
  O2-  O334  1  0.56308033  0.59601197  0.81538586  1
  O2-  O335  1  0.56336307  0.40197295  0.77548072  1
  O2-  O336  1  0.07727168  0.93612971  0.78551188  1
  O2-  O337  1  0.56122961  0.59881580  0.46222121  1
  O2-  O338  1  0.06432916  0.06823846  0.43848391  1
  O2-  O339  1  0.56359147  0.93109455  0.78489461  1
  O2-  O340  1  0.43380670  0.92769076  0.77860273  1
  O2-  O341  1  0.06550777  0.74047136  0.22316264  1
  O2-  O342  1  0.93671913  0.26154685  0.28140074  1
  O2-  O343  1  0.08605299  0.28984556  0.54721709  1
  O2-  O344  1  0.56918170  0.71815898  0.06192548  1
  O2-  O345  1  0.93346075  0.26340873  0.46399468  1
  O2-  O346  1  0.06502300  0.92718704  0.97375281  1
  O2-  O347  1  0.06324976  0.91997002  0.21861002  1
  O2-  O348  1  0.93649828  0.73764351  0.28426826  1
  O2-  O349  1  0.06947765  0.60571202  0.79765505  1
  O2-  O350  1  0.06549446  0.40700627  0.77686473  1
  O2-  O351  1  0.43598155  0.41201766  0.02216415  1
  O2-  O352  1  0.06046702  0.27023588  0.03351425  1
  O2-  O353  1  0.06265788  0.59778153  0.96974157  1
  O2-  O354  1  0.43660714  0.73963636  0.27347817  1
  O2-  O355  1  0.93725105  0.59773769  0.53354049  1
  O2-  O356  1  0.06742004  0.07575198  0.55211157  1
  O2-  O357  1  0.56519924  0.58874531  0.69475023  1
  O2-  O358  1  0.42608893  0.59204573  0.44122772  1
  O2-  O359  1  0.42465534  0.73591164  0.44707601  1
  O2-  O360  1  0.07299403  0.26361430  0.70768810  1
  O2-  O361  1  0.93693110  0.41177328  0.52593047  1
  O2-  O362  1  0.94318459  0.41473977  0.29098051  1
  O2-  O363  1  0.92268000  0.72579868  0.94935438  1
  O2-  O364  1  0.93416755  0.92282222  0.77702101  1
  O2-  O365  1  0.42186138  0.27018203  0.19982197  1
  O2-  O366  1  0.43838131  0.41179305  0.45577327  1
  O2-  O367  1  0.43466686  0.25626811  0.02699676  1
  O2-  O368  1  0.43589958  0.92720664  0.02674391  1
  O2-  O369  1  0.43295731  0.26483197  0.46375712  1
  O2-  O370  1  0.06907698  0.59721448  0.46525233  1
  O2-  O371  1  0.43542368  0.92391134  0.47201218  1
  O2-  O372  1  0.25018354  -0.00123701  0.08249197  1
  O2-  O373  1  0.24957182  0.67386800  0.38438637  1
  O2-  O374  1  0.74959176  0.33670261  0.57918450  1
  O2-  O375  1  0.25009318  0.33242737  0.17316714  1
  O2-  O376  1  0.24970117  -0.00600373  0.38182914  1
  O2-  O377  1  0.24997027  0.00220353  0.17198444  1
  O2-  O378  1  0.74976094  0.66288301  0.84974815  1
  O2-  O379  1  0.25023421  0.33624360  0.91915068  1
  O2-  O380  1  0.74969212  0.33068981  0.81125260  1
  O2-  O381  1  0.24995243  0.66003094  0.83164383  1
  O2-  O382  1  0.24967047  -0.00362270  0.61441783  1
  O2-  O383  1  0.75009161  0.00671654  0.10006706  1
  O2-  O384  1  0.24981486  0.66629810  0.92459755  1
  O2-  O385  1  0.74893000  0.33705793  0.39425874  1
  O2-  O386  1  0.24991644  -0.00273130  0.91845354  1
  O2-  O387  1  0.74963503  0.34402607  0.93132364  1
  O2-  O388  1  0.24960301  0.67241085  0.61724265  1
  O2-  O389  1  0.75010693  -0.00718520  0.59131330  1
  O2-  O390  1  0.25077829  0.33230639  0.60945827  1
  O2-  O391  1  0.25005439  0.66042765  0.15554862  1
  O2-  O392  1  0.25063122  0.33101601  0.82674834  1
  O2-  O393  1  0.25018195  0.00196021  0.82782897  1
  O2-  O394  1  0.24999846  0.34097542  0.08239101  1
  O2-  O395  1  0.75000521  0.33405899  0.67005144  1
  O2-  O396  1  0.25025326  0.16862537  0.16397511  1
  O2-  O397  1  0.74987151  0.16907769  0.84042762  1
  O2-  O398  1  0.24996986  0.16902341  0.86018988  1
  O2-  O399  1  0.24962918  0.84121290  0.56934669  1
  O2-  O400  1  0.25004401  0.15680574  0.94070911  1
  O2-  O401  1  0.24996849  0.17306285  0.38333976  1
  O2-  O402  1  0.24997099  0.83778049  0.34046180  1
  O2-  O403  1  0.25030328  0.16270666  0.08253150  1
  O2-  O404  1  0.74981635  0.15614700  0.35978024  1
  O2-  O405  1  0.75003151  0.49931093  0.84500155  1
  O2-  O406  1  0.24994117  0.82671540  0.65805561  1
  O2-  O407  1  0.74970890  0.17177192  0.63944999  1
  O2-  O408  1  0.24982156  0.82920307  0.16824353  1
  O2-  O409  1  0.74994698  0.84355662  0.18891641  1
  O2-  O410  1  0.74995690  0.81952452  0.85565156  1
  O2-  O411  1  0.74998994  0.81646716  0.61650590  1
  O2-  O412  1  0.25012547  0.49408241  0.87945080  1
  O2-  O413  1  0.74996855  0.16438122  0.16115703  1
  O2-  O414  1  0.74973364  0.50316354  0.36049125  1
  O2-  O415  1  0.74997695  0.82688587  0.10675739  1
  O2-  O416  1  0.24938738  0.17270799  0.62276830  1
  O2-  O417  1  0.24987998  0.83704392  0.07938617  1
  O2-  O418  1  0.74998735  0.82977966  0.34824162  1
  O2-  O419  1  0.25006063  0.16620448  0.30346450  1
  O2-  O420  1  0.02422180  0.65884347  0.12093151  1
  O2-  O421  1  0.52685603  0.67528741  0.61695855  1
  O2-  O422  1  0.97053633  -0.00741702  0.62431386  1
  O2-  O423  1  0.54417633  0.00406106  0.62338881  1
  O2-  O424  1  0.47643258  0.00621924  0.88037173  1
  O2-  O425  1  0.02997795  -0.00794821  0.63410096  1
  O2-  O426  1  0.46832204  0.34620538  0.12796508  1
  O2-  O427  1  0.02518274  0.00238243  0.87733806  1
  O2-  O428  1  0.02431465  0.33118555  0.88155871  1
  O2-  O429  1  0.45613261  0.00347580  0.62303392  1
  O2-  O430  1  0.48325949  0.66281588  0.37086373  1
  O2-  O431  1  0.96836161  0.32883603  0.63011551  1
  O2-  O432  1  0.96782686  0.00518178  0.87403714  1
  O2-  O433  1  0.47417610  0.66776466  0.88088045  1
  O2-  O434  1  0.02515900  0.67259287  0.36831719  1
  O2-  O435  1  0.45841976  0.01027671  0.36749137  1
  O2-  O436  1  0.02388604  0.00414816  0.11958491  1
  O2-  O437  1  0.54547816  -0.00001518  0.37829900  1
  O2-  O438  1  0.02586528  0.34249464  0.37849810  1
  O2-  O439  1  0.97741632  0.66559930  0.86931302  1
  O2-  O440  1  0.47616746  0.00957581  0.13081550  1
  O2-  O441  1  0.52555578  0.32729294  0.88073668  1
  O2-  O442  1  0.54627116  0.33245668  0.12375234  1
  O2-  O443  1  0.02408353  0.34698453  0.62804365  1
