# generated using pymatgen
data_La7(Ru4O11)2
_symmetry_space_group_name_H-M   'P 1'
_cell_length_a   23.99252191
_cell_length_b   16.83214666
_cell_length_c   15.42771316
_cell_angle_alpha   90.00104631
_cell_angle_beta   90.00035434
_cell_angle_gamma   89.99762801
_symmetry_Int_Tables_number   1
_chemical_formula_structural   La7(Ru4O11)2
_chemical_formula_sum   'La84 Ru96 O264'
_cell_volume   6230.41480534
_cell_formula_units_Z   12
loop_
 _symmetry_equiv_pos_site_id
 _symmetry_equiv_pos_as_xyz
  1  'x, y, z'
loop_
 _atom_type_symbol
 _atom_type_oxidation_number
  La3+  3.0
  Ru4+  4.0
  O2-  -2.0
loop_
 _atom_site_type_symbol
 _atom_site_label
 _atom_site_symmetry_multiplicity
 _atom_site_fract_x
 _atom_site_fract_y
 _atom_site_fract_z
 _atom_site_occupancy
  La3+  La0  1  0.13868425  -0.00482004  0.12817469  1
  La3+  La1  1  0.14030022  0.00193737  0.37409475  1
  La3+  La2  1  0.13691194  -0.00213486  0.62988110  1
  La3+  La3  1  0.14105072  0.00024445  0.87404254  1
  La3+  La4  1  0.13983360  0.33412721  0.12083188  1
  La3+  La5  1  0.13520300  0.33477474  0.37216597  1
  La3+  La6  1  0.14214712  0.33323195  0.62799580  1
  La3+  La7  1  0.14568577  0.33306391  0.87627341  1
  La3+  La8  1  0.14129911  0.66666844  0.12532269  1
  La3+  La9  1  0.14187390  0.66792743  0.38318658  1
  La3+  La10  1  0.13731920  0.66640118  0.61595399  1
  La3+  La11  1  0.14317002  0.66405698  0.87734906  1
  La3+  La12  1  0.63424821  0.00221630  0.12367098  1
  La3+  La13  1  0.63650181  0.00463056  0.37771563  1
  La3+  La14  1  0.63881621  -0.00032040  0.62954590  1
  La3+  La15  1  0.64456728  0.00333394  0.87029860  1
  La3+  La16  1  0.64169371  0.33469589  0.11752339  1
  La3+  La17  1  0.63630917  0.33200273  0.37677224  1
  La3+  La18  1  0.63866372  0.32996568  0.62449573  1
  La3+  La19  1  0.63981383  0.33059287  0.87919919  1
  La3+  La20  1  0.63703652  0.66491270  0.12219124  1
  La3+  La21  1  0.63359158  0.66783713  0.37887503  1
  La3+  La22  1  0.63664748  0.67549156  0.62474988  1
  La3+  La23  1  0.63931357  0.66909646  0.87423846  1
  La3+  La24  1  0.36530957  -0.00231587  0.12896779  1
  La3+  La25  1  0.36846796  -0.00321938  0.37584487  1
  La3+  La26  1  0.36397584  -0.00312379  0.62366820  1
  La3+  La27  1  0.35935720  -0.00084667  0.87389771  1
  La3+  La28  1  0.35798472  0.33319459  0.12381600  1
  La3+  La29  1  0.36298591  0.33603642  0.37356331  1
  La3+  La30  1  0.35760510  0.33254132  0.62890719  1
  La3+  La31  1  0.35224185  0.33263949  0.87779984  1
  La3+  La32  1  0.35819685  0.66470606  0.12117024  1
  La3+  La33  1  0.35452082  0.66818111  0.37832794  1
  La3+  La34  1  0.35821474  0.66566357  0.62411683  1
  La3+  La35  1  0.35936513  0.65937991  0.87857473  1
  La3+  La36  1  0.85986183  0.00414459  0.11593830  1
  La3+  La37  1  0.85364848  0.00512104  0.37950653  1
  La3+  La38  1  0.86033771  -0.00022138  0.63034809  1
  La3+  La39  1  0.85668497  0.00698590  0.87586257  1
  La3+  La40  1  0.86493843  0.32826185  0.11277592  1
  La3+  La41  1  0.86363991  0.33424478  0.37498244  1
  La3+  La42  1  0.85761791  0.32800559  0.62177655  1
  La3+  La43  1  0.86671017  0.31986059  0.88919589  1
  La3+  La44  1  0.86535207  0.66622335  0.11992841  1
  La3+  La45  1  0.85893079  0.67054414  0.37591483  1
  La3+  La46  1  0.86310330  0.66880837  0.62316628  1
  La3+  La47  1  0.85762002  0.66476781  0.87752436  1
  La3+  La48  1  0.49651977  0.83222000  0.87519220  1
  La3+  La49  1  0.00059143  0.82921029  0.86812933  1
  La3+  La50  1  0.00584476  0.82593100  0.37277052  1
  La3+  La51  1  -0.00448513  0.16441545  0.11224149  1
  La3+  La52  1  -0.00039193  0.83605969  0.88846402  1
  La3+  La53  1  -0.00006415  0.50374452  0.38941153  1
  La3+  La54  1  0.50382821  0.84521852  0.61319288  1
  La3+  La55  1  0.49889356  0.83062438  0.37675773  1
  La3+  La56  1  -0.00237966  0.49593422  0.12991441  1
  La3+  La57  1  -0.00009850  0.16626898  0.63397277  1
  La3+  La58  1  0.50456136  0.49604618  0.63585005  1
  La3+  La59  1  0.50019102  0.50287304  0.11480204  1
  La3+  La60  1  -0.00598284  0.17443993  0.87563653  1
  La3+  La61  1  0.49828713  0.83585279  0.11692308  1
  La3+  La62  1  0.49868356  0.49934752  0.87515578  1
  La3+  La63  1  0.49571374  0.49760935  0.13553260  1
  La3+  La64  1  0.50397368  0.16464517  0.62283959  1
  La3+  La65  1  0.00160093  0.50191268  0.11202712  1
  La3+  La66  1  0.49893809  0.82554988  0.13634432  1
  La3+  La67  1  0.00628445  0.50071645  0.62123795  1
  La3+  La68  1  0.49718556  0.49198063  0.61689329  1
  La3+  La69  1  -0.00077167  0.16814708  0.38170589  1
  La3+  La70  1  0.49773229  0.17101982  0.11207979  1
  La3+  La71  1  0.00001173  0.82738763  0.62552721  1
  La3+  La72  1  0.74930838  0.83522197  0.26062894  1
  La3+  La73  1  0.24941405  0.50205263  0.01679179  1
  La3+  La74  1  0.25070079  0.16741840  0.21674757  1
  La3+  La75  1  0.24989632  0.17542069  0.50463611  1
  La3+  La76  1  0.24984681  0.82255274  0.24994492  1
  La3+  La77  1  0.75068866  0.55573158  0.20048708  1
  La3+  La78  1  0.24967616  0.51158725  0.48327672  1
  La3+  La79  1  0.24917690  0.77694694  0.00575947  1
  La3+  La80  1  0.75076045  0.12097019  0.21641371  1
  La3+  La81  1  0.75015853  0.80068710  -0.01905371  1
  La3+  La82  1  0.74911527  0.57058836  0.52378089  1
  La3+  La83  1  0.75034175  0.51195326  0.74758402  1
  Ru4+  Ru84  1  0.00372652  -0.00377572  0.00428226  1
  Ru4+  Ru85  1  0.00180904  -0.01088949  0.25356809  1
  Ru4+  Ru86  1  -0.00414666  -0.00042009  0.49929004  1
  Ru4+  Ru87  1  -0.00115355  -0.00136763  0.74536339  1
  Ru4+  Ru88  1  -0.00592993  0.33128466  0.00206844  1
  Ru4+  Ru89  1  -0.00485887  0.33478109  0.26016104  1
  Ru4+  Ru90  1  -0.00145327  0.32959184  0.49875327  1
  Ru4+  Ru91  1  -0.00127617  0.33402637  0.76358118  1
  Ru4+  Ru92  1  0.00089086  0.67365748  -0.00315128  1
  Ru4+  Ru93  1  0.00049169  0.67044914  0.24959490  1
  Ru4+  Ru94  1  -0.00576472  0.66812038  0.49316268  1
  Ru4+  Ru95  1  -0.00011168  0.67538442  0.75684878  1
  Ru4+  Ru96  1  0.50081248  0.00107026  0.00208907  1
  Ru4+  Ru97  1  0.49858073  0.00493500  0.25507022  1
  Ru4+  Ru98  1  0.49996075  0.00269252  0.49239881  1
  Ru4+  Ru99  1  0.50251144  0.00122161  0.75103326  1
  Ru4+  Ru100  1  0.50296345  0.33022825  -0.00169773  1
  Ru4+  Ru101  1  0.50092843  0.32920016  0.25181301  1
  Ru4+  Ru102  1  0.50112806  0.32783491  0.51246518  1
  Ru4+  Ru103  1  0.49220317  0.32484343  0.74743778  1
  Ru4+  Ru104  1  0.50239728  0.67065449  0.00425542  1
  Ru4+  Ru105  1  0.50068884  0.66850694  0.25553733  1
  Ru4+  Ru106  1  0.49216009  0.66677670  0.49611604  1
  Ru4+  Ru107  1  0.50039967  0.66931061  0.74473938  1
  Ru4+  Ru108  1  0.11333353  0.16636604  -0.00268954  1
  Ru4+  Ru109  1  0.11284093  0.16059517  0.25260476  1
  Ru4+  Ru110  1  0.10987203  0.16582058  0.50126868  1
  Ru4+  Ru111  1  0.11425385  0.16984601  0.74964335  1
  Ru4+  Ru112  1  0.11367788  0.50318884  -0.00202486  1
  Ru4+  Ru113  1  0.11391904  0.49199837  0.25023291  1
  Ru4+  Ru114  1  0.11472453  0.49562348  0.49982361  1
  Ru4+  Ru115  1  0.11434671  0.50233651  0.75291344  1
  Ru4+  Ru116  1  0.10534735  0.83407239  -0.00509819  1
  Ru4+  Ru117  1  0.10913187  0.83943633  0.25074151  1
  Ru4+  Ru118  1  0.11705425  0.83668884  0.50129374  1
  Ru4+  Ru119  1  0.11336069  0.83130950  0.75248388  1
  Ru4+  Ru120  1  0.61456174  0.16695190  -0.00028067  1
  Ru4+  Ru121  1  0.61320190  0.17488693  0.24784290  1
  Ru4+  Ru122  1  0.61479529  0.17413605  0.49664511  1
  Ru4+  Ru123  1  0.61401858  0.16150247  0.75193235  1
  Ru4+  Ru124  1  0.61887019  0.49857209  -0.00113003  1
  Ru4+  Ru125  1  0.61077236  0.49866516  0.25293722  1
  Ru4+  Ru126  1  0.61398626  0.49220091  0.49609613  1
  Ru4+  Ru127  1  0.61248656  0.49565620  0.75229452  1
  Ru4+  Ru128  1  0.61384258  0.83713859  -0.00088919  1
  Ru4+  Ru129  1  0.61416497  0.83016335  0.25201897  1
  Ru4+  Ru130  1  0.61931380  0.83605151  0.49912513  1
  Ru4+  Ru131  1  0.61797557  0.83981342  0.74759155  1
  Ru4+  Ru132  1  0.38631061  0.17118537  0.00183919  1
  Ru4+  Ru133  1  0.38996353  0.16711608  0.24797475  1
  Ru4+  Ru134  1  0.39088892  0.16656901  0.49957482  1
  Ru4+  Ru135  1  0.38964959  0.17670805  0.75345021  1
  Ru4+  Ru136  1  0.38285967  0.49160158  -0.00014253  1
  Ru4+  Ru137  1  0.38523806  0.49669512  0.24963436  1
  Ru4+  Ru138  1  0.38694253  0.49867387  0.49801832  1
  Ru4+  Ru139  1  0.38298477  0.49398492  0.75424904  1
  Ru4+  Ru140  1  0.38770954  0.83532030  -0.00284219  1
  Ru4+  Ru141  1  0.38341462  0.82698757  0.25081629  1
  Ru4+  Ru142  1  0.38301801  0.82699702  0.50022836  1
  Ru4+  Ru143  1  0.38785817  0.83160988  0.75095201  1
  Ru4+  Ru144  1  0.88171828  0.16957496  -0.00229610  1
  Ru4+  Ru145  1  0.89021886  0.16653883  0.24576737  1
  Ru4+  Ru146  1  0.88766036  0.16171938  0.50048463  1
  Ru4+  Ru147  1  0.88481540  0.16314718  0.75070115  1
  Ru4+  Ru148  1  0.88258879  0.50123134  -0.00173113  1
  Ru4+  Ru149  1  0.88894405  0.50009926  0.25120601  1
  Ru4+  Ru150  1  0.88695676  0.49866204  0.49959830  1
  Ru4+  Ru151  1  0.89646453  0.48289427  0.75395563  1
  Ru4+  Ru152  1  0.89377456  0.83480988  -0.00015540  1
  Ru4+  Ru153  1  0.89041468  0.83652184  0.25388756  1
  Ru4+  Ru154  1  0.88470643  0.83236762  0.50002579  1
  Ru4+  Ru155  1  0.88429120  0.83228550  0.75103410  1
  Ru4+  Ru156  1  0.74986187  0.40479556  0.51572227  1
  Ru4+  Ru157  1  0.25024158  0.03219599  0.52000470  1
  Ru4+  Ru158  1  0.75008048  0.97333103  0.24974222  1
  Ru4+  Ru159  1  0.24997650  0.57743180  0.25767660  1
  Ru4+  Ru160  1  0.74896559  0.09123607  0.49807603  1
  Ru4+  Ru161  1  0.75017565  0.22667403  0.76526985  1
  Ru4+  Ru162  1  0.25011093  0.08947567  0.75104553  1
  Ru4+  Ru163  1  0.74997484  0.90197079  0.50793855  1
  Ru4+  Ru164  1  0.75033677  0.41665652  0.23858515  1
  Ru4+  Ru165  1  0.75062814  0.95034620  -0.01453376  1
  Ru4+  Ru166  1  0.24986063  0.56846899  0.75016759  1
  Ru4+  Ru167  1  0.24987960  0.75526199  0.74338981  1
  Ru4+  Ru168  1  0.24990726  0.30101050  0.26852933  1
  Ru4+  Ru169  1  0.25042266  0.31853164  0.50385033  1
  Ru4+  Ru170  1  0.74980529  0.65233406  0.76879797  1
  Ru4+  Ru171  1  0.25028638  0.08944042  0.00294519  1
  Ru4+  Ru172  1  0.75017586  0.22862305  0.51250998  1
  Ru4+  Ru173  1  0.25012852  0.02823884  0.25937944  1
  Ru4+  Ru174  1  0.24955017  0.42374384  0.74577285  1
  Ru4+  Ru175  1  0.24913802  0.93600513  0.01900634  1
  Ru4+  Ru176  1  0.74984508  0.69854713  0.23765728  1
  Ru4+  Ru177  1  0.75035474  0.36737576  0.73430314  1
  Ru4+  Ru178  1  0.75067072  0.25109815  0.25299560  1
  Ru4+  Ru179  1  0.24976115  0.89624473  0.49011079  1
  O2-  O180  1  0.16616218  0.08167231  -0.00016215  1
  O2-  O181  1  0.16998900  0.07908204  0.24892909  1
  O2-  O182  1  0.16600520  0.07823228  0.50351569  1
  O2-  O183  1  0.16705700  0.08084709  0.74670903  1
  O2-  O184  1  0.16731438  0.41547638  0.00316703  1
  O2-  O185  1  0.16848329  0.41332504  0.25149792  1
  O2-  O186  1  0.16920552  0.41217011  0.49743087  1
  O2-  O187  1  0.16936602  0.41542094  0.74871132  1
  O2-  O188  1  0.15617101  0.74379218  0.00006816  1
  O2-  O189  1  0.16231496  0.74775216  0.24986738  1
  O2-  O190  1  0.16556893  0.75101096  0.50001866  1
  O2-  O191  1  0.16525967  0.74628098  0.74940799  1
  O2-  O192  1  0.66428567  0.08020995  0.00431360  1
  O2-  O193  1  0.66355540  0.07643984  0.25055972  1
  O2-  O194  1  0.66620970  0.08226345  0.50236110  1
  O2-  O195  1  0.66801129  0.08148293  0.74615800  1
  O2-  O196  1  0.66627323  0.41308907  -0.00439165  1
  O2-  O197  1  0.66409592  0.41321701  0.24971477  1
  O2-  O198  1  0.66688540  0.41163730  0.50183761  1
  O2-  O199  1  0.66624062  0.40920630  0.74869155  1
  O2-  O200  1  0.66316111  0.74476720  0.00319931  1
  O2-  O201  1  0.66880423  0.74318964  0.24780975  1
  O2-  O202  1  0.66684120  0.74672626  0.50122260  1
  O2-  O203  1  0.66571173  0.74870066  0.75194293  1
  O2-  O204  1  0.33396003  0.24946048  0.00157678  1
  O2-  O205  1  0.33366913  0.25666860  0.25338038  1
  O2-  O206  1  0.33510645  0.25508163  0.49902517  1
  O2-  O207  1  0.33110558  0.24582219  0.74639098  1
  O2-  O208  1  0.33291757  0.58247466  0.00363587  1
  O2-  O209  1  0.33458830  0.58553378  0.25217845  1
  O2-  O210  1  0.33539457  0.58498263  0.50065080  1
  O2-  O211  1  0.33298599  0.58407496  0.74705240  1
  O2-  O212  1  0.33194601  0.92205480  0.00294113  1
  O2-  O213  1  0.33238626  0.92131266  0.24837171  1
  O2-  O214  1  0.33160354  0.91745088  0.50067318  1
  O2-  O215  1  0.33860178  0.91754807  0.74688772  1
  O2-  O216  1  0.82834931  0.24783313  0.00454078  1
  O2-  O217  1  0.83520069  0.25323486  0.24999955  1
  O2-  O218  1  0.83282801  0.24790822  0.49735275  1
  O2-  O219  1  0.83253226  0.25057784  0.75277460  1
  O2-  O220  1  0.83411286  0.58662313  0.00077813  1
  O2-  O221  1  0.83978608  0.58866972  0.24828598  1
  O2-  O222  1  0.83850139  0.58961282  0.49990469  1
  O2-  O223  1  0.83915292  0.58487896  0.74940507  1
  O2-  O224  1  0.82920845  0.91968234  -0.00264020  1
  O2-  O225  1  0.82962948  0.92060927  0.24477450  1
  O2-  O226  1  0.83173747  0.91779757  0.50399134  1
  O2-  O227  1  0.83530258  0.91825846  0.75076043  1
  O2-  O228  1  0.16828507  0.24656158  0.00322486  1
  O2-  O229  1  0.16665720  0.25444214  0.25037721  1
  O2-  O230  1  0.16711540  0.25466560  0.49997308  1
  O2-  O231  1  0.16746702  0.24897331  0.74760766  1
  O2-  O232  1  0.16451384  0.58573991  0.00030449  1
  O2-  O233  1  0.16504643  0.58556333  0.25193800  1
  O2-  O234  1  0.16581515  0.58329584  0.49899833  1
  O2-  O235  1  0.16555218  0.58540288  0.74888708  1
  O2-  O236  1  0.16601731  0.92102027  0.00069959  1
  O2-  O237  1  0.17043455  0.91896566  0.24975741  1
  O2-  O238  1  0.16806052  0.91873470  0.50032164  1
  O2-  O239  1  0.16420440  0.92093777  0.74755812  1
  O2-  O240  1  0.66268427  0.25077812  -0.00065194  1
  O2-  O241  1  0.66592829  0.25357898  0.24991732  1
  O2-  O242  1  0.66878927  0.25003434  0.50310891  1
  O2-  O243  1  0.66540947  0.25161118  0.75034400  1
  O2-  O244  1  0.66410446  0.58775765  0.00077069  1
  O2-  O245  1  0.66176427  0.58830788  0.25073908  1
  O2-  O246  1  0.65870297  0.59136405  0.49985688  1
  O2-  O247  1  0.66541665  0.59164287  0.74918230  1
  O2-  O248  1  0.67162202  0.92155908  0.00285535  1
  O2-  O249  1  0.66559744  0.92507980  0.24862797  1
  O2-  O250  1  0.66836916  0.92153258  0.50114642  1
  O2-  O251  1  0.66806647  0.91969798  0.74897711  1
  O2-  O252  1  0.33708462  0.07969768  0.00123840  1
  O2-  O253  1  0.33318762  0.07579532  0.25001280  1
  O2-  O254  1  0.33135424  0.07591839  0.50235049  1
  O2-  O255  1  0.33767609  0.08299047  0.74492810  1
  O2-  O256  1  0.33108472  0.41123558  0.00592085  1
  O2-  O257  1  0.33363951  0.41322120  0.25506085  1
  O2-  O258  1  0.33186644  0.41113780  0.49618323  1
  O2-  O259  1  0.33079423  0.41413012  0.74882620  1
  O2-  O260  1  0.33935208  0.74379169  -0.00052646  1
  O2-  O261  1  0.33291419  0.74347130  0.24967891  1
  O2-  O262  1  0.33393179  0.74794085  0.50223430  1
  O2-  O263  1  0.33034451  0.74742725  0.74563345  1
  O2-  O264  1  0.83476127  0.08335286  -0.00089933  1
  O2-  O265  1  0.83645124  0.07959563  0.24952929  1
  O2-  O266  1  0.82909246  0.08251160  0.50521785  1
  O2-  O267  1  0.83248462  0.08167277  0.75002732  1
  O2-  O268  1  0.83461266  0.41519297  -0.00399120  1
  O2-  O269  1  0.83337255  0.41248338  0.24836933  1
  O2-  O270  1  0.83175461  0.41455165  0.50002845  1
  O2-  O271  1  0.82792464  0.41150021  0.75221546  1
  O2-  O272  1  0.83902274  0.74616398  0.00156232  1
  O2-  O273  1  0.83263359  0.74461009  0.24446621  1
  O2-  O274  1  0.83476029  0.74890009  0.50329733  1
  O2-  O275  1  0.83491111  0.74548392  0.75235816  1
  O2-  O276  1  0.44927148  0.56614423  0.76599568  1
  O2-  O277  1  0.05472697  0.87838567  0.18894336  1
  O2-  O278  1  0.55310691  0.10017496  0.48731537  1
  O2-  O279  1  0.95363607  0.23651971  0.00161658  1
  O2-  O280  1  0.04257669  0.24203189  0.22847194  1
  O2-  O281  1  0.04735407  0.42815841  0.50585143  1
  O2-  O282  1  0.95033074  0.56312032  0.54093782  1
  O2-  O283  1  0.95154145  0.23707315  0.75919867  1
  O2-  O284  1  0.55057975  0.56264283  0.48327815  1
  O2-  O285  1  0.54432213  0.09413390  0.26676586  1
  O2-  O286  1  0.55184110  0.76530160  0.48275610  1
  O2-  O287  1  0.55063389  0.10120042  0.22926841  1
  O2-  O288  1  0.54848344  0.58104497  0.51690385  1
  O2-  O289  1  0.47501512  0.19802928  0.74762526  1
  O2-  O290  1  0.03816110  0.22419307  1.00378792  1
  O2-  O291  1  0.54662933  0.77013434  0.98927614  1
  O2-  O292  1  0.05112247  0.23620940  0.51065355  1
  O2-  O293  1  0.45521324  0.90724738  0.48997079  1
  O2-  O294  1  0.05095957  0.56785267  0.50931970  1
  O2-  O295  1  0.94502059  0.09548407  0.98727556  1
  O2-  O296  1  0.97531146  0.48165289  0.74779178  1
  O2-  O297  1  0.96539059  0.87231608  0.23651965  1
  O2-  O298  1  0.54630116  0.56933328  0.23738433  1
  O2-  O299  1  0.95167119  0.76692765  0.48620648  1
  O2-  O300  1  0.45116423  0.57587040  0.72846346  1
  O2-  O301  1  0.04383587  0.09414000  0.94931150  1
  O2-  O302  1  0.05074483  0.76739281  0.51267479  1
  O2-  O303  1  0.04604021  0.56721306  0.24270676  1
  O2-  O304  1  0.94277444  0.23901008  0.97845863  1
  O2-  O305  1  0.95170442  0.89858246  0.74654661  1
  O2-  O306  1  0.44915720  0.75990652  0.51425238  1
  O2-  O307  1  0.44903382  0.56373618  0.98856117  1
  O2-  O308  1  0.96573239  0.87428117  0.25526522  1
  O2-  O309  1  0.54980484  0.56595256  0.98996003  1
  O2-  O310  1  0.04569944  0.09194398  0.48944020  1
  O2-  O311  1  0.55162201  0.90422166  0.23360263  1
  O2-  O312  1  0.44919349  0.57296446  0.51224382  1
  O2-  O313  1  0.54982933  0.56899935  0.76422059  1
  O2-  O314  1  0.04930697  0.42573531  0.00753488  1
  O2-  O315  1  0.54960398  0.75752375  0.52105742  1
  O2-  O316  1  0.55300764  0.77016440  0.76659171  1
  O2-  O317  1  0.05088401  0.23196452  0.26408737  1
  O2-  O318  1  0.54497065  0.42761613  0.26721323  1
  O2-  O319  1  0.45112313  0.89576837  0.26442590  1
  O2-  O320  1  0.04839850  0.90180173  0.74086360  1
  O2-  O321  1  0.95028002  0.23127673  0.51144187  1
  O2-  O322  1  0.45176550  0.90906408  0.22802899  1
  O2-  O323  1  0.46253325  0.78164223  0.70815614  1
  O2-  O324  1  0.94080327  0.92568899  0.02072890  1
  O2-  O325  1  0.91371788  0.94150652  0.32388244  1
  O2-  O326  1  0.56480649  0.74500949  0.27539777  1
  O2-  O327  1  0.93667028  0.59735090  0.03357983  1
  O2-  O328  1  0.43735757  0.74576845  0.02650903  1
  O2-  O329  1  0.06452099  0.40549006  0.17720327  1
  O2-  O330  1  0.93498002  0.60613089  0.40736278  1
  O2-  O331  1  0.93768912  0.07372301  0.72669614  1
  O2-  O332  1  0.92970341  0.39578763  0.83279773  1
  O2-  O333  1  0.06846313  0.05063781  0.06901392  1
  O2-  O334  1  0.93735657  0.41336221  0.27437825  1
  O2-  O335  1  0.08358592  0.27989822  0.96571680  1
  O2-  O336  1  0.07047282  0.93669993  0.31663835  1
  O2-  O337  1  0.43986382  0.41590592  0.78367330  1
  O2-  O338  1  0.93591130  0.41482825  0.02594294  1
  O2-  O339  1  0.93865039  0.06717508  0.96491673  1
  O2-  O340  1  0.43508854  0.59238417  0.97853163  1
  O2-  O341  1  0.56287268  0.07942545  0.77108045  1
  O2-  O342  1  0.06104378  0.40306086  0.03181948  1
  O2-  O343  1  0.06081018  0.07663324  0.28143420  1
  O2-  O344  1  0.06885307  0.41554070  0.70062551  1
  O2-  O345  1  0.56346257  0.40828832  0.02607918  1
  O2-  O346  1  0.91633045  0.39631236  0.68693940  1
  O2-  O347  1  0.92917814  0.08372632  0.43318434  1
  O2-  O348  1  0.93184848  0.08148426  0.56789001  1
  O2-  O349  1  0.43613723  0.40202344  0.21572240  1
  O2-  O350  1  0.06902735  0.42468524  0.31940479  1
  O2-  O351  1  0.41691824  0.73401002  0.80674122  1
  O2-  O352  1  0.06073410  0.59584379  0.52854359  1
  O2-  O353  1  0.06240442  0.25707655  0.77289730  1
  O2-  O354  1  0.43256946  0.92090878  0.48015888  1
  O2-  O355  1  0.43263893  0.07682478  0.47728815  1
  O2-  O356  1  0.43668783  0.92421814  0.97571796  1
  O2-  O357  1  0.06722596  0.41466688  0.79840372  1
  O2-  O358  1  0.06325545  0.07154266  0.71602668  1
  O2-  O359  1  0.56272156  0.26607783  0.46669101  1
  O2-  O360  1  0.42192362  0.28567447  0.79937783  1
  O2-  O361  1  0.56208613  0.92772515  0.71152704  1
  O2-  O362  1  0.56294335  0.73715965  0.76932539  1
  O2-  O363  1  0.06159214  0.73700754  0.52503537  1
  O2-  O364  1  0.94403412  0.59365575  0.55883386  1
  O2-  O365  1  0.56548203  0.92532365  0.97828820  1
  O2-  O366  1  0.56283325  0.06867753  0.47507673  1
  O2-  O367  1  0.43963268  0.26449912  0.03317963  1
  O2-  O368  1  0.92742642  0.26796190  0.02970622  1
  O2-  O369  1  0.93721311  0.73134505  0.28219441  1
  O2-  O370  1  0.93532846  0.40956675  0.52180863  1
  O2-  O371  1  0.93185204  0.97036792  0.17251556  1
  O2-  O372  1  0.25079183  -0.00409520  0.79819963  1
  O2-  O373  1  0.25002901  0.67139086  0.17373628  1
  O2-  O374  1  0.24949089  0.66315475  0.92956678  1
  O2-  O375  1  0.24994797  0.65387381  0.38706078  1
  O2-  O376  1  0.74949426  0.32899560  0.06799283  1
  O2-  O377  1  0.75015019  0.66983295  0.89379165  1
  O2-  O378  1  0.24972474  0.66223585  0.81733086  1
  O2-  O379  1  0.74965768  0.33989317  0.32549225  1
  O2-  O380  1  0.24989954  0.33246374  0.82665871  1
  O2-  O381  1  0.75041534  0.32956339  0.15847612  1
  O2-  O382  1  0.24915254  0.33573768  0.65191368  1
  O2-  O383  1  0.25002965  0.00384476  0.92454522  1
  O2-  O384  1  0.24909181  0.65944910  0.67019055  1
  O2-  O385  1  0.24968077  0.33853706  0.91716687  1
  O2-  O386  1  0.24930738  0.65861714  0.08218691  1
  O2-  O387  1  0.74807876  -0.00082691  0.40955850  1
  O2-  O388  1  0.74907883  0.32671836  0.85357587  1
  O2-  O389  1  0.74998623  0.31776519  0.44313825  1
  O2-  O390  1  0.25082482  0.66510861  0.57986108  1
  O2-  O391  1  0.75014631  -0.01009953  0.86862666  1
  O2-  O392  1  0.74918130  0.66080123  0.35575121  1
  O2-  O393  1  0.25037517  0.33274825  0.14999034  1
  O2-  O394  1  0.74982705  0.66267451  0.64412758  1
  O2-  O395  1  0.25042553  -0.00334346  0.38890822  1
  O2-  O396  1  0.25004682  0.49892043  0.63749582  1
  O2-  O397  1  0.74996946  0.84839463  0.63155279  1
  O2-  O398  1  0.24995960  0.17421616  0.36442934  1
  O2-  O399  1  0.24990499  0.86010167  0.11699802  1
  O2-  O400  1  0.74950924  0.17635266  0.88476002  1
  O2-  O401  1  0.74990220  0.17424849  0.36153329  1
  O2-  O402  1  0.75021037  0.47965297  0.42017809  1
  O2-  O403  1  0.74997886  0.83446620  0.11503576  1
  O2-  O404  1  0.25001756  0.84286271  0.38961236  1
  O2-  O405  1  0.25011126  0.50760834  0.16380111  1
  O2-  O406  1  0.75012652  0.17562452  0.65233422  1
  O2-  O407  1  0.74934762  0.49926774  0.87572154  1
  O2-  O408  1  0.25019674  0.16891944  0.82743654  1
  O2-  O409  1  0.25029265  0.84885863  0.89038875  1
  O2-  O410  1  0.74929075  0.49027739  0.09361096  1
  O2-  O411  1  0.25011970  0.49937162  0.33677678  1
  O2-  O412  1  0.25052446  0.16787814  0.07936007  1
  O2-  O413  1  0.75036990  0.49860145  0.95705179  1
  O2-  O414  1  0.74973002  0.49717320  0.32664474  1
  O2-  O415  1  0.75008872  0.46940582  0.61768010  1
  O2-  O416  1  0.25009504  0.84716023  0.80057625  1
  O2-  O417  1  0.25017630  0.16927625  0.91720670  1
  O2-  O418  1  0.24994153  0.50004785  0.86136907  1
  O2-  O419  1  0.75027187  0.84205912  0.40464448  1
  O2-  O420  1  0.97575696  0.33092249  0.13935083  1
  O2-  O421  1  0.45305592  0.33386716  0.62047171  1
  O2-  O422  1  0.45321768  0.67026385  0.36657950  1
  O2-  O423  1  0.03043071  0.67167396  0.37231740  1
  O2-  O424  1  0.97420318  0.31713083  0.62538925  1
  O2-  O425  1  0.47240830  -0.00442622  0.36629257  1
  O2-  O426  1  0.02652769  0.66780033  0.12651551  1
  O2-  O427  1  0.45526432  0.65582569  0.14014666  1
  O2-  O428  1  0.47513598  0.66866653  0.88063229  1
  O2-  O429  1  0.52748416  0.33554680  0.87466849  1
  O2-  O430  1  0.53997258  0.66059335  0.37870003  1
  O2-  O431  1  0.01633490  0.33345538  0.88196855  1
  O2-  O432  1  0.03947397  0.31728760  0.38264723  1
  O2-  O433  1  0.03247403  0.32246304  0.62262622  1
  O2-  O434  1  0.53528976  0.66380540  0.88532486  1
  O2-  O435  1  0.98863441  -0.00083398  0.37928124  1
  O2-  O436  1  0.46489115  0.00831092  0.86187471  1
  O2-  O437  1  0.54527679  0.67376170  0.12301431  1
  O2-  O438  1  0.02436542  0.66883536  0.64199652  1
  O2-  O439  1  0.95590611  0.32537133  0.38071240  1
  O2-  O440  1  0.54662578  0.33224799  0.63078358  1
  O2-  O441  1  0.98409000  -0.01864309  0.61924949  1
  O2-  O442  1  0.52453436  0.32444387  0.12999049  1
  O2-  O443  1  0.52639654  -0.00371125  0.87763488  1
