# generated using pymatgen
data_La7(Ru4O11)2
_symmetry_space_group_name_H-M   'P 1'
_cell_length_a   23.98983825
_cell_length_b   16.82955552
_cell_length_c   15.42642174
_cell_angle_alpha   89.99957313
_cell_angle_beta   90.00119393
_cell_angle_gamma   89.99951760
_symmetry_Int_Tables_number   1
_chemical_formula_structural   La7(Ru4O11)2
_chemical_formula_sum   'La84 Ru96 O264'
_cell_volume   6228.23751590
_cell_formula_units_Z   12
loop_
 _symmetry_equiv_pos_site_id
 _symmetry_equiv_pos_as_xyz
  1  'x, y, z'
loop_
 _atom_type_symbol
 _atom_type_oxidation_number
  La3+  3.0
  Ru4+  4.0
  O2-  -2.0
loop_
 _atom_site_type_symbol
 _atom_site_label
 _atom_site_symmetry_multiplicity
 _atom_site_fract_x
 _atom_site_fract_y
 _atom_site_fract_z
 _atom_site_occupancy
  La3+  La0  1  0.13954685  0.00060963  0.12195333  1
  La3+  La1  1  0.13778722  -0.00049029  0.37591711  1
  La3+  La2  1  0.14053415  0.00101943  0.62703787  1
  La3+  La3  1  0.14056140  0.00055077  0.87382163  1
  La3+  La4  1  0.13860068  0.33158129  0.12565541  1
  La3+  La5  1  0.13823785  0.33457346  0.37530654  1
  La3+  La6  1  0.13684761  0.33490013  0.62783861  1
  La3+  La7  1  0.13857150  0.33318439  0.87392107  1
  La3+  La8  1  0.13780096  0.66652181  0.12521907  1
  La3+  La9  1  0.13978143  0.66624153  0.37470180  1
  La3+  La10  1  0.14019910  0.66568024  0.62710859  1
  La3+  La11  1  0.14110332  0.66561425  0.87315628  1
  La3+  La12  1  0.63874432  -0.00176884  0.12367820  1
  La3+  La13  1  0.64166149  -0.00060083  0.37740433  1
  La3+  La14  1  0.64147149  -0.00064837  0.62295941  1
  La3+  La15  1  0.63947836  -0.00106361  0.87566804  1
  La3+  La16  1  0.63873182  0.33253846  0.12537258  1
  La3+  La17  1  0.63842645  0.33380035  0.37613248  1
  La3+  La18  1  0.63711693  0.33459075  0.62486028  1
  La3+  La19  1  0.64011810  0.33186326  0.87384606  1
  La3+  La20  1  0.63502121  0.67221398  0.12762896  1
  La3+  La21  1  0.63337962  0.66985842  0.37424658  1
  La3+  La22  1  0.63752119  0.66645261  0.62402580  1
  La3+  La23  1  0.63740738  0.66777682  0.87495482  1
  La3+  La24  1  0.35984494  0.00087764  0.12295317  1
  La3+  La25  1  0.36245313  -0.00108354  0.37626158  1
  La3+  La26  1  0.35971867  0.00062819  0.62629262  1
  La3+  La27  1  0.35850681  0.00168645  0.87374667  1
  La3+  La28  1  0.36102018  0.33250398  0.12434497  1
  La3+  La29  1  0.36395562  0.33412433  0.37557902  1
  La3+  La30  1  0.36222076  0.33290618  0.62619252  1
  La3+  La31  1  0.36094809  0.33261577  0.87459696  1
  La3+  La32  1  0.36263752  0.66592254  0.12471813  1
  La3+  La33  1  0.36081312  0.66598495  0.37402713  1
  La3+  La34  1  0.35950805  0.66588119  0.62794061  1
  La3+  La35  1  0.36116573  0.66671005  0.87487176  1
  La3+  La36  1  0.85890317  -0.00247527  0.12341113  1
  La3+  La37  1  0.85951849  0.00072400  0.37883485  1
  La3+  La38  1  0.85744178  0.00142663  0.62244027  1
  La3+  La39  1  0.86304030  -0.00107283  0.87545384  1
  La3+  La40  1  0.86309041  0.33190995  0.12322508  1
  La3+  La41  1  0.86103279  0.33206270  0.37597838  1
  La3+  La42  1  0.86084780  0.33333904  0.62492523  1
  La3+  La43  1  0.86015622  0.33259143  0.87616971  1
  La3+  La44  1  0.85775982  0.66621811  0.12448566  1
  La3+  La45  1  0.86321839  0.66556167  0.37783252  1
  La3+  La46  1  0.85879096  0.66668435  0.62481002  1
  La3+  La47  1  0.86189402  0.66833376  0.87638199  1
  La3+  La48  1  -0.00254293  0.16895813  0.61477665  1
  La3+  La49  1  -0.00018210  0.83527880  0.63484649  1
  La3+  La50  1  0.50025793  0.83203008  0.36666544  1
  La3+  La51  1  0.49938429  0.16479044  0.86426057  1
  La3+  La52  1  0.50015355  0.49965773  0.88435217  1
  La3+  La53  1  0.49873113  0.83507345  0.86523311  1
  La3+  La54  1  0.00324279  0.50223768  0.62711861  1
  La3+  La55  1  0.50194288  0.16879853  0.13041730  1
  La3+  La56  1  0.00031159  0.83308349  0.61823617  1
  La3+  La57  1  0.50273506  0.82963295  0.13967552  1
  La3+  La58  1  0.49643909  0.50204014  0.12299345  1
  La3+  La59  1  0.00048408  0.16688066  0.86826526  1
  La3+  La60  1  0.50160677  0.16310726  0.38138352  1
  La3+  La61  1  0.00302061  0.50359794  0.11376319  1
  La3+  La62  1  -0.00128820  0.83550296  0.11860805  1
  La3+  La63  1  0.00289227  0.50243685  0.36589033  1
  La3+  La64  1  0.00180668  0.83259380  0.87899487  1
  La3+  La65  1  0.00081502  0.49816234  0.86365247  1
  La3+  La66  1  0.50082947  0.50103407  0.61632684  1
  La3+  La67  1  0.50110042  0.16657376  0.36474229  1
  La3+  La68  1  0.00012316  0.16566743  0.63639540  1
  La3+  La69  1  -0.00353058  0.83266027  0.13483748  1
  La3+  La70  1  -0.00079072  0.83267849  0.36959663  1
  La3+  La71  1  0.00183684  0.49416797  0.13343285  1
  La3+  La72  1  0.74990871  0.49842776  0.74868737  1
  La3+  La73  1  0.25022608  0.50038372  0.22000224  1
  La3+  La74  1  0.24970063  0.13174309  0.47811864  1
  La3+  La75  1  0.24996980  0.54047888  -0.01090007  1
  La3+  La76  1  0.74994373  0.53543268  0.00998973  1
  La3+  La77  1  0.75028392  0.87387490  0.28468585  1
  La3+  La78  1  0.25033372  0.16667289  0.24152599  1
  La3+  La79  1  0.74985897  0.20750300  0.26088787  1
  La3+  La80  1  0.24996295  0.83334672  0.75077150  1
  La3+  La81  1  0.25027348  0.55249898  0.50768446  1
  La3+  La82  1  0.75014116  0.86227173  0.77322366  1
  La3+  La83  1  0.75008765  0.49157212  0.24413048  1
  Ru4+  Ru84  1  -0.00227956  0.00652198  0.00034954  1
  Ru4+  Ru85  1  -0.00021108  0.00074089  0.25323293  1
  Ru4+  Ru86  1  -0.00227940  0.00130988  0.49531523  1
  Ru4+  Ru87  1  0.00776149  -0.00044806  0.74992527  1
  Ru4+  Ru88  1  0.00264773  0.32662060  0.00038144  1
  Ru4+  Ru89  1  -0.00170157  0.33389786  0.24958103  1
  Ru4+  Ru90  1  0.00086358  0.33216682  0.50096516  1
  Ru4+  Ru91  1  -0.00141935  0.32585748  0.75102388  1
  Ru4+  Ru92  1  0.00109431  0.66478042  -0.00517325  1
  Ru4+  Ru93  1  0.00097555  0.66782040  0.25303453  1
  Ru4+  Ru94  1  0.00238403  0.66594152  0.49630174  1
  Ru4+  Ru95  1  -0.00045155  0.66820494  0.75262126  1
  Ru4+  Ru96  1  0.50097139  -0.00107655  0.00289969  1
  Ru4+  Ru97  1  0.50041891  -0.00082029  0.24970421  1
  Ru4+  Ru98  1  0.49945369  -0.00116785  0.49972501  1
  Ru4+  Ru99  1  0.50050081  0.00054349  0.74977640  1
  Ru4+  Ru100  1  0.49451207  0.33240454  -0.00372556  1
  Ru4+  Ru101  1  0.50134791  0.33427800  0.25329387  1
  Ru4+  Ru102  1  0.50350743  0.34183375  0.50175963  1
  Ru4+  Ru103  1  0.50163957  0.33122312  0.74839059  1
  Ru4+  Ru104  1  0.50230999  0.66398060  0.00210984  1
  Ru4+  Ru105  1  0.49989207  0.66882471  0.25114143  1
  Ru4+  Ru106  1  0.50175196  0.66458373  0.49853106  1
  Ru4+  Ru107  1  0.49657569  0.66286083  0.75147927  1
  Ru4+  Ru108  1  0.11547138  0.16621758  -0.00032297  1
  Ru4+  Ru109  1  0.11310772  0.16441311  0.25107068  1
  Ru4+  Ru110  1  0.11101769  0.16766246  0.50068508  1
  Ru4+  Ru111  1  0.11207731  0.16468836  0.74969866  1
  Ru4+  Ru112  1  0.11194256  0.50255718  -0.00092870  1
  Ru4+  Ru113  1  0.11080192  0.50012880  0.25065967  1
  Ru4+  Ru114  1  0.11048091  0.50086285  0.49956614  1
  Ru4+  Ru115  1  0.11539911  0.50466493  0.74991656  1
  Ru4+  Ru116  1  0.11701603  0.83035768  -0.00089148  1
  Ru4+  Ru117  1  0.11244209  0.83116098  0.25010575  1
  Ru4+  Ru118  1  0.11345925  0.83340099  0.49959806  1
  Ru4+  Ru119  1  0.11259718  0.83481063  0.75000415  1
  Ru4+  Ru120  1  0.61422341  0.16716838  0.00033683  1
  Ru4+  Ru121  1  0.61109655  0.16716644  0.24961454  1
  Ru4+  Ru122  1  0.61465951  0.16520234  0.50057156  1
  Ru4+  Ru123  1  0.61241351  0.16684197  0.75023149  1
  Ru4+  Ru124  1  0.61480100  0.50367109  -0.00073604  1
  Ru4+  Ru125  1  0.61009983  0.49926336  0.24928897  1
  Ru4+  Ru126  1  0.61362169  0.50022865  0.49984179  1
  Ru4+  Ru127  1  0.61123703  0.49903975  0.74947628  1
  Ru4+  Ru128  1  0.61384748  0.83400972  0.00152229  1
  Ru4+  Ru129  1  0.61008124  0.83284616  0.25154226  1
  Ru4+  Ru130  1  0.61333744  0.83441376  0.49781516  1
  Ru4+  Ru131  1  0.61330792  0.83867739  0.74810251  1
  Ru4+  Ru132  1  0.38517465  0.16620055  0.00067650  1
  Ru4+  Ru133  1  0.38963765  0.16897211  0.24995476  1
  Ru4+  Ru134  1  0.38378140  0.16158383  0.49972540  1
  Ru4+  Ru135  1  0.38736541  0.16535123  0.74972844  1
  Ru4+  Ru136  1  0.38879553  0.50111275  0.00055617  1
  Ru4+  Ru137  1  0.38821157  0.50098861  0.24915255  1
  Ru4+  Ru138  1  0.38986235  0.50082936  0.49940320  1
  Ru4+  Ru139  1  0.38647932  0.50225913  0.75026986  1
  Ru4+  Ru140  1  0.38551849  0.83624189  0.00200718  1
  Ru4+  Ru141  1  0.38896205  0.83288635  0.24980400  1
  Ru4+  Ru142  1  0.38576434  0.83555262  0.49889132  1
  Ru4+  Ru143  1  0.38767646  0.83383005  0.75040688  1
  Ru4+  Ru144  1  0.88591650  0.16883308  0.00054185  1
  Ru4+  Ru145  1  0.88892334  0.16950018  0.25006555  1
  Ru4+  Ru146  1  0.88608417  0.16395745  0.49988482  1
  Ru4+  Ru147  1  0.88441122  0.17110278  0.74996136  1
  Ru4+  Ru148  1  0.88395211  0.50469920  -0.00153449  1
  Ru4+  Ru149  1  0.88773151  0.49984652  0.25084525  1
  Ru4+  Ru150  1  0.88405531  0.50026665  0.50147494  1
  Ru4+  Ru151  1  0.88623973  0.50053601  0.75017682  1
  Ru4+  Ru152  1  0.88418486  0.83419570  0.00021422  1
  Ru4+  Ru153  1  0.88846245  0.83560898  0.24959828  1
  Ru4+  Ru154  1  0.88572814  0.83533916  0.49913906  1
  Ru4+  Ru155  1  0.88703115  0.83114350  0.75070883  1
  Ru4+  Ru156  1  0.25003642  0.39366247  -0.00102353  1
  Ru4+  Ru157  1  0.74973709  0.36420080  0.25234249  1
  Ru4+  Ru158  1  0.75005879  0.24744492  0.49700432  1
  Ru4+  Ru159  1  0.25040028  0.75342010  0.25015662  1
  Ru4+  Ru160  1  0.75026517  0.72648324  0.74571742  1
  Ru4+  Ru161  1  0.25004754  0.41711912  0.75911275  1
  Ru4+  Ru162  1  0.75054624  0.74264311  0.25764568  1
  Ru4+  Ru163  1  0.24977172  0.40250733  0.50599565  1
  Ru4+  Ru164  1  0.25033130  0.75843573  0.50071825  1
  Ru4+  Ru165  1  0.75020364  0.08338757  -0.00320459  1
  Ru4+  Ru166  1  0.74999156  0.25291105  0.75113629  1
  Ru4+  Ru167  1  0.25026511  0.75225346  -0.00138639  1
  Ru4+  Ru168  1  0.75033156  0.08173917  0.74335848  1
  Ru4+  Ru169  1  0.24978497  0.24548536  0.74648351  1
  Ru4+  Ru170  1  0.25020176  0.91193723  0.50208392  1
  Ru4+  Ru171  1  0.74998605  0.75423738  0.50363050  1
  Ru4+  Ru172  1  0.25019113  0.29894933  0.25833078  1
  Ru4+  Ru173  1  0.25006440  0.90779320  0.25128979  1
  Ru4+  Ru174  1  0.74986850  0.39268522  -0.00723922  1
  Ru4+  Ru175  1  0.74996916  0.06325844  0.26571412  1
  Ru4+  Ru176  1  0.24979048  0.26412706  0.51019274  1
  Ru4+  Ru177  1  0.74976239  0.61534773  0.27198629  1
  Ru4+  Ru178  1  0.25004664  0.91458250  0.00195554  1
  Ru4+  Ru179  1  0.25013068  0.03566959  0.24922877  1
  O2-  O180  1  0.16505289  0.08204257  -0.00025309  1
  O2-  O181  1  0.16556971  0.07870244  0.25045216  1
  O2-  O182  1  0.16530795  0.07806419  0.49873997  1
  O2-  O183  1  0.16642385  0.08121226  0.74936776  1
  O2-  O184  1  0.16776248  0.41152731  0.00048460  1
  O2-  O185  1  0.16723980  0.41213445  0.25033123  1
  O2-  O186  1  0.16667529  0.41293654  0.50091076  1
  O2-  O187  1  0.16697246  0.41336895  0.75047968  1
  O2-  O188  1  0.16843651  0.74792792  0.00181271  1
  O2-  O189  1  0.16749066  0.74743974  0.24967518  1
  O2-  O190  1  0.16713434  0.74812738  0.49991134  1
  O2-  O191  1  0.16751317  0.74780396  0.75018887  1
  O2-  O192  1  0.66558837  0.08113846  -0.00032737  1
  O2-  O193  1  0.66633651  0.07990347  0.25064692  1
  O2-  O194  1  0.66613667  0.08348136  0.50077473  1
  O2-  O195  1  0.66661060  0.08119422  0.74992529  1
  O2-  O196  1  0.66811847  0.41343975  -0.00058965  1
  O2-  O197  1  0.66725497  0.41153315  0.25092948  1
  O2-  O198  1  0.66598129  0.41479213  0.50093484  1
  O2-  O199  1  0.66919611  0.41387434  0.74902418  1
  O2-  O200  1  0.66530246  0.74781107  -0.00110727  1
  O2-  O201  1  0.66709105  0.74622046  0.24937424  1
  O2-  O202  1  0.67020945  0.74746629  0.50022042  1
  O2-  O203  1  0.66714902  0.74610355  0.75130134  1
  O2-  O204  1  0.33395681  0.25305232  -0.00048635  1
  O2-  O205  1  0.33366573  0.25466397  0.25121916  1
  O2-  O206  1  0.33251351  0.25336955  0.49987153  1
  O2-  O207  1  0.33232984  0.25213158  0.74963457  1
  O2-  O208  1  0.33498196  0.58802652  0.00090195  1
  O2-  O209  1  0.33190524  0.58603804  0.24932277  1
  O2-  O210  1  0.33637150  0.58772897  0.49929062  1
  O2-  O211  1  0.33314171  0.58418048  0.75141525  1
  O2-  O212  1  0.33311063  0.91918760  0.00044209  1
  O2-  O213  1  0.33235852  0.92013366  0.25036068  1
  O2-  O214  1  0.33223023  0.91805165  0.49970472  1
  O2-  O215  1  0.33245721  0.91936281  0.74901769  1
  O2-  O216  1  0.83507236  0.25062241  0.00013134  1
  O2-  O217  1  0.83519941  0.25411866  0.24904148  1
  O2-  O218  1  0.83302700  0.25237757  0.50015621  1
  O2-  O219  1  0.83281763  0.25231922  0.74912732  1
  O2-  O220  1  0.83374923  0.58679677  -0.00104441  1
  O2-  O221  1  0.83436377  0.58714293  0.25096520  1
  O2-  O222  1  0.83216478  0.58469959  0.49943964  1
  O2-  O223  1  0.83075269  0.58542776  0.74999806  1
  O2-  O224  1  0.83254866  0.91768651  -0.00074550  1
  O2-  O225  1  0.83402711  0.91997210  0.25019003  1
  O2-  O226  1  0.83347972  0.91625742  0.49971922  1
  O2-  O227  1  0.83301062  0.92031774  0.75034775  1
  O2-  O228  1  0.16580653  0.25318002  -0.00076161  1
  O2-  O229  1  0.16812171  0.25498440  0.24970995  1
  O2-  O230  1  0.16614730  0.25333936  0.49987596  1
  O2-  O231  1  0.16780199  0.25334532  0.74998558  1
  O2-  O232  1  0.16398463  0.58816021  0.00203491  1
  O2-  O233  1  0.16725126  0.58803159  0.24948254  1
  O2-  O234  1  0.16316849  0.58850858  0.49900186  1
  O2-  O235  1  0.16549259  0.58479370  0.75074647  1
  O2-  O236  1  0.16702411  0.91834998  0.00078693  1
  O2-  O237  1  0.16776815  0.92041008  0.25105100  1
  O2-  O238  1  0.16788391  0.91895675  0.49844673  1
  O2-  O239  1  0.16929061  0.91849479  0.74851311  1
  O2-  O240  1  0.66726690  0.25142387  -0.00093824  1
  O2-  O241  1  0.66591915  0.25578930  0.25038567  1
  O2-  O242  1  0.66738188  0.25184121  0.50005068  1
  O2-  O243  1  0.66735624  0.25259698  0.74906155  1
  O2-  O244  1  0.66473923  0.58853966  -0.00151801  1
  O2-  O245  1  0.66454921  0.58811492  0.25025699  1
  O2-  O246  1  0.66776383  0.58547179  0.50022661  1
  O2-  O247  1  0.66786296  0.58658131  0.75033199  1
  O2-  O248  1  0.66727154  0.91819513  -0.00123811  1
  O2-  O249  1  0.66573233  0.91914477  0.24867877  1
  O2-  O250  1  0.66476296  0.91630919  0.50017175  1
  O2-  O251  1  0.66622324  0.91993482  0.75043698  1
  O2-  O252  1  0.33515516  0.08146018  -0.00057803  1
  O2-  O253  1  0.33387878  0.07785134  0.25010208  1
  O2-  O254  1  0.33319726  0.07801659  0.49967443  1
  O2-  O255  1  0.33411359  0.08190266  0.74946128  1
  O2-  O256  1  0.33282539  0.41271093  -0.00018253  1
  O2-  O257  1  0.33343853  0.41350154  0.25113325  1
  O2-  O258  1  0.33279405  0.41228556  0.50028538  1
  O2-  O259  1  0.33286666  0.41410617  0.75043685  1
  O2-  O260  1  0.33152542  0.74783137  0.00103330  1
  O2-  O261  1  0.33207124  0.74724932  0.24979260  1
  O2-  O262  1  0.33247400  0.74853328  0.50011022  1
  O2-  O263  1  0.33226197  0.74745306  0.75103126  1
  O2-  O264  1  0.83249233  0.08129336  -0.00056709  1
  O2-  O265  1  0.83210071  0.08091451  0.25089207  1
  O2-  O266  1  0.83342431  0.08372034  0.49971392  1
  O2-  O267  1  0.83221058  0.08088103  0.74998680  1
  O2-  O268  1  0.83332474  0.41323202  0.00004552  1
  O2-  O269  1  0.83419047  0.41140712  0.25026013  1
  O2-  O270  1  0.83284435  0.41531474  0.50085411  1
  O2-  O271  1  0.83167498  0.41487001  0.74831619  1
  O2-  O272  1  0.83188373  0.74884727  -0.00182368  1
  O2-  O273  1  0.83340947  0.74598110  0.25134028  1
  O2-  O274  1  0.83051465  0.74783350  0.49996788  1
  O2-  O275  1  0.83149301  0.74704373  0.74991375  1
  O2-  O276  1  0.96133005  0.43734712  0.47214151  1
  O2-  O277  1  0.03496632  0.21691675  0.25704983  1
  O2-  O278  1  0.04444235  0.76482189  0.51439751  1
  O2-  O279  1  0.54218549  0.76920054  0.25857099  1
  O2-  O280  1  0.94710329  0.57661554  0.45361277  1
  O2-  O281  1  0.44453718  0.75309507  0.97738512  1
  O2-  O282  1  0.04908363  0.43089251  0.98328450  1
  O2-  O283  1  0.54026593  0.22678719  0.97442379  1
  O2-  O284  1  0.54934207  0.23376133  0.76200989  1
  O2-  O285  1  0.04705832  0.77017232  0.03327819  1
  O2-  O286  1  0.95381519  0.57059622  0.23579720  1
  O2-  O287  1  0.03883420  0.22302313  0.21973853  1
  O2-  O288  1  0.54518897  0.76753059  0.73033720  1
  O2-  O289  1  0.04534196  0.90663980  0.01968460  1
  O2-  O290  1  0.54559958  0.56878711  0.01372643  1
  O2-  O291  1  0.45461243  0.09753325  0.23641391  1
  O2-  O292  1  0.45599761  0.22674840  0.49610900  1
  O2-  O293  1  0.55329106  0.42121486  0.03197482  1
  O2-  O294  1  0.94471813  0.91530443  0.97982418  1
  O2-  O295  1  0.04628797  0.09796699  0.51332992  1
  O2-  O296  1  0.54802960  0.76124714  0.23297908  1
  O2-  O297  1  0.04559329  0.90308518  0.48784842  1
  O2-  O298  1  0.95483543  0.76759363  0.25918534  1
  O2-  O299  1  0.55034273  0.43257231  0.51309546  1
  O2-  O300  1  0.53691118  0.10767213  0.53642348  1
  O2-  O301  1  0.04879230  0.90131300  0.98128723  1
  O2-  O302  1  0.95823306  0.44484837  0.71888747  1
  O2-  O303  1  0.45561252  0.90318731  0.01529779  1
  O2-  O304  1  0.96585743  0.11231865  0.24266809  1
  O2-  O305  1  0.95115291  0.90250565  0.78738802  1
  O2-  O306  1  0.95478224  0.42875756  0.26564376  1
  O2-  O307  1  0.45346874  0.43244886  0.50553163  1
  O2-  O308  1  0.95192688  0.42959725  0.01752250  1
  O2-  O309  1  0.05103122  0.43187654  0.73633808  1
  O2-  O310  1  0.04462019  0.90353685  0.26324765  1
  O2-  O311  1  0.45441519  0.09227467  0.76309820  1
  O2-  O312  1  0.96236319  0.78000592  -0.00031435  1
  O2-  O313  1  0.45223251  0.43198342  0.49606626  1
  O2-  O314  1  0.45080916  0.23887338  0.76390684  1
  O2-  O315  1  0.55089212  0.23718027  0.48264008  1
  O2-  O316  1  0.95295996  0.09701419  0.76232373  1
  O2-  O317  1  0.95282133  0.43297037  0.97850150  1
  O2-  O318  1  0.04519694  0.76472627  0.76090262  1
  O2-  O319  1  0.54719679  0.76125058  0.76875305  1
  O2-  O320  1  0.54451091  0.09438770  0.98625943  1
  O2-  O321  1  0.96629840  0.11759192  0.00583059  1
  O2-  O322  1  0.95722948  0.77341706  0.98418139  1
  O2-  O323  1  0.46190778  0.21922128  0.49856417  1
  O2-  O324  1  0.93554229  0.74122114  0.56061945  1
  O2-  O325  1  0.93669629  0.92767441  0.46641999  1
  O2-  O326  1  0.93591586  0.59764596  0.69642215  1
  O2-  O327  1  0.44505765  0.75141065  0.97671028  1
  O2-  O328  1  0.93418643  0.26527701  0.28415515  1
  O2-  O329  1  0.43616902  0.07219223  0.46516210  1
  O2-  O330  1  0.07130311  0.72247272  0.94870838  1
  O2-  O331  1  0.56660706  0.73132894  0.28140799  1
  O2-  O332  1  0.93680008  0.07139852  0.46737230  1
  O2-  O333  1  0.93334360  0.74022417  0.77711026  1
  O2-  O334  1  0.93635934  0.59286010  0.05943727  1
  O2-  O335  1  0.92502217  0.05873713  0.21689875  1
  O2-  O336  1  0.42227303  0.28849622  0.54614153  1
  O2-  O337  1  0.55345476  0.42107543  0.03195901  1
  O2-  O338  1  0.93382974  0.59058166  0.79988889  1
  O2-  O339  1  0.92902945  0.39793432  0.54247513  1
  O2-  O340  1  0.93329487  0.74151274  0.44688497  1
  O2-  O341  1  0.57270575  0.40365214  0.94733703  1
  O2-  O342  1  0.56303156  0.93020373  0.28320050  1
  O2-  O343  1  0.06217850  0.40423186  0.71798707  1
  O2-  O344  1  0.56254437  0.93268935  0.71906182  1
  O2-  O345  1  0.91987688  0.71448081  0.05604198  1
  O2-  O346  1  0.06625223  0.92773733  0.77796138  1
  O2-  O347  1  0.92447768  0.93229985  0.68314533  1
  O2-  O348  1  0.56494408  0.40688684  0.72231989  1
  O2-  O349  1  0.94238723  0.91989467  0.97853692  1
  O2-  O350  1  0.94778992  0.57606004  0.46595604  1
  O2-  O351  1  0.56567888  0.40901882  0.22185709  1
  O2-  O352  1  0.43772971  0.92811812  0.46764394  1
  O2-  O353  1  0.43324602  0.74203285  0.54508513  1
  O2-  O354  1  0.92888377  0.38873109  0.80366479  1
  O2-  O355  1  0.56450655  0.59394257  0.52783334  1
  O2-  O356  1  0.56479570  0.25802843  0.22150817  1
  O2-  O357  1  0.93556818  0.07425509  0.77631791  1
  O2-  O358  1  0.43548961  0.59375453  0.72305268  1
  O2-  O359  1  0.43782271  0.59981154  0.21740432  1
  O2-  O360  1  0.43686580  0.40371242  0.78287766  1
  O2-  O361  1  0.94454860  0.91381111  0.79362465  1
  O2-  O362  1  0.56508995  0.92751336  0.02766221  1
  O2-  O363  1  0.07828826  0.29152214  0.30325605  1
  O2-  O364  1  0.57213860  0.26739709  0.04198390  1
  O2-  O365  1  0.43566182  0.59604837  0.03344760  1
  O2-  O366  1  0.93107182  0.60215538  0.57081035  1
  O2-  O367  1  0.43419279  0.74082519  0.45351501  1
  O2-  O368  1  0.93401248  0.59065942  0.94589100  1
  O2-  O369  1  0.56953737  0.05663443  0.44720922  1
  O2-  O370  1  0.56434804  0.73914924  0.46605876  1
  O2-  O371  1  0.92337536  0.05843449  0.03462203  1
  O2-  O372  1  0.25016956  0.33234131  0.39771946  1
  O2-  O373  1  0.24993707  -0.00294096  0.83115688  1
  O2-  O374  1  0.74993064  -0.00393554  0.92030628  1
  O2-  O375  1  0.24982053  0.00181405  0.92059677  1
  O2-  O376  1  0.75004533  0.33302464  0.84283201  1
  O2-  O377  1  0.74990772  -0.00216504  0.82848891  1
  O2-  O378  1  0.24988269  0.66573743  0.42025597  1
  O2-  O379  1  0.25001168  0.66838852  0.90833189  1
  O2-  O380  1  0.24991189  0.66671947  0.32786712  1
  O2-  O381  1  0.24985026  0.33113667  0.84469380  1
  O2-  O382  1  0.75019070  0.33297630  0.09741553  1
  O2-  O383  1  0.75004941  -0.00761474  0.16947151  1
  O2-  O384  1  0.74985398  0.00276827  0.60276886  1
  O2-  O385  1  0.25009905  -0.00286910  0.59135517  1
  O2-  O386  1  0.75000842  0.33088810  0.40602599  1
  O2-  O387  1  0.24976081  0.33907535  0.14628946  1
  O2-  O388  1  0.74951277  0.66789046  0.15916217  1
  O2-  O389  1  0.24998917  0.66726878  0.57966795  1
  O2-  O390  1  0.24994980  -0.00281383  0.09424204  1
  O2-  O391  1  0.74995961  -0.00237220  0.07696048  1
  O2-  O392  1  0.75008937  -0.00074372  0.39556128  1
  O2-  O393  1  0.25014061  0.33466647  0.65841944  1
  O2-  O394  1  0.74987511  0.66618982  0.06883824  1
  O2-  O395  1  0.25007926  0.66986404  0.66997286  1
  O2-  O396  1  0.74988126  0.16687692  0.57728239  1
  O2-  O397  1  0.25010093  0.48123578  0.40887856  1
  O2-  O398  1  0.74998750  0.16853299  0.66787598  1
  O2-  O399  1  0.74994516  0.17045037  0.91911897  1
  O2-  O400  1  0.25017781  0.48386082  0.60934636  1
  O2-  O401  1  0.24998990  0.50581947  0.33479451  1
  O2-  O402  1  0.24998216  0.48899186  0.87029324  1
  O2-  O403  1  0.74998030  0.50087034  0.44191628  1
  O2-  O404  1  0.24994414  0.16709467  0.09828030  1
  O2-  O405  1  0.75007643  0.16561106  0.83043981  1
  O2-  O406  1  0.24989822  0.17507316  0.61181273  1
  O2-  O407  1  0.24992270  0.50768609  0.69301797  1
  O2-  O408  1  0.24993552  0.83172823  0.15639567  1
  O2-  O409  1  0.75007555  0.15734073  0.14481173  1
  O2-  O410  1  0.75002782  0.15921696  0.37978723  1
  O2-  O411  1  0.75002880  0.50169254  0.36262307  1
  O2-  O412  1  0.74996536  0.17426819  0.06179942  1
  O2-  O413  1  0.24995462  0.83385279  0.90727437  1
  O2-  O414  1  0.75006021  0.83033712  0.15243786  1
  O2-  O415  1  0.74997740  0.82549637  0.63671398  1
  O2-  O416  1  0.75003450  0.83337503  0.06912600  1
  O2-  O417  1  0.74998811  0.49463206  0.88402805  1
  O2-  O418  1  0.75002921  0.49616372  0.12431040  1
  O2-  O419  1  0.25000815  0.49031080  0.10329562  1
  O2-  O420  1  0.97208388  0.00696479  0.88151175  1
  O2-  O421  1  0.52290861  0.33129415  0.86893925  1
  O2-  O422  1  0.02846866  0.66514403  0.62561197  1
  O2-  O423  1  0.04165882  -0.00150499  0.62865078  1
  O2-  O424  1  0.97436974  0.32611265  0.62922128  1
  O2-  O425  1  0.03174238  0.00470684  0.87705735  1
  O2-  O426  1  0.52568015  0.00356222  0.12930239  1
  O2-  O427  1  0.53718086  0.66508710  0.87452272  1
  O2-  O428  1  0.53818574  0.33365165  0.37203237  1
  O2-  O429  1  0.52481186  0.33123370  0.13091879  1
  O2-  O430  1  0.52493487  0.33027966  0.62330003  1
  O2-  O431  1  0.46046228  0.33197837  0.37096346  1
  O2-  O432  1  0.97154784  0.33375013  0.12492078  1
  O2-  O433  1  0.46382590  0.33268959  0.12522701  1
  O2-  O434  1  0.96389508  0.00946150  0.61596137  1
  O2-  O435  1  0.98030851  0.67111077  0.87641111  1
  O2-  O436  1  0.97830477  0.66766673  0.36561082  1
  O2-  O437  1  0.53015752  0.66904163  0.62833023  1
  O2-  O438  1  0.02874232  0.66581146  0.12612068  1
  O2-  O439  1  0.97264083  -0.01053051  0.12415200  1
  O2-  O440  1  0.47256712  0.66459181  0.62713232  1
  O2-  O441  1  0.46521833  0.66269098  0.86895290  1
  O2-  O442  1  0.47430313  0.66218772  0.37071610  1
  O2-  O443  1  0.03377258  0.00227157  0.12664038  1
