# generated using pymatgen
data_La7(Ru4O11)2
_symmetry_space_group_name_H-M   'P 1'
_cell_length_a   23.98928064
_cell_length_b   16.82890399
_cell_length_c   15.42603388
_cell_angle_alpha   90.00022417
_cell_angle_beta   89.99949038
_cell_angle_gamma   90.00058269
_symmetry_Int_Tables_number   1
_chemical_formula_structural   La7(Ru4O11)2
_chemical_formula_sum   'La84 Ru96 O264'
_cell_volume   6227.69505358
_cell_formula_units_Z   12
loop_
 _symmetry_equiv_pos_site_id
 _symmetry_equiv_pos_as_xyz
  1  'x, y, z'
loop_
 _atom_type_symbol
 _atom_type_oxidation_number
  La3+  3.0
  Ru4+  4.0
  O2-  -2.0
loop_
 _atom_site_type_symbol
 _atom_site_label
 _atom_site_symmetry_multiplicity
 _atom_site_fract_x
 _atom_site_fract_y
 _atom_site_fract_z
 _atom_site_occupancy
  La3+  La0  1  0.13734086  0.00034969  0.12907434  1
  La3+  La1  1  0.14155156  0.00086058  0.37671010  1
  La3+  La2  1  0.14144522  -0.00010127  0.62449610  1
  La3+  La3  1  0.13993968  -0.00173786  0.87156046  1
  La3+  La4  1  0.13841268  0.33327142  0.12637091  1
  La3+  La5  1  0.13587432  0.33065572  0.37813394  1
  La3+  La6  1  0.13216773  0.33459435  0.62580976  1
  La3+  La7  1  0.13501678  0.33857646  0.86954491  1
  La3+  La8  1  0.14020718  0.66665445  0.12396843  1
  La3+  La9  1  0.13869294  0.66692929  0.37395213  1
  La3+  La10  1  0.14116058  0.66624360  0.62960660  1
  La3+  La11  1  0.13794660  0.66672692  0.87258309  1
  La3+  La12  1  0.63797470  0.00113100  0.12792212  1
  La3+  La13  1  0.64011012  0.00056765  0.37246720  1
  La3+  La14  1  0.64053066  -0.00011005  0.62595823  1
  La3+  La15  1  0.63953497  0.00080549  0.87451324  1
  La3+  La16  1  0.63629371  0.33278884  0.12661890  1
  La3+  La17  1  0.63862321  0.33205896  0.37402769  1
  La3+  La18  1  0.63783356  0.33213556  0.62210306  1
  La3+  La19  1  0.63935945  0.33197883  0.87508845  1
  La3+  La20  1  0.63668505  0.66670198  0.12525710  1
  La3+  La21  1  0.63525178  0.66668522  0.37608432  1
  La3+  La22  1  0.63644535  0.66620896  0.62374194  1
  La3+  La23  1  0.63822265  0.66612440  0.87592751  1
  La3+  La24  1  0.36234223  0.00101746  0.12748460  1
  La3+  La25  1  0.35867981  0.00073605  0.37588044  1
  La3+  La26  1  0.35729714  -0.00058522  0.62530761  1
  La3+  La27  1  0.35998644  -0.00069406  0.87234482  1
  La3+  La28  1  0.35989522  0.33312415  0.12913083  1
  La3+  La29  1  0.35920740  0.33223617  0.37276063  1
  La3+  La30  1  0.35962264  0.33416669  0.62692381  1
  La3+  La31  1  0.36128266  0.33522477  0.87179624  1
  La3+  La32  1  0.36083388  0.66608409  0.12400292  1
  La3+  La33  1  0.36062681  0.66623075  0.37357292  1
  La3+  La34  1  0.35810877  0.66629003  0.62787754  1
  La3+  La35  1  0.36137099  0.66602726  0.87555463  1
  La3+  La36  1  0.86203860  0.00094315  0.12798626  1
  La3+  La37  1  0.85940982  0.00134413  0.37158765  1
  La3+  La38  1  0.85943490  -0.00023652  0.62499643  1
  La3+  La39  1  0.85994999  0.00017087  0.87536896  1
  La3+  La40  1  0.86172019  0.33346147  0.12545391  1
  La3+  La41  1  0.85974916  0.33165798  0.37571127  1
  La3+  La42  1  0.86210281  0.33267763  0.62341994  1
  La3+  La43  1  0.86146942  0.33337931  0.87461473  1
  La3+  La44  1  0.86408527  0.66716868  0.12496786  1
  La3+  La45  1  0.86236838  0.66762425  0.37491005  1
  La3+  La46  1  0.86149846  0.66691484  0.62524348  1
  La3+  La47  1  0.86274792  0.66635671  0.87473845  1
  La3+  La48  1  0.00088875  0.49901315  0.36507271  1
  La3+  La49  1  0.00283114  0.50454708  0.12020920  1
  La3+  La50  1  0.00278107  0.49944750  0.63870628  1
  La3+  La51  1  0.49890702  0.50252510  0.12491875  1
  La3+  La52  1  -0.00023833  0.49859502  0.38236565  1
  La3+  La53  1  -0.00080984  0.16551783  0.12055356  1
  La3+  La54  1  0.50303789  0.49932984  0.87817812  1
  La3+  La55  1  -0.00108553  0.83109956  0.87011119  1
  La3+  La56  1  0.50106243  0.16892994  0.61339519  1
  La3+  La57  1  0.00086566  0.82928901  0.87821585  1
  La3+  La58  1  0.50149481  0.50552170  0.62344045  1
  La3+  La59  1  0.00120869  0.83197806  0.63062007  1
  La3+  La60  1  -0.00049854  0.16752333  0.88699571  1
  La3+  La61  1  0.50022780  0.83538631  0.63411875  1
  La3+  La62  1  -0.00070916  0.16992420  0.86477718  1
  La3+  La63  1  0.00102801  0.49791120  0.86601258  1
  La3+  La64  1  0.50122374  0.16704359  0.63524212  1
  La3+  La65  1  0.00290747  0.16976689  0.60854744  1
  La3+  La66  1  0.50000199  0.83339469  0.13639008  1
  La3+  La67  1  0.00169136  0.16666061  0.38251146  1
  La3+  La68  1  0.49660159  0.50202585  0.62005480  1
  La3+  La69  1  0.50050869  0.16689688  0.86974878  1
  La3+  La70  1  0.00326082  0.49656292  0.62214684  1
  La3+  La71  1  0.50097994  0.83406028  0.38377429  1
  La3+  La72  1  0.75003490  0.45846571  0.26918997  1
  La3+  La73  1  0.74992048  0.46202487  -0.00275932  1
  La3+  La74  1  0.24998568  0.16368606  0.72904595  1
  La3+  La75  1  0.74967313  0.86787630  0.74928852  1
  La3+  La76  1  0.25005026  0.83536878  0.77717862  1
  La3+  La77  1  0.24988783  0.15765941  0.05530354  1
  La3+  La78  1  0.24988078  0.50047765  0.00161953  1
  La3+  La79  1  0.74966794  0.13644444  0.74430934  1
  La3+  La80  1  0.74994568  0.87321215  0.27504220  1
  La3+  La81  1  0.74998187  0.46749808  0.52440468  1
  La3+  La82  1  0.74987337  0.13080021  0.00271468  1
  La3+  La83  1  0.25018961  0.49955055  0.23187486  1
  Ru4+  Ru84  1  -0.00249742  -0.00009589  0.00175848  1
  Ru4+  Ru85  1  0.00111873  -0.00173429  0.24409391  1
  Ru4+  Ru86  1  -0.00002945  -0.00306015  0.49848110  1
  Ru4+  Ru87  1  -0.00196451  0.00547057  0.74731860  1
  Ru4+  Ru88  1  0.00053763  0.33357371  0.00084939  1
  Ru4+  Ru89  1  0.00041424  0.33368131  0.24892143  1
  Ru4+  Ru90  1  0.00029002  0.32573318  0.50121575  1
  Ru4+  Ru91  1  0.00187734  0.33677620  0.75016232  1
  Ru4+  Ru92  1  -0.00032911  0.66564579  0.00102535  1
  Ru4+  Ru93  1  -0.00017326  0.66536675  0.25002218  1
  Ru4+  Ru94  1  -0.00008266  0.67065325  0.49884062  1
  Ru4+  Ru95  1  -0.00357618  0.65913493  0.74661323  1
  Ru4+  Ru96  1  0.49908904  0.00202934  -0.00187942  1
  Ru4+  Ru97  1  0.49476406  0.00538208  0.25165901  1
  Ru4+  Ru98  1  0.50092591  -0.00110906  0.49865205  1
  Ru4+  Ru99  1  0.50066934  -0.00216298  0.75193560  1
  Ru4+  Ru100  1  0.50150073  0.32970820  0.00006805  1
  Ru4+  Ru101  1  0.50230288  0.32864000  0.25153676  1
  Ru4+  Ru102  1  0.50033872  0.33020672  0.49712093  1
  Ru4+  Ru103  1  0.49887905  0.33175293  0.75249701  1
  Ru4+  Ru104  1  0.50484065  0.67169056  0.00020966  1
  Ru4+  Ru105  1  0.49804836  0.66518650  0.25305851  1
  Ru4+  Ru106  1  0.50082479  0.66970783  0.49681674  1
  Ru4+  Ru107  1  0.49998716  0.66783843  0.75061429  1
  Ru4+  Ru108  1  0.11421012  0.16647714  0.00066712  1
  Ru4+  Ru109  1  0.11304422  0.16418741  0.25044823  1
  Ru4+  Ru110  1  0.11304741  0.16632530  0.49984394  1
  Ru4+  Ru111  1  0.11251568  0.16876478  0.74867104  1
  Ru4+  Ru112  1  0.11148056  0.49986521  -0.00106657  1
  Ru4+  Ru113  1  0.11193094  0.49996514  0.25029280  1
  Ru4+  Ru114  1  0.11649727  0.50260772  0.50134604  1
  Ru4+  Ru115  1  0.11258002  0.49793988  0.74945248  1
  Ru4+  Ru116  1  0.11632838  0.82813354  0.00288066  1
  Ru4+  Ru117  1  0.11218606  0.83549249  0.24948522  1
  Ru4+  Ru118  1  0.11400962  0.83540159  0.49967937  1
  Ru4+  Ru119  1  0.11845223  0.83331738  0.74922920  1
  Ru4+  Ru120  1  0.61149659  0.16577951  -0.00025094  1
  Ru4+  Ru121  1  0.61233000  0.16886038  0.25029958  1
  Ru4+  Ru122  1  0.61343527  0.16806865  0.50038792  1
  Ru4+  Ru123  1  0.60990689  0.16647470  0.74994373  1
  Ru4+  Ru124  1  0.61215264  0.50103550  -0.00070584  1
  Ru4+  Ru125  1  0.61140025  0.49520972  0.25050967  1
  Ru4+  Ru126  1  0.61493121  0.49855280  0.49683337  1
  Ru4+  Ru127  1  0.61366045  0.50173427  0.75098529  1
  Ru4+  Ru128  1  0.61307742  0.83135990  -0.00122228  1
  Ru4+  Ru129  1  0.61316454  0.83143027  0.25020031  1
  Ru4+  Ru130  1  0.61259607  0.83348911  0.50065032  1
  Ru4+  Ru131  1  0.61087551  0.83320468  0.75066660  1
  Ru4+  Ru132  1  0.38784305  0.16459906  0.00010002  1
  Ru4+  Ru133  1  0.38937595  0.16672813  0.24958195  1
  Ru4+  Ru134  1  0.38613936  0.16587940  0.50007667  1
  Ru4+  Ru135  1  0.38663862  0.16725720  0.74987658  1
  Ru4+  Ru136  1  0.38450732  0.49715597  0.00059133  1
  Ru4+  Ru137  1  0.38972005  0.50068783  0.25203141  1
  Ru4+  Ru138  1  0.38600631  0.49906694  0.49987852  1
  Ru4+  Ru139  1  0.38543793  0.49960627  0.74998554  1
  Ru4+  Ru140  1  0.38569288  0.83297868  0.00012800  1
  Ru4+  Ru141  1  0.38733370  0.83336013  0.25005259  1
  Ru4+  Ru142  1  0.38636183  0.83542236  0.49963031  1
  Ru4+  Ru143  1  0.38825405  0.83399867  0.74903007  1
  Ru4+  Ru144  1  0.88975576  0.16619003  -0.00012074  1
  Ru4+  Ru145  1  0.88637374  0.16393853  0.24937031  1
  Ru4+  Ru146  1  0.88594153  0.16821914  0.49986329  1
  Ru4+  Ru147  1  0.88785068  0.16734169  0.74905462  1
  Ru4+  Ru148  1  0.88883745  0.50081988  -0.00056130  1
  Ru4+  Ru149  1  0.89006788  0.49916029  0.24971397  1
  Ru4+  Ru150  1  0.88589681  0.50303883  0.50034056  1
  Ru4+  Ru151  1  0.88955519  0.49973030  0.75057588  1
  Ru4+  Ru152  1  0.88768718  0.83191766  -0.00045951  1
  Ru4+  Ru153  1  0.88970207  0.83714955  0.25122494  1
  Ru4+  Ru154  1  0.88857003  0.83531103  0.49855587  1
  Ru4+  Ru155  1  0.88722555  0.83392521  0.74988047  1
  Ru4+  Ru156  1  0.25016914  0.74896908  0.50386727  1
  Ru4+  Ru157  1  0.75000851  0.41868192  0.75232087  1
  Ru4+  Ru158  1  0.25025985  0.24443618  0.50362140  1
  Ru4+  Ru159  1  0.75015923  0.76591126  0.00098143  1
  Ru4+  Ru160  1  0.25011685  0.58406481  0.51455141  1
  Ru4+  Ru161  1  0.24999825  0.90932407  -0.00184395  1
  Ru4+  Ru162  1  0.75009885  0.60388752  0.49240379  1
  Ru4+  Ru163  1  0.75006945  0.74211987  0.25387931  1
  Ru4+  Ru164  1  0.75030131  0.91897353  0.49768966  1
  Ru4+  Ru165  1  0.24996083  0.91641467  0.25343150  1
  Ru4+  Ru166  1  0.75010152  0.59145280  0.25473456  1
  Ru4+  Ru167  1  0.74978421  0.75456146  0.49859776  1
  Ru4+  Ru168  1  0.74975059  0.73126166  0.73739929  1
  Ru4+  Ru169  1  0.25033903  0.75164113  0.24576849  1
  Ru4+  Ru170  1  0.25008488  0.27422677  -0.00642425  1
  Ru4+  Ru171  1  0.75025156  0.57681756  0.74811008  1
  Ru4+  Ru172  1  0.75011940  0.91167194  -0.00005838  1
  Ru4+  Ru173  1  0.74974776  0.24685608  0.25130638  1
  Ru4+  Ru174  1  0.24995001  0.41841630  0.51109413  1
  Ru4+  Ru175  1  0.25001614  0.04079356  -0.01458318  1
  Ru4+  Ru176  1  0.75001542  0.58981109  0.00010706  1
  Ru4+  Ru177  1  0.74963337  0.27624304  0.74946022  1
  Ru4+  Ru178  1  0.75006254  0.08139001  0.49805976  1
  Ru4+  Ru179  1  0.75001884  0.27224888  0.00047490  1
  O2-  O180  1  0.16745419  0.07864763  -0.00087158  1
  O2-  O181  1  0.16836637  0.08124633  0.25090013  1
  O2-  O182  1  0.16606570  0.08323321  0.50122314  1
  O2-  O183  1  0.16600205  0.08088063  0.75036178  1
  O2-  O184  1  0.16752703  0.41402093  0.00009929  1
  O2-  O185  1  0.16583614  0.41450001  0.24969898  1
  O2-  O186  1  0.16735774  0.41428627  0.50068287  1
  O2-  O187  1  0.16703049  0.41516773  0.74962234  1
  O2-  O188  1  0.16639505  0.74760820  0.00026599  1
  O2-  O189  1  0.16628114  0.74838483  0.25032276  1
  O2-  O190  1  0.16668024  0.74677523  0.49990215  1
  O2-  O191  1  0.16823585  0.74809308  0.75126323  1
  O2-  O192  1  0.66405203  0.07836298  0.00043719  1
  O2-  O193  1  0.66669013  0.08212965  0.24821213  1
  O2-  O194  1  0.66737251  0.08042395  0.50026070  1
  O2-  O195  1  0.66599325  0.07891884  0.75092830  1
  O2-  O196  1  0.66712400  0.41188857  0.00100680  1
  O2-  O197  1  0.66634381  0.41221217  0.24760755  1
  O2-  O198  1  0.66786001  0.41147103  0.50077780  1
  O2-  O199  1  0.66900475  0.41369426  0.74991143  1
  O2-  O200  1  0.66682004  0.74815499  0.00050374  1
  O2-  O201  1  0.66608204  0.74638759  0.24991964  1
  O2-  O202  1  0.66782240  0.74741723  0.49921427  1
  O2-  O203  1  0.66827262  0.74643798  0.74885138  1
  O2-  O204  1  0.33326509  0.25407414  0.00051464  1
  O2-  O205  1  0.33455636  0.25063743  0.25049368  1
  O2-  O206  1  0.33234273  0.25171355  0.50002939  1
  O2-  O207  1  0.33214822  0.25242217  0.74982372  1
  O2-  O208  1  0.33276428  0.58619701  -0.00078163  1
  O2-  O209  1  0.33381342  0.58524370  0.25034334  1
  O2-  O210  1  0.33306085  0.58641033  0.49981054  1
  O2-  O211  1  0.33504495  0.58522754  0.75091788  1
  O2-  O212  1  0.33338504  0.91866506  0.00088750  1
  O2-  O213  1  0.33185175  0.91954110  0.24922847  1
  O2-  O214  1  0.33468889  0.91787669  0.50052043  1
  O2-  O215  1  0.33310105  0.91746503  0.75072718  1
  O2-  O216  1  0.83226022  0.25490313  0.00018276  1
  O2-  O217  1  0.83273089  0.25254460  0.24862803  1
  O2-  O218  1  0.83185589  0.25178122  0.50182533  1
  O2-  O219  1  0.83204177  0.25312634  0.74994394  1
  O2-  O220  1  0.83390094  0.58712081  0.00005388  1
  O2-  O221  1  0.83358555  0.58808459  0.24983981  1
  O2-  O222  1  0.83267911  0.58752093  0.49936485  1
  O2-  O223  1  0.83231693  0.58663401  0.75005319  1
  O2-  O224  1  0.83155043  0.91964469  0.00039725  1
  O2-  O225  1  0.83334510  0.91995794  0.24724488  1
  O2-  O226  1  0.83021343  0.91859823  0.50090845  1
  O2-  O227  1  0.83395186  0.92036574  0.75124663  1
  O2-  O228  1  0.16675421  0.25430188  -0.00022905  1
  O2-  O229  1  0.16465581  0.25111932  0.25052897  1
  O2-  O230  1  0.16818899  0.25168001  0.50127492  1
  O2-  O231  1  0.16657831  0.25307682  0.74886988  1
  O2-  O232  1  0.16780348  0.58662789  -0.00041229  1
  O2-  O233  1  0.16618415  0.58671669  0.25026604  1
  O2-  O234  1  0.16718278  0.58611935  0.50041453  1
  O2-  O235  1  0.16559601  0.58493716  0.75197591  1
  O2-  O236  1  0.16894907  0.92000989  0.00021886  1
  O2-  O237  1  0.16963292  0.91847827  0.24990824  1
  O2-  O238  1  0.16527252  0.91676991  0.50062612  1
  O2-  O239  1  0.16674199  0.91843324  0.74965457  1
  O2-  O240  1  0.66748018  0.25411671  0.00028792  1
  O2-  O241  1  0.66727299  0.25154528  0.24844075  1
  O2-  O242  1  0.66838664  0.25225155  0.50135111  1
  O2-  O243  1  0.66783525  0.25438626  0.74936965  1
  O2-  O244  1  0.66630878  0.58715719  0.00082762  1
  O2-  O245  1  0.66652527  0.58781014  0.24940509  1
  O2-  O246  1  0.66771454  0.58714651  0.49956526  1
  O2-  O247  1  0.66699074  0.58525952  0.74971995  1
  O2-  O248  1  0.66882196  0.91858011  0.00069251  1
  O2-  O249  1  0.66597182  0.92047987  0.24826645  1
  O2-  O250  1  0.66803359  0.91890721  0.50009716  1
  O2-  O251  1  0.66546361  0.91977689  0.75046858  1
  O2-  O252  1  0.33344842  0.07951754  0.00019453  1
  O2-  O253  1  0.33384149  0.08064728  0.24964787  1
  O2-  O254  1  0.33391141  0.08210606  0.50018593  1
  O2-  O255  1  0.33446463  0.08123076  0.75090783  1
  O2-  O256  1  0.33213023  0.41459728  -0.00062467  1
  O2-  O257  1  0.33235153  0.41605587  0.24936217  1
  O2-  O258  1  0.33225742  0.41455782  0.49971180  1
  O2-  O259  1  0.33287742  0.41503042  0.74914187  1
  O2-  O260  1  0.33201791  0.74769532  -0.00028928  1
  O2-  O261  1  0.33280982  0.74743170  0.25015319  1
  O2-  O262  1  0.33343726  0.74637019  0.49990589  1
  O2-  O263  1  0.33312114  0.74753025  0.75193252  1
  O2-  O264  1  0.83576165  0.07738301  0.00054890  1
  O2-  O265  1  0.83288517  0.08293191  0.24800035  1
  O2-  O266  1  0.83236815  0.08077499  0.50182739  1
  O2-  O267  1  0.83471414  0.07922511  0.75167786  1
  O2-  O268  1  0.83295605  0.41184585  0.00120020  1
  O2-  O269  1  0.83540951  0.41115930  0.24774230  1
  O2-  O270  1  0.83330858  0.41198577  0.50021256  1
  O2-  O271  1  0.83201796  0.41318418  0.75036043  1
  O2-  O272  1  0.83236141  0.74771084  0.00032368  1
  O2-  O273  1  0.83447132  0.74648446  0.24934068  1
  O2-  O274  1  0.83355624  0.74849058  0.49971174  1
  O2-  O275  1  0.83305846  0.74620109  0.75030107  1
  O2-  O276  1  0.54508047  0.76392187  0.98690714  1
  O2-  O277  1  0.95177927  0.90144242  0.98581098  1
  O2-  O278  1  0.95121771  0.90606095  0.73638638  1
  O2-  O279  1  0.05773200  0.08559163  0.22659395  1
  O2-  O280  1  0.95409455  0.10011360  0.48824361  1
  O2-  O281  1  0.53509295  0.79178706  0.75347633  1
  O2-  O282  1  0.55630494  0.58125897  0.52642104  1
  O2-  O283  1  0.54230112  0.44206163  0.02823598  1
  O2-  O284  1  0.53904346  0.43699761  0.51361841  1
  O2-  O285  1  0.45171899  0.23756521  0.23507197  1
  O2-  O286  1  0.97088627  0.87660177  0.49970353  1
  O2-  O287  1  0.53963510  0.44263566  0.72373166  1
  O2-  O288  1  0.04739305  0.76333382  0.76421490  1
  O2-  O289  1  0.54665306  0.56718246  0.24650231  1
  O2-  O290  1  0.45467405  0.09874989  0.76457530  1
  O2-  O291  1  0.04827680  0.90350995  0.77104382  1
  O2-  O292  1  0.45304235  0.57032984  0.01881941  1
  O2-  O293  1  0.45451126  0.09709096  0.51384388  1
  O2-  O294  1  0.45621251  0.43694917  0.97293476  1
  O2-  O295  1  0.95384290  0.09864460  0.73328158  1
  O2-  O296  1  0.95257629  0.76117971  0.73598971  1
  O2-  O297  1  0.04110288  0.22888934  0.49108592  1
  O2-  O298  1  0.05198345  0.24322326  0.01711932  1
  O2-  O299  1  0.45452904  0.57234868  0.97961869  1
  O2-  O300  1  0.04525367  0.56763633  0.48732470  1
  O2-  O301  1  0.04928726  0.42860139  0.73323598  1
  O2-  O302  1  0.44927675  0.76337357  0.73390560  1
  O2-  O303  1  0.04473022  0.43038758  0.48642611  1
  O2-  O304  1  0.94682845  0.41830688  0.53382333  1
  O2-  O305  1  0.45140704  0.56999845  0.51393010  1
  O2-  O306  1  0.96138085  0.44422365  0.03111908  1
  O2-  O307  1  0.45129198  0.09602622  0.23636689  1
  O2-  O308  1  0.54564105  0.90293252  0.24444573  1
  O2-  O309  1  0.04148965  0.43940701  0.75597295  1
  O2-  O310  1  0.54365564  0.10416684  0.22580081  1
  O2-  O311  1  0.54458672  0.76423183  0.26289246  1
  O2-  O312  1  0.54340488  0.90008221  0.25535688  1
  O2-  O313  1  0.04859662  0.23311008  0.51692065  1
  O2-  O314  1  0.54588638  0.56880299  0.24930989  1
  O2-  O315  1  0.05401763  0.91267512  0.96463215  1
  O2-  O316  1  0.45126873  0.57338219  0.26522902  1
  O2-  O317  1  0.04834670  0.90179175  0.73183933  1
  O2-  O318  1  0.46825341  0.44609585  0.25292301  1
  O2-  O319  1  0.54860803  0.23742367  0.23608478  1
  O2-  O320  1  0.95496572  0.23438843  0.26441955  1
  O2-  O321  1  0.04718349  0.09908654  0.76217608  1
  O2-  O322  1  0.04538994  0.76337489  0.51483622  1
  O2-  O323  1  0.53409174  0.44879929  0.50099694  1
  O2-  O324  1  0.05270511  0.09030121  0.22931745  1
  O2-  O325  1  0.43656200  0.93156974  0.71629105  1
  O2-  O326  1  0.55590877  0.58364026  0.52737894  1
  O2-  O327  1  0.06640672  0.92531192  0.22306511  1
  O2-  O328  1  0.56989197  0.39067336  0.95087620  1
  O2-  O329  1  0.06301719  0.59727548  0.71654418  1
  O2-  O330  1  0.06692140  0.07342634  0.94781967  1
  O2-  O331  1  0.93646518  0.59684920  0.43699964  1
  O2-  O332  1  0.06628207  0.07559499  0.05158185  1
  O2-  O333  1  0.06471910  0.07172647  0.47249299  1
  O2-  O334  1  0.93690666  0.59745387  0.56370627  1
  O2-  O335  1  0.05375032  0.91172522  0.96646390  1
  O2-  O336  1  0.06364171  0.59702788  0.03355995  1
  O2-  O337  1  0.06730395  0.40118231  0.77947999  1
  O2-  O338  1  0.56525206  0.74193620  0.47125598  1
  O2-  O339  1  0.06826701  0.26392677  0.46954737  1
  O2-  O340  1  0.43539172  0.73656585  0.95071141  1
  O2-  O341  1  0.56655851  0.40389322  0.27884243  1
  O2-  O342  1  0.57693213  0.70975240  0.79457531  1
  O2-  O343  1  0.56882877  0.06358008  0.29349575  1
  O2-  O344  1  0.58376746  0.38089574  0.45416947  1
  O2-  O345  1  0.43469573  0.25944363  0.95591774  1
  O2-  O346  1  0.07257860  0.92856079  0.05324285  1
  O2-  O347  1  0.06395896  0.41278179  0.47031310  1
  O2-  O348  1  0.56663960  0.92587731  0.04550985  1
  O2-  O349  1  0.43622620  0.26013993  0.04940737  1
  O2-  O350  1  0.43417173  0.74006184  0.04395283  1
  O2-  O351  1  0.93420528  0.39938837  0.44552744  1
  O2-  O352  1  0.05768466  0.25049971  0.02432131  1
  O2-  O353  1  0.56469901  0.25951730  0.52963141  1
  O2-  O354  1  0.43705573  0.26344424  0.71584154  1
  O2-  O355  1  0.94672796  0.41825001  0.53398456  1
  O2-  O356  1  0.56288484  0.93079711  0.53223824  1
  O2-  O357  1  0.92851968  0.38920014  0.94483695  1
  O2-  O358  1  0.43002284  0.39724172  0.04755615  1
  O2-  O359  1  0.93442925  0.92524647  0.27718560  1
  O2-  O360  1  0.06541109  0.40770193  0.97036305  1
  O2-  O361  1  0.43525036  0.40784053  0.77843880  1
  O2-  O362  1  0.06505360  0.74316617  0.78136649  1
  O2-  O363  1  0.42461269  0.38246159  0.29257281  1
  O2-  O364  1  0.57034287  0.39159686  0.79991510  1
  O2-  O365  1  0.43553082  0.40056706  0.53381792  1
  O2-  O366  1  0.93693430  0.26560132  0.71715075  1
  O2-  O367  1  0.56581217  0.92705789  0.95484169  1
  O2-  O368  1  0.91853535  0.95143225  0.46353910  1
  O2-  O369  1  0.93563801  0.07021682  0.21641881  1
  O2-  O370  1  0.93582113  0.26130512  0.46713405  1
  O2-  O371  1  0.43694770  0.06905250  0.96693154  1
  O2-  O372  1  0.74994018  0.66576112  0.16532823  1
  O2-  O373  1  0.74985319  -0.00354603  0.35032284  1
  O2-  O374  1  0.25009999  0.66432342  0.42149042  1
  O2-  O375  1  0.75023402  -0.00269117  0.90689882  1
  O2-  O376  1  0.75006131  0.66709949  0.35322784  1
  O2-  O377  1  0.25005197  0.33329381  0.17426072  1
  O2-  O378  1  0.24996997  0.66507831  0.32564994  1
  O2-  O379  1  0.24985570  0.66800722  0.15763043  1
  O2-  O380  1  0.24993566  0.34985043  0.90959731  1
  O2-  O381  1  0.25000819  0.33131707  0.82416481  1
  O2-  O382  1  0.74981520  0.67692314  0.07548695  1
  O2-  O383  1  0.75008607  0.65962130  0.82968628  1
  O2-  O384  1  0.25003417  -0.00227221  0.40009128  1
  O2-  O385  1  0.25014966  0.34638048  0.08582839  1
  O2-  O386  1  0.75030356  0.00073577  0.65322004  1
  O2-  O387  1  0.24997266  -0.00032756  0.85123132  1
  O2-  O388  1  0.25005447  0.33307973  0.42131796  1
  O2-  O389  1  0.75000094  0.67794349  0.92266834  1
  O2-  O390  1  0.25009861  0.33355125  0.33146796  1
  O2-  O391  1  0.25007999  0.00058224  0.65643843  1
  O2-  O392  1  0.25011291  0.66734990  0.64691300  1
  O2-  O393  1  0.24986394  0.33202025  0.59346424  1
  O2-  O394  1  0.75003495  0.66935006  0.59762695  1
  O2-  O395  1  0.75011867  0.33179444  0.34174894  1
  O2-  O396  1  0.25018299  0.16987506  0.60899741  1
  O2-  O397  1  0.24987619  0.50135099  0.43260027  1
  O2-  O398  1  0.25009655  0.50078913  0.34989301  1
  O2-  O399  1  0.25004715  0.83514441  0.42041733  1
  O2-  O400  1  0.75000033  0.16364292  0.33109014  1
  O2-  O401  1  0.74996122  0.16961021  0.41864563  1
  O2-  O402  1  0.24999435  0.50016618  0.11683254  1
  O2-  O403  1  0.25011486  0.16770725  0.84677812  1
  O2-  O404  1  0.25004068  0.50001361  0.80888105  1
  O2-  O405  1  0.25002518  0.16618307  0.17041047  1
  O2-  O406  1  0.75008205  0.82949211  0.13663082  1
  O2-  O407  1  0.75003312  0.17457799  0.87722645  1
  O2-  O408  1  0.75004739  0.50584222  0.13636796  1
  O2-  O409  1  0.75005794  0.50907397  0.39507891  1
  O2-  O410  1  0.25000941  0.50034189  0.88781086  1
  O2-  O411  1  0.25010073  0.83520348  0.91419093  1
  O2-  O412  1  0.74999645  0.50028185  0.66065623  1
  O2-  O413  1  0.74999832  0.83361188  0.59202715  1
  O2-  O414  1  0.25000891  0.83267435  0.65266068  1
  O2-  O415  1  0.24999942  0.83258436  0.33126531  1
  O2-  O416  1  0.75006054  0.17515212  0.12721199  1
  O2-  O417  1  0.25012910  0.49990851  0.64893692  1
  O2-  O418  1  0.24997176  0.83845068  0.56871110  1
  O2-  O419  1  0.24995325  0.16838568  0.92601800  1
  O2-  O420  1  0.02539647  0.33747749  0.13007319  1
  O2-  O421  1  0.52203616  0.32683923  0.37506924  1
  O2-  O422  1  0.02076285  0.00153598  0.86734368  1
  O2-  O423  1  0.95939825  0.66789108  0.87589627  1
  O2-  O424  1  0.97229759  0.66610201  0.12502883  1
  O2-  O425  1  0.01724357  -0.00075603  0.12779712  1
  O2-  O426  1  0.02672463  0.00112191  0.62280328  1
  O2-  O427  1  0.52547188  0.33366224  0.62846683  1
  O2-  O428  1  0.02519529  0.33456435  0.36458978  1
  O2-  O429  1  0.52783757  0.00356903  0.12832176  1
  O2-  O430  1  0.46817712  -0.00241359  0.12189025  1
  O2-  O431  1  0.52434530  0.66553998  0.37422593  1
  O2-  O432  1  0.52576018  0.67010508  0.62792061  1
  O2-  O433  1  0.47630985  0.33164622  0.87178767  1
  O2-  O434  1  0.02777692  0.66684669  0.37203397  1
  O2-  O435  1  0.52588079  0.00522076  0.86989246  1
  O2-  O436  1  0.03777330  0.66203960  0.88280230  1
  O2-  O437  1  0.02310693  0.32552421  0.87540279  1
  O2-  O438  1  0.47227195  -0.00102580  0.37514408  1
  O2-  O439  1  0.03031332  -0.00244890  0.37177601  1
  O2-  O440  1  0.97325319  0.00743434  0.37198409  1
  O2-  O441  1  0.02784229  0.33253088  0.62589353  1
  O2-  O442  1  0.52810220  0.33468714  0.12446996  1
  O2-  O443  1  0.47472710  0.66484081  0.13075230  1
