# generated using pymatgen
data_La7(Ru4O11)2
_symmetry_space_group_name_H-M   'P 1'
_cell_length_a   23.99010243
_cell_length_b   16.83035923
_cell_length_c   15.42680055
_cell_angle_alpha   90.00074147
_cell_angle_beta   90.00019395
_cell_angle_gamma   89.99993312
_symmetry_Int_Tables_number   1
_chemical_formula_structural   La7(Ru4O11)2
_chemical_formula_sum   'La84 Ru96 O264'
_cell_volume   6228.75649014
_cell_formula_units_Z   12
loop_
 _symmetry_equiv_pos_site_id
 _symmetry_equiv_pos_as_xyz
  1  'x, y, z'
loop_
 _atom_type_symbol
 _atom_type_oxidation_number
  La3+  3.0
  Ru4+  4.0
  O2-  -2.0
loop_
 _atom_site_type_symbol
 _atom_site_label
 _atom_site_symmetry_multiplicity
 _atom_site_fract_x
 _atom_site_fract_y
 _atom_site_fract_z
 _atom_site_occupancy
  La3+  La0  1  0.14130357  0.00024593  0.12734575  1
  La3+  La1  1  0.14225318  -0.00088301  0.37418693  1
  La3+  La2  1  0.13686604  -0.00053664  0.62457150  1
  La3+  La3  1  0.13708268  -0.00019216  0.87462139  1
  La3+  La4  1  0.13872104  0.33506322  0.12721018  1
  La3+  La5  1  0.13622101  0.33449375  0.37172163  1
  La3+  La6  1  0.13600961  0.33330636  0.62457352  1
  La3+  La7  1  0.13657883  0.33444784  0.87609099  1
  La3+  La8  1  0.13606297  0.66969554  0.12092763  1
  La3+  La9  1  0.14014662  0.66801114  0.37171108  1
  La3+  La10  1  0.14107951  0.66739403  0.62744310  1
  La3+  La11  1  0.13517364  0.66943784  0.88093781  1
  La3+  La12  1  0.64091225  0.00094659  0.12445343  1
  La3+  La13  1  0.63974733  0.00150978  0.37274453  1
  La3+  La14  1  0.63869684  0.00340290  0.62675499  1
  La3+  La15  1  0.63811091  0.00179211  0.87578458  1
  La3+  La16  1  0.63599834  0.33285985  0.12669524  1
  La3+  La17  1  0.63638845  0.33238147  0.37316882  1
  La3+  La18  1  0.64231394  0.33358515  0.62804785  1
  La3+  La19  1  0.63915142  0.33151011  0.87172212  1
  La3+  La20  1  0.63268530  0.67002343  0.12196362  1
  La3+  La21  1  0.63565980  0.66543112  0.37436810  1
  La3+  La22  1  0.63752375  0.66646791  0.62492419  1
  La3+  La23  1  0.63411270  0.67204029  0.88024489  1
  La3+  La24  1  0.35883325  0.00005584  0.12668044  1
  La3+  La25  1  0.35579611  -0.00202152  0.37210156  1
  La3+  La26  1  0.36136847  -0.00207599  0.62628552  1
  La3+  La27  1  0.36451599  0.00169180  0.87382254  1
  La3+  La28  1  0.36043453  0.33601044  0.12648113  1
  La3+  La29  1  0.36128712  0.33319332  0.37176905  1
  La3+  La30  1  0.36418215  0.33495408  0.62622262  1
  La3+  La31  1  0.36378761  0.33598748  0.87494762  1
  La3+  La32  1  0.35911704  0.66491089  0.12744241  1
  La3+  La33  1  0.35853741  0.66697496  0.37180342  1
  La3+  La34  1  0.35810257  0.66578335  0.62802131  1
  La3+  La35  1  0.35936931  0.66305943  0.87207309  1
  La3+  La36  1  0.86178590  0.00295991  0.12644350  1
  La3+  La37  1  0.86050100  -0.00026527  0.37315680  1
  La3+  La38  1  0.86245691  0.00265538  0.62427064  1
  La3+  La39  1  0.86019866  0.00225885  0.87763821  1
  La3+  La40  1  0.86357026  0.33222830  0.12522683  1
  La3+  La41  1  0.86065106  0.33357514  0.37550716  1
  La3+  La42  1  0.85751035  0.33272260  0.62806689  1
  La3+  La43  1  0.85853771  0.33232431  0.87082675  1
  La3+  La44  1  0.86212213  0.66704580  0.12499616  1
  La3+  La45  1  0.86267797  0.66655455  0.37514699  1
  La3+  La46  1  0.86284873  0.66690758  0.62804168  1
  La3+  La47  1  0.86218575  0.66845111  0.87170825  1
  La3+  La48  1  0.49958294  0.49890071  0.36921109  1
  La3+  La49  1  0.50295352  0.17160976  0.13630895  1
  La3+  La50  1  0.50021365  0.16421874  0.63753448  1
  La3+  La51  1  -0.00062516  0.17052384  0.86489349  1
  La3+  La52  1  0.50010526  0.16488193  0.11550772  1
  La3+  La53  1  0.00091846  0.16956142  0.12668478  1
  La3+  La54  1  0.49922390  0.83701409  0.61365834  1
  La3+  La55  1  0.50295090  0.83061432  0.63422914  1
  La3+  La56  1  0.00160257  0.50091156  0.13211355  1
  La3+  La57  1  -0.00133853  0.16504765  0.36730377  1
  La3+  La58  1  -0.00132006  0.49077399  0.36773748  1
  La3+  La59  1  0.00015591  0.82901336  0.61621319  1
  La3+  La60  1  0.50177012  0.16716989  0.36712892  1
  La3+  La61  1  -0.00037166  0.82606349  0.12799702  1
  La3+  La62  1  -0.00026229  0.50123020  0.61463232  1
  La3+  La63  1  -0.00209500  0.82687551  0.88461079  1
  La3+  La64  1  0.50219474  0.83413950  0.11643181  1
  La3+  La65  1  0.49664583  0.82897624  0.37168958  1
  La3+  La66  1  0.50421988  0.50596983  0.62443452  1
  La3+  La67  1  -0.00113611  0.49904492  0.88575275  1
  La3+  La68  1  0.00434811  0.82791144  0.86691494  1
  La3+  La69  1  0.50092236  0.16668175  0.87640952  1
  La3+  La70  1  0.50360729  0.82763025  0.88940720  1
  La3+  La71  1  0.50125847  0.49789943  0.11530115  1
  La3+  La72  1  0.75031126  0.84252538  0.53951245  1
  La3+  La73  1  0.24998584  0.82580874  0.72588363  1
  La3+  La74  1  0.74971432  0.50126505  -0.04546927  1
  La3+  La75  1  0.75007415  0.13537720  0.47471510  1
  La3+  La76  1  0.24990738  0.50956618  0.55199907  1
  La3+  La77  1  0.24982856  0.89459435  0.01673894  1
  La3+  La78  1  0.25049336  0.14634643  0.73070614  1
  La3+  La79  1  0.24945068  0.12372043  0.00722369  1
  La3+  La80  1  0.75029823  0.86943968  0.26769139  1
  La3+  La81  1  0.74948125  0.80159581  0.75656212  1
  La3+  La82  1  0.24992219  0.83374450  0.47982710  1
  La3+  La83  1  0.24906509  0.11511048  0.49137601  1
  Ru4+  Ru84  1  0.00133596  0.00123564  0.00225586  1
  Ru4+  Ru85  1  -0.00067490  -0.00554829  0.25397860  1
  Ru4+  Ru86  1  0.00147021  0.00681314  0.49829484  1
  Ru4+  Ru87  1  0.00092685  0.00317547  0.74742816  1
  Ru4+  Ru88  1  0.00134601  0.33354499  0.00384219  1
  Ru4+  Ru89  1  0.00111878  0.33328859  0.25020498  1
  Ru4+  Ru90  1  -0.00065146  0.32841515  0.49873516  1
  Ru4+  Ru91  1  -0.00132166  0.33242824  0.75017603  1
  Ru4+  Ru92  1  0.00214038  0.67072525  0.00292713  1
  Ru4+  Ru93  1  0.00155974  0.67133784  0.25201974  1
  Ru4+  Ru94  1  0.00145425  0.66866862  0.49563436  1
  Ru4+  Ru95  1  0.00401712  0.65990413  0.74701300  1
  Ru4+  Ru96  1  0.49985166  -0.00174674  -0.00128205  1
  Ru4+  Ru97  1  0.50141461  -0.00374674  0.24925002  1
  Ru4+  Ru98  1  0.50403725  -0.00098769  0.49726082  1
  Ru4+  Ru99  1  0.50546535  -0.00295812  0.75177216  1
  Ru4+  Ru100  1  0.50142821  0.33489971  -0.00413579  1
  Ru4+  Ru101  1  0.49804432  0.33885955  0.25314927  1
  Ru4+  Ru102  1  0.49980170  0.33394488  0.50014275  1
  Ru4+  Ru103  1  0.50242582  0.32788197  0.75278964  1
  Ru4+  Ru104  1  0.50122902  0.66436612  0.00241305  1
  Ru4+  Ru105  1  0.49708819  0.67103940  0.24998796  1
  Ru4+  Ru106  1  0.49693728  0.65946163  0.49940289  1
  Ru4+  Ru107  1  0.49901385  0.66320973  0.74964950  1
  Ru4+  Ru108  1  0.10984531  0.16582975  -0.00097996  1
  Ru4+  Ru109  1  0.11570530  0.16671591  0.25037228  1
  Ru4+  Ru110  1  0.10918210  0.16709809  0.50104335  1
  Ru4+  Ru111  1  0.10915645  0.16539481  0.74940928  1
  Ru4+  Ru112  1  0.11313012  0.50261774  -0.00006207  1
  Ru4+  Ru113  1  0.11585471  0.49937326  0.24896407  1
  Ru4+  Ru114  1  0.11055886  0.50194936  0.50004673  1
  Ru4+  Ru115  1  0.11293285  0.50265753  0.75005789  1
  Ru4+  Ru116  1  0.10923874  0.83252444  0.00212871  1
  Ru4+  Ru117  1  0.11404381  0.82993407  0.24954137  1
  Ru4+  Ru118  1  0.11136873  0.83076624  0.49992318  1
  Ru4+  Ru119  1  0.11149747  0.83280160  0.75167541  1
  Ru4+  Ru120  1  0.61519899  0.16679913  -0.00046878  1
  Ru4+  Ru121  1  0.61755371  0.16134726  0.24956200  1
  Ru4+  Ru122  1  0.61128669  0.16459751  0.50158400  1
  Ru4+  Ru123  1  0.61514084  0.16719909  0.74976156  1
  Ru4+  Ru124  1  0.60967159  0.50054125  0.00001449  1
  Ru4+  Ru125  1  0.61470907  0.49480769  0.24857192  1
  Ru4+  Ru126  1  0.61293013  0.49759830  0.50038603  1
  Ru4+  Ru127  1  0.61559117  0.49946782  0.74943047  1
  Ru4+  Ru128  1  0.61318410  0.83450370  0.00075259  1
  Ru4+  Ru129  1  0.61139263  0.83338750  0.24738769  1
  Ru4+  Ru130  1  0.61458684  0.83894931  0.49736683  1
  Ru4+  Ru131  1  0.61129957  0.83182251  0.75172508  1
  Ru4+  Ru132  1  0.38759235  0.16442387  0.00038358  1
  Ru4+  Ru133  1  0.38535667  0.16689697  0.25107039  1
  Ru4+  Ru134  1  0.38653343  0.16817059  0.50001330  1
  Ru4+  Ru135  1  0.38669910  0.17182023  0.74977703  1
  Ru4+  Ru136  1  0.38668056  0.50176125  0.00061016  1
  Ru4+  Ru137  1  0.38457670  0.50078378  0.24986460  1
  Ru4+  Ru138  1  0.38855544  0.50058708  0.49721420  1
  Ru4+  Ru139  1  0.38683272  0.50565998  0.75010220  1
  Ru4+  Ru140  1  0.38816516  0.83361643  -0.00045942  1
  Ru4+  Ru141  1  0.38503552  0.83204859  0.25070641  1
  Ru4+  Ru142  1  0.38749926  0.83269995  0.49850078  1
  Ru4+  Ru143  1  0.38625363  0.83178101  0.75176269  1
  Ru4+  Ru144  1  0.88579265  0.16360759  -0.00050385  1
  Ru4+  Ru145  1  0.88407438  0.16591170  0.25171563  1
  Ru4+  Ru146  1  0.89143641  0.16771956  0.50157154  1
  Ru4+  Ru147  1  0.88521683  0.16913326  0.75005921  1
  Ru4+  Ru148  1  0.88910706  0.50108651  -0.00024197  1
  Ru4+  Ru149  1  0.88818861  0.50189907  0.24967043  1
  Ru4+  Ru150  1  0.88672459  0.49852738  0.50057593  1
  Ru4+  Ru151  1  0.88630814  0.49702720  0.74942065  1
  Ru4+  Ru152  1  0.88657170  0.83405469  0.00069382  1
  Ru4+  Ru153  1  0.89115783  0.83388524  0.25045739  1
  Ru4+  Ru154  1  0.88801395  0.82779318  0.49937592  1
  Ru4+  Ru155  1  0.88538868  0.83600533  0.74882229  1
  Ru4+  Ru156  1  0.24981631  0.39465166  0.47063120  1
  Ru4+  Ru157  1  0.25037050  0.73493478  0.00323211  1
  Ru4+  Ru158  1  0.75002182  0.27509033  0.51885897  1
  Ru4+  Ru159  1  0.24992166  0.27106475  0.75633062  1
  Ru4+  Ru160  1  0.74979269  0.24702066  0.25134793  1
  Ru4+  Ru161  1  0.24964843  0.02036970  0.75792879  1
  Ru4+  Ru162  1  0.24980978  0.25569925  0.48370701  1
  Ru4+  Ru163  1  0.74997795  0.38070924  0.02585586  1
  Ru4+  Ru164  1  0.74979723  0.94296725  0.75394891  1
  Ru4+  Ru165  1  0.75017849  0.62861851  0.00777994  1
  Ru4+  Ru166  1  0.24975654  0.25670893  0.00186005  1
  Ru4+  Ru167  1  0.74996927  0.96805561  0.48983639  1
  Ru4+  Ru168  1  0.24989611  0.43368045  0.00507141  1
  Ru4+  Ru169  1  0.24974948  0.43735595  0.75287166  1
  Ru4+  Ru170  1  0.75011112  0.76163088  0.00164861  1
  Ru4+  Ru171  1  0.74992033  0.58594101  0.25682722  1
  Ru4+  Ru172  1  0.75028643  0.71660191  0.49431161  1
  Ru4+  Ru173  1  0.75018950  0.23904869  -0.00423887  1
  Ru4+  Ru174  1  0.74984555  0.57531639  0.74611946  1
  Ru4+  Ru175  1  0.24998670  0.63655995  0.49100677  1
  Ru4+  Ru176  1  0.75027340  0.41216858  0.25477601  1
  Ru4+  Ru177  1  0.74981870  0.72577816  0.24112941  1
  Ru4+  Ru178  1  0.75016365  0.57323104  0.50451778  1
  Ru4+  Ru179  1  0.24985619  0.24576682  0.25396565  1
  O2-  O180  1  0.16378693  0.07867688  -0.00227567  1
  O2-  O181  1  0.16799218  0.08289997  0.24826219  1
  O2-  O182  1  0.16206161  0.07827271  0.50223214  1
  O2-  O183  1  0.16735970  0.07695772  0.75081530  1
  O2-  O184  1  0.16605267  0.41382166  -0.00097093  1
  O2-  O185  1  0.16698766  0.41545551  0.25011353  1
  O2-  O186  1  0.16609973  0.41154951  0.50036954  1
  O2-  O187  1  0.16665646  0.41311479  0.74913218  1
  O2-  O188  1  0.16755594  0.74649690  -0.00154610  1
  O2-  O189  1  0.16531690  0.74964702  0.25035161  1
  O2-  O190  1  0.16948194  0.74753465  0.50068261  1
  O2-  O191  1  0.16452153  0.74757319  0.75068672  1
  O2-  O192  1  0.66644674  0.08071852  -0.00054424  1
  O2-  O193  1  0.66718830  0.08172748  0.24911618  1
  O2-  O194  1  0.66637719  0.07868434  0.49994632  1
  O2-  O195  1  0.66685093  0.08166487  0.74970823  1
  O2-  O196  1  0.66726790  0.41280297  0.00082352  1
  O2-  O197  1  0.66804487  0.41498372  0.25067686  1
  O2-  O198  1  0.66610137  0.41495745  0.49896681  1
  O2-  O199  1  0.66663529  0.41668076  0.74982385  1
  O2-  O200  1  0.66920208  0.74654799  0.00075614  1
  O2-  O201  1  0.66638459  0.74610545  0.25070607  1
  O2-  O202  1  0.66498996  0.74458920  0.50078859  1
  O2-  O203  1  0.66530806  0.74487906  0.74883084  1
  O2-  O204  1  0.33400100  0.25502505  -0.00116666  1
  O2-  O205  1  0.33202396  0.25149961  0.25036131  1
  O2-  O206  1  0.33389967  0.25437654  0.50027250  1
  O2-  O207  1  0.33462407  0.25571896  0.74936746  1
  O2-  O208  1  0.33442487  0.58470455  0.00024819  1
  O2-  O209  1  0.33532722  0.58385925  0.24853669  1
  O2-  O210  1  0.33247730  0.58551661  0.50054907  1
  O2-  O211  1  0.33362325  0.58168405  0.74997451  1
  O2-  O212  1  0.33796703  0.92190073  -0.00371689  1
  O2-  O213  1  0.33432111  0.91794297  0.24889752  1
  O2-  O214  1  0.33312066  0.91879918  0.50191209  1
  O2-  O215  1  0.33252706  0.92129508  0.75146126  1
  O2-  O216  1  0.83230905  0.25188946  0.00068195  1
  O2-  O217  1  0.83293659  0.25296806  0.24945985  1
  O2-  O218  1  0.83291650  0.25264708  0.49858569  1
  O2-  O219  1  0.83385582  0.24923490  0.75027925  1
  O2-  O220  1  0.83297591  0.58791550  0.00056876  1
  O2-  O221  1  0.83260192  0.58600526  0.25078893  1
  O2-  O222  1  0.83065823  0.58548299  0.49863037  1
  O2-  O223  1  0.83384220  0.58583394  0.75008471  1
  O2-  O224  1  0.83392870  0.91980342  -0.00011789  1
  O2-  O225  1  0.83614560  0.92052678  0.24767577  1
  O2-  O226  1  0.83351158  0.92001585  0.50181216  1
  O2-  O227  1  0.83309198  0.92033296  0.75043145  1
  O2-  O228  1  0.16639212  0.25505410  -0.00033169  1
  O2-  O229  1  0.16773421  0.25108952  0.25055280  1
  O2-  O230  1  0.16627544  0.25395756  0.50041791  1
  O2-  O231  1  0.16495912  0.25569698  0.75019542  1
  O2-  O232  1  0.16739760  0.58541721  -0.00187641  1
  O2-  O233  1  0.16664562  0.58308176  0.25058112  1
  O2-  O234  1  0.16677903  0.58671079  0.50063474  1
  O2-  O235  1  0.16433144  0.58433404  0.75049314  1
  O2-  O236  1  0.16083184  0.92130071  -0.00354780  1
  O2-  O237  1  0.16693665  0.91799864  0.24867295  1
  O2-  O238  1  0.16684075  0.91876362  0.50227817  1
  O2-  O239  1  0.16921047  0.92199234  0.74980594  1
  O2-  O240  1  0.66790919  0.25224983  0.00057601  1
  O2-  O241  1  0.66684452  0.25308888  0.25060798  1
  O2-  O242  1  0.66657491  0.25375100  0.49817031  1
  O2-  O243  1  0.66602410  0.24995017  0.74911842  1
  O2-  O244  1  0.66592060  0.58887354  -0.00016367  1
  O2-  O245  1  0.66711697  0.58606645  0.25168149  1
  O2-  O246  1  0.66703466  0.58647999  0.49977867  1
  O2-  O247  1  0.66588456  0.58600002  0.74969337  1
  O2-  O248  1  0.66397995  0.91835145  -0.00041854  1
  O2-  O249  1  0.66564461  0.92068170  0.24957777  1
  O2-  O250  1  0.66852351  0.92119124  0.50094898  1
  O2-  O251  1  0.66836486  0.92032042  0.75139937  1
  O2-  O252  1  0.33424179  0.07894877  -0.00319369  1
  O2-  O253  1  0.33359591  0.08201103  0.24901806  1
  O2-  O254  1  0.33423837  0.07826311  0.50214182  1
  O2-  O255  1  0.33406472  0.07695198  0.75081020  1
  O2-  O256  1  0.33268174  0.41416677  -0.00129923  1
  O2-  O257  1  0.33411331  0.41388499  0.25012808  1
  O2-  O258  1  0.33290169  0.41253892  0.50191631  1
  O2-  O259  1  0.33395692  0.41381976  0.74910742  1
  O2-  O260  1  0.33389505  0.74702709  0.00103696  1
  O2-  O261  1  0.33403771  0.75003848  0.24885003  1
  O2-  O262  1  0.33028112  0.74719850  0.49974586  1
  O2-  O263  1  0.33238828  0.74827423  0.75068244  1
  O2-  O264  1  0.83271048  0.08154687  -0.00120512  1
  O2-  O265  1  0.83324072  0.08232283  0.24781251  1
  O2-  O266  1  0.83483258  0.07819385  0.50116321  1
  O2-  O267  1  0.83571742  0.08099146  0.75072924  1
  O2-  O268  1  0.83389087  0.41209269  0.00152251  1
  O2-  O269  1  0.83255713  0.41312073  0.25004293  1
  O2-  O270  1  0.83431425  0.41630753  0.49880402  1
  O2-  O271  1  0.83343966  0.41687293  0.74939947  1
  O2-  O272  1  0.83290594  0.74720594  0.00136841  1
  O2-  O273  1  0.83312506  0.74606299  0.25023268  1
  O2-  O274  1  0.83452008  0.74605361  0.49951371  1
  O2-  O275  1  0.83358196  0.74736812  0.74939832  1
  O2-  O276  1  0.95368851  0.43351549  0.23909301  1
  O2-  O277  1  0.95037786  0.90179048  0.51790208  1
  O2-  O278  1  0.46936006  0.12255139  0.49983613  1
  O2-  O279  1  0.95286474  0.90532992  0.98944790  1
  O2-  O280  1  0.54711240  0.56773038  0.98635156  1
  O2-  O281  1  0.45425487  0.90443043  0.98524664  1
  O2-  O282  1  0.54536533  0.09943538  0.98899337  1
  O2-  O283  1  0.95676094  0.90620445  0.48028947  1
  O2-  O284  1  0.04665951  0.23678132  0.23851034  1
  O2-  O285  1  0.45151404  0.57064447  0.01623096  1
  O2-  O286  1  0.95380940  0.76395810  0.48618888  1
  O2-  O287  1  0.45081817  0.89915907  0.23555986  1
  O2-  O288  1  0.45365875  0.90129324  0.74157835  1
  O2-  O289  1  0.54576585  0.23537810  0.26085338  1
  O2-  O290  1  0.95215129  0.76212086  0.76586200  1
  O2-  O291  1  0.05008319  0.75997563  0.98219734  1
  O2-  O292  1  0.54642903  0.77362421  0.00979094  1
  O2-  O293  1  0.95163642  0.24452838  0.51369011  1
  O2-  O294  1  0.45397327  0.43140881  0.26266961  1
  O2-  O295  1  0.95451803  0.09386538  0.48936910  1
  O2-  O296  1  0.95487735  0.43632485  0.01275845  1
  O2-  O297  1  0.44919962  0.43145213  0.73272519  1
  O2-  O298  1  0.95153548  0.75891984  0.26284403  1
  O2-  O299  1  0.54145509  0.88834574  0.28095977  1
  O2-  O300  1  0.54704159  0.76081727  0.51926281  1
  O2-  O301  1  0.95456239  0.90098800  0.73614793  1
  O2-  O302  1  0.45163288  0.75991331  0.01607529  1
  O2-  O303  1  0.94985053  0.10216434  0.21456743  1
  O2-  O304  1  0.04379860  0.10241343  0.22403843  1
  O2-  O305  1  0.04965357  0.76540096  0.26277873  1
  O2-  O306  1  0.04446210  0.43226647  0.48971906  1
  O2-  O307  1  0.45133170  0.09835228  0.76616457  1
  O2-  O308  1  0.54551936  0.56954184  0.22900377  1
  O2-  O309  1  0.04983271  0.23400441  0.51523872  1
  O2-  O310  1  0.95161634  0.90440577  0.26410479  1
  O2-  O311  1  0.95573964  0.09786369  0.50867074  1
  O2-  O312  1  0.04199179  0.77135915  0.00442458  1
  O2-  O313  1  0.96220950  0.22091622  0.02627495  1
  O2-  O314  1  0.96337764  0.55392717  0.46648494  1
  O2-  O315  1  0.45380474  0.09820500  0.23936116  1
  O2-  O316  1  0.03832652  0.55646387  0.27712889  1
  O2-  O317  1  0.54661953  0.57186314  0.26812041  1
  O2-  O318  1  0.04378957  0.89682726  0.22203525  1
  O2-  O319  1  0.46939395  0.12262123  0.50002823  1
  O2-  O320  1  0.45368245  0.23614585  0.98624528  1
  O2-  O321  1  0.54619368  0.76573448  0.48039813  1
  O2-  O322  1  0.54757822  0.75993951  0.98539306  1
  O2-  O323  1  0.46307901  0.44392759  0.53417530  1
  O2-  O324  1  0.56601930  0.40872416  0.70283115  1
  O2-  O325  1  0.56305348  0.25809479  0.77676428  1
  O2-  O326  1  0.56371631  0.25561167  0.27709469  1
  O2-  O327  1  0.93539557  0.26343153  0.28349279  1
  O2-  O328  1  0.06572118  0.40523935  0.27717907  1
  O2-  O329  1  0.43381650  0.74665667  0.80770937  1
  O2-  O330  1  0.42765902  0.38649918  0.44130877  1
  O2-  O331  1  0.07086539  0.93319356  0.29179538  1
  O2-  O332  1  0.43751969  0.59288678  0.46641571  1
  O2-  O333  1  0.43585859  0.73960324  0.43780087  1
  O2-  O334  1  0.56336242  0.07433169  0.21592205  1
  O2-  O335  1  0.57170426  0.94071524  0.19176568  1
  O2-  O336  1  0.42083382  0.05482234  0.56623078  1
  O2-  O337  1  0.56794513  0.73255896  0.03427419  1
  O2-  O338  1  0.56465799  0.92930162  0.71546364  1
  O2-  O339  1  0.43789937  0.07104879  0.78143096  1
  O2-  O340  1  0.56646483  0.41079650  0.79622345  1
  O2-  O341  1  0.92303266  0.60485519  0.54731550  1
  O2-  O342  1  0.43754814  0.40157855  0.72018888  1
  O2-  O343  1  0.56413043  0.07552384  0.77773050  1
  O2-  O344  1  0.43475818  0.59210959  0.77720838  1
  O2-  O345  1  0.06453483  0.93020489  0.78476624  1
  O2-  O346  1  0.41902809  0.05533241  0.43407509  1
  O2-  O347  1  0.93292682  0.41308951  0.80762726  1
  O2-  O348  1  0.43810892  0.73505345  0.28098459  1
  O2-  O349  1  0.07477176  0.60573209  0.20292924  1
  O2-  O350  1  0.43273394  0.74076145  0.69373009  1
  O2-  O351  1  0.93572966  0.06849802  0.03044943  1
  O2-  O352  1  0.92303210  0.26790190  0.95464759  1
  O2-  O353  1  0.94194802  0.07633514  0.19070898  1
  O2-  O354  1  0.06419132  0.58958351  0.02773996  1
  O2-  O355  1  0.06860448  0.73651521  0.03009115  1
  O2-  O356  1  0.43447098  0.07273655  0.02700749  1
  O2-  O357  1  0.56533748  0.07216677  0.53723218  1
  O2-  O358  1  0.56586207  0.25885055  0.97289868  1
  O2-  O359  1  0.56519745  0.92454380  0.47346447  1
  O2-  O360  1  0.93740969  0.26111302  0.71816845  1
  O2-  O361  1  0.07229912  0.06675924  0.29482044  1
  O2-  O362  1  0.56499361  0.40259477  0.21679838  1
  O2-  O363  1  0.43629203  0.40143433  0.03430435  1
  O2-  O364  1  0.06532003  0.73883356  0.47454272  1
  O2-  O365  1  0.93079808  0.05990728  0.33131865  1
  O2-  O366  1  0.43190610  0.74219212  0.55605267  1
  O2-  O367  1  0.93873499  0.73814599  0.78647224  1
  O2-  O368  1  0.56315138  0.40441963  0.03401985  1
  O2-  O369  1  0.93796906  0.59966270  0.96702946  1
  O2-  O370  1  0.06490242  0.07531691  0.72411980  1
  O2-  O371  1  0.93853485  0.40629956  0.68297320  1
  O2-  O372  1  0.24975688  0.65637601  0.91521928  1
  O2-  O373  1  0.24981562  0.34247953  0.07699236  1
  O2-  O374  1  0.24999167  0.33293876  0.18774147  1
  O2-  O375  1  0.25013878  0.32865445  0.57636491  1
  O2-  O376  1  0.75045976  0.00011797  0.64944888  1
  O2-  O377  1  0.24998881  0.66611574  0.35650953  1
  O2-  O378  1  0.24988105  0.67039675  0.82773745  1
  O2-  O379  1  0.24985701  0.65539406  0.08598346  1
  O2-  O380  1  0.25034922  0.66838126  0.17223375  1
  O2-  O381  1  0.74982460  -0.00272234  0.35231515  1
  O2-  O382  1  0.24985010  0.35297855  0.66970625  1
  O2-  O383  1  0.75008641  0.32720005  0.91475959  1
  O2-  O384  1  0.75019654  0.33428176  0.82386929  1
  O2-  O385  1  0.74983402  0.66596824  0.84345331  1
  O2-  O386  1  0.24994208  0.00371680  0.09333752  1
  O2-  O387  1  0.75004159  0.32988193  0.64394193  1
  O2-  O388  1  0.24985521  0.66405434  0.64495665  1
  O2-  O389  1  0.24986318  0.35255518  0.83632300  1
  O2-  O390  1  0.24999775  -0.00373465  0.42077908  1
  O2-  O391  1  0.24980550  -0.00007416  0.33081229  1
  O2-  O392  1  0.75018772  0.33313968  0.34646675  1
  O2-  O393  1  0.24997746  0.34334491  0.92622699  1
  O2-  O394  1  0.74987336  0.66195625  0.60703416  1
  O2-  O395  1  0.75005108  0.65675458  0.38906982  1
  O2-  O396  1  0.75008067  0.49986665  0.18250822  1
  O2-  O397  1  0.25041257  0.84242171  0.84413523  1
  O2-  O398  1  0.24995777  0.49877474  0.84105123  1
  O2-  O399  1  0.25006871  0.18107786  0.37062312  1
  O2-  O400  1  0.25008664  0.49807626  0.08828525  1
  O2-  O401  1  0.25016609  0.81242566  0.91828793  1
  O2-  O402  1  0.75027553  0.83110066  0.90803502  1
  O2-  O403  1  0.75008906  0.16455971  0.08094838  1
  O2-  O404  1  0.24999074  0.83433609  0.19723053  1
  O2-  O405  1  0.24990809  0.81616918  0.11559117  1
  O2-  O406  1  0.75011103  0.16890669  0.84779611  1
  O2-  O407  1  0.24999663  0.49777484  0.40327352  1
  O2-  O408  1  0.74997373  0.16530734  0.16871769  1
  O2-  O409  1  0.25003130  0.83623545  0.60622717  1
  O2-  O410  1  0.75010530  0.49782727  0.09287110  1
  O2-  O411  1  0.24988860  0.17176107  0.86850065  1
  O2-  O412  1  0.74998505  0.17594720  0.60606669  1
  O2-  O413  1  0.75007167  0.82330123  0.13197918  1
  O2-  O414  1  0.25002766  0.49870712  0.31740111  1
  O2-  O415  1  0.75003434  0.50179127  0.82655452  1
  O2-  O416  1  0.75009400  0.17154175  0.33668193  1
  O2-  O417  1  0.74997592  0.82642529  0.39862856  1
  O2-  O418  1  0.24990302  0.18062745  0.60617290  1
  O2-  O419  1  0.74995428  0.50714394  0.65817693  1
  O2-  O420  1  0.53860391  0.00902176  0.37283647  1
  O2-  O421  1  0.95971754  0.33201375  0.12692105  1
  O2-  O422  1  0.47509711  -0.00283431  0.12684607  1
  O2-  O423  1  0.02390011  0.00122021  0.38790851  1
  O2-  O424  1  0.04101482  0.33361830  0.87419851  1
  O2-  O425  1  0.02418445  0.66197830  0.37477936  1
  O2-  O426  1  0.04283199  0.66533004  0.62543167  1
  O2-  O427  1  0.46205448  -0.00874616  0.36540163  1
  O2-  O428  1  0.97066082  0.33081842  0.87649482  1
  O2-  O429  1  0.53554324  0.66705951  0.86652823  1
  O2-  O430  1  0.96873423  0.00056864  0.62746681  1
  O2-  O431  1  0.51873226  0.33511390  0.87929969  1
  O2-  O432  1  0.96271006  0.67468651  0.63548287  1
  O2-  O433  1  0.02861721  -0.00140517  0.11959858  1
  O2-  O434  1  0.47160495  0.66369340  0.88544463  1
  O2-  O435  1  0.47696719  -0.00639538  0.63119682  1
  O2-  O436  1  0.52632015  0.33748322  0.38178336  1
  O2-  O437  1  0.52475827  0.32641573  0.61813339  1
  O2-  O438  1  0.52647360  -0.00789346  0.87822223  1
  O2-  O439  1  0.01713030  0.67080017  0.12879964  1
  O2-  O440  1  0.04155681  0.33655865  0.12097210  1
  O2-  O441  1  0.47995860  0.65341215  0.62618325  1
  O2-  O442  1  0.02496458  0.32912817  0.37709781  1
  O2-  O443  1  0.02967679  -0.00568141  0.61829371  1
