# generated using pymatgen
data_La7(Ru4O11)2
_symmetry_space_group_name_H-M   'P 1'
_cell_length_a   23.98965528
_cell_length_b   16.82936226
_cell_length_c   15.42604278
_cell_angle_alpha   90.00030862
_cell_angle_beta   90.00010874
_cell_angle_gamma   90.00002251
_symmetry_Int_Tables_number   1
_chemical_formula_structural   La7(Ru4O11)2
_chemical_formula_sum   'La84 Ru96 O264'
_cell_volume   6227.96549597
_cell_formula_units_Z   12
loop_
 _symmetry_equiv_pos_site_id
 _symmetry_equiv_pos_as_xyz
  1  'x, y, z'
loop_
 _atom_type_symbol
 _atom_type_oxidation_number
  La3+  3.0
  Ru4+  4.0
  O2-  -2.0
loop_
 _atom_site_type_symbol
 _atom_site_label
 _atom_site_symmetry_multiplicity
 _atom_site_fract_x
 _atom_site_fract_y
 _atom_site_fract_z
 _atom_site_occupancy
  La3+  La0  1  0.13904548  -0.00041926  0.12465020  1
  La3+  La1  1  0.14190108  -0.00012323  0.37399626  1
  La3+  La2  1  0.13892906  -0.00011691  0.62391226  1
  La3+  La3  1  0.13885605  -0.00057467  0.87652637  1
  La3+  La4  1  0.13767901  0.33166870  0.12262291  1
  La3+  La5  1  0.13941390  0.33251803  0.37615631  1
  La3+  La6  1  0.14193141  0.33254489  0.62467554  1
  La3+  La7  1  0.13964766  0.33270325  0.87540698  1
  La3+  La8  1  0.13989441  0.66650407  0.12381248  1
  La3+  La9  1  0.13871685  0.66561531  0.37711081  1
  La3+  La10  1  0.13912539  0.66648204  0.62451439  1
  La3+  La11  1  0.13770760  0.66724126  0.87426246  1
  La3+  La12  1  0.63738537  0.00007159  0.12608929  1
  La3+  La13  1  0.63678609  0.00135766  0.37368704  1
  La3+  La14  1  0.63744008  -0.00030928  0.62682766  1
  La3+  La15  1  0.63907956  -0.00102078  0.87356955  1
  La3+  La16  1  0.64060242  0.33217617  0.12329601  1
  La3+  La17  1  0.63901640  0.33319989  0.37506480  1
  La3+  La18  1  0.64030221  0.33388229  0.62452060  1
  La3+  La19  1  0.64006650  0.33295288  0.87478530  1
  La3+  La20  1  0.63709894  0.66646996  0.12364239  1
  La3+  La21  1  0.63644208  0.66578874  0.37526435  1
  La3+  La22  1  0.63746899  0.66672425  0.62507853  1
  La3+  La23  1  0.63838709  0.66751143  0.87609843  1
  La3+  La24  1  0.36095600  -0.00003087  0.12572302  1
  La3+  La25  1  0.36050659  0.00105427  0.37461302  1
  La3+  La26  1  0.36184128  0.00007772  0.62300182  1
  La3+  La27  1  0.36079824  -0.00089307  0.87679571  1
  La3+  La28  1  0.36101329  0.33285586  0.12346711  1
  La3+  La29  1  0.35997719  0.33178177  0.37822205  1
  La3+  La30  1  0.35923599  0.33361146  0.62507247  1
  La3+  La31  1  0.36049035  0.33284766  0.87391674  1
  La3+  La32  1  0.36051973  0.66723439  0.12451807  1
  La3+  La33  1  0.36088782  0.66632140  0.37674063  1
  La3+  La34  1  0.35866530  0.66737421  0.62309971  1
  La3+  La35  1  0.36022823  0.66764081  0.87613146  1
  La3+  La36  1  0.86262602  0.00121019  0.12524160  1
  La3+  La37  1  0.86315455  0.00120888  0.37347169  1
  La3+  La38  1  0.86204359  -0.00051370  0.62697628  1
  La3+  La39  1  0.86141976  -0.00083498  0.87370798  1
  La3+  La40  1  0.86047855  0.33220845  0.12477502  1
  La3+  La41  1  0.86053647  0.33307024  0.37341549  1
  La3+  La42  1  0.85961810  0.33329228  0.62542039  1
  La3+  La43  1  0.86018434  0.33165377  0.87615504  1
  La3+  La44  1  0.86222959  0.66637330  0.12367419  1
  La3+  La45  1  0.86378376  0.66634329  0.37498558  1
  La3+  La46  1  0.86355898  0.66728942  0.62435690  1
  La3+  La47  1  0.86251621  0.66684537  0.87644429  1
  La3+  La48  1  0.50004062  0.16718456  0.61260097  1
  La3+  La49  1  0.50163638  0.49598005  0.86751822  1
  La3+  La50  1  0.00020355  0.83376450  0.86684819  1
  La3+  La51  1  0.49800373  0.83614673  0.63657809  1
  La3+  La52  1  0.49998507  0.83323020  0.61487386  1
  La3+  La53  1  -0.00025441  0.83426292  0.13475964  1
  La3+  La54  1  0.50029233  0.16668989  0.13520688  1
  La3+  La55  1  -0.00023774  0.49970577  0.13293625  1
  La3+  La56  1  0.50022952  0.83355344  0.13662811  1
  La3+  La57  1  0.49932213  0.50229045  0.38423145  1
  La3+  La58  1  0.00074512  0.16982059  0.11405448  1
  La3+  La59  1  -0.00078800  0.83306750  0.38408314  1
  La3+  La60  1  0.50165683  0.49807141  0.63575021  1
  La3+  La61  1  0.00036187  0.16690441  0.13080329  1
  La3+  La62  1  -0.00126675  0.49915027  0.38306068  1
  La3+  La63  1  0.00344758  0.82962293  0.63332577  1
  La3+  La64  1  0.00124478  0.16312048  0.36381429  1
  La3+  La65  1  0.49963887  0.83350831  0.86686332  1
  La3+  La66  1  0.00068422  0.17112818  0.38486291  1
  La3+  La67  1  0.00128603  0.16828126  0.88351814  1
  La3+  La68  1  0.00147035  0.16551851  0.62130824  1
  La3+  La69  1  -0.00018446  0.83625051  0.61307836  1
  La3+  La70  1  -0.00337383  0.50377126  0.63009889  1
  La3+  La71  1  0.49782151  0.50360798  0.61457198  1
  La3+  La72  1  0.74996812  0.21564033  0.49786338  1
  La3+  La73  1  0.75004050  0.82715568  0.28430121  1
  La3+  La74  1  0.75016465  0.46496301  0.47573781  1
  La3+  La75  1  0.24991419  0.86335512  0.24819302  1
  La3+  La76  1  0.75035689  0.83342344  0.50060392  1
  La3+  La77  1  0.24987840  0.53422347  0.26821753  1
  La3+  La78  1  0.24989427  0.20015561  0.71812329  1
  La3+  La79  1  0.25012931  0.80225100  0.77197557  1
  La3+  La80  1  0.75027838  0.47117505  0.00138063  1
  La3+  La81  1  0.74984540  0.47151735  0.75031069  1
  La3+  La82  1  0.74999939  0.21115621  -0.00697630  1
  La3+  La83  1  0.25008977  0.50086258  0.52152038  1
  Ru4+  Ru84  1  0.00137971  -0.00272576  0.00083457  1
  Ru4+  Ru85  1  -0.00033209  -0.00349362  0.24780596  1
  Ru4+  Ru86  1  -0.00154067  -0.00392879  0.50355388  1
  Ru4+  Ru87  1  -0.00016076  0.00195338  0.75085826  1
  Ru4+  Ru88  1  -0.00040424  0.34363236  0.00087541  1
  Ru4+  Ru89  1  0.00241001  0.34053111  0.24620513  1
  Ru4+  Ru90  1  -0.00023132  0.33514867  0.50366167  1
  Ru4+  Ru91  1  -0.00021287  0.32974478  0.74790327  1
  Ru4+  Ru92  1  -0.00062594  0.66515064  -0.00257266  1
  Ru4+  Ru93  1  -0.00149634  0.66397520  0.25007646  1
  Ru4+  Ru94  1  0.00162323  0.66392800  0.49828492  1
  Ru4+  Ru95  1  -0.00332147  0.66346595  0.75211999  1
  Ru4+  Ru96  1  0.49877897  -0.00146416  0.00036424  1
  Ru4+  Ru97  1  0.49880989  -0.00007291  0.25421826  1
  Ru4+  Ru98  1  0.49809578  0.00132657  0.49486789  1
  Ru4+  Ru99  1  0.50168712  -0.00116088  0.75114370  1
  Ru4+  Ru100  1  0.50132267  0.33438334  0.00307268  1
  Ru4+  Ru101  1  0.50131353  0.33289472  0.24747853  1
  Ru4+  Ru102  1  0.49712523  0.32555518  0.49608431  1
  Ru4+  Ru103  1  0.49943144  0.33270537  0.75087467  1
  Ru4+  Ru104  1  0.49831659  0.67519180  0.00123220  1
  Ru4+  Ru105  1  0.49968389  0.66578617  0.24714885  1
  Ru4+  Ru106  1  0.50046931  0.66736543  0.49593363  1
  Ru4+  Ru107  1  0.50096741  0.66800051  0.75447479  1
  Ru4+  Ru108  1  0.11574756  0.16476849  -0.00036126  1
  Ru4+  Ru109  1  0.11546699  0.16706550  0.24979604  1
  Ru4+  Ru110  1  0.11576461  0.16882373  0.50037034  1
  Ru4+  Ru111  1  0.11181993  0.16839104  0.74986064  1
  Ru4+  Ru112  1  0.11221296  0.49977278  0.00028597  1
  Ru4+  Ru113  1  0.11149660  0.50084352  0.24976744  1
  Ru4+  Ru114  1  0.11605483  0.49879880  0.49905634  1
  Ru4+  Ru115  1  0.11734564  0.49722036  0.75100158  1
  Ru4+  Ru116  1  0.11442922  0.83292503  0.00035933  1
  Ru4+  Ru117  1  0.11272788  0.83596422  0.25030217  1
  Ru4+  Ru118  1  0.11407133  0.83276297  0.49945075  1
  Ru4+  Ru119  1  0.11455363  0.83631345  0.75089092  1
  Ru4+  Ru120  1  0.61235879  0.16860475  0.00009442  1
  Ru4+  Ru121  1  0.61407162  0.16715623  0.25001375  1
  Ru4+  Ru122  1  0.61112738  0.16746019  0.50025589  1
  Ru4+  Ru123  1  0.61453845  0.16608940  0.75007441  1
  Ru4+  Ru124  1  0.61623945  0.49383112  0.00171608  1
  Ru4+  Ru125  1  0.61344482  0.50114814  0.24951670  1
  Ru4+  Ru126  1  0.61490144  0.50263875  0.49880385  1
  Ru4+  Ru127  1  0.61200888  0.49982097  0.75049808  1
  Ru4+  Ru128  1  0.61267912  0.83314649  -0.00003644  1
  Ru4+  Ru129  1  0.61126668  0.83334962  0.24920746  1
  Ru4+  Ru130  1  0.61164031  0.83212361  0.50017096  1
  Ru4+  Ru131  1  0.61348116  0.83560128  0.75054061  1
  Ru4+  Ru132  1  0.38665393  0.16751467  0.00042866  1
  Ru4+  Ru133  1  0.38602166  0.16246401  0.25005191  1
  Ru4+  Ru134  1  0.38674511  0.16669378  0.49966968  1
  Ru4+  Ru135  1  0.38759535  0.17000172  0.75104952  1
  Ru4+  Ru136  1  0.38596870  0.49835620  0.00027656  1
  Ru4+  Ru137  1  0.38769924  0.50242778  0.25017857  1
  Ru4+  Ru138  1  0.38644643  0.50029356  0.49944087  1
  Ru4+  Ru139  1  0.38429507  0.49797056  0.75024067  1
  Ru4+  Ru140  1  0.38570023  0.83291030  -0.00007265  1
  Ru4+  Ru141  1  0.38883210  0.83440670  0.25024354  1
  Ru4+  Ru142  1  0.38634906  0.83351736  0.49914603  1
  Ru4+  Ru143  1  0.38800850  0.83277186  0.75101408  1
  Ru4+  Ru144  1  0.88435711  0.16605374  -0.00031320  1
  Ru4+  Ru145  1  0.88265076  0.16405243  0.25002457  1
  Ru4+  Ru146  1  0.88618282  0.16656549  0.50032656  1
  Ru4+  Ru147  1  0.88691167  0.16762816  0.75016410  1
  Ru4+  Ru148  1  0.88875190  0.49973227  -0.00061417  1
  Ru4+  Ru149  1  0.88811915  0.49993637  0.25009594  1
  Ru4+  Ru150  1  0.88836737  0.49900182  0.49953830  1
  Ru4+  Ru151  1  0.88758618  0.50156971  0.75087785  1
  Ru4+  Ru152  1  0.88728540  0.83320434  -0.00010168  1
  Ru4+  Ru153  1  0.88879247  0.83207233  0.25074391  1
  Ru4+  Ru154  1  0.88605250  0.83677166  0.49938131  1
  Ru4+  Ru155  1  0.88569635  0.83400998  0.75032541  1
  Ru4+  Ru156  1  0.74969933  0.75103462  0.75051034  1
  Ru4+  Ru157  1  0.75036809  0.60707151  0.00009688  1
  Ru4+  Ru158  1  0.24994094  0.08300849  -0.00017912  1
  Ru4+  Ru159  1  0.24976057  0.40277316  0.25355942  1
  Ru4+  Ru160  1  0.74993926  0.07123876  0.51189271  1
  Ru4+  Ru161  1  0.74986533  0.60871735  0.75087648  1
  Ru4+  Ru162  1  0.75036794  0.57417333  0.24701049  1
  Ru4+  Ru163  1  0.74994122  0.91330137  -0.00554256  1
  Ru4+  Ru164  1  0.25021672  0.57974871  -0.00109138  1
  Ru4+  Ru165  1  0.74989202  0.72173204  0.51744385  1
  Ru4+  Ru166  1  0.24997151  0.42302690  -0.00005370  1
  Ru4+  Ru167  1  0.75017682  0.41833147  0.24954514  1
  Ru4+  Ru168  1  0.74990916  0.71219893  0.22397300  1
  Ru4+  Ru169  1  0.25003071  0.06348524  0.75248270  1
  Ru4+  Ru170  1  0.24991541  0.24314018  0.25387721  1
  Ru4+  Ru171  1  0.25020497  0.57958922  0.74501922  1
  Ru4+  Ru172  1  0.75026277  0.59396035  0.51374692  1
  Ru4+  Ru173  1  0.74970623  0.07063555  -0.00683787  1
  Ru4+  Ru174  1  0.74993168  0.94363547  0.24233868  1
  Ru4+  Ru175  1  0.25002806  0.72955327  0.24832917  1
  Ru4+  Ru176  1  0.74984936  0.94520754  0.51713378  1
  Ru4+  Ru177  1  0.25008936  0.91515760  0.49857094  1
  Ru4+  Ru178  1  0.25023374  0.93687968  0.74741692  1
  Ru4+  Ru179  1  0.74988208  0.08305705  0.75411145  1
  O2-  O180  1  0.16770113  0.08101984  -0.00007331  1
  O2-  O181  1  0.16733156  0.08178338  0.24923417  1
  O2-  O182  1  0.16768076  0.08115964  0.50149042  1
  O2-  O183  1  0.16667049  0.07984196  0.74988121  1
  O2-  O184  1  0.16777444  0.41463592  0.00029667  1
  O2-  O185  1  0.16674543  0.41298138  0.24961108  1
  O2-  O186  1  0.16790363  0.41482513  0.50022324  1
  O2-  O187  1  0.16705734  0.41682900  0.75059288  1
  O2-  O188  1  0.16607746  0.74824431  -0.00017854  1
  O2-  O189  1  0.16666032  0.74664674  0.24991427  1
  O2-  O190  1  0.16674280  0.74850230  0.49950107  1
  O2-  O191  1  0.16668570  0.74639357  0.74963922  1
  O2-  O192  1  0.66723776  0.07942823  0.00015040  1
  O2-  O193  1  0.66646778  0.08059336  0.25063562  1
  O2-  O194  1  0.66682229  0.07971633  0.49960469  1
  O2-  O195  1  0.66744948  0.08096960  0.74990207  1
  O2-  O196  1  0.66736400  0.41479846  -0.00093698  1
  O2-  O197  1  0.66897693  0.41457730  0.25047381  1
  O2-  O198  1  0.66594700  0.41346856  0.49945459  1
  O2-  O199  1  0.66773925  0.41349526  0.75013103  1
  O2-  O200  1  0.66728014  0.74690138  -0.00007597  1
  O2-  O201  1  0.66566904  0.74603989  0.25046803  1
  O2-  O202  1  0.66623463  0.74590213  0.49927314  1
  O2-  O203  1  0.66831755  0.74649784  0.74985645  1
  O2-  O204  1  0.33324510  0.25209640  0.00009230  1
  O2-  O205  1  0.33243672  0.25278944  0.25009554  1
  O2-  O206  1  0.33316347  0.25167345  0.50018989  1
  O2-  O207  1  0.33331144  0.25144879  0.75028210  1
  O2-  O208  1  0.33116109  0.58571036  0.00019270  1
  O2-  O209  1  0.33462243  0.58642972  0.24961215  1
  O2-  O210  1  0.33274799  0.58552083  0.49929879  1
  O2-  O211  1  0.33140931  0.58613784  0.75057689  1
  O2-  O212  1  0.33394735  0.91851300  0.00058012  1
  O2-  O213  1  0.33342047  0.91943819  0.24886097  1
  O2-  O214  1  0.33067714  0.91852957  0.50064837  1
  O2-  O215  1  0.33241695  0.92052786  0.74996942  1
  O2-  O216  1  0.83438938  0.25228132  0.00049569  1
  O2-  O217  1  0.83347443  0.25177112  0.24946536  1
  O2-  O218  1  0.83383057  0.25344954  0.49999440  1
  O2-  O219  1  0.83310179  0.25171280  0.74957947  1
  O2-  O220  1  0.83192955  0.58718490  0.00036350  1
  O2-  O221  1  0.83169014  0.58654839  0.24997057  1
  O2-  O222  1  0.83325546  0.58765226  0.50005091  1
  O2-  O223  1  0.83321488  0.58652223  0.74941204  1
  O2-  O224  1  0.83327388  0.91947586  0.00077584  1
  O2-  O225  1  0.83420963  0.92082391  0.24938018  1
  O2-  O226  1  0.83446687  0.92129018  0.49996713  1
  O2-  O227  1  0.83253370  0.91936279  0.74900399  1
  O2-  O228  1  0.16694998  0.25162168  -0.00012438  1
  O2-  O229  1  0.16772027  0.25250831  0.24964479  1
  O2-  O230  1  0.16752480  0.25110321  0.50023006  1
  O2-  O231  1  0.16710788  0.25187996  0.75061308  1
  O2-  O232  1  0.16792750  0.58510525  0.00053807  1
  O2-  O233  1  0.16558843  0.58692243  0.24964783  1
  O2-  O234  1  0.16664046  0.58523062  0.49973533  1
  O2-  O235  1  0.16787966  0.58607339  0.75059539  1
  O2-  O236  1  0.16661742  0.91872111  -0.00032881  1
  O2-  O237  1  0.16729154  0.91851166  0.24908947  1
  O2-  O238  1  0.16878750  0.91883175  0.50086306  1
  O2-  O239  1  0.16714079  0.91965324  0.74993737  1
  O2-  O240  1  0.66497967  0.25259149  -0.00039700  1
  O2-  O241  1  0.66617331  0.25164998  0.25055405  1
  O2-  O242  1  0.66550543  0.25371203  0.49877688  1
  O2-  O243  1  0.66779774  0.25166653  0.74999253  1
  O2-  O244  1  0.66758785  0.58658104  -0.00088864  1
  O2-  O245  1  0.66757606  0.58531888  0.25041870  1
  O2-  O246  1  0.66736614  0.58687324  0.49992789  1
  O2-  O247  1  0.66699819  0.58713854  0.75045394  1
  O2-  O248  1  0.66670918  0.91921887  0.00001884  1
  O2-  O249  1  0.66662870  0.92082591  0.25079811  1
  O2-  O250  1  0.66523535  0.92144614  0.49939901  1
  O2-  O251  1  0.66737703  0.91931998  0.74931043  1
  O2-  O252  1  0.33295406  0.08063128  0.00062549  1
  O2-  O253  1  0.33305853  0.08264067  0.24858826  1
  O2-  O254  1  0.33319072  0.08135550  0.50118771  1
  O2-  O255  1  0.33280716  0.07994706  0.74915818  1
  O2-  O256  1  0.33284540  0.41521831  0.00011534  1
  O2-  O257  1  0.33282546  0.41355824  0.24958854  1
  O2-  O258  1  0.33196346  0.41379635  0.49986966  1
  O2-  O259  1  0.33373769  0.41575141  0.75037599  1
  O2-  O260  1  0.33283145  0.74820775  0.00015444  1
  O2-  O261  1  0.33364650  0.74707072  0.25003090  1
  O2-  O262  1  0.33359816  0.74894203  0.49902640  1
  O2-  O263  1  0.33359517  0.74633366  0.75018299  1
  O2-  O264  1  0.83296372  0.08019277  0.00136390  1
  O2-  O265  1  0.83248874  0.08086122  0.24957168  1
  O2-  O266  1  0.83317298  0.07981791  0.50035871  1
  O2-  O267  1  0.83209583  0.08065319  0.74947307  1
  O2-  O268  1  0.83371102  0.41479310  0.00022655  1
  O2-  O269  1  0.83148726  0.41420674  0.24959964  1
  O2-  O270  1  0.83398804  0.41326194  0.49976734  1
  O2-  O271  1  0.83241131  0.41402475  0.74909353  1
  O2-  O272  1  0.83273271  0.74684356  0.00030649  1
  O2-  O273  1  0.83345404  0.74590386  0.24951488  1
  O2-  O274  1  0.83424175  0.74518141  0.49979865  1
  O2-  O275  1  0.83209830  0.74730100  0.74960027  1
  O2-  O276  1  0.03965924  0.43719026  0.52824311  1
  O2-  O277  1  0.04788388  0.23516353  0.01669877  1
  O2-  O278  1  0.95097637  0.57235848  0.76383638  1
  O2-  O279  1  0.95406560  0.09715254  0.48770380  1
  O2-  O280  1  0.54059768  0.44849072  0.24218054  1
  O2-  O281  1  0.54748381  0.23482445  0.51347595  1
  O2-  O282  1  0.54472858  0.76624529  0.01354141  1
  O2-  O283  1  0.95465252  0.23285748  0.76426889  1
  O2-  O284  1  0.04469837  0.09835049  0.76420236  1
  O2-  O285  1  0.45399379  0.43031718  0.76388499  1
  O2-  O286  1  0.95316870  0.76160677  0.73757366  1
  O2-  O287  1  0.95414977  0.90040999  0.26314992  1
  O2-  O288  1  0.04432532  0.89969274  0.01354006  1
  O2-  O289  1  0.04679469  0.76651669  0.48565497  1
  O2-  O290  1  0.95974341  0.22781965  0.52791651  1
  O2-  O291  1  0.95305902  0.23935775  0.98662591  1
  O2-  O292  1  0.03442689  0.44776476  0.73459264  1
  O2-  O293  1  0.04721668  0.57101448  0.76957126  1
  O2-  O294  1  0.04485465  0.56963429  0.52071476  1
  O2-  O295  1  0.04584157  0.56931566  0.48128279  1
  O2-  O296  1  0.45424332  0.89924195  0.26296462  1
  O2-  O297  1  0.45310327  0.76359049  0.51160293  1
  O2-  O298  1  0.95450894  0.23331223  0.22887528  1
  O2-  O299  1  0.95348635  0.23462526  0.26811870  1
  O2-  O300  1  0.54233445  0.56098569  0.99531912  1
  O2-  O301  1  0.95550893  0.76600429  0.98563947  1
  O2-  O302  1  0.96446049  0.11125799  1.00297850  1
  O2-  O303  1  0.45544579  0.56132974  0.97251591  1
  O2-  O304  1  0.45932338  0.44509993  0.25616344  1
  O2-  O305  1  0.54675004  0.90293013  0.51113598  1
  O2-  O306  1  0.46045675  0.56266800  0.77856488  1
  O2-  O307  1  0.94875651  0.57813032  0.98078540  1
  O2-  O308  1  0.45929659  0.10652334  0.72539530  1
  O2-  O309  1  0.45518523  0.09830986  0.48674199  1
  O2-  O310  1  0.54596706  0.76318500  0.73875462  1
  O2-  O311  1  0.04463321  0.43258787  0.98790843  1
  O2-  O312  1  0.46082827  0.22716473  0.27755982  1
  O2-  O313  1  0.45375289  0.23693246  0.48476949  1
  O2-  O314  1  0.54584937  0.43078021  0.47986509  1
  O2-  O315  1  0.95912777  0.44528585  0.75941091  1
  O2-  O316  1  0.96127288  0.10689502  0.01953382  1
  O2-  O317  1  0.04816014  0.76419810  0.76430322  1
  O2-  O318  1  0.04829959  0.57227499  0.73078074  1
  O2-  O319  1  0.95182588  0.76253243  0.51481292  1
  O2-  O320  1  0.54243750  0.56112355  -0.00462439  1
  O2-  O321  1  0.54662531  0.43119521  0.51905849  1
  O2-  O322  1  0.45511761  0.57268930  0.26518847  1
  O2-  O323  1  0.95400761  0.90401880  0.73659322  1
  O2-  O324  1  0.56384232  0.93165272  0.21737111  1
  O2-  O325  1  0.43534985  0.40411451  0.52890412  1
  O2-  O326  1  0.93438707  0.07046639  0.27886568  1
  O2-  O327  1  0.93752647  0.73780988  0.53260641  1
  O2-  O328  1  0.06585916  0.26243057  0.27915394  1
  O2-  O329  1  0.43519909  0.07110113  0.27747235  1
  O2-  O330  1  0.06397423  0.73947443  0.77884883  1
  O2-  O331  1  0.07092175  0.39863475  0.45920402  1
  O2-  O332  1  0.06667847  0.07347160  0.29891871  1
  O2-  O333  1  0.06182243  0.26049506  0.03401975  1
  O2-  O334  1  0.06595994  0.73944760  0.29846330  1
  O2-  O335  1  0.07490715  0.38720938  0.68657838  1
  O2-  O336  1  0.91752507  0.04605702  0.95178373  1
  O2-  O337  1  0.42595891  0.38649030  0.29247299  1
  O2-  O338  1  0.56378534  0.06924558  0.05123732  1
  O2-  O339  1  0.43400110  0.92854364  0.47130013  1
  O2-  O340  1  0.93556977  0.26046938  0.97052974  1
  O2-  O341  1  0.56577367  0.73834324  0.52986655  1
  O2-  O342  1  0.06704625  0.07283390  0.45192122  1
  O2-  O343  1  0.06543464  0.92700780  0.27891085  1
  O2-  O344  1  0.06339325  0.26164303  0.71706467  1
  O2-  O345  1  0.06570034  0.07251671  0.20030574  1
  O2-  O346  1  0.92417780  0.38821043  0.78606842  1
  O2-  O347  1  0.57566870  0.38904757  0.21458349  1
  O2-  O348  1  0.43121585  0.60377921  0.04438793  1
  O2-  O349  1  0.06468076  0.93083268  0.78295562  1
  O2-  O350  1  0.06408462  0.06843669  0.55363465  1
  O2-  O351  1  0.56568771  0.25892929  0.70371974  1
  O2-  O352  1  0.43636611  0.59790702  0.46693419  1
  O2-  O353  1  0.06565215  0.26032917  0.47037095  1
  O2-  O354  1  0.92783929  0.27106461  0.45792947  1
  O2-  O355  1  0.06434642  0.73575981  0.19721476  1
  O2-  O356  1  0.42756452  0.60368264  0.70753478  1
  O2-  O357  1  0.56539009  0.40531037  0.72041523  1
  O2-  O358  1  0.43099132  0.27080319  0.20527251  1
  O2-  O359  1  0.56395147  0.59733601  0.46622072  1
  O2-  O360  1  0.43422559  0.26166366  0.77945001  1
  O2-  O361  1  0.56545656  0.40450743  0.02899269  1
  O2-  O362  1  0.43171477  0.06416806  0.79388757  1
  O2-  O363  1  0.43664054  0.73570071  0.96654161  1
  O2-  O364  1  0.93557559  0.73544453  0.28296633  1
  O2-  O365  1  0.56560280  0.26032898  0.79586415  1
  O2-  O366  1  0.06604147  0.07146149  0.03004542  1
  O2-  O367  1  0.56382807  0.06885693  0.94883991  1
  O2-  O368  1  0.07141912  0.39889534  0.81031794  1
  O2-  O369  1  0.43578570  0.92863297  0.78322713  1
  O2-  O370  1  0.94208669  0.58796067  0.97487229  1
  O2-  O371  1  0.57368256  0.60997053  0.04036740  1
  O2-  O372  1  0.75006830  0.01709251  0.16456543  1
  O2-  O373  1  0.25016683  0.33021833  0.34747671  1
  O2-  O374  1  0.24987125  -0.00397077  0.34597522  1
  O2-  O375  1  0.25005958  0.33385211  0.83047987  1
  O2-  O376  1  0.25013755  0.66428314  0.90696444  1
  O2-  O377  1  0.24985854  0.66359514  0.59692951  1
  O2-  O378  1  0.74993762  -0.00302398  0.90121847  1
  O2-  O379  1  0.75009134  0.33330845  0.59257934  1
  O2-  O380  1  0.75008533  0.66582412  0.41633510  1
  O2-  O381  1  0.24997964  0.00062059  0.90670673  1
  O2-  O382  1  0.74996623  0.33427350  0.82955183  1
  O2-  O383  1  0.74983403  0.33566353  0.34257921  1
  O2-  O384  1  0.75014810  -0.00709646  0.08045747  1
  O2-  O385  1  0.75012822  0.33565065  0.09522093  1
  O2-  O386  1  0.24999459  0.66470872  0.15390659  1
  O2-  O387  1  0.25005611  0.32701944  0.16589557  1
  O2-  O388  1  0.74991010  0.33438874  0.92045493  1
  O2-  O389  1  0.25004709  0.33246108  0.92056123  1
  O2-  O390  1  0.25017011  0.33219045  0.07394213  1
  O2-  O391  1  0.25002809  0.66533104  0.34611335  1
  O2-  O392  1  0.74999313  0.00038206  0.41491232  1
  O2-  O393  1  0.74991341  0.01468275  0.32827559  1
  O2-  O394  1  0.24999219  0.33134441  0.65605784  1
  O2-  O395  1  0.74992901  0.65676077  0.32785067  1
  O2-  O396  1  0.74995026  0.83589042  0.83054728  1
  O2-  O397  1  0.25006357  0.50304079  0.66488411  1
  O2-  O398  1  0.25002496  0.49576115  0.13595288  1
  O2-  O399  1  0.25003011  0.16981539  0.93196832  1
  O2-  O400  1  0.74996521  0.83396738  0.15443449  1
  O2-  O401  1  0.75021985  0.15856753  0.38976502  1
  O2-  O402  1  0.74998185  0.16690243  0.18538505  1
  O2-  O403  1  0.74996721  0.15932124  0.10496844  1
  O2-  O404  1  0.74992590  0.83345680  0.61951543  1
  O2-  O405  1  0.74996697  0.16711311  0.30985199  1
  O2-  O406  1  0.25009896  0.16253675  0.84524223  1
  O2-  O407  1  0.25000317  0.83324046  0.09535967  1
  O2-  O408  1  0.25000258  0.16841230  0.08105791  1
  O2-  O409  1  0.24994896  0.16813069  0.40712777  1
  O2-  O410  1  0.75001455  0.15847315  0.87432897  1
  O2-  O411  1  0.75002737  0.83349735  0.39078477  1
  O2-  O412  1  0.24995718  0.49809220  0.39272027  1
  O2-  O413  1  0.74999551  0.15641249  0.60859466  1
  O2-  O414  1  0.74994965  0.50438915  0.60974769  1
  O2-  O415  1  0.24999082  0.83811020  0.63910088  1
  O2-  O416  1  0.75000697  0.17098495  0.69180002  1
  O2-  O417  1  0.25001429  0.16473361  0.16932373  1
  O2-  O418  1  0.74997394  0.82944537  0.06927001  1
  O2-  O419  1  0.74995422  0.82988665  0.91803881  1
  O2-  O420  1  0.97247330  0.33518653  0.12443036  1
  O2-  O421  1  0.97171031  0.33449377  0.62570993  1
  O2-  O422  1  0.96848560  0.33828252  0.37102018  1
  O2-  O423  1  0.46849798  0.33096834  0.62931039  1
  O2-  O424  1  0.53648974  0.00177407  0.62579007  1
  O2-  O425  1  0.47012566  0.33522072  0.87958250  1
  O2-  O426  1  0.02841881  0.33520993  0.37057779  1
  O2-  O427  1  0.02539366  0.66266927  0.37797958  1
  O2-  O428  1  0.46752305  0.66962530  0.62072427  1
  O2-  O429  1  0.52849105  0.33466284  0.62096971  1
  O2-  O430  1  0.02949384  0.32824931  0.87870835  1
  O2-  O431  1  0.02725144  0.66734929  0.62520417  1
  O2-  O432  1  0.97380845  -0.00304355  0.87206956  1
  O2-  O433  1  0.02671295  0.66630377  0.88060280  1
  O2-  O434  1  0.97216272  0.33346629  0.87645947  1
  O2-  O435  1  0.46418033  -0.00069682  0.62349534  1
  O2-  O436  1  0.52402696  0.32624116  0.12161433  1
  O2-  O437  1  0.52623668  0.66914476  0.13202549  1
  O2-  O438  1  0.52929429  0.33751598  0.87961318  1
  O2-  O439  1  0.02748160  -0.00636163  0.37775497  1
  O2-  O440  1  0.02398036  -0.00528663  0.12445434  1
  O2-  O441  1  0.47646873  -0.00025718  0.37572812  1
  O2-  O442  1  0.96756191  -0.00331787  0.37761069  1
  O2-  O443  1  0.53343616  0.66325535  0.62780956  1
