# generated using pymatgen
data_La7(Ru4O11)2
_symmetry_space_group_name_H-M   'P 1'
_cell_length_a   23.98951205
_cell_length_b   16.82962447
_cell_length_c   15.42586005
_cell_angle_alpha   90.00042533
_cell_angle_beta   90.00007125
_cell_angle_gamma   89.99985110
_symmetry_Int_Tables_number   1
_chemical_formula_structural   La7(Ru4O11)2
_chemical_formula_sum   'La84 Ru96 O264'
_cell_volume   6227.95157208
_cell_formula_units_Z   12
loop_
 _symmetry_equiv_pos_site_id
 _symmetry_equiv_pos_as_xyz
  1  'x, y, z'
loop_
 _atom_type_symbol
 _atom_type_oxidation_number
  La3+  3.0
  Ru4+  4.0
  O2-  -2.0
loop_
 _atom_site_type_symbol
 _atom_site_label
 _atom_site_symmetry_multiplicity
 _atom_site_fract_x
 _atom_site_fract_y
 _atom_site_fract_z
 _atom_site_occupancy
  La3+  La0  1  0.13701897  -0.00014007  0.12612371  1
  La3+  La1  1  0.13834599  0.00038434  0.37634800  1
  La3+  La2  1  0.13965449  0.00165269  0.62368570  1
  La3+  La3  1  0.13765146  0.00091210  0.87397564  1
  La3+  La4  1  0.13678894  0.33271228  0.12440849  1
  La3+  La5  1  0.13936739  0.33171196  0.37609646  1
  La3+  La6  1  0.13861949  0.33173596  0.62627381  1
  La3+  La7  1  0.13831103  0.33262480  0.87378194  1
  La3+  La8  1  0.13646457  0.66771447  0.12569833  1
  La3+  La9  1  0.13754085  0.66768552  0.37496181  1
  La3+  La10  1  0.13951924  0.66579591  0.62685726  1
  La3+  La11  1  0.13855878  0.66639371  0.87243828  1
  La3+  La12  1  0.63880902  -0.00087998  0.12592424  1
  La3+  La13  1  0.64174504  -0.00035391  0.37566516  1
  La3+  La14  1  0.63861343  0.00016712  0.62306924  1
  La3+  La15  1  0.63754016  -0.00026533  0.87571148  1
  La3+  La16  1  0.63905404  0.33294959  0.12454999  1
  La3+  La17  1  0.64004902  0.33335122  0.37737340  1
  La3+  La18  1  0.63795108  0.33320601  0.62315286  1
  La3+  La19  1  0.63834623  0.33409393  0.87509054  1
  La3+  La20  1  0.64107486  0.66834174  0.12585864  1
  La3+  La21  1  0.63929978  0.66677343  0.37337858  1
  La3+  La22  1  0.64014114  0.66611141  0.62702860  1
  La3+  La23  1  0.64054943  0.66743527  0.87365949  1
  La3+  La24  1  0.36369983  -0.00032787  0.12622236  1
  La3+  La25  1  0.36134056  -0.00009377  0.37651159  1
  La3+  La26  1  0.36039017  0.00106676  0.62523647  1
  La3+  La27  1  0.36250597  0.00130513  0.87301894  1
  La3+  La28  1  0.36264519  0.33279803  0.12535529  1
  La3+  La29  1  0.36086753  0.33266265  0.37658006  1
  La3+  La30  1  0.36164622  0.33304398  0.62476894  1
  La3+  La31  1  0.36021910  0.33230416  0.87311455  1
  La3+  La32  1  0.36402256  0.66693899  0.12499956  1
  La3+  La33  1  0.36307353  0.66682690  0.37543192  1
  La3+  La34  1  0.36118688  0.66551058  0.62616118  1
  La3+  La35  1  0.36208279  0.66666773  0.87295278  1
  La3+  La36  1  0.86149957  -0.00094578  0.12697768  1
  La3+  La37  1  0.85934640  0.00037825  0.37483776  1
  La3+  La38  1  0.86107392  0.00023434  0.62362153  1
  La3+  La39  1  0.86185724  -0.00141204  0.87473998  1
  La3+  La40  1  0.86131753  0.33298079  0.12512756  1
  La3+  La41  1  0.85890320  0.33299975  0.37602811  1
  La3+  La42  1  0.86077052  0.33350013  0.62287672  1
  La3+  La43  1  0.86173312  0.33401701  0.87559526  1
  La3+  La44  1  0.85971937  0.66826307  0.12607472  1
  La3+  La45  1  0.86240554  0.66877738  0.37568761  1
  La3+  La46  1  0.86165989  0.66853567  0.62458666  1
  La3+  La47  1  0.85989810  0.66736786  0.87428919  1
  La3+  La48  1  0.00001363  0.50101169  0.61589674  1
  La3+  La49  1  -0.00029248  0.49775825  0.13466455  1
  La3+  La50  1  -0.00116950  0.16418952  0.11620622  1
  La3+  La51  1  -0.00051608  0.83638836  0.11522089  1
  La3+  La52  1  -0.00146187  0.16372409  0.86845425  1
  La3+  La53  1  -0.00153200  0.49710955  0.36626056  1
  La3+  La54  1  -0.00016176  0.83389830  0.38224952  1
  La3+  La55  1  0.00027701  0.49970693  0.86537925  1
  La3+  La56  1  0.00321128  0.17043320  0.13623517  1
  La3+  La57  1  0.50076265  0.16634298  0.86473527  1
  La3+  La58  1  0.49963252  0.16796669  0.36459171  1
  La3+  La59  1  -0.00119045  0.83067482  0.61189092  1
  La3+  La60  1  -0.00174766  0.50344997  0.11363184  1
  La3+  La61  1  0.49998479  0.49961678  0.86422913  1
  La3+  La62  1  0.49981906  0.83387915  0.86432780  1
  La3+  La63  1  0.50024183  0.49689007  0.38748162  1
  La3+  La64  1  0.49925740  0.50008043  0.13632568  1
  La3+  La65  1  0.49847952  0.16448750  0.12001229  1
  La3+  La66  1  -0.00011753  0.82897833  0.87078081  1
  La3+  La67  1  0.49843870  0.49873601  0.63098503  1
  La3+  La68  1  0.50027149  0.83289741  0.88682222  1
  La3+  La69  1  0.49716620  0.83052922  0.61802598  1
  La3+  La70  1  -0.00068369  0.50182696  0.38623986  1
  La3+  La71  1  0.50001058  0.49969479  0.88643941  1
  La3+  La72  1  0.24989329  0.87620003  0.48028291  1
  La3+  La73  1  0.25008345  0.78287030  0.76529733  1
  La3+  La74  1  0.25004074  0.49050400  0.00147868  1
  La3+  La75  1  0.75009163  0.50162589  0.22720068  1
  La3+  La76  1  0.74983201  0.49862559  0.47777172  1
  La3+  La77  1  0.24995251  0.20016791  -0.00221337  1
  La3+  La78  1  0.24998400  0.50045061  0.78157648  1
  La3+  La79  1  0.24997164  0.83997460  -0.02544499  1
  La3+  La80  1  0.25003178  0.19925490  0.22877007  1
  La3+  La81  1  0.24993135  0.49314510  0.22160169  1
  La3+  La82  1  0.75020573  0.86250076  0.50003339  1
  La3+  La83  1  0.74982186  0.16900991  0.70650689  1
  Ru4+  Ru84  1  0.00143961  -0.00316331  -0.00191397  1
  Ru4+  Ru85  1  -0.00112220  -0.00076065  0.24779204  1
  Ru4+  Ru86  1  0.00422961  -0.00386196  0.50257273  1
  Ru4+  Ru87  1  0.00210802  0.00702962  0.75074308  1
  Ru4+  Ru88  1  -0.00362600  0.33259992  -0.00248097  1
  Ru4+  Ru89  1  0.00024156  0.33424164  0.25054604  1
  Ru4+  Ru90  1  0.00143667  0.33699682  0.49969568  1
  Ru4+  Ru91  1  -0.00275332  0.33797400  0.75073202  1
  Ru4+  Ru92  1  -0.00044688  0.66608499  -0.00177101  1
  Ru4+  Ru93  1  -0.00366968  0.65841981  0.25294521  1
  Ru4+  Ru94  1  -0.00053083  0.66697864  0.50161242  1
  Ru4+  Ru95  1  0.00038988  0.66995164  0.74898619  1
  Ru4+  Ru96  1  0.50159234  -0.00009067  -0.00095324  1
  Ru4+  Ru97  1  0.49805578  -0.00002226  0.24778923  1
  Ru4+  Ru98  1  0.49639270  0.00481022  0.50103814  1
  Ru4+  Ru99  1  0.50001023  0.00149049  0.75196986  1
  Ru4+  Ru100  1  0.49876699  0.33633367  -0.00081181  1
  Ru4+  Ru101  1  0.49973693  0.33352123  0.25027232  1
  Ru4+  Ru102  1  0.50485798  0.32913766  0.50133418  1
  Ru4+  Ru103  1  0.50082166  0.33146940  0.74864028  1
  Ru4+  Ru104  1  0.49908227  0.66775382  -0.00112560  1
  Ru4+  Ru105  1  0.49874359  0.67039537  0.25191769  1
  Ru4+  Ru106  1  0.50205673  0.67083102  0.49877388  1
  Ru4+  Ru107  1  0.49846523  0.66671498  0.74982546  1
  Ru4+  Ru108  1  0.11391664  0.16341626  -0.00064822  1
  Ru4+  Ru109  1  0.11220793  0.16723005  0.25016592  1
  Ru4+  Ru110  1  0.11496260  0.16670532  0.50011798  1
  Ru4+  Ru111  1  0.11717792  0.16409487  0.75029869  1
  Ru4+  Ru112  1  0.11351616  0.50350016  -0.00054751  1
  Ru4+  Ru113  1  0.11224620  0.49823815  0.24978290  1
  Ru4+  Ru114  1  0.11344835  0.50202608  0.50005082  1
  Ru4+  Ru115  1  0.11231451  0.50017668  0.74945051  1
  Ru4+  Ru116  1  0.11087406  0.83347165  -0.00050788  1
  Ru4+  Ru117  1  0.11785510  0.83474735  0.25090423  1
  Ru4+  Ru118  1  0.11197746  0.83481955  0.50072124  1
  Ru4+  Ru119  1  0.11242510  0.83094844  0.75011240  1
  Ru4+  Ru120  1  0.61412295  0.16515516  -0.00049800  1
  Ru4+  Ru121  1  0.61291854  0.16745481  0.24992072  1
  Ru4+  Ru122  1  0.61479866  0.16916345  0.50024711  1
  Ru4+  Ru123  1  0.61074280  0.16717487  0.74998599  1
  Ru4+  Ru124  1  0.61326804  0.49911308  -0.00008148  1
  Ru4+  Ru125  1  0.61321245  0.49920466  0.24970824  1
  Ru4+  Ru126  1  0.61244377  0.49911414  0.49988957  1
  Ru4+  Ru127  1  0.61502374  0.50002942  0.75035660  1
  Ru4+  Ru128  1  0.61353155  0.83221367  -0.00014699  1
  Ru4+  Ru129  1  0.61435740  0.83172627  0.25077233  1
  Ru4+  Ru130  1  0.61612536  0.82955432  0.49912298  1
  Ru4+  Ru131  1  0.61345769  0.83177033  0.75011559  1
  Ru4+  Ru132  1  0.38842678  0.16810558  -0.00045665  1
  Ru4+  Ru133  1  0.38869424  0.16705225  0.25005927  1
  Ru4+  Ru134  1  0.38471318  0.16722184  0.50017175  1
  Ru4+  Ru135  1  0.38635123  0.16568878  0.74970128  1
  Ru4+  Ru136  1  0.38937765  0.50009893  0.00059806  1
  Ru4+  Ru137  1  0.38901341  0.49912644  0.24885076  1
  Ru4+  Ru138  1  0.38324571  0.49990641  0.50008149  1
  Ru4+  Ru139  1  0.38811219  0.50016587  0.75071218  1
  Ru4+  Ru140  1  0.38891345  0.83266704  0.00006313  1
  Ru4+  Ru141  1  0.38813409  0.83424182  0.25088983  1
  Ru4+  Ru142  1  0.38830788  0.83475236  0.50044695  1
  Ru4+  Ru143  1  0.38842331  0.83213665  0.75039408  1
  Ru4+  Ru144  1  0.88485343  0.16815888  -0.00080372  1
  Ru4+  Ru145  1  0.88431580  0.16960478  0.25045635  1
  Ru4+  Ru146  1  0.87983209  0.16632719  0.49910841  1
  Ru4+  Ru147  1  0.88956710  0.16700362  0.74982446  1
  Ru4+  Ru148  1  0.88659426  0.50089858  -0.00073520  1
  Ru4+  Ru149  1  0.88817981  0.50053466  0.25003303  1
  Ru4+  Ru150  1  0.88778962  0.50026882  0.50018244  1
  Ru4+  Ru151  1  0.88511999  0.49918926  0.75009842  1
  Ru4+  Ru152  1  0.88648736  0.83269279  -0.00059999  1
  Ru4+  Ru153  1  0.88435074  0.83586384  0.25076294  1
  Ru4+  Ru154  1  0.88763731  0.83164488  0.49989557  1
  Ru4+  Ru155  1  0.88320147  0.82754272  0.74885741  1
  Ru4+  Ru156  1  0.74990584  0.08281014  0.00188082  1
  Ru4+  Ru157  1  0.25036355  0.75546122  0.25841828  1
  Ru4+  Ru158  1  0.74975332  0.72463164  0.50494078  1
  Ru4+  Ru159  1  0.24986491  0.94941996  0.02427629  1
  Ru4+  Ru160  1  0.74992361  0.41983635  -0.00018911  1
  Ru4+  Ru161  1  0.25002713  0.72320172  0.50271988  1
  Ru4+  Ru162  1  0.74999905  0.58154534  0.00238104  1
  Ru4+  Ru163  1  0.74999428  0.24832928  0.25219999  1
  Ru4+  Ru164  1  0.25019907  0.37046466  0.25435230  1
  Ru4+  Ru165  1  0.25006673  0.61057650  0.26166499  1
  Ru4+  Ru166  1  0.74986580  0.28770512  0.76540360  1
  Ru4+  Ru167  1  0.24998035  0.93460672  0.74220683  1
  Ru4+  Ru168  1  0.25012428  0.60808980  -0.01849782  1
  Ru4+  Ru169  1  0.74971333  0.90778414  0.00082310  1
  Ru4+  Ru170  1  0.25004922  0.07339621  0.01032838  1
  Ru4+  Ru171  1  0.24979926  0.72586396  -0.00984507  1
  Ru4+  Ru172  1  0.74975032  0.08481531  0.25184505  1
  Ru4+  Ru173  1  0.24988549  0.58540801  0.49851019  1
  Ru4+  Ru174  1  0.74987070  0.04951669  0.75403718  1
  Ru4+  Ru175  1  0.25006791  0.36699234  -0.01075596  1
  Ru4+  Ru176  1  0.25030097  0.91499244  0.25216307  1
  Ru4+  Ru177  1  0.25007347  0.06427737  0.24389690  1
  Ru4+  Ru178  1  0.24991003  0.41445179  0.49502087  1
  Ru4+  Ru179  1  0.74984935  0.90784270  0.74867768  1
  O2-  O180  1  0.16666466  0.07958760  0.00001880  1
  O2-  O181  1  0.16690467  0.07901866  0.24919314  1
  O2-  O182  1  0.16622559  0.08194967  0.49994826  1
  O2-  O183  1  0.16632168  0.08163677  0.75091815  1
  O2-  O184  1  0.16611220  0.41221311  0.00029777  1
  O2-  O185  1  0.16703640  0.41239651  0.24977977  1
  O2-  O186  1  0.16794757  0.41344953  0.50036280  1
  O2-  O187  1  0.16699761  0.41413285  0.74924123  1
  O2-  O188  1  0.16549296  0.74566450  0.00042664  1
  O2-  O189  1  0.16761835  0.74768701  0.24913237  1
  O2-  O190  1  0.16720222  0.74622230  0.49952644  1
  O2-  O191  1  0.16464069  0.74698279  0.74979831  1
  O2-  O192  1  0.66836549  0.08119453  0.00069106  1
  O2-  O193  1  0.66847564  0.08077208  0.24902188  1
  O2-  O194  1  0.66694685  0.08182396  0.50167304  1
  O2-  O195  1  0.66658351  0.07974332  0.74970674  1
  O2-  O196  1  0.66866350  0.41426744  0.00057045  1
  O2-  O197  1  0.66747183  0.41373933  0.24911912  1
  O2-  O198  1  0.66767886  0.41503684  0.50026448  1
  O2-  O199  1  0.66702868  0.41439543  0.75032514  1
  O2-  O200  1  0.66628003  0.74810324  -0.00004125  1
  O2-  O201  1  0.66687206  0.74959724  0.25048552  1
  O2-  O202  1  0.66676860  0.74711380  0.50030588  1
  O2-  O203  1  0.66700980  0.74870163  0.75012212  1
  O2-  O204  1  0.33235796  0.25279301  -0.00004385  1
  O2-  O205  1  0.33352682  0.25487164  0.25011368  1
  O2-  O206  1  0.33410443  0.25168204  0.50007683  1
  O2-  O207  1  0.33394467  0.25149274  0.74956883  1
  O2-  O208  1  0.33391315  0.58796612  0.00036194  1
  O2-  O209  1  0.33447124  0.58797834  0.24977073  1
  O2-  O210  1  0.33237643  0.58527238  0.49933427  1
  O2-  O211  1  0.33305031  0.58593401  0.75012149  1
  O2-  O212  1  0.33437272  0.92081751  0.00017776  1
  O2-  O213  1  0.33214362  0.91887674  0.24939553  1
  O2-  O214  1  0.33332432  0.91972966  0.50034415  1
  O2-  O215  1  0.33302725  0.92003073  0.75040397  1
  O2-  O216  1  0.83287588  0.25250824  -0.00022926  1
  O2-  O217  1  0.83162870  0.25172468  0.24965081  1
  O2-  O218  1  0.83311152  0.25185445  0.50120219  1
  O2-  O219  1  0.83340154  0.25363790  0.75061313  1
  O2-  O220  1  0.83201136  0.58546123  0.00047839  1
  O2-  O221  1  0.83298442  0.58612971  0.25049848  1
  O2-  O222  1  0.83289281  0.58630197  0.49968278  1
  O2-  O223  1  0.83275400  0.58457941  0.74989621  1
  O2-  O224  1  0.83267162  0.91962894  -0.00007583  1
  O2-  O225  1  0.83299196  0.91786041  0.24927374  1
  O2-  O226  1  0.83297467  0.91876047  0.50126305  1
  O2-  O227  1  0.83200607  0.91874536  0.75039774  1
  O2-  O228  1  0.16727639  0.25377821  0.00007379  1
  O2-  O229  1  0.16639262  0.25489094  0.25010871  1
  O2-  O230  1  0.16619623  0.25223756  0.50040869  1
  O2-  O231  1  0.16791010  0.25172536  0.74860276  1
  O2-  O232  1  0.16514838  0.58779853  0.00030910  1
  O2-  O233  1  0.16569652  0.58836358  0.24967109  1
  O2-  O234  1  0.16791068  0.58573511  0.49971034  1
  O2-  O235  1  0.16752264  0.58548304  0.75082520  1
  O2-  O236  1  0.16588058  0.92119970  0.00001219  1
  O2-  O237  1  0.16742707  0.91935851  0.24960536  1
  O2-  O238  1  0.16636895  0.91993532  0.50078787  1
  O2-  O239  1  0.16765515  0.92028563  0.75061892  1
  O2-  O240  1  0.66798545  0.25256711  0.00107472  1
  O2-  O241  1  0.66807551  0.25232022  0.24903035  1
  O2-  O242  1  0.66650352  0.25049082  0.49987677  1
  O2-  O243  1  0.66714152  0.25330682  0.75039771  1
  O2-  O244  1  0.66759501  0.58564622  0.00054845  1
  O2-  O245  1  0.66776354  0.58537846  0.25097534  1
  O2-  O246  1  0.66710974  0.58599310  0.50030692  1
  O2-  O247  1  0.66626222  0.58498458  0.74996184  1
  O2-  O248  1  0.66828455  0.92017522  0.00055961  1
  O2-  O249  1  0.66780959  0.91828056  0.24853515  1
  O2-  O250  1  0.66814230  0.91953986  0.50173262  1
  O2-  O251  1  0.66714322  0.91959239  0.74959338  1
  O2-  O252  1  0.33367950  0.07950157  0.00019726  1
  O2-  O253  1  0.33295961  0.07910373  0.24920435  1
  O2-  O254  1  0.33238863  0.08203198  0.49974761  1
  O2-  O255  1  0.33231849  0.08175409  0.75158012  1
  O2-  O256  1  0.33447220  0.41247946  -0.00016119  1
  O2-  O257  1  0.33290797  0.41203941  0.25005205  1
  O2-  O258  1  0.33255849  0.41470450  0.50016827  1
  O2-  O259  1  0.33267836  0.41372240  0.74914079  1
  O2-  O260  1  0.33368989  0.74645560  0.00047376  1
  O2-  O261  1  0.33243714  0.74755656  0.24969344  1
  O2-  O262  1  0.33298645  0.74643178  0.49965661  1
  O2-  O263  1  0.33413934  0.74677886  0.74912997  1
  O2-  O264  1  0.83165302  0.08037579  0.00044366  1
  O2-  O265  1  0.83186910  0.08121049  0.24962425  1
  O2-  O266  1  0.83268075  0.08151529  0.50142600  1
  O2-  O267  1  0.83376749  0.07984562  0.75011356  1
  O2-  O268  1  0.83169486  0.41393794  0.00001442  1
  O2-  O269  1  0.83209695  0.41280418  0.24911093  1
  O2-  O270  1  0.83340265  0.41426436  0.50059802  1
  O2-  O271  1  0.83372150  0.41427924  0.75019151  1
  O2-  O272  1  0.83356235  0.74825624  0.00040220  1
  O2-  O273  1  0.83327792  0.74868108  0.25063877  1
  O2-  O274  1  0.83262834  0.74709406  0.49984076  1
  O2-  O275  1  0.83295883  0.74866122  0.75061808  1
  O2-  O276  1  0.96030335  0.22964155  0.50714031  1
  O2-  O277  1  0.95327167  0.90132350  0.26391019  1
  O2-  O278  1  0.04765236  0.23599598  0.01873448  1
  O2-  O279  1  0.95532096  0.10054385  0.27051107  1
  O2-  O280  1  0.54500150  0.56697032  0.01464780  1
  O2-  O281  1  0.53535345  0.88624487  0.25727257  1
  O2-  O282  1  0.96066380  0.10421121  0.50731788  1
  O2-  O283  1  0.54524617  0.43151491  0.26301421  1
  O2-  O284  1  0.04254379  0.89319751  0.77866965  1
  O2-  O285  1  0.95572754  0.09646887  0.73441566  1
  O2-  O286  1  0.04220126  0.22671313  0.72913763  1
  O2-  O287  1  0.45244562  0.56965459  0.48026770  1
  O2-  O288  1  0.95370513  0.76497961  0.23131746  1
  O2-  O289  1  0.45419828  0.09869548  0.01260970  1
  O2-  O290  1  0.95217361  0.23520128  0.98404070  1
  O2-  O291  1  0.04492055  0.43205679  0.49492181  1
  O2-  O292  1  0.45453222  0.90098251  0.01379647  1
  O2-  O293  1  0.53970241  0.11650160  0.49372379  1
  O2-  O294  1  0.04621066  0.43089266  0.01867682  1
  O2-  O295  1  0.04768253  0.90198460  0.26617439  1
  O2-  O296  1  0.95281873  0.76264974  0.51364625  1
  O2-  O297  1  0.96063024  0.10413439  0.50741153  1
  O2-  O298  1  0.96047187  0.22969402  0.50736696  1
  O2-  O299  1  0.95806640  0.89311977  0.76044298  1
  O2-  O300  1  0.54512938  0.43167374  0.73734231  1
  O2-  O301  1  0.04213343  0.22625508  0.74900791  1
  O2-  O302  1  0.54115875  0.89548735  0.50762477  1
  O2-  O303  1  0.04708830  0.23313342  0.97946055  1
  O2-  O304  1  0.95475123  0.76660043  0.01308951  1
  O2-  O305  1  0.45200968  0.42970004  0.51605375  1
  O2-  O306  1  0.04760415  0.76477798  0.48586035  1
  O2-  O307  1  0.53912461  0.56132187  0.27907878  1
  O2-  O308  1  0.95732497  0.77181304  0.48769899  1
  O2-  O309  1  0.05209677  0.75676765  0.21976617  1
  O2-  O310  1  0.54818149  0.56691399  0.51450509  1
  O2-  O311  1  0.46038570  0.11634585  0.50761224  1
  O2-  O312  1  0.95388979  0.09522966  0.23174268  1
  O2-  O313  1  0.95005526  0.23754613  0.76650351  1
  O2-  O314  1  0.54020328  0.22617022  0.02685426  1
  O2-  O315  1  0.04494462  0.43478453  0.97971557  1
  O2-  O316  1  0.45306209  0.56821294  0.51945309  1
  O2-  O317  1  0.54492242  0.09940364  0.26270799  1
  O2-  O318  1  0.95929774  0.89235218  0.73359695  1
  O2-  O319  1  0.04507840  0.43174218  0.50654223  1
  O2-  O320  1  0.54516852  0.56947485  0.73694661  1
  O2-  O321  1  0.53932334  0.89086615  0.50199962  1
  O2-  O322  1  0.04552270  0.56984113  0.26386393  1
  O2-  O323  1  0.95527564  0.76388947  0.27049379  1
  O2-  O324  1  0.43531871  0.73858313  0.77980749  1
  O2-  O325  1  0.57155699  0.26928260  0.95547388  1
  O2-  O326  1  0.56521782  0.40613796  0.46957036  1
  O2-  O327  1  0.93070228  0.93959605  0.70196888  1
  O2-  O328  1  0.06706232  0.73162634  0.30543174  1
  O2-  O329  1  0.43514324  0.73932443  0.96984384  1
  O2-  O330  1  0.93437113  0.59296432  0.70151600  1
  O2-  O331  1  0.05726772  0.74861675  0.20962415  1
  O2-  O332  1  0.56550358  0.07247038  0.77923273  1
  O2-  O333  1  0.93419472  0.59402608  0.79817697  1
  O2-  O334  1  0.42464216  0.05732834  0.53685714  1
  O2-  O335  1  0.43612425  0.73447035  0.28226012  1
  O2-  O336  1  0.56417023  0.73551264  0.28354228  1
  O2-  O337  1  0.93306201  0.73174826  0.46653584  1
  O2-  O338  1  0.43444373  0.59376557  0.03007026  1
  O2-  O339  1  0.57497665  0.94197442  0.28594370  1
  O2-  O340  1  0.43760458  0.40349301  0.53109234  1
  O2-  O341  1  0.57588961  0.93993594  0.45624515  1
  O2-  O342  1  0.93552408  0.26522232  0.21754345  1
  O2-  O343  1  0.93308332  0.07115020  0.04956302  1
  O2-  O344  1  0.07634068  0.27911363  0.79346425  1
  O2-  O345  1  0.93486411  0.59446554  0.97097938  1
  O2-  O346  1  0.56558319  0.26125108  0.72223861  1
  O2-  O347  1  0.56406928  0.73604028  0.78375263  1
  O2-  O348  1  0.43474585  0.07130385  0.72196616  1
  O2-  O349  1  0.06347302  0.93084087  0.53307438  1
  O2-  O350  1  0.56453990  0.26183552  0.52838573  1
  O2-  O351  1  0.43613623  0.26437410  0.96732640  1
  O2-  O352  1  0.56492305  0.92719179  0.97046130  1
  O2-  O353  1  0.92744243  0.28044782  0.45441038  1
  O2-  O354  1  0.06356171  0.59768284  0.71789286  1
  O2-  O355  1  0.93575379  0.93156140  0.55373685  1
  O2-  O356  1  0.43404557  0.92879897  0.27881712  1
  O2-  O357  1  0.93573453  0.40235861  0.03296459  1
  O2-  O358  1  0.92851533  0.93904185  0.79603035  1
  O2-  O359  1  0.43457656  0.40472151  0.22121032  1
  O2-  O360  1  0.06968297  0.94037861  0.70139454  1
  O2-  O361  1  0.06528481  0.40400739  0.22146966  1
  O2-  O362  1  0.56461865  0.40579708  0.97083837  1
  O2-  O363  1  0.93382202  0.92585998  0.45091710  1
  O2-  O364  1  0.93344840  0.07271462  0.95054526  1
  O2-  O365  1  0.57132586  0.60206972  0.20724345  1
  O2-  O366  1  0.06300365  0.92793933  0.27908446  1
  O2-  O367  1  0.43470506  0.92568793  0.53059381  1
  O2-  O368  1  0.57569611  0.05865019  0.46235403  1
  O2-  O369  1  0.56509819  0.07288626  0.97090938  1
  O2-  O370  1  0.92475159  0.05769650  0.45679701  1
  O2-  O371  1  0.93521938  0.73931372  0.72076862  1
  O2-  O372  1  0.25009284  0.67903739  0.17035778  1
  O2-  O373  1  0.24997458  0.00960535  0.82528841  1
  O2-  O374  1  0.74998858  0.66795809  0.91984994  1
  O2-  O375  1  0.74998080  -0.00380941  0.65015237  1
  O2-  O376  1  0.24984727  0.66608865  0.84563215  1
  O2-  O377  1  0.24999045  0.00080116  0.91266651  1
  O2-  O378  1  0.25004253  0.66545980  0.09206985  1
  O2-  O379  1  0.24995688  0.67383654  0.35363621  1
  O2-  O380  1  0.75020517  0.33304302  0.57759111  1
  O2-  O381  1  0.75011545  -0.00523527  0.85227644  1
  O2-  O382  1  0.74991755  0.66572555  0.83147318  1
  O2-  O383  1  0.24994647  0.00013823  0.42566605  1
  O2-  O384  1  0.25001608  -0.00489380  0.33484797  1
  O2-  O385  1  0.74995509  0.66284866  0.15385265  1
  O2-  O386  1  0.24991988  0.33540241  0.84717609  1
  O2-  O387  1  0.24991483  0.32834513  0.10118130  1
  O2-  O388  1  0.25005926  0.66777505  0.65205111  1
  O2-  O389  1  0.24995510  0.33474347  0.40674293  1
  O2-  O390  1  0.75023017  0.34092486  0.66542913  1
  O2-  O391  1  0.75016665  0.33344031  0.40344762  1
  O2-  O392  1  0.75011496  0.66597930  0.40544195  1
  O2-  O393  1  0.74983627  0.66772564  0.65222997  1
  O2-  O394  1  0.75004470  -0.00094362  0.40426864  1
  O2-  O395  1  0.24991198  0.00096508  0.65371749  1
  O2-  O396  1  0.25005214  0.84373664  0.86192429  1
  O2-  O397  1  0.74999802  0.16884810  0.93231152  1
  O2-  O398  1  0.74995984  0.83732138  0.91057635  1
  O2-  O399  1  0.24999680  0.82193721  0.58836834  1
  O2-  O400  1  0.74992531  0.83574385  0.66027114  1
  O2-  O401  1  0.25006369  0.82603056  0.36447035  1
  O2-  O402  1  0.24988319  0.16675739  0.59010135  1
  O2-  O403  1  0.74986862  0.16685165  0.33177479  1
  O2-  O404  1  0.74993996  0.50031803  0.35461167  1
  O2-  O405  1  0.24991480  0.50104769  0.36117003  1
  O2-  O406  1  0.75000611  0.16668761  0.41803078  1
  O2-  O407  1  0.24996091  0.16316096  0.35821729  1
  O2-  O408  1  0.75000933  0.49966074  0.83258192  1
  O2-  O409  1  0.75002940  0.16640923  0.59037180  1
  O2-  O410  1  0.25019812  0.83304025  0.09455504  1
  O2-  O411  1  0.75001321  0.16640231  0.84573453  1
  O2-  O412  1  0.24995257  0.49984908  0.65592021  1
  O2-  O413  1  0.24994713  0.49943378  0.56912672  1
  O2-  O414  1  0.75007224  0.49995396  0.67942860  1
  O2-  O415  1  0.24997423  0.84602479  0.66350071  1
  O2-  O416  1  0.75001974  0.83783367  0.08712245  1
  O2-  O417  1  0.74999687  0.49998889  0.59920626  1
  O2-  O418  1  0.24997248  0.83301345  0.17757071  1
  O2-  O419  1  0.75004037  0.49934960  0.91845157  1
  O2-  O420  1  0.47238909  0.00091634  0.12659210  1
  O2-  O421  1  0.97256916  0.00056505  0.36837192  1
  O2-  O422  1  0.52902007  0.67004919  0.12071776  1
  O2-  O423  1  0.52613307  0.00300330  0.37193023  1
  O2-  O424  1  0.46498914  0.66716817  0.62664277  1
  O2-  O425  1  0.47001941  0.66821750  0.12697876  1
  O2-  O426  1  0.46919422  0.00233020  0.37741214  1
  O2-  O427  1  0.53460729  0.66883470  0.62525572  1
  O2-  O428  1  0.97238381  0.66480622  0.12438531  1
  O2-  O429  1  0.52265493  -0.00368038  0.87190910  1
  O2-  O430  1  0.52543780  0.32900510  0.37270633  1
  O2-  O431  1  0.52440909  0.33418391  0.86863694  1
  O2-  O432  1  0.52412502  0.33784200  0.62405176  1
  O2-  O433  1  0.02544126  0.33632053  0.87696972  1
  O2-  O434  1  0.97442782  -0.00421065  0.12797950  1
  O2-  O435  1  0.47361295  0.33069660  0.12198500  1
  O2-  O436  1  0.47328927  -0.00396888  0.62832012  1
  O2-  O437  1  0.02633228  0.33087198  0.12313014  1
  O2-  O438  1  0.03085199  0.00293385  0.37825137  1
  O2-  O439  1  0.97608792  -0.00123981  0.87535594  1
  O2-  O440  1  0.47527516  0.66063017  0.87510395  1
  O2-  O441  1  0.53176120  0.00039176  0.62640192  1
  O2-  O442  1  0.97673548  0.67291274  0.87520942  1
  O2-  O443  1  0.97603161  0.66604881  0.61977872  1
