# generated using pymatgen
data_La7(Ru4O11)2
_symmetry_space_group_name_H-M   'P 1'
_cell_length_a   23.99022132
_cell_length_b   16.83008003
_cell_length_c   15.42701797
_cell_angle_alpha   89.99975370
_cell_angle_beta   89.99882397
_cell_angle_gamma   89.99950489
_symmetry_Int_Tables_number   1
_chemical_formula_structural   La7(Ru4O11)2
_chemical_formula_sum   'La84 Ru96 O264'
_cell_volume   6228.77180974
_cell_formula_units_Z   12
loop_
 _symmetry_equiv_pos_site_id
 _symmetry_equiv_pos_as_xyz
  1  'x, y, z'
loop_
 _atom_type_symbol
 _atom_type_oxidation_number
  La3+  3.0
  Ru4+  4.0
  O2-  -2.0
loop_
 _atom_site_type_symbol
 _atom_site_label
 _atom_site_symmetry_multiplicity
 _atom_site_fract_x
 _atom_site_fract_y
 _atom_site_fract_z
 _atom_site_occupancy
  La3+  La0  1  0.13991163  0.00089768  0.12535748  1
  La3+  La1  1  0.14159419  -0.00169776  0.38013938  1
  La3+  La2  1  0.14108472  -0.00077886  0.62038624  1
  La3+  La3  1  0.14061632  0.00090638  0.87616045  1
  La3+  La4  1  0.13886705  0.32922116  0.12637443  1
  La3+  La5  1  0.14120827  0.33163651  0.37530625  1
  La3+  La6  1  0.13904084  0.33259879  0.62576765  1
  La3+  La7  1  0.14013016  0.33171610  0.87623468  1
  La3+  La8  1  0.14419319  0.66977031  0.12550003  1
  La3+  La9  1  0.13299456  0.67315665  0.38444420  1
  La3+  La10  1  0.13194520  0.67102350  0.61674128  1
  La3+  La11  1  0.13697144  0.66893175  0.87823792  1
  La3+  La12  1  0.63996002  0.00081595  0.12802452  1
  La3+  La13  1  0.64139179  0.00284211  0.37195032  1
  La3+  La14  1  0.63802577  0.00361791  0.62471620  1
  La3+  La15  1  0.63964876  0.00237286  0.87328425  1
  La3+  La16  1  0.63946404  0.33550195  0.12244708  1
  La3+  La17  1  0.63796401  0.33215341  0.37552525  1
  La3+  La18  1  0.64023973  0.33516490  0.62416628  1
  La3+  La19  1  0.63920916  0.33402993  0.87277296  1
  La3+  La20  1  0.63579070  0.66766895  0.11836183  1
  La3+  La21  1  0.63699838  0.66639236  0.37358766  1
  La3+  La22  1  0.63678807  0.66476485  0.62689566  1
  La3+  La23  1  0.63771669  0.66568236  0.87801082  1
  La3+  La24  1  0.35999009  0.00191808  0.12343593  1
  La3+  La25  1  0.35795192  -0.00088142  0.37584711  1
  La3+  La26  1  0.35905862  -0.00044706  0.62107071  1
  La3+  La27  1  0.35963154  0.00233136  0.87759403  1
  La3+  La28  1  0.35549472  0.33320564  0.12099612  1
  La3+  La29  1  0.36495566  0.32964447  0.37426236  1
  La3+  La30  1  0.36585558  0.33053095  0.62378282  1
  La3+  La31  1  0.36254722  0.33073039  0.87517405  1
  La3+  La32  1  0.35611131  0.66797200  0.12654910  1
  La3+  La33  1  0.35852698  0.66839948  0.37314461  1
  La3+  La34  1  0.36223611  0.66906205  0.62405476  1
  La3+  La35  1  0.36477506  0.66764389  0.87700704  1
  La3+  La36  1  0.85983087  -0.00002568  0.12584515  1
  La3+  La37  1  0.86067613  0.00282064  0.37300167  1
  La3+  La38  1  0.86091719  0.00367426  0.62549566  1
  La3+  La39  1  0.86169094  0.00149159  0.87342296  1
  La3+  La40  1  0.86028740  0.33457511  0.12269897  1
  La3+  La41  1  0.86382979  0.33170481  0.37498673  1
  La3+  La42  1  0.86139632  0.33380923  0.62808762  1
  La3+  La43  1  0.85815483  0.33538936  0.87488234  1
  La3+  La44  1  0.86059978  0.66453040  0.12208259  1
  La3+  La45  1  0.86393341  0.66635540  0.37417700  1
  La3+  La46  1  0.86690897  0.66296603  0.62726305  1
  La3+  La47  1  0.86301571  0.66474198  0.87444801  1
  La3+  La48  1  -0.00005994  0.83538813  0.13679288  1
  La3+  La49  1  -0.00176984  0.83381777  0.61284924  1
  La3+  La50  1  0.00159307  0.16579909  0.86079655  1
  La3+  La51  1  -0.00246703  0.16253811  0.11559547  1
  La3+  La52  1  0.00159103  0.50442985  0.38564215  1
  La3+  La53  1  0.49949343  0.16616327  0.37709568  1
  La3+  La54  1  0.49924412  0.49805898  0.36380354  1
  La3+  La55  1  0.49601320  0.83486745  0.11902173  1
  La3+  La56  1  0.00066334  0.50056426  0.86994863  1
  La3+  La57  1  -0.00212929  0.50052020  0.12804804  1
  La3+  La58  1  0.50276576  0.82986261  0.86460726  1
  La3+  La59  1  0.50057667  0.16658237  0.12795227  1
  La3+  La60  1  0.49857099  0.50255732  0.61460713  1
  La3+  La61  1  0.00156542  0.50159680  0.61699638  1
  La3+  La62  1  0.00599042  0.83196217  0.63174600  1
  La3+  La63  1  0.00471326  0.16183372  0.37803727  1
  La3+  La64  1  0.50253539  0.83126999  0.13661299  1
  La3+  La65  1  0.49477370  0.83318975  0.88301087  1
  La3+  La66  1  0.00021232  0.83459122  0.86963036  1
  La3+  La67  1  0.49974792  0.83368059  0.36700926  1
  La3+  La68  1  0.50420207  0.16227184  0.39851390  1
  La3+  La69  1  0.00026010  0.50398216  0.36826975  1
  La3+  La70  1  -0.00314041  0.16923398  0.88122123  1
  La3+  La71  1  -0.00029663  0.83403608  0.38437582  1
  La3+  La72  1  0.25022572  0.53162062  0.50299348  1
  La3+  La73  1  0.75047841  0.45258232  0.24003015  1
  La3+  La74  1  0.74975797  0.90268955  0.75753720  1
  La3+  La75  1  0.25009171  0.16241428  0.47627361  1
  La3+  La76  1  0.74951731  0.44017723  0.46642603  1
  La3+  La77  1  0.75037525  0.20310106  0.00237740  1
  La3+  La78  1  0.24979048  0.53735585  0.27619061  1
  La3+  La79  1  0.24923085  0.20859427  0.73825171  1
  La3+  La80  1  0.24956337  0.53902325  0.02009553  1
  La3+  La81  1  0.24999782  0.47003579  0.74740300  1
  La3+  La82  1  0.75135970  0.84865996  0.46754976  1
  La3+  La83  1  0.74993916  0.50083307  0.77769793  1
  Ru4+  Ru84  1  -0.00153693  -0.00101605  -0.00124442  1
  Ru4+  Ru85  1  0.00075243  0.00148231  0.25142383  1
  Ru4+  Ru86  1  0.00049488  -0.00019893  0.50356078  1
  Ru4+  Ru87  1  0.00098717  0.00106381  0.74910358  1
  Ru4+  Ru88  1  -0.00070329  0.33294713  0.00157887  1
  Ru4+  Ru89  1  0.00053050  0.32555758  0.25129149  1
  Ru4+  Ru90  1  0.00256795  0.33671348  0.49595170  1
  Ru4+  Ru91  1  0.00047385  0.33286012  0.75297726  1
  Ru4+  Ru92  1  -0.00525011  0.66469225  0.00281397  1
  Ru4+  Ru93  1  -0.00156907  0.66797967  0.25258475  1
  Ru4+  Ru94  1  -0.00298400  0.67936474  0.50198552  1
  Ru4+  Ru95  1  0.00984960  0.66671963  0.74720589  1
  Ru4+  Ru96  1  0.49743227  0.00349949  0.00312208  1
  Ru4+  Ru97  1  0.49768731  -0.00129300  0.25096789  1
  Ru4+  Ru98  1  0.49805131  0.00091108  0.51062610  1
  Ru4+  Ru99  1  0.49812203  -0.00168698  0.74359334  1
  Ru4+  Ru100  1  0.50041025  0.32950917  -0.00156519  1
  Ru4+  Ru101  1  0.49920767  0.33361103  0.24432742  1
  Ru4+  Ru102  1  0.49971086  0.33938759  0.50257206  1
  Ru4+  Ru103  1  0.49375540  0.33050913  0.75722730  1
  Ru4+  Ru104  1  0.50042147  0.65625186  0.00091499  1
  Ru4+  Ru105  1  0.50112376  0.66591945  0.24920456  1
  Ru4+  Ru106  1  0.49994996  0.66869707  0.50084958  1
  Ru4+  Ru107  1  0.50206838  0.65820365  0.75465124  1
  Ru4+  Ru108  1  0.11515838  0.16725929  -0.00009543  1
  Ru4+  Ru109  1  0.11312420  0.16932869  0.24919893  1
  Ru4+  Ru110  1  0.11315031  0.16315844  0.50084960  1
  Ru4+  Ru111  1  0.11000308  0.16594180  0.74913680  1
  Ru4+  Ru112  1  0.11116872  0.50068589  0.00167236  1
  Ru4+  Ru113  1  0.11229905  0.50088703  0.25031388  1
  Ru4+  Ru114  1  0.11428438  0.49455058  0.49994489  1
  Ru4+  Ru115  1  0.11164523  0.50082595  0.74970804  1
  Ru4+  Ru116  1  0.11571315  0.83605161  -0.00116670  1
  Ru4+  Ru117  1  0.11384074  0.83259542  0.25225088  1
  Ru4+  Ru118  1  0.11165065  0.83483933  0.49701296  1
  Ru4+  Ru119  1  0.11090653  0.83289422  0.74758372  1
  Ru4+  Ru120  1  0.60948328  0.17028690  -0.00085075  1
  Ru4+  Ru121  1  0.61511530  0.16790378  0.24911305  1
  Ru4+  Ru122  1  0.61544219  0.16568078  0.50102233  1
  Ru4+  Ru123  1  0.61397995  0.16837441  0.74995838  1
  Ru4+  Ru124  1  0.61264746  0.50149769  -0.00020175  1
  Ru4+  Ru125  1  0.61036079  0.49867558  0.25051577  1
  Ru4+  Ru126  1  0.61131021  0.50161672  0.49963560  1
  Ru4+  Ru127  1  0.61326780  0.50448414  0.74985101  1
  Ru4+  Ru128  1  0.61502359  0.83261131  0.00083633  1
  Ru4+  Ru129  1  0.61128283  0.83239390  0.24941024  1
  Ru4+  Ru130  1  0.61076407  0.82939213  0.49887593  1
  Ru4+  Ru131  1  0.61243214  0.83216650  0.75042164  1
  Ru4+  Ru132  1  0.38592632  0.16574862  0.00028187  1
  Ru4+  Ru133  1  0.38456756  0.16847448  0.24772413  1
  Ru4+  Ru134  1  0.38403138  0.16200581  0.50266967  1
  Ru4+  Ru135  1  0.38907892  0.17081977  0.75092247  1
  Ru4+  Ru136  1  0.38968131  0.50399952  -0.00088860  1
  Ru4+  Ru137  1  0.38929246  0.50115279  0.25119472  1
  Ru4+  Ru138  1  0.39068013  0.50034913  0.49984981  1
  Ru4+  Ru139  1  0.39040519  0.49979810  0.75029665  1
  Ru4+  Ru140  1  0.38720322  0.83101807  0.00176365  1
  Ru4+  Ru141  1  0.38530024  0.83094212  0.24925369  1
  Ru4+  Ru142  1  0.38670048  0.83404785  0.50006724  1
  Ru4+  Ru143  1  0.38505372  0.83824637  0.74787943  1
  Ru4+  Ru144  1  0.89190984  0.16706428  -0.00035359  1
  Ru4+  Ru145  1  0.88618515  0.16343913  0.24927975  1
  Ru4+  Ru146  1  0.88453047  0.16322812  0.50153532  1
  Ru4+  Ru147  1  0.88656872  0.16594147  0.74962399  1
  Ru4+  Ru148  1  0.88516263  0.50114414  0.00106735  1
  Ru4+  Ru149  1  0.88993792  0.49963860  0.24937069  1
  Ru4+  Ru150  1  0.88572448  0.49735605  0.49943480  1
  Ru4+  Ru151  1  0.88568855  0.49479327  0.75031128  1
  Ru4+  Ru152  1  0.88831637  0.83247086  -0.00059646  1
  Ru4+  Ru153  1  0.88810269  0.83349483  0.25116491  1
  Ru4+  Ru154  1  0.89185936  0.83297013  0.49884265  1
  Ru4+  Ru155  1  0.88557895  0.83828082  0.75159490  1
  Ru4+  Ru156  1  0.75025890  0.24865680  0.75079791  1
  Ru4+  Ru157  1  0.25040629  0.39216939  0.24920134  1
  Ru4+  Ru158  1  0.75087202  0.74203863  0.00945361  1
  Ru4+  Ru159  1  0.25001878  0.06466524  0.73431785  1
  Ru4+  Ru160  1  0.24920598  0.75374473  0.74746155  1
  Ru4+  Ru161  1  0.74973393  0.91351305  0.25128175  1
  Ru4+  Ru162  1  0.74988290  0.24368468  0.24382808  1
  Ru4+  Ru163  1  0.24973571  0.09215178  0.25098901  1
  Ru4+  Ru164  1  0.25010492  0.39105781  0.00138577  1
  Ru4+  Ru165  1  0.75029488  0.06406056  -0.00055206  1
  Ru4+  Ru166  1  0.24998856  0.61168367  0.75150289  1
  Ru4+  Ru167  1  0.24937001  0.91110516  0.74293621  1
  Ru4+  Ru168  1  0.75032977  0.97873428  0.49181877  1
  Ru4+  Ru169  1  0.25010981  0.90493123  0.25590607  1
  Ru4+  Ru170  1  0.75008990  0.75474150  0.24456773  1
  Ru4+  Ru171  1  0.75034511  0.58798882  0.48688700  1
  Ru4+  Ru172  1  0.75040122  0.71816083  0.48171402  1
  Ru4+  Ru173  1  0.25034970  0.39028360  0.49985965  1
  Ru4+  Ru174  1  0.75004487  0.24061421  0.49590451  1
  Ru4+  Ru175  1  0.25051136  0.75319044  0.49797633  1
  Ru4+  Ru176  1  0.74994930  0.60166922  0.23634796  1
  Ru4+  Ru177  1  0.75033888  0.92036041  0.00942024  1
  Ru4+  Ru178  1  0.25026967  0.91220496  0.00140883  1
  Ru4+  Ru179  1  0.75037884  0.73512872  0.76271100  1
  O2-  O180  1  0.16508394  0.08085483  -0.00050168  1
  O2-  O181  1  0.16573567  0.08251430  0.25013737  1
  O2-  O182  1  0.16649064  0.08307311  0.50008601  1
  O2-  O183  1  0.16808070  0.07829385  0.74988033  1
  O2-  O184  1  0.16726170  0.41372618  0.00027432  1
  O2-  O185  1  0.16712963  0.41360673  0.25104553  1
  O2-  O186  1  0.16827995  0.41348363  0.50220242  1
  O2-  O187  1  0.16561019  0.41104758  0.75050549  1
  O2-  O188  1  0.16767940  0.74819845  -0.00112370  1
  O2-  O189  1  0.16352783  0.74973088  0.25153265  1
  O2-  O190  1  0.16801020  0.74902490  0.50024977  1
  O2-  O191  1  0.16850265  0.74660643  0.74874338  1
  O2-  O192  1  0.66499012  0.07985530  0.00156005  1
  O2-  O193  1  0.66501826  0.08177713  0.24776436  1
  O2-  O194  1  0.66538300  0.08097970  0.50047860  1
  O2-  O195  1  0.66755428  0.08167620  0.74972017  1
  O2-  O196  1  0.66647776  0.41695153  0.00025446  1
  O2-  O197  1  0.66386169  0.41077057  0.25212726  1
  O2-  O198  1  0.66328333  0.41159384  0.50078078  1
  O2-  O199  1  0.66716007  0.41362069  0.74796828  1
  O2-  O200  1  0.66917153  0.74777399  0.00025102  1
  O2-  O201  1  0.66659560  0.74712080  0.24919072  1
  O2-  O202  1  0.66522053  0.74519986  0.49942797  1
  O2-  O203  1  0.66643540  0.74760770  0.74979374  1
  O2-  O204  1  0.33527297  0.25114745  -0.00107205  1
  O2-  O205  1  0.33228972  0.25033842  0.25338212  1
  O2-  O206  1  0.33275149  0.25237376  0.50050887  1
  O2-  O207  1  0.33496215  0.25685707  0.74841626  1
  O2-  O208  1  0.33466073  0.58886344  -0.00167987  1
  O2-  O209  1  0.33774460  0.58627352  0.25074325  1
  O2-  O210  1  0.33510581  0.58816359  0.49982085  1
  O2-  O211  1  0.33247147  0.58740489  0.74998941  1
  O2-  O212  1  0.33266927  0.91899243  -0.00038234  1
  O2-  O213  1  0.33199981  0.91887073  0.24895366  1
  O2-  O214  1  0.33593560  0.91531263  0.50069088  1
  O2-  O215  1  0.33256887  0.91833918  0.74954338  1
  O2-  O216  1  0.83408634  0.25653846  0.00015765  1
  O2-  O217  1  0.83404164  0.25199171  0.25168397  1
  O2-  O218  1  0.83146282  0.25435577  0.49928109  1
  O2-  O219  1  0.83263393  0.25163990  0.75004515  1
  O2-  O220  1  0.83375028  0.58443305  -0.00166025  1
  O2-  O221  1  0.83190038  0.58831825  0.24996920  1
  O2-  O222  1  0.83425700  0.58645870  0.49981853  1
  O2-  O223  1  0.83452398  0.58579194  0.74906284  1
  O2-  O224  1  0.83457385  0.91886778  -0.00045133  1
  O2-  O225  1  0.83343584  0.91834770  0.24892074  1
  O2-  O226  1  0.83463909  0.92294774  0.49919978  1
  O2-  O227  1  0.83816998  0.92522131  0.74953981  1
  O2-  O228  1  0.16498870  0.25277040  0.00048418  1
  O2-  O229  1  0.16691186  0.25155740  0.25015473  1
  O2-  O230  1  0.16900449  0.25282212  0.50024788  1
  O2-  O231  1  0.16226414  0.25659708  0.75050753  1
  O2-  O232  1  0.16490413  0.58911216  -0.00205024  1
  O2-  O233  1  0.16293959  0.58630381  0.25147129  1
  O2-  O234  1  0.16573975  0.58809363  0.49987175  1
  O2-  O235  1  0.16906530  0.58673656  0.74998698  1
  O2-  O236  1  0.16712496  0.91756232  -0.00047929  1
  O2-  O237  1  0.16778928  0.91880401  0.24922217  1
  O2-  O238  1  0.16544081  0.91614744  0.50045327  1
  O2-  O239  1  0.16733214  0.91948653  0.74970856  1
  O2-  O240  1  0.66785587  0.25488174  -0.00024374  1
  O2-  O241  1  0.66918528  0.25263517  0.25154362  1
  O2-  O242  1  0.66819022  0.25331040  0.50143959  1
  O2-  O243  1  0.66839325  0.24970800  0.75002868  1
  O2-  O244  1  0.66414711  0.58453213  0.00012377  1
  O2-  O245  1  0.66521744  0.58730380  0.24969815  1
  O2-  O246  1  0.66703638  0.58674588  0.49841951  1
  O2-  O247  1  0.66466575  0.58419960  0.74927671  1
  O2-  O248  1  0.66619788  0.92001055  0.00059007  1
  O2-  O249  1  0.66970116  0.91963633  0.24803610  1
  O2-  O250  1  0.66841077  0.92065194  0.50185780  1
  O2-  O251  1  0.66292555  0.92325474  0.74640962  1
  O2-  O252  1  0.33378197  0.08216892  -0.00122292  1
  O2-  O253  1  0.33300493  0.08152423  0.24895005  1
  O2-  O254  1  0.33218185  0.08210346  0.50215363  1
  O2-  O255  1  0.33483846  0.07948852  0.74888521  1
  O2-  O256  1  0.33384732  0.41505875  -0.00050747  1
  O2-  O257  1  0.33310075  0.41303235  0.25249764  1
  O2-  O258  1  0.33229817  0.41217539  0.50038280  1
  O2-  O259  1  0.33525920  0.41226261  0.74835363  1
  O2-  O260  1  0.33363532  0.74710298  -0.00128133  1
  O2-  O261  1  0.33444383  0.74940848  0.25058935  1
  O2-  O262  1  0.33084087  0.74828402  0.49947396  1
  O2-  O263  1  0.33197258  0.74813136  0.74962147  1
  O2-  O264  1  0.83384298  0.07876935  -0.00074283  1
  O2-  O265  1  0.83296070  0.08274952  0.25117716  1
  O2-  O266  1  0.83494560  0.08174725  0.49898888  1
  O2-  O267  1  0.83374020  0.08032671  0.75134305  1
  O2-  O268  1  0.83494288  0.41402948  0.00016719  1
  O2-  O269  1  0.83940468  0.40996610  0.25293950  1
  O2-  O270  1  0.83636288  0.40995736  0.50071146  1
  O2-  O271  1  0.83319414  0.41377674  0.74870665  1
  O2-  O272  1  0.83171677  0.74712927  -0.00042124  1
  O2-  O273  1  0.83125362  0.74741675  0.24961509  1
  O2-  O274  1  0.83461185  0.74376625  0.49978490  1
  O2-  O275  1  0.83399777  0.74586386  0.74963486  1
  O2-  O276  1  0.95352117  0.22483572  0.47514672  1
  O2-  O277  1  0.53800702  0.89425894  0.51626386  1
  O2-  O278  1  0.95412597  0.10098745  0.73780196  1
  O2-  O279  1  0.04827952  0.76579141  0.98132850  1
  O2-  O280  1  0.44813358  0.76365318  0.76833969  1
  O2-  O281  1  0.95124050  0.57184646  0.51266252  1
  O2-  O282  1  0.04740542  0.56828563  0.48385794  1
  O2-  O283  1  0.55353300  0.75278755  0.99464475  1
  O2-  O284  1  0.46507844  0.21759670  0.24894635  1
  O2-  O285  1  0.44935678  0.90608783  0.74100320  1
  O2-  O286  1  0.54742025  0.43112140  0.72972336  1
  O2-  O287  1  0.45377315  0.56502889  0.75948389  1
  O2-  O288  1  0.04487298  0.23025663  0.47687730  1
  O2-  O289  1  0.05138700  0.75974129  0.48489322  1
  O2-  O290  1  0.95336217  0.76211758  0.72901061  1
  O2-  O291  1  0.54376630  0.43339150  0.48701279  1
  O2-  O292  1  0.45459195  0.23700274  0.01581994  1
  O2-  O293  1  0.53617636  0.89343452  0.49991735  1
  O2-  O294  1  0.95525387  0.57355520  0.72833421  1
  O2-  O295  1  0.53343455  0.44334718  0.99192607  1
  O2-  O296  1  0.04539729  0.09805207  0.98695584  1
  O2-  O297  1  0.95124876  0.43131516  0.73695540  1
  O2-  O298  1  0.45154445  0.24220402  0.48950979  1
  O2-  O299  1  0.54152512  0.76818777  0.00733100  1
  O2-  O300  1  0.54454765  0.42753119  0.76840323  1
  O2-  O301  1  0.54829855  0.09663619  0.25646381  1
  O2-  O302  1  0.96090564  0.11383374  0.28039792  1
  O2-  O303  1  0.95279820  0.76608531  0.76800504  1
  O2-  O304  1  0.54336422  0.88547595  0.71327399  1
  O2-  O305  1  0.94982813  0.56833342  0.76627927  1
  O2-  O306  1  0.53685140  0.22575145  0.78326594  1
  O2-  O307  1  0.04460689  0.76496676  0.26462267  1
  O2-  O308  1  0.54156497  0.10080474  0.72358977  1
  O2-  O309  1  0.95394414  0.43391336  0.00883876  1
  O2-  O310  1  0.04486736  0.42913679  0.23853802  1
  O2-  O311  1  0.54757110  0.91021316  0.98509770  1
  O2-  O312  1  0.54692776  0.57196865  0.01325294  1
  O2-  O313  1  0.04888892  0.43218406  0.76241882  1
  O2-  O314  1  0.46117440  0.22552207  0.26402391  1
  O2-  O315  1  0.45693132  0.76435863  0.73160729  1
  O2-  O316  1  0.53487178  0.21909819  0.74592894  1
  O2-  O317  1  0.54720683  0.75563559  0.47893451  1
  O2-  O318  1  0.95501349  0.43085479  0.48748087  1
  O2-  O319  1  0.04571520  0.57339781  0.23883829  1
  O2-  O320  1  0.04423446  0.77109899  0.50774425  1
  O2-  O321  1  0.05502260  0.25049504  0.20049096  1
  O2-  O322  1  0.46485552  0.11357992  0.53826335  1
  O2-  O323  1  0.04453651  0.76296350  0.02022556  1
  O2-  O324  1  0.92980931  0.05214797  0.19077384  1
  O2-  O325  1  0.56559743  0.06545109  0.79472342  1
  O2-  O326  1  0.56838820  0.25484852  0.19350232  1
  O2-  O327  1  0.58118866  0.94408957  0.46101388  1
  O2-  O328  1  0.57218701  0.39147651  0.96039559  1
  O2-  O329  1  0.56490327  0.41243022  0.19437107  1
  O2-  O330  1  0.43649460  0.73713195  0.21707400  1
  O2-  O331  1  0.92590532  0.26761990  0.54138287  1
  O2-  O332  1  0.56512524  0.73335144  0.77922536  1
  O2-  O333  1  0.42097094  0.30356648  0.19223293  1
  O2-  O334  1  0.06367883  0.07194220  0.46549178  1
  O2-  O335  1  0.06879844  0.27790522  0.33335438  1
  O2-  O336  1  0.06459032  0.40376857  0.03339059  1
  O2-  O337  1  0.06992561  0.73279267  0.53100890  1
  O2-  O338  1  0.07257965  0.26852727  0.54151425  1
  O2-  O339  1  0.56533015  0.26553415  0.46780374  1
  O2-  O340  1  0.56327874  0.40741226  0.31306268  1
  O2-  O341  1  0.43361187  0.73843942  0.52376851  1
  O2-  O342  1  0.06340874  0.07285990  0.21422304  1
  O2-  O343  1  0.57052304  0.93646050  0.80472858  1
  O2-  O344  1  0.43525312  0.92131434  0.27580150  1
  O2-  O345  1  0.06647155  0.59215502  0.72276828  1
  O2-  O346  1  0.56454098  0.92580614  0.27519634  1
  O2-  O347  1  0.43604803  0.07200598  0.02580604  1
  O2-  O348  1  0.56441569  0.59335954  0.52581884  1
  O2-  O349  1  0.43308496  0.07264366  0.27663636  1
  O2-  O350  1  0.42251639  0.06300353  0.45390838  1
  O2-  O351  1  0.43375428  0.25749039  0.46703732  1
  O2-  O352  1  0.93610376  0.26417320  0.78445282  1
  O2-  O353  1  0.04725892  0.23532915  0.20097217  1
  O2-  O354  1  0.56693103  0.26070953  0.31173061  1
  O2-  O355  1  0.06138805  0.59073443  0.46223992  1
  O2-  O356  1  0.06331535  0.92766310  0.46440066  1
  O2-  O357  1  0.93656523  0.73912859  0.28444743  1
  O2-  O358  1  0.93569843  0.74189180  0.97377668  1
  O2-  O359  1  0.06121161  0.92731982  0.21709074  1
  O2-  O360  1  0.06614432  0.07493420  0.72721793  1
  O2-  O361  1  0.43387395  0.26203436  0.77476392  1
  O2-  O362  1  0.56324923  0.74554731  0.05702082  1
  O2-  O363  1  0.93662891  0.59497739  0.21753812  1
  O2-  O364  1  0.06661022  0.58714013  0.94332235  1
  O2-  O365  1  0.56510791  0.73463938  0.93031904  1
  O2-  O366  1  0.93938769  0.59935987  0.52953904  1
  O2-  O367  1  0.93747104  0.59444830  0.03320900  1
  O2-  O368  1  0.06190174  0.59729308  0.06522100  1
  O2-  O369  1  0.56450202  0.25668296  0.96867045  1
  O2-  O370  1  0.58051245  0.29615338  0.69294795  1
  O2-  O371  1  0.43411728  0.59468035  0.97541324  1
  O2-  O372  1  0.24980884  0.33263067  0.90105778  1
  O2-  O373  1  0.74981316  0.67180797  0.34727348  1
  O2-  O374  1  0.25047607  -0.00104207  0.61203500  1
  O2-  O375  1  0.74965435  0.65055281  0.68241145  1
  O2-  O376  1  0.24990832  0.00218426  0.93681650  1
  O2-  O377  1  0.75008959  0.32806169  0.84271321  1
  O2-  O378  1  0.75003001  0.66264731  0.85281197  1
  O2-  O379  1  0.24964352  0.66286043  0.42294415  1
  O2-  O380  1  0.24958891  0.33174273  0.15023971  1
  O2-  O381  1  0.75009003  -0.00514309  0.89491932  1
  O2-  O382  1  0.75032990  0.33030370  0.15696689  1
  O2-  O383  1  0.25017480  -0.00797660  0.82530788  1
  O2-  O384  1  0.25012601  0.00053842  0.32826453  1
  O2-  O385  1  0.25016093  0.66810429  0.59542076  1
  O2-  O386  1  0.25018016  0.66728589  0.33252306  1
  O2-  O387  1  0.24986759  0.00089299  0.07309150  1
  O2-  O388  1  0.74981149  0.66683953  0.09936805  1
  O2-  O389  1  0.74976847  0.00274366  0.60828015  1
  O2-  O390  1  0.25016662  0.00246784  0.41887649  1
  O2-  O391  1  0.24980926  0.66140810  0.15115247  1
  O2-  O392  1  0.24987808  -0.00217695  0.17327366  1
  O2-  O393  1  0.74967028  -0.00213534  0.10703114  1
  O2-  O394  1  0.75006571  -0.00516634  0.34601269  1
  O2-  O395  1  0.74995126  0.66472264  0.58924816  1
  O2-  O396  1  0.74930279  0.84254703  0.59593651  1
  O2-  O397  1  0.75001919  0.16651125  0.58211584  1
  O2-  O398  1  0.75005341  0.83316546  0.09446194  1
  O2-  O399  1  0.25003965  0.16993322  0.16641677  1
  O2-  O400  1  0.75021016  0.49985802  0.89564280  1
  O2-  O401  1  0.74979444  0.52201739  0.36109078  1
  O2-  O402  1  0.74999939  0.49397349  0.65476948  1
  O2-  O403  1  0.74966304  0.83324401  0.93964206  1
  O2-  O404  1  0.74997804  0.16790443  0.67126676  1
  O2-  O405  1  0.75009563  0.51655621  0.12870782  1
  O2-  O406  1  0.25000283  0.83605623  0.33927019  1
  O2-  O407  1  0.75009743  0.51259125  0.57502833  1
  O2-  O408  1  0.25017043  0.83300416  0.84230034  1
  O2-  O409  1  0.74969753  0.82944423  0.33805731  1
  O2-  O410  1  0.25002906  0.48735885  0.14678621  1
  O2-  O411  1  0.75014440  0.16954391  0.16030912  1
  O2-  O412  1  0.24994035  0.16303034  0.61052924  1
  O2-  O413  1  0.24994918  0.16629108  0.33556380  1
  O2-  O414  1  0.24996575  0.15645852  0.85885757  1
  O2-  O415  1  0.74996221  0.17389858  0.40828007  1
  O2-  O416  1  0.74973410  0.81371709  0.85296074  1
  O2-  O417  1  0.74981194  0.80285498  0.66916543  1
  O2-  O418  1  0.24995915  0.16435996  0.08345136  1
  O2-  O419  1  0.24998513  0.49631484  0.88396622  1
  O2-  O420  1  0.47248946  0.33972011  0.88002749  1
  O2-  O421  1  0.53813636  0.00660803  0.62041562  1
  O2-  O422  1  0.97040475  0.33244038  0.12650017  1
  O2-  O423  1  0.02770459  0.33069027  0.87668641  1
  O2-  O424  1  0.47088092  0.65862065  0.62840071  1
  O2-  O425  1  0.47349046  0.34285370  0.37027365  1
  O2-  O426  1  0.47393577  0.67090533  0.87314748  1
  O2-  O427  1  0.02994890  0.34147226  0.63205532  1
  O2-  O428  1  0.52970729  0.66923425  0.63490770  1
  O2-  O429  1  0.96524371  0.66131944  0.87200098  1
  O2-  O430  1  0.47226696  0.33778875  0.62477560  1
  O2-  O431  1  0.97080272  0.33858535  0.63065063  1
  O2-  O432  1  0.47530160  -0.00641887  0.13088058  1
  O2-  O433  1  0.97113663  -0.00416799  0.37717475  1
  O2-  O434  1  0.52403027  0.66076915  0.13460663  1
  O2-  O435  1  0.04018178  -0.00763714  0.61822012  1
  O2-  O436  1  0.95611152  -0.00254261  0.62073462  1
  O2-  O437  1  0.97151549  0.33639046  0.37216138  1
  O2-  O438  1  0.03453917  0.67504602  0.86315791  1
  O2-  O439  1  0.47270965  -0.01115892  0.37977361  1
  O2-  O440  1  0.52129165  0.33103816  0.11326417  1
  O2-  O441  1  0.02323103  0.66507338  0.62798330  1
  O2-  O442  1  0.46100920  -0.00287517  0.62517347  1
  O2-  O443  1  0.53008382  0.01155160  0.37447237  1
