# generated using pymatgen
data_La7(Ru4O11)2
_symmetry_space_group_name_H-M   'P 1'
_cell_length_a   23.98888249
_cell_length_b   16.82853789
_cell_length_c   15.42522552
_cell_angle_alpha   90.00015458
_cell_angle_beta   89.99990757
_cell_angle_gamma   90.00004101
_symmetry_Int_Tables_number   1
_chemical_formula_structural   La7(Ru4O11)2
_chemical_formula_sum   'La84 Ru96 O264'
_cell_volume   6227.12988268
_cell_formula_units_Z   12
loop_
 _symmetry_equiv_pos_site_id
 _symmetry_equiv_pos_as_xyz
  1  'x, y, z'
loop_
 _atom_type_symbol
 _atom_type_oxidation_number
  La3+  3.0
  Ru4+  4.0
  O2-  -2.0
loop_
 _atom_site_type_symbol
 _atom_site_label
 _atom_site_symmetry_multiplicity
 _atom_site_fract_x
 _atom_site_fract_y
 _atom_site_fract_z
 _atom_site_occupancy
  La3+  La0  1  0.13843494  -0.00018620  0.12545337  1
  La3+  La1  1  0.13807739  -0.00073325  0.37495976  1
  La3+  La2  1  0.13779919  -0.00119015  0.62439910  1
  La3+  La3  1  0.13775741  -0.00003255  0.87499794  1
  La3+  La4  1  0.14045009  0.33395178  0.12507523  1
  La3+  La5  1  0.13981693  0.33383637  0.37431681  1
  La3+  La6  1  0.13770462  0.33469786  0.62495450  1
  La3+  La7  1  0.13748095  0.33442353  0.87490440  1
  La3+  La8  1  0.13851242  0.66631374  0.12589214  1
  La3+  La9  1  0.13842718  0.66575429  0.37571837  1
  La3+  La10  1  0.13816021  0.66583215  0.62348259  1
  La3+  La11  1  0.13780000  0.66644935  0.87455282  1
  La3+  La12  1  0.63838617  0.00000198  0.12676108  1
  La3+  La13  1  0.63972736  -0.00008456  0.37375291  1
  La3+  La14  1  0.63782807  -0.00028715  0.62452260  1
  La3+  La15  1  0.63738137  -0.00037133  0.87520429  1
  La3+  La16  1  0.63879997  0.33399758  0.12593256  1
  La3+  La17  1  0.63805383  0.33288018  0.37401925  1
  La3+  La18  1  0.63870954  0.33334100  0.62591728  1
  La3+  La19  1  0.63902161  0.33421689  0.87410230  1
  La3+  La20  1  0.63835884  0.66608510  0.12654870  1
  La3+  La21  1  0.63924435  0.66719573  0.37318942  1
  La3+  La22  1  0.63835930  0.66642933  0.62601687  1
  La3+  La23  1  0.63913032  0.66604861  0.87356321  1
  La3+  La24  1  0.36159118  -0.00016332  0.12529906  1
  La3+  La25  1  0.36234275  -0.00030756  0.37517107  1
  La3+  La26  1  0.36244913  -0.00118002  0.62459502  1
  La3+  La27  1  0.36207074  -0.00104846  0.87478746  1
  La3+  La28  1  0.36044873  0.33360332  0.12560446  1
  La3+  La29  1  0.36061433  0.33422161  0.37382154  1
  La3+  La30  1  0.36191385  0.33454780  0.62458221  1
  La3+  La31  1  0.36174391  0.33393194  0.87535583  1
  La3+  La32  1  0.36141589  0.66608156  0.12611725  1
  La3+  La33  1  0.36225376  0.66595896  0.37619397  1
  La3+  La34  1  0.36160898  0.66639264  0.62292485  1
  La3+  La35  1  0.36217873  0.66685011  0.87470276  1
  La3+  La36  1  0.86200000  0.00037989  0.12657526  1
  La3+  La37  1  0.86078966  -0.00007637  0.37373685  1
  La3+  La38  1  0.86240337  -0.00091570  0.62488784  1
  La3+  La39  1  0.86250488  -0.00046019  0.87435021  1
  La3+  La40  1  0.86135917  0.33381050  0.12563428  1
  La3+  La41  1  0.86301499  0.33121683  0.37574853  1
  La3+  La42  1  0.86287125  0.33224291  0.62452643  1
  La3+  La43  1  0.86120336  0.33454834  0.87416210  1
  La3+  La44  1  0.86174521  0.66630083  0.12638980  1
  La3+  La45  1  0.86126734  0.66694300  0.37385403  1
  La3+  La46  1  0.86147233  0.66674544  0.62616286  1
  La3+  La47  1  0.86109768  0.66604727  0.87345842  1
  La3+  La48  1  0.50004699  0.16723263  0.61413067  1
  La3+  La49  1  -0.00043664  0.16558189  0.13566637  1
  La3+  La50  1  0.00097790  0.83272428  0.38566206  1
  La3+  La51  1  0.49937853  0.16614998  0.86181466  1
  La3+  La52  1  0.00193939  0.16793626  0.61464584  1
  La3+  La53  1  0.50081292  0.83223582  0.13596653  1
  La3+  La54  1  0.00028406  0.49985211  0.63440513  1
  La3+  La55  1  0.00056318  0.50027318  0.86581970  1
  La3+  La56  1  0.49887570  0.50183914  0.11770786  1
  La3+  La57  1  -0.00053349  0.49548939  0.38542398  1
  La3+  La58  1  0.50052474  0.83206802  0.11405708  1
  La3+  La59  1  0.49994243  0.16657768  0.11604665  1
  La3+  La60  1  0.50090871  0.49863767  0.61610234  1
  La3+  La61  1  -0.00082263  0.83283137  0.88688409  1
  La3+  La62  1  0.00107240  0.50433319  0.36550607  1
  La3+  La63  1  0.49944589  0.16543884  0.88445510  1
  La3+  La64  1  0.00091930  0.83331684  0.86442026  1
  La3+  La65  1  0.50081176  0.83420844  0.63513794  1
  La3+  La66  1  -0.00194961  0.16763333  0.36904289  1
  La3+  La67  1  -0.00087768  0.16463090  0.88324227  1
  La3+  La68  1  0.50019974  0.50038129  0.88452142  1
  La3+  La69  1  0.49972491  0.16659365  0.38451857  1
  La3+  La70  1  -0.00224995  0.16612821  0.63399145  1
  La3+  La71  1  -0.00076279  0.50186767  0.13176945  1
  La3+  La72  1  0.25005763  0.83279723  0.52100352  1
  La3+  La73  1  0.75004274  0.16353529  -0.02602783  1
  La3+  La74  1  0.74992082  0.52717846  0.52660105  1
  La3+  La75  1  0.25004291  0.86569019  0.75036682  1
  La3+  La76  1  0.25003626  0.19142233  0.00127832  1
  La3+  La77  1  0.25002407  0.16698210  0.47573460  1
  La3+  La78  1  0.25004818  0.85832149  0.00151582  1
  La3+  La79  1  0.75001637  0.86083743  0.03166741  1
  La3+  La80  1  0.24976857  0.16748228  0.75053703  1
  La3+  La81  1  0.24997019  0.47334609  -0.02267383  1
  La3+  La82  1  0.74988687  0.19786514  0.74873290  1
  La3+  La83  1  0.75009218  0.79786589  0.73826395  1
  Ru4+  Ru84  1  0.00012200  0.00323507  0.00143842  1
  Ru4+  Ru85  1  -0.00035753  0.00094982  0.24922110  1
  Ru4+  Ru86  1  0.00338761  -0.00005626  0.49990790  1
  Ru4+  Ru87  1  0.00127386  0.00212257  0.75027140  1
  Ru4+  Ru88  1  -0.00085381  0.33461240  0.00049138  1
  Ru4+  Ru89  1  -0.00316895  0.33424051  0.25061970  1
  Ru4+  Ru90  1  -0.00097171  0.33168953  0.50007378  1
  Ru4+  Ru91  1  -0.00098938  0.33561903  0.74982651  1
  Ru4+  Ru92  1  -0.00030058  0.66596282  0.00145876  1
  Ru4+  Ru93  1  -0.00067610  0.66753517  0.24934091  1
  Ru4+  Ru94  1  -0.00143587  0.67035292  0.49900118  1
  Ru4+  Ru95  1  0.00123677  0.66342600  0.74858357  1
  Ru4+  Ru96  1  0.50040232  -0.00052705  -0.00038136  1
  Ru4+  Ru97  1  0.50021215  0.00116152  0.25107025  1
  Ru4+  Ru98  1  0.49981733  0.00111496  0.49922544  1
  Ru4+  Ru99  1  0.50047136  -0.00170379  0.74984224  1
  Ru4+  Ru100  1  0.49755279  0.33353516  0.00108964  1
  Ru4+  Ru101  1  0.50038219  0.33424972  0.25050317  1
  Ru4+  Ru102  1  0.50010831  0.33338207  0.49830081  1
  Ru4+  Ru103  1  0.49929978  0.33369586  0.75112115  1
  Ru4+  Ru104  1  0.50038829  0.66630326  0.00035898  1
  Ru4+  Ru105  1  0.50009240  0.66534788  0.25204562  1
  Ru4+  Ru106  1  0.50059523  0.67208862  0.49776310  1
  Ru4+  Ru107  1  0.50281369  0.66589204  0.74782098  1
  Ru4+  Ru108  1  0.11287968  0.16514380  0.00005163  1
  Ru4+  Ru109  1  0.11487790  0.16583829  0.24984895  1
  Ru4+  Ru110  1  0.11181175  0.16686918  0.50004143  1
  Ru4+  Ru111  1  0.11327315  0.16480245  0.75026544  1
  Ru4+  Ru112  1  0.11231881  0.50000940  -0.00004014  1
  Ru4+  Ru113  1  0.11457268  0.50137011  0.24982677  1
  Ru4+  Ru114  1  0.11511366  0.49838363  0.50065226  1
  Ru4+  Ru115  1  0.11310023  0.49945076  0.75006435  1
  Ru4+  Ru116  1  0.11270839  0.83243264  0.00041723  1
  Ru4+  Ru117  1  0.11236486  0.83336697  0.25024071  1
  Ru4+  Ru118  1  0.11318271  0.83155005  0.49987798  1
  Ru4+  Ru119  1  0.11233530  0.83347291  0.75016814  1
  Ru4+  Ru120  1  0.61297962  0.16503033  0.00051323  1
  Ru4+  Ru121  1  0.61362878  0.16628605  0.24973353  1
  Ru4+  Ru122  1  0.61251773  0.16670991  0.50028658  1
  Ru4+  Ru123  1  0.61256829  0.16728008  0.74972012  1
  Ru4+  Ru124  1  0.61404505  0.50110689  -0.00010361  1
  Ru4+  Ru125  1  0.61227827  0.50072323  0.24992424  1
  Ru4+  Ru126  1  0.61288912  0.50015267  0.49982456  1
  Ru4+  Ru127  1  0.61458475  0.50094194  0.75025522  1
  Ru4+  Ru128  1  0.61168856  0.83336365  -0.00024210  1
  Ru4+  Ru129  1  0.61376794  0.83302886  0.25029476  1
  Ru4+  Ru130  1  0.61297426  0.83333292  0.50008874  1
  Ru4+  Ru131  1  0.61239944  0.83224530  0.74965146  1
  Ru4+  Ru132  1  0.38770013  0.16780363  0.00007391  1
  Ru4+  Ru133  1  0.38699907  0.16703952  0.25009577  1
  Ru4+  Ru134  1  0.38839853  0.16683187  0.50004665  1
  Ru4+  Ru135  1  0.38720944  0.16838048  0.74950798  1
  Ru4+  Ru136  1  0.38774387  0.49925095  0.00025237  1
  Ru4+  Ru137  1  0.38679616  0.49974641  0.25038765  1
  Ru4+  Ru138  1  0.38317329  0.49695005  0.49981806  1
  Ru4+  Ru139  1  0.38638029  0.49810498  0.74998058  1
  Ru4+  Ru140  1  0.38806994  0.83314018  0.00028980  1
  Ru4+  Ru141  1  0.38726188  0.83257913  0.24964824  1
  Ru4+  Ru142  1  0.38709166  0.83079926  0.49933715  1
  Ru4+  Ru143  1  0.38711073  0.83602922  0.75082499  1
  Ru4+  Ru144  1  0.88822544  0.16625319  0.00015700  1
  Ru4+  Ru145  1  0.88643558  0.16629080  0.25022025  1
  Ru4+  Ru146  1  0.88509965  0.17237019  0.50028225  1
  Ru4+  Ru147  1  0.88773685  0.16705697  0.74980533  1
  Ru4+  Ru148  1  0.88691501  0.49993455  0.00021462  1
  Ru4+  Ru149  1  0.88643177  0.50106906  0.24970731  1
  Ru4+  Ru150  1  0.88761979  0.49975354  0.50024655  1
  Ru4+  Ru151  1  0.88591189  0.50051399  0.74991893  1
  Ru4+  Ru152  1  0.88707357  0.83215660  0.00035217  1
  Ru4+  Ru153  1  0.88590126  0.83179298  0.24971992  1
  Ru4+  Ru154  1  0.88597980  0.83135457  0.50007649  1
  Ru4+  Ru155  1  0.88546026  0.83266083  0.74937611  1
  Ru4+  Ru156  1  0.75006562  0.40270153  0.49647032  1
  Ru4+  Ru157  1  0.74993803  0.75350702  0.50031225  1
  Ru4+  Ru158  1  0.25002159  0.08678379  0.25135314  1
  Ru4+  Ru159  1  0.25004023  0.04956119  0.50195065  1
  Ru4+  Ru160  1  0.74967115  0.24488832  0.49944485  1
  Ru4+  Ru161  1  0.25007118  0.28490999  0.50033131  1
  Ru4+  Ru162  1  0.75011400  0.05042223  0.00403964  1
  Ru4+  Ru163  1  0.75002469  0.27393419  0.00205920  1
  Ru4+  Ru164  1  0.25009844  0.06287910  0.00029945  1
  Ru4+  Ru165  1  0.75001301  0.57515036  -0.00271239  1
  Ru4+  Ru166  1  0.24999824  0.57582885  0.74725632  1
  Ru4+  Ru167  1  0.24994029  0.73540987  0.75244676  1
  Ru4+  Ru168  1  0.74996377  0.73133079  -0.00689813  1
  Ru4+  Ru169  1  0.74992260  0.91569668  0.49908571  1
  Ru4+  Ru170  1  0.25000883  0.28907945  0.75098348  1
  Ru4+  Ru171  1  0.25015558  0.04681800  0.75387529  1
  Ru4+  Ru172  1  0.74994304  0.41916015  0.24895218  1
  Ru4+  Ru173  1  0.24996747  0.91625864  0.24749533  1
  Ru4+  Ru174  1  0.74992960  0.93327030  0.74673650  1
  Ru4+  Ru175  1  0.75007265  0.06647145  0.74620275  1
  Ru4+  Ru176  1  0.25002339  0.73082751  0.00119070  1
  Ru4+  Ru177  1  0.74986523  0.08502272  0.49816842  1
  Ru4+  Ru178  1  0.24998987  0.60166020  0.00119725  1
  Ru4+  Ru179  1  0.25002323  0.74993125  0.24713735  1
  O2-  O180  1  0.16747382  0.08036987  0.00003128  1
  O2-  O181  1  0.16776112  0.08075637  0.24954955  1
  O2-  O182  1  0.16711707  0.07955557  0.50015286  1
  O2-  O183  1  0.16651895  0.08004652  0.75004736  1
  O2-  O184  1  0.16764332  0.41379143  -0.00071384  1
  O2-  O185  1  0.16777019  0.41460810  0.24983115  1
  O2-  O186  1  0.16808281  0.41415189  0.50015841  1
  O2-  O187  1  0.16810299  0.41383768  0.75004453  1
  O2-  O188  1  0.16693600  0.74673385  -0.00009091  1
  O2-  O189  1  0.16778060  0.74765253  0.25017342  1
  O2-  O190  1  0.16747751  0.74780363  0.49954608  1
  O2-  O191  1  0.16751539  0.74681309  0.74974498  1
  O2-  O192  1  0.66686143  0.08000993  -0.00008842  1
  O2-  O193  1  0.66759534  0.08140333  0.24976117  1
  O2-  O194  1  0.66784802  0.08063777  0.50019061  1
  O2-  O195  1  0.66700368  0.08002247  0.74984168  1
  O2-  O196  1  0.66760454  0.41419494  0.00011936  1
  O2-  O197  1  0.66828485  0.41431549  0.24998186  1
  O2-  O198  1  0.66686336  0.41351982  0.50023340  1
  O2-  O199  1  0.66743140  0.41469935  0.75002136  1
  O2-  O200  1  0.66723037  0.74684371  -0.00007527  1
  O2-  O201  1  0.66776152  0.74830435  0.24952804  1
  O2-  O202  1  0.66784864  0.74756011  0.50024671  1
  O2-  O203  1  0.66705254  0.74765986  0.75051832  1
  O2-  O204  1  0.33242256  0.25263032  -0.00077743  1
  O2-  O205  1  0.33316108  0.25144419  0.24964847  1
  O2-  O206  1  0.33286089  0.25337063  0.50020443  1
  O2-  O207  1  0.33313524  0.25322500  0.75031732  1
  O2-  O208  1  0.33260861  0.58663694  -0.00033190  1
  O2-  O209  1  0.33279989  0.58524042  0.25006046  1
  O2-  O210  1  0.33212244  0.58496546  0.49992007  1
  O2-  O211  1  0.33176468  0.58640330  0.75022549  1
  O2-  O212  1  0.33213166  0.92017615  0.00012080  1
  O2-  O213  1  0.33199920  0.91960059  0.24975768  1
  O2-  O214  1  0.33189464  0.91988797  0.50042163  1
  O2-  O215  1  0.33288403  0.91967287  0.74998647  1
  O2-  O216  1  0.83343989  0.25331242  -0.00014079  1
  O2-  O217  1  0.83223674  0.25231253  0.24992407  1
  O2-  O218  1  0.83190351  0.25254551  0.50027069  1
  O2-  O219  1  0.83320760  0.25316320  0.75013209  1
  O2-  O220  1  0.83207218  0.58607025  -0.00024428  1
  O2-  O221  1  0.83271482  0.58504181  0.25000767  1
  O2-  O222  1  0.83255497  0.58651690  0.49999101  1
  O2-  O223  1  0.83319843  0.58528318  0.74992228  1
  O2-  O224  1  0.83189121  0.92011812  -0.00033721  1
  O2-  O225  1  0.83240017  0.91860907  0.24958383  1
  O2-  O226  1  0.83160279  0.91943939  0.50034579  1
  O2-  O227  1  0.83279501  0.91942396  0.74996212  1
  O2-  O228  1  0.16787470  0.25265341  -0.00059150  1
  O2-  O229  1  0.16770325  0.25169229  0.24967473  1
  O2-  O230  1  0.16716447  0.25346259  0.50028181  1
  O2-  O231  1  0.16675331  0.25366116  0.75005212  1
  O2-  O232  1  0.16730570  0.58625237  0.00017232  1
  O2-  O233  1  0.16719581  0.58558318  0.25041798  1
  O2-  O234  1  0.16743757  0.58564143  0.49929485  1
  O2-  O235  1  0.16769574  0.58617620  0.75004008  1
  O2-  O236  1  0.16831784  0.92016291  -0.00004871  1
  O2-  O237  1  0.16820135  0.91907363  0.24970277  1
  O2-  O238  1  0.16838447  0.92002129  0.50007020  1
  O2-  O239  1  0.16661649  0.92009908  0.74989404  1
  O2-  O240  1  0.66718150  0.25322351  0.00010256  1
  O2-  O241  1  0.66720266  0.25213367  0.25023110  1
  O2-  O242  1  0.66834654  0.25269211  0.50018778  1
  O2-  O243  1  0.66691898  0.25273679  0.74997240  1
  O2-  O244  1  0.66780895  0.58592022  -0.00017775  1
  O2-  O245  1  0.66723047  0.58503262  0.24997471  1
  O2-  O246  1  0.66778025  0.58600539  0.50004543  1
  O2-  O247  1  0.66676065  0.58504440  0.75004827  1
  O2-  O248  1  0.66773482  0.92039822  -0.00036645  1
  O2-  O249  1  0.66696377  0.91877346  0.24910564  1
  O2-  O250  1  0.66813702  0.91934194  0.50027708  1
  O2-  O251  1  0.66737391  0.91985097  0.75030303  1
  O2-  O252  1  0.33253370  0.07958154  0.00012418  1
  O2-  O253  1  0.33179501  0.08072997  0.24950416  1
  O2-  O254  1  0.33288191  0.07955466  0.50011442  1
  O2-  O255  1  0.33325129  0.07977745  0.75018449  1
  O2-  O256  1  0.33251768  0.41387486  -0.00097759  1
  O2-  O257  1  0.33260133  0.41524850  0.24976065  1
  O2-  O258  1  0.33214388  0.41445833  0.50001737  1
  O2-  O259  1  0.33264653  0.41405515  0.75056083  1
  O2-  O260  1  0.33282104  0.74688355  -0.00017124  1
  O2-  O261  1  0.33198049  0.74797766  0.25006760  1
  O2-  O262  1  0.33194521  0.74819914  0.49997806  1
  O2-  O263  1  0.33294534  0.74663174  0.74974803  1
  O2-  O264  1  0.83239254  0.07989603  -0.00027273  1
  O2-  O265  1  0.83240213  0.08165605  0.24979619  1
  O2-  O266  1  0.83210952  0.08056089  0.50044997  1
  O2-  O267  1  0.83291152  0.08001433  0.74973345  1
  O2-  O268  1  0.83302153  0.41422524  -0.00017082  1
  O2-  O269  1  0.83203258  0.41392307  0.24996401  1
  O2-  O270  1  0.83289580  0.41340343  0.50016316  1
  O2-  O271  1  0.83293454  0.41434818  0.75032305  1
  O2-  O272  1  0.83296830  0.74698302  -0.00011425  1
  O2-  O273  1  0.83262409  0.74872319  0.24964399  1
  O2-  O274  1  0.83257956  0.74821758  0.50025684  1
  O2-  O275  1  0.83334200  0.74750461  0.75001760  1
  O2-  O276  1  0.45358756  0.90191382  0.01456482  1
  O2-  O277  1  0.45541773  0.23368601  0.23559510  1
  O2-  O278  1  0.95519382  0.76615144  0.72993766  1
  O2-  O279  1  0.45519213  0.76616686  0.76961693  1
  O2-  O280  1  0.04644971  0.23531952  0.73054789  1
  O2-  O281  1  0.95149076  0.90410897  0.76582812  1
  O2-  O282  1  0.04670030  0.90196779  0.76297365  1
  O2-  O283  1  0.54452861  0.56824889  0.73602087  1
  O2-  O284  1  0.54592871  0.09781717  0.73391465  1
  O2-  O285  1  0.94675217  0.08606819  0.46965218  1
  O2-  O286  1  0.95376524  0.90215944  0.48108279  1
  O2-  O287  1  0.45436563  0.09719081  0.98720749  1
  O2-  O288  1  0.54585156  0.90092092  0.98550246  1
  O2-  O289  1  0.04860383  0.90259088  0.51664535  1
  O2-  O290  1  0.04538548  0.76542414  0.26518608  1
  O2-  O291  1  0.54128681  0.43833369  0.02428351  1
  O2-  O292  1  0.95437979  0.90030590  0.52024289  1
  O2-  O293  1  0.54061792  0.43813383  0.72529596  1
  O2-  O294  1  0.95303749  0.23498550  0.76572908  1
  O2-  O295  1  0.04491488  0.09772573  0.26377094  1
  O2-  O296  1  0.04073757  0.22909109  0.97559337  1
  O2-  O297  1  0.53912728  0.55133607  0.49263144  1
  O2-  O298  1  0.04668191  0.56862535  0.48080550  1
  O2-  O299  1  0.45369184  0.56815103  0.23418293  1
  O2-  O300  1  0.45775312  0.56088078  0.49144807  1
  O2-  O301  1  0.04179770  0.43868268  0.22380121  1
  O2-  O302  1  0.54143458  0.22801465  0.97610144  1
  O2-  O303  1  0.95343840  0.76440430  0.76908041  1
  O2-  O304  1  0.95389555  0.43129664  0.26336459  1
  O2-  O305  1  0.45494827  0.90118878  0.52002968  1
  O2-  O306  1  0.95812441  0.22851140  0.51222170  1
  O2-  O307  1  0.54655573  0.56708351  0.23529680  1
  O2-  O308  1  0.45828180  0.10608499  0.72406893  1
  O2-  O309  1  0.04566097  0.56662190  0.51989683  1
  O2-  O310  1  0.05304739  0.24158632  0.29086378  1
  O2-  O311  1  0.95257193  0.56793021  0.48662176  1
  O2-  O312  1  0.95439769  0.43172027  0.01546740  1
  O2-  O313  1  0.95502450  0.43186632  0.76478033  1
  O2-  O314  1  0.95890941  0.89461041  0.27376545  1
  O2-  O315  1  0.45463308  0.90202664  0.23574991  1
  O2-  O316  1  0.45532700  0.90122469  0.48064429  1
  O2-  O317  1  0.95898628  0.89404101  0.02569395  1
  O2-  O318  1  0.05478203  0.41454566  0.97555417  1
  O2-  O319  1  0.95344774  0.23670412  0.48618249  1
  O2-  O320  1  0.04577246  0.23351626  0.76981221  1
  O2-  O321  1  0.45413574  0.76448054  0.73040347  1
  O2-  O322  1  0.54589743  0.23519330  0.76291679  1
  O2-  O323  1  0.45432381  0.56458533  0.51697898  1
  O2-  O324  1  0.05173952  0.25057936  0.28370329  1
  O2-  O325  1  0.06406079  0.40201277  0.78239222  1
  O2-  O326  1  0.06452389  0.93139425  0.28271492  1
  O2-  O327  1  0.43522152  0.40347364  0.02980918  1
  O2-  O328  1  0.56346721  0.06844795  0.21738497  1
  O2-  O329  1  0.93747560  0.92984584  0.78263422  1
  O2-  O330  1  0.42873694  0.60657868  0.46106672  1
  O2-  O331  1  0.93548273  0.26330278  0.28014870  1
  O2-  O332  1  0.93330677  0.06335481  0.54689396  1
  O2-  O333  1  0.06470559  0.07094970  0.97018421  1
  O2-  O334  1  0.56468402  0.26302004  0.53040861  1
  O2-  O335  1  0.56958719  0.39749835  0.95838727  1
  O2-  O336  1  0.06373337  0.40137131  0.53281091  1
  O2-  O337  1  0.06454292  0.93104863  0.04722752  1
  O2-  O338  1  0.56505294  0.59634678  0.03048282  1
  O2-  O339  1  0.43503719  0.07044179  0.27995158  1
  O2-  O340  1  0.93500211  0.59641668  0.03065612  1
  O2-  O341  1  0.06415455  0.59806490  0.03285631  1
  O2-  O342  1  0.94684716  0.08617127  0.46941888  1
  O2-  O343  1  0.06875656  0.39438340  0.29373267  1
  O2-  O344  1  0.93539305  0.07070598  0.02988056  1
  O2-  O345  1  0.05533396  0.41932660  0.97662333  1
  O2-  O346  1  0.56370238  0.73535285  0.28193495  1
  O2-  O347  1  0.43519540  0.40340708  0.53005330  1
  O2-  O348  1  0.43591839  0.93067701  0.78227325  1
  O2-  O349  1  0.56477945  0.73689914  0.71972498  1
  O2-  O350  1  0.43139700  0.06240664  0.79337902  1
  O2-  O351  1  0.56467318  0.40270551  0.27987503  1
  O2-  O352  1  0.56913261  0.27246081  0.04473595  1
  O2-  O353  1  0.43569554  0.59785956  0.03268669  1
  O2-  O354  1  0.93282252  0.26679462  0.53118268  1
  O2-  O355  1  0.93506040  0.73667207  0.28059036  1
  O2-  O356  1  0.43531188  0.73745802  0.47062399  1
  O2-  O357  1  0.93119629  0.93463445  0.21034434  1
  O2-  O358  1  0.93143577  0.93791396  0.95743538  1
  O2-  O359  1  0.57344070  0.61423886  0.45963826  1
  O2-  O360  1  0.06824983  0.27153003  0.04382970  1
  O2-  O361  1  0.06117920  0.93113568  0.53063996  1
  O2-  O362  1  0.06551450  0.73662891  0.78096123  1
  O2-  O363  1  0.06520310  0.92933917  0.95521348  1
  O2-  O364  1  0.43500441  0.26326381  0.71958394  1
  O2-  O365  1  0.43544195  0.59775335  0.70257030  1
  O2-  O366  1  0.06886291  0.27211997  0.19002409  1
  O2-  O367  1  0.56896318  0.39766791  0.79036472  1
  O2-  O368  1  0.93511889  0.07142731  0.21949747  1
  O2-  O369  1  0.43489013  0.59574383  0.79457793  1
  O2-  O370  1  0.43581163  0.40162639  0.28236157  1
  O2-  O371  1  0.56415202  0.93088075  0.71722312  1
  O2-  O372  1  0.75000610  0.66560686  0.41860979  1
  O2-  O373  1  0.74999219  0.66708752  0.33220381  1
  O2-  O374  1  0.25002187  0.66258466  0.66574414  1
  O2-  O375  1  0.24998395  -0.00265628  0.65386751  1
  O2-  O376  1  0.24999022  0.66715779  0.57887017  1
  O2-  O377  1  0.24985533  0.33281693  0.09173995  1
  O2-  O378  1  0.24990604  0.33272236  0.34506707  1
  O2-  O379  1  0.74998898  0.66693366  0.17031814  1
  O2-  O380  1  0.74995286  0.00014761  0.34593439  1
  O2-  O381  1  0.25006237  0.66426430  0.84504571  1
  O2-  O382  1  0.74999007  0.34004189  0.08522476  1
  O2-  O383  1  0.74999671  0.33297149  0.67138483  1
  O2-  O384  1  0.24997447  0.66766469  0.15757334  1
  O2-  O385  1  0.75007749  0.66724391  0.66905792  1
  O2-  O386  1  0.74995356  0.33216877  0.17182372  1
  O2-  O387  1  0.75000679  0.66394334  0.08454116  1
  O2-  O388  1  0.75003460  -0.00025649  0.84772518  1
  O2-  O389  1  0.74998970  0.32958430  0.58404067  1
  O2-  O390  1  0.75009308  0.66599858  0.58055938  1
  O2-  O391  1  0.75003941  0.33265584  0.82945080  1
  O2-  O392  1  0.75005823  0.33104196  0.40460803  1
  O2-  O393  1  0.75000460  0.66769237  0.84543159  1
  O2-  O394  1  0.24997388  -0.00028480  0.34278046  1
  O2-  O395  1  0.75001816  0.33904928  0.91504968  1
  O2-  O396  1  0.25003244  0.83362530  0.40460288  1
  O2-  O397  1  0.74998551  0.83338756  0.41655092  1
  O2-  O398  1  0.74997451  0.16415882  0.86163848  1
  O2-  O399  1  0.25000618  0.16682364  0.60716716  1
  O2-  O400  1  0.75002677  0.49971279  0.65832516  1
  O2-  O401  1  0.25000151  0.16517399  0.33911680  1
  O2-  O402  1  0.74994168  0.83936258  0.84433967  1
  O2-  O403  1  0.74994477  0.83836396  0.62918774  1
  O2-  O404  1  0.24999614  0.50171905  0.09578524  1
  O2-  O405  1  0.74995020  0.16644079  0.41062214  1
  O2-  O406  1  0.74999117  0.16652849  0.17630793  1
  O2-  O407  1  0.74994540  0.16296286  0.63503715  1
  O2-  O408  1  0.75000257  0.49767316  0.40480319  1
  O2-  O409  1  0.74996615  0.82966908  0.91875309  1
  O2-  O410  1  0.25000243  0.50218165  0.66287968  1
  O2-  O411  1  0.24995086  0.82994559  0.86509565  1
  O2-  O412  1  0.24998755  0.49998364  0.17613624  1
  O2-  O413  1  0.75000025  0.16712548  0.09675319  1
  O2-  O414  1  0.75000406  0.50240297  0.91212505  1
  O2-  O415  1  0.74999152  0.83324837  0.33270700  1
  O2-  O416  1  0.25001230  0.83319884  0.32354036  1
  O2-  O417  1  0.24996560  0.82911185  0.63813279  1
  O2-  O418  1  0.75001520  0.50125438  0.32263683  1
  O2-  O419  1  0.75000881  0.50159290  0.08896180  1
  O2-  O420  1  0.97330298  0.66795331  0.12706569  1
  O2-  O421  1  0.47306608  0.33212564  0.12629740  1
  O2-  O422  1  0.97334759  0.66565175  0.37700067  1
  O2-  O423  1  0.52829558  0.00087450  0.87437804  1
  O2-  O424  1  0.52677638  0.33117757  0.37742510  1
  O2-  O425  1  0.97301005  0.33504471  0.37717446  1
  O2-  O426  1  0.47215940  0.00022470  0.62483002  1
  O2-  O427  1  0.47404496  0.66708976  0.37086919  1
  O2-  O428  1  0.96908392  0.66610258  0.62499028  1
  O2-  O429  1  0.52688155  0.66585191  0.62147400  1
  O2-  O430  1  0.47350396  -0.00088432  0.37721556  1
  O2-  O431  1  0.97283384  -0.00075162  0.37268444  1
  O2-  O432  1  0.03080642  0.66686758  0.62586775  1
  O2-  O433  1  0.97270279  0.33507933  0.62659084  1
  O2-  O434  1  0.53039143  0.66672967  0.87555930  1
  O2-  O435  1  0.52674381  0.66935885  0.12606745  1
  O2-  O436  1  0.02601410  0.00121667  0.87127641  1
  O2-  O437  1  0.52509769  0.33040875  0.87509380  1
  O2-  O438  1  0.03072653  0.66510996  0.87663467  1
  O2-  O439  1  0.52948151  0.33438627  0.62621463  1
  O2-  O440  1  0.96819805  0.66593677  0.87516124  1
  O2-  O441  1  0.47146308  0.33312791  0.62530517  1
  O2-  O442  1  0.97545999  -0.00004091  0.12331068  1
  O2-  O443  1  0.47089754  0.66828812  0.87844632  1
