# generated using pymatgen
data_La7(Ru4O11)2
_symmetry_space_group_name_H-M   'P 1'
_cell_length_a   23.98990618
_cell_length_b   16.82991383
_cell_length_c   15.42598531
_cell_angle_alpha   90.00081181
_cell_angle_beta   89.99959459
_cell_angle_gamma   90.00004546
_symmetry_Int_Tables_number   1
_chemical_formula_structural   La7(Ru4O11)2
_chemical_formula_sum   'La84 Ru96 O264'
_cell_volume   6228.21154534
_cell_formula_units_Z   12
loop_
 _symmetry_equiv_pos_site_id
 _symmetry_equiv_pos_as_xyz
  1  'x, y, z'
loop_
 _atom_type_symbol
 _atom_type_oxidation_number
  La3+  3.0
  Ru4+  4.0
  O2-  -2.0
loop_
 _atom_site_type_symbol
 _atom_site_label
 _atom_site_symmetry_multiplicity
 _atom_site_fract_x
 _atom_site_fract_y
 _atom_site_fract_z
 _atom_site_occupancy
  La3+  La0  1  0.13945196  0.00190463  0.12736912  1
  La3+  La1  1  0.14322748  -0.00348228  0.37463207  1
  La3+  La2  1  0.14064620  -0.00208428  0.62456178  1
  La3+  La3  1  0.13923833  0.00134102  0.87336520  1
  La3+  La4  1  0.13973058  0.33160011  0.12666668  1
  La3+  La5  1  0.13562529  0.33154843  0.37451022  1
  La3+  La6  1  0.13843797  0.33194908  0.62606775  1
  La3+  La7  1  0.14120449  0.33257506  0.87172405  1
  La3+  La8  1  0.13802422  0.66613761  0.12614310  1
  La3+  La9  1  0.13712324  0.66915499  0.37598557  1
  La3+  La10  1  0.13635915  0.66800885  0.62746896  1
  La3+  La11  1  0.13703369  0.66757610  0.87140830  1
  La3+  La12  1  0.63697223  0.00344290  0.12076879  1
  La3+  La13  1  0.64215506  0.00004597  0.37264512  1
  La3+  La14  1  0.63626286  0.00606601  0.63178655  1
  La3+  La15  1  0.63507758  0.00950045  0.87332730  1
  La3+  La16  1  0.63910781  0.33310785  0.12763428  1
  La3+  La17  1  0.64143002  0.33371869  0.37206963  1
  La3+  La18  1  0.63832626  0.33149930  0.62695000  1
  La3+  La19  1  0.63792640  0.33080886  0.87259045  1
  La3+  La20  1  0.63711750  0.66730483  0.12745731  1
  La3+  La21  1  0.63967148  0.66543236  0.37227627  1
  La3+  La22  1  0.63883129  0.66643137  0.62541639  1
  La3+  La23  1  0.63615158  0.66836576  0.87428685  1
  La3+  La24  1  0.36147577  0.00084590  0.12689937  1
  La3+  La25  1  0.35867135  -0.00099921  0.37519982  1
  La3+  La26  1  0.35977742  -0.00019512  0.62442444  1
  La3+  La27  1  0.35992483  0.00181724  0.87320040  1
  La3+  La28  1  0.36095495  0.33317181  0.12531868  1
  La3+  La29  1  0.36494122  0.33298672  0.37604029  1
  La3+  La30  1  0.36069352  0.33222550  0.62651733  1
  La3+  La31  1  0.35978320  0.33221958  0.87178563  1
  La3+  La32  1  0.36249521  0.66666231  0.12578524  1
  La3+  La33  1  0.36193535  0.66717663  0.37511784  1
  La3+  La34  1  0.36080748  0.66751741  0.62628376  1
  La3+  La35  1  0.36222291  0.66619798  0.87295068  1
  La3+  La36  1  0.85856315  0.00130291  0.12560958  1
  La3+  La37  1  0.85795072  -0.00159030  0.37218067  1
  La3+  La38  1  0.86037755  -0.00046422  0.62638874  1
  La3+  La39  1  0.85976310  0.00081965  0.87430139  1
  La3+  La40  1  0.86252892  0.33326509  0.12946916  1
  La3+  La41  1  0.86088703  0.33430898  0.37119364  1
  La3+  La42  1  0.86223231  0.33195388  0.62800845  1
  La3+  La43  1  0.86393745  0.33031590  0.87101055  1
  La3+  La44  1  0.86177474  0.66618956  0.12692722  1
  La3+  La45  1  0.86271710  0.66606545  0.37202363  1
  La3+  La46  1  0.86331063  0.66834536  0.62566251  1
  La3+  La47  1  0.86249370  0.66798199  0.87495467  1
  La3+  La48  1  0.00082979  0.16893197  0.61684410  1
  La3+  La49  1  -0.00309146  0.50179765  0.88211613  1
  La3+  La50  1  0.50053549  0.83302940  0.36005085  1
  La3+  La51  1  -0.00026983  0.49832717  0.36709097  1
  La3+  La52  1  0.50026114  0.49897559  0.38132048  1
  La3+  La53  1  0.49889103  0.49703670  0.61504736  1
  La3+  La54  1  0.50228778  0.83645131  0.63602791  1
  La3+  La55  1  0.49685869  0.50484640  0.87859277  1
  La3+  La56  1  0.50074379  0.50060805  0.13794737  1
  La3+  La57  1  0.49851700  0.83348838  0.61487772  1
  La3+  La58  1  -0.00311025  0.82882214  0.13801491  1
  La3+  La59  1  0.00168646  0.83445121  0.85749043  1
  La3+  La60  1  -0.00200459  0.83209044  0.61808303  1
  La3+  La61  1  0.49749093  0.16506808  0.11418205  1
  La3+  La62  1  0.50483361  0.16240348  0.13332247  1
  La3+  La63  1  -0.00255369  0.49779155  0.13616336  1
  La3+  La64  1  0.49897536  0.83297104  0.38238590  1
  La3+  La65  1  0.00066342  0.16651490  0.86651018  1
  La3+  La66  1  0.00162470  0.49856500  0.86097789  1
  La3+  La67  1  0.50215762  0.16414180  0.61971124  1
  La3+  La68  1  0.49884504  0.83030021  0.87945720  1
  La3+  La69  1  -0.00132802  0.83238494  0.11579457  1
  La3+  La70  1  0.50206657  0.16415069  0.86648035  1
  La3+  La71  1  -0.00136289  0.16716529  0.11406695  1
  La3+  La72  1  0.74969519  0.45290289  0.77237025  1
  La3+  La73  1  0.74998950  0.83667153  0.25165702  1
  La3+  La74  1  0.25006580  0.45087124  0.23277887  1
  La3+  La75  1  0.25001145  0.45854256  -0.00878822  1
  La3+  La76  1  0.24943574  0.83568591  0.00556283  1
  La3+  La77  1  0.25000651  0.16575492  0.24645092  1
  La3+  La78  1  0.74962796  0.13626958  0.50617463  1
  La3+  La79  1  0.74986143  0.87285703  -0.00656605  1
  La3+  La80  1  0.75100197  0.49298908  0.01178495  1
  La3+  La81  1  0.24975025  0.83389048  0.72758136  1
  La3+  La82  1  0.75024060  0.16473777  0.24815378  1
  La3+  La83  1  0.24963842  0.49958623  0.56286799  1
  Ru4+  Ru84  1  -0.00121680  0.00276189  -0.00190573  1
  Ru4+  Ru85  1  -0.00086101  0.00343518  0.24975716  1
  Ru4+  Ru86  1  0.00135452  -0.00309446  0.50077010  1
  Ru4+  Ru87  1  0.00239681  0.00354775  0.74893187  1
  Ru4+  Ru88  1  -0.00155685  0.33244981  0.00117850  1
  Ru4+  Ru89  1  -0.00576996  0.33330354  0.25708953  1
  Ru4+  Ru90  1  0.00058194  0.33416188  0.49928964  1
  Ru4+  Ru91  1  0.00321968  0.33790994  0.74538063  1
  Ru4+  Ru92  1  0.00319388  0.65724197  -0.00222872  1
  Ru4+  Ru93  1  -0.00136014  0.66778353  0.25577062  1
  Ru4+  Ru94  1  -0.00049776  0.66154863  0.50005425  1
  Ru4+  Ru95  1  0.00286694  0.66608627  0.74254572  1
  Ru4+  Ru96  1  0.50194748  0.00347452  -0.00299416  1
  Ru4+  Ru97  1  0.50107830  -0.00209336  0.24797658  1
  Ru4+  Ru98  1  0.50067397  0.00219165  0.49985184  1
  Ru4+  Ru99  1  0.50155094  0.00475114  0.75160181  1
  Ru4+  Ru100  1  0.49804785  0.33300157  -0.00385512  1
  Ru4+  Ru101  1  0.49827323  0.33330121  0.25125879  1
  Ru4+  Ru102  1  0.50283206  0.32610066  0.50062736  1
  Ru4+  Ru103  1  0.49925288  0.33197377  0.75109182  1
  Ru4+  Ru104  1  0.49880254  0.65864148  0.00421434  1
  Ru4+  Ru105  1  0.50028564  0.66562890  0.24856908  1
  Ru4+  Ru106  1  0.50196229  0.66425333  0.49858365  1
  Ru4+  Ru107  1  0.50041644  0.66288105  0.74781914  1
  Ru4+  Ru108  1  0.11368823  0.16380012  -0.00076200  1
  Ru4+  Ru109  1  0.11453648  0.16450793  0.25140009  1
  Ru4+  Ru110  1  0.11274158  0.16730378  0.50021986  1
  Ru4+  Ru111  1  0.11349354  0.16828200  0.75062106  1
  Ru4+  Ru112  1  0.11207441  0.50067243  0.00002176  1
  Ru4+  Ru113  1  0.11145759  0.49816102  0.25020612  1
  Ru4+  Ru114  1  0.10959969  0.49863881  0.49831037  1
  Ru4+  Ru115  1  0.11280504  0.49835900  0.74872754  1
  Ru4+  Ru116  1  0.11203049  0.83289187  -0.00017836  1
  Ru4+  Ru117  1  0.11418685  0.83459537  0.25047399  1
  Ru4+  Ru118  1  0.11492068  0.83835571  0.50000463  1
  Ru4+  Ru119  1  0.11265312  0.83205034  0.75043137  1
  Ru4+  Ru120  1  0.61320225  0.16207091  -0.00302091  1
  Ru4+  Ru121  1  0.61226470  0.16588647  0.25003127  1
  Ru4+  Ru122  1  0.61050864  0.16596037  0.50200317  1
  Ru4+  Ru123  1  0.61225665  0.16435834  0.75086597  1
  Ru4+  Ru124  1  0.61082149  0.49989701  0.00041227  1
  Ru4+  Ru125  1  0.61431755  0.49955636  0.24983671  1
  Ru4+  Ru126  1  0.61254453  0.50009224  0.50021061  1
  Ru4+  Ru127  1  0.61003658  0.49929216  0.75015807  1
  Ru4+  Ru128  1  0.61621719  0.83655598  0.00021923  1
  Ru4+  Ru129  1  0.61208593  0.83553914  0.25009098  1
  Ru4+  Ru130  1  0.61404440  0.83384853  0.50028525  1
  Ru4+  Ru131  1  0.61333003  0.83272931  0.75061092  1
  Ru4+  Ru132  1  0.38455390  0.16548792  -0.00096096  1
  Ru4+  Ru133  1  0.38731158  0.16612795  0.25032815  1
  Ru4+  Ru134  1  0.38647678  0.16762238  0.50057654  1
  Ru4+  Ru135  1  0.38733157  0.16895952  0.74979343  1
  Ru4+  Ru136  1  0.38789663  0.50091822  -0.00099533  1
  Ru4+  Ru137  1  0.38936693  0.49886510  0.24869018  1
  Ru4+  Ru138  1  0.38548958  0.50408831  0.49981419  1
  Ru4+  Ru139  1  0.38681046  0.49795999  0.74905316  1
  Ru4+  Ru140  1  0.38616615  0.83080775  0.00076554  1
  Ru4+  Ru141  1  0.38691993  0.83542292  0.24922654  1
  Ru4+  Ru142  1  0.38572232  0.83522122  0.49906451  1
  Ru4+  Ru143  1  0.38745668  0.83554847  0.75057935  1
  Ru4+  Ru144  1  0.88666052  0.16429332  0.00057154  1
  Ru4+  Ru145  1  0.89015718  0.16720174  0.25097609  1
  Ru4+  Ru146  1  0.88677211  0.16798679  0.49961702  1
  Ru4+  Ru147  1  0.88145538  0.16484068  0.74988318  1
  Ru4+  Ru148  1  0.88953924  0.49978537  0.00093233  1
  Ru4+  Ru149  1  0.88506147  0.49982653  0.24996252  1
  Ru4+  Ru150  1  0.88784281  0.49860107  0.49941101  1
  Ru4+  Ru151  1  0.88873883  0.49843236  0.74934517  1
  Ru4+  Ru152  1  0.88467726  0.83899026  0.00224061  1
  Ru4+  Ru153  1  0.88714283  0.83340426  0.24996597  1
  Ru4+  Ru154  1  0.88709756  0.83525569  0.49860379  1
  Ru4+  Ru155  1  0.88602744  0.82687648  0.74864012  1
  Ru4+  Ru156  1  0.24999479  0.08901013  0.74845757  1
  Ru4+  Ru157  1  0.24980936  0.58185480  0.74911551  1
  Ru4+  Ru158  1  0.75012166  0.58556674  0.49035246  1
  Ru4+  Ru159  1  0.24981336  0.37882652  0.48748984  1
  Ru4+  Ru160  1  0.75018732  0.74323974  -0.00145556  1
  Ru4+  Ru161  1  0.24982701  0.08450928  0.49803073  1
  Ru4+  Ru162  1  0.74978883  0.27604840  0.49904618  1
  Ru4+  Ru163  1  0.74985630  0.76061622  0.74995796  1
  Ru4+  Ru164  1  0.25001217  0.60457222  0.24380970  1
  Ru4+  Ru165  1  0.75001524  0.75647962  0.49416841  1
  Ru4+  Ru166  1  0.24993247  0.24450908  0.00511848  1
  Ru4+  Ru167  1  0.24990025  0.71301871  -0.01618764  1
  Ru4+  Ru168  1  0.25007916  0.75405250  0.24974856  1
  Ru4+  Ru169  1  0.74977814  0.59505797  0.75197204  1
  Ru4+  Ru170  1  0.75030398  0.24048496  0.00232004  1
  Ru4+  Ru171  1  0.24996396  0.75592428  0.50165982  1
  Ru4+  Ru172  1  0.75023227  0.91322090  0.49518448  1
  Ru4+  Ru173  1  0.74962603  0.61729264  -0.00967220  1
  Ru4+  Ru174  1  0.25004891  0.58769130  -0.00463844  1
  Ru4+  Ru175  1  0.24981724  0.96216305  0.00812938  1
  Ru4+  Ru176  1  0.74975510  0.36614463  -0.00001592  1
  Ru4+  Ru177  1  0.75002783  0.41351130  0.49069421  1
  Ru4+  Ru178  1  0.74972697  0.91474733  0.74645515  1
  Ru4+  Ru179  1  0.24995183  0.62259526  0.49313371  1
  O2-  O180  1  0.16513754  0.08112307  0.00003733  1
  O2-  O181  1  0.16928018  0.08187109  0.24850033  1
  O2-  O182  1  0.16791517  0.08246680  0.49975304  1
  O2-  O183  1  0.16564712  0.08046490  0.75078656  1
  O2-  O184  1  0.16393512  0.41285221  0.00051727  1
  O2-  O185  1  0.16493941  0.41128482  0.25062211  1
  O2-  O186  1  0.16766034  0.41316764  0.49957523  1
  O2-  O187  1  0.16771406  0.41602733  0.75039948  1
  O2-  O188  1  0.16647312  0.74621914  -0.00115455  1
  O2-  O189  1  0.16701758  0.74722814  0.24980909  1
  O2-  O190  1  0.16744682  0.74756979  0.49976037  1
  O2-  O191  1  0.16865189  0.74761029  0.75068941  1
  O2-  O192  1  0.66801636  0.08300521  0.00033680  1
  O2-  O193  1  0.66651941  0.08221384  0.25003906  1
  O2-  O194  1  0.66590972  0.07887695  0.49939941  1
  O2-  O195  1  0.66825181  0.08202945  0.74933722  1
  O2-  O196  1  0.66717693  0.41141715  -0.00138241  1
  O2-  O197  1  0.66526665  0.41479481  0.24874768  1
  O2-  O198  1  0.66810680  0.41325789  0.50045494  1
  O2-  O199  1  0.66469112  0.41113800  0.74971679  1
  O2-  O200  1  0.66597440  0.74681785  0.00018109  1
  O2-  O201  1  0.66618832  0.74575782  0.25044425  1
  O2-  O202  1  0.66746418  0.74696163  0.49871702  1
  O2-  O203  1  0.66774295  0.74752672  0.74934054  1
  O2-  O204  1  0.33334812  0.25287956  0.00038384  1
  O2-  O205  1  0.33145637  0.25325249  0.25142832  1
  O2-  O206  1  0.33412735  0.25240130  0.49811976  1
  O2-  O207  1  0.33265966  0.25150534  0.74825550  1
  O2-  O208  1  0.33362809  0.58608805  0.00051141  1
  O2-  O209  1  0.33351458  0.58760525  0.24939290  1
  O2-  O210  1  0.33374266  0.58730801  0.50090707  1
  O2-  O211  1  0.33232179  0.58542129  0.75059446  1
  O2-  O212  1  0.33357183  0.92028870  0.00062489  1
  O2-  O213  1  0.33368370  0.91825716  0.24924345  1
  O2-  O214  1  0.33331599  0.91805018  0.50066326  1
  O2-  O215  1  0.33327652  0.91923173  0.74983932  1
  O2-  O216  1  0.83343597  0.25378643  0.00012418  1
  O2-  O217  1  0.83123784  0.25073269  0.24746106  1
  O2-  O218  1  0.83309933  0.25350052  0.50122540  1
  O2-  O219  1  0.83393344  0.25253730  0.74950224  1
  O2-  O220  1  0.83331138  0.58894095  -0.00167629  1
  O2-  O221  1  0.83228336  0.58503049  0.24999732  1
  O2-  O222  1  0.83367526  0.58615552  0.50046155  1
  O2-  O223  1  0.83377975  0.58769002  0.74962686  1
  O2-  O224  1  0.83541349  0.92158735  0.00049832  1
  O2-  O225  1  0.83505220  0.91908396  0.24893997  1
  O2-  O226  1  0.83076738  0.91899347  0.49987763  1
  O2-  O227  1  0.83342723  0.91777978  0.75009402  1
  O2-  O228  1  0.16616496  0.25350456  0.00020602  1
  O2-  O229  1  0.16868133  0.25236005  0.24974516  1
  O2-  O230  1  0.16717566  0.25106538  0.49781540  1
  O2-  O231  1  0.16547903  0.25178482  0.74977327  1
  O2-  O232  1  0.16723267  0.58629217  0.00021831  1
  O2-  O233  1  0.16664134  0.58759177  0.24999717  1
  O2-  O234  1  0.16605558  0.58782861  0.49978851  1
  O2-  O235  1  0.16937324  0.58525655  0.75108827  1
  O2-  O236  1  0.16499994  0.92110481  -0.00042665  1
  O2-  O237  1  0.16680019  0.91806007  0.24777933  1
  O2-  O238  1  0.16613593  0.91624621  0.50086783  1
  O2-  O239  1  0.16676182  0.91912707  0.75105127  1
  O2-  O240  1  0.66610325  0.25330343  -0.00045193  1
  O2-  O241  1  0.66780695  0.25212424  0.24913016  1
  O2-  O242  1  0.66735488  0.25384579  0.49979546  1
  O2-  O243  1  0.66388801  0.25269156  0.75089822  1
  O2-  O244  1  0.66477796  0.58737042  -0.00031478  1
  O2-  O245  1  0.66616791  0.58641319  0.24968822  1
  O2-  O246  1  0.66637172  0.58576295  0.49990201  1
  O2-  O247  1  0.66662616  0.58779260  0.75050182  1
  O2-  O248  1  0.66564134  0.91938517  0.00138670  1
  O2-  O249  1  0.66634694  0.91879774  0.25028166  1
  O2-  O250  1  0.66807344  0.91953178  0.49943342  1
  O2-  O251  1  0.66665272  0.91869013  0.74887509  1
  O2-  O252  1  0.33418340  0.08086553  0.00033772  1
  O2-  O253  1  0.33052349  0.08114854  0.24996865  1
  O2-  O254  1  0.33384609  0.08119221  0.49952958  1
  O2-  O255  1  0.33451412  0.08082680  0.74968497  1
  O2-  O256  1  0.33456399  0.41318699  0.00169964  1
  O2-  O257  1  0.33479414  0.41074990  0.25217449  1
  O2-  O258  1  0.33271811  0.41269723  0.49956196  1
  O2-  O259  1  0.33206276  0.41574655  0.74940513  1
  O2-  O260  1  0.33374795  0.74504825  0.00100305  1
  O2-  O261  1  0.33217164  0.74727894  0.24831277  1
  O2-  O262  1  0.33198958  0.74653664  0.50119771  1
  O2-  O263  1  0.33257228  0.74591481  0.74984536  1
  O2-  O264  1  0.83500841  0.08222854  -0.00001490  1
  O2-  O265  1  0.83333435  0.08269122  0.24920381  1
  O2-  O266  1  0.83231968  0.07934866  0.50069085  1
  O2-  O267  1  0.83365529  0.08178335  0.75002155  1
  O2-  O268  1  0.83475937  0.41098753  -0.00062096  1
  O2-  O269  1  0.83318508  0.41580906  0.24729494  1
  O2-  O270  1  0.83161846  0.41352157  0.50188535  1
  O2-  O271  1  0.83386116  0.41157420  0.74853375  1
  O2-  O272  1  0.83307019  0.74588544  -0.00180017  1
  O2-  O273  1  0.83338231  0.74582514  0.25065806  1
  O2-  O274  1  0.83368130  0.74769962  0.50015064  1
  O2-  O275  1  0.83216978  0.74703117  0.75026155  1
  O2-  O276  1  0.04672367  0.90656791  0.01231686  1
  O2-  O277  1  0.54952421  0.09673354  0.01575054  1
  O2-  O278  1  0.95023278  0.90154196  0.76931133  1
  O2-  O279  1  0.45385227  0.76452119  0.73700958  1
  O2-  O280  1  0.04763654  0.23471754  0.26871094  1
  O2-  O281  1  0.04512067  0.76304519  0.26593050  1
  O2-  O282  1  0.95147333  0.09769120  0.26555490  1
  O2-  O283  1  0.04219793  0.10282011  0.21859748  1
  O2-  O284  1  0.04537085  0.56725798  0.48362031  1
  O2-  O285  1  0.45923374  0.44524633  0.03419318  1
  O2-  O286  1  0.54870603  0.76182070  0.01966790  1
  O2-  O287  1  0.04585876  0.90546317  0.51396325  1
  O2-  O288  1  0.54398723  0.10639666  0.76279152  1
  O2-  O289  1  0.45434105  0.90414113  0.23569772  1
  O2-  O290  1  0.04917736  0.90392524  0.73535429  1
  O2-  O291  1  0.45435040  0.56936183  0.48875862  1
  O2-  O292  1  0.46409614  0.77374011  0.21389124  1
  O2-  O293  1  0.45743353  0.89571839  1.00484906  1
  O2-  O294  1  0.95238078  0.90066731  0.73016167  1
  O2-  O295  1  0.45286153  0.23682961  0.98413315  1
  O2-  O296  1  0.95407435  0.56816388  0.73616932  1
  O2-  O297  1  0.54919906  0.75913266  0.98100645  1
  O2-  O298  1  0.54290637  0.10487085  0.99071685  1
  O2-  O299  1  0.45571917  0.89992280  0.01919525  1
  O2-  O300  1  0.03708977  0.55486079  0.03623290  1
  O2-  O301  1  0.45296752  0.42885254  0.48668496  1
  O2-  O302  1  0.94626011  0.75345999  0.72989901  1
  O2-  O303  1  0.54746384  0.23598915  0.26567451  1
  O2-  O304  1  0.04609280  0.90587072  0.23694773  1
  O2-  O305  1  0.04432038  0.23336810  0.98556873  1
  O2-  O306  1  0.54778846  0.09828041  0.73629810  1
  O2-  O307  1  0.54262926  0.89220681  0.99864734  1
  O2-  O308  1  0.04568483  0.42829473  0.98669725  1
  O2-  O309  1  0.54147555  0.44412395  0.96528367  1
  O2-  O310  1  0.95678352  0.11626456  0.49441724  1
  O2-  O311  1  0.03649789  0.13219142  0.47659974  1
  O2-  O312  1  0.04394731  0.76427249  0.47941434  1
  O2-  O313  1  0.04537894  0.23982341  0.23013339  1
  O2-  O314  1  0.54433408  0.89860005  0.76361259  1
  O2-  O315  1  0.45088278  0.23345546  0.23659627  1
  O2-  O316  1  0.94423906  0.75151678  0.96365135  1
  O2-  O317  1  0.45059231  0.09605925  0.98267839  1
  O2-  O318  1  0.04036238  0.77740890  0.96476141  1
  O2-  O319  1  0.04848607  0.76519052  0.51792616  1
  O2-  O320  1  0.95312709  0.23656177  0.76272204  1
  O2-  O321  1  0.45479349  0.76782851  0.03076824  1
  O2-  O322  1  0.54901924  0.24105240  0.01309970  1
  O2-  O323  1  0.04604209  0.56649890  0.23808221  1
  O2-  O324  1  0.93382382  0.26075800  0.27611580  1
  O2-  O325  1  0.93516458  0.40632755  0.77894419  1
  O2-  O326  1  0.93426777  0.59132661  0.02794735  1
  O2-  O327  1  0.93456369  0.07392673  0.79786935  1
  O2-  O328  1  0.06956196  0.05971635  0.57275790  1
  O2-  O329  1  0.06427856  0.40607500  0.72509895  1
  O2-  O330  1  0.43641763  0.93065853  0.46574207  1
  O2-  O331  1  0.43592454  0.06801752  0.21757565  1
  O2-  O332  1  0.93586831  0.25903067  0.77760126  1
  O2-  O333  1  0.07508192  0.73042248  0.04731903  1
  O2-  O334  1  0.06506987  0.25963419  0.52850358  1
  O2-  O335  1  0.07531784  0.60585745  0.95088241  1
  O2-  O336  1  0.56532624  0.92808502  0.22502340  1
  O2-  O337  1  0.43602744  0.59222181  0.97272790  1
  O2-  O338  1  0.92709427  0.05520940  0.45857173  1
  O2-  O339  1  0.93512202  0.59300925  0.27753318  1
  O2-  O340  1  0.43518426  0.73617893  0.53388734  1
  O2-  O341  1  0.56992595  0.06855584  0.77952552  1
  O2-  O342  1  0.57933494  0.94013992  0.95989457  1
  O2-  O343  1  0.56366712  0.73490284  0.56530115  1
  O2-  O344  1  0.42504331  0.72899015  0.29732890  1
  O2-  O345  1  0.43567451  0.40727053  0.22205272  1
  O2-  O346  1  0.56675548  0.40908123  0.55629656  1
  O2-  O347  1  0.93631972  0.40893776  0.27696059  1
  O2-  O348  1  0.56890686  0.06969868  0.96814751  1
  O2-  O349  1  0.93439496  0.07520139  0.70232284  1
  O2-  O350  1  0.42647957  0.39568555  0.95465289  1
  O2-  O351  1  0.42812326  0.73388821  0.95856407  1
  O2-  O352  1  0.94243898  0.74785294  0.72477653  1
  O2-  O353  1  0.06510235  0.74156255  0.72194010  1
  O2-  O354  1  0.56563279  0.73884760  0.77799313  1
  O2-  O355  1  0.43568961  0.25842419  0.77722374  1
  O2-  O356  1  0.56584901  0.92646067  0.52647797  1
  O2-  O357  1  0.43466546  0.40729250  0.47294299  1
  O2-  O358  1  0.56439623  0.40318146  0.43765117  1
  O2-  O359  1  0.43685789  0.40504613  0.71586536  1
  O2-  O360  1  0.92978799  0.73981714  0.05191134  1
  O2-  O361  1  0.06443837  0.40457439  0.46667020  1
  O2-  O362  1  0.56411173  0.73695759  0.43462085  1
  O2-  O363  1  0.06293814  0.40263775  0.28076826  1
  O2-  O364  1  0.42444874  0.95279451  0.94762433  1
  O2-  O365  1  0.07347673  0.04944444  0.43480313  1
  O2-  O366  1  0.94414144  0.75138864  0.96366389  1
  O2-  O367  1  0.06819723  0.05980935  0.29503361  1
  O2-  O368  1  0.93474847  0.40686745  0.47458353  1
  O2-  O369  1  0.57217518  0.38910096  0.05660521  1
  O2-  O370  1  0.93665663  0.92625745  0.46801501  1
  O2-  O371  1  0.06646228  0.59125387  0.72341776  1
  O2-  O372  1  0.74988372  0.00064228  0.16952986  1
  O2-  O373  1  0.75020205  -0.00233004  0.91902444  1
  O2-  O374  1  0.24959175  0.33440451  0.09423302  1
  O2-  O375  1  0.24990632  0.33307179  0.83061038  1
  O2-  O376  1  0.24995463  0.00767580  0.11156069  1
  O2-  O377  1  0.74998443  0.00200379  0.82936811  1
  O2-  O378  1  0.25021435  0.66589818  0.10928963  1
  O2-  O379  1  0.74959147  0.00117073  0.35099354  1
  O2-  O380  1  0.24985608  0.33508766  0.92051746  1
  O2-  O381  1  0.25007828  0.01726608  0.90792558  1
  O2-  O382  1  0.25034942  0.66536174  0.65619537  1
  O2-  O383  1  0.75005789  0.66714049  0.10603240  1
  O2-  O384  1  0.25028790  0.33276175  0.59790442  1
  O2-  O385  1  0.25031885  0.00429981  0.40719297  1
  O2-  O386  1  0.25026631  -0.00300562  0.67055811  1
  O2-  O387  1  0.74949829  0.33055745  0.35310417  1
  O2-  O388  1  0.24975360  0.66835108  0.34868265  1
  O2-  O389  1  0.75016122  0.66722443  0.56963823  1
  O2-  O390  1  0.75005562  -0.00104042  0.08033800  1
  O2-  O391  1  0.74999187  0.67629097  0.66997784  1
  O2-  O392  1  0.75008798  0.67022111  0.84819163  1
  O2-  O393  1  0.25012203  -0.00473307  0.82186332  1
  O2-  O394  1  0.74990092  -0.00410940  0.65558454  1
  O2-  O395  1  0.25014086  -0.00176133  0.57900993  1
  O2-  O396  1  0.75027493  0.16913708  0.64984642  1
  O2-  O397  1  0.74995596  0.83391041  0.59188376  1
  O2-  O398  1  0.74999947  0.83042799  0.12387030  1
  O2-  O399  1  0.74997173  0.83323709  0.84249067  1
  O2-  O400  1  0.24999002  0.17029227  0.83237057  1
  O2-  O401  1  0.74994117  0.50006285  0.40879475  1
  O2-  O402  1  0.25008248  0.83333015  0.41874778  1
  O2-  O403  1  0.25003501  0.16935406  0.09210718  1
  O2-  O404  1  0.75001935  0.83144976  0.38621858  1
  O2-  O405  1  0.25017076  0.83166775  0.86135857  1
  O2-  O406  1  0.74992639  0.50918258  0.88269696  1
  O2-  O407  1  0.75007203  0.50886702  0.65467046  1
  O2-  O408  1  0.74976550  0.49893545  0.56893575  1
  O2-  O409  1  0.24998945  0.51337801  0.12048548  1
  O2-  O410  1  0.25006647  0.16888796  0.66709341  1
  O2-  O411  1  0.24987809  0.51387846  0.34130509  1
  O2-  O412  1  0.25002231  0.16709498  0.57997465  1
  O2-  O413  1  0.74978338  0.49915751  0.13142960  1
  O2-  O414  1  0.74997077  0.16996013  0.09299432  1
  O2-  O415  1  0.75013136  0.16922470  0.83311932  1
  O2-  O416  1  0.74995606  0.16321224  0.91631970  1
  O2-  O417  1  0.24996727  0.16375380  0.91862916  1
  O2-  O418  1  0.25008990  0.83502192  0.33055378  1
  O2-  O419  1  0.25015852  0.49590262  0.42690928  1
  O2-  O420  1  0.47063965  0.66523066  0.86544492  1
  O2-  O421  1  0.52523371  0.32662028  0.63061064  1
  O2-  O422  1  0.47565029  0.32908235  0.12204259  1
  O2-  O423  1  0.53202636  0.66082584  0.87854255  1
  O2-  O424  1  0.97633825  -0.00303171  0.88271550  1
  O2-  O425  1  0.03343780  0.66354635  0.13390885  1
  O2-  O426  1  0.52584784  0.00265764  0.12385344  1
  O2-  O427  1  0.02394696  0.66906247  0.86676818  1
  O2-  O428  1  0.47930621  0.33352587  0.87135182  1
  O2-  O429  1  0.97350444  0.66889252  0.38031874  1
  O2-  O430  1  0.97421980  -0.00352492  0.61855504  1
  O2-  O431  1  0.47492291  0.66343085  0.37756910  1
  O2-  O432  1  0.02293046  0.66603681  0.61790389  1
  O2-  O433  1  0.53890287  0.00232704  0.62721248  1
  O2-  O434  1  0.97873241  0.32925026  0.37960046  1
  O2-  O435  1  0.51946501  -0.00446641  0.86901735  1
  O2-  O436  1  0.97203969  -0.00058010  0.12416914  1
  O2-  O437  1  0.02251872  0.33185954  0.62598372  1
  O2-  O438  1  0.45784364  -0.00015854  0.62690252  1
  O2-  O439  1  0.97276282  0.33365936  0.12412027  1
  O2-  O440  1  0.97614571  0.33406298  0.88243047  1
  O2-  O441  1  0.96763305  0.66420742  0.13483879  1
  O2-  O442  1  0.52762306  0.66252622  0.12679928  1
  O2-  O443  1  0.47416308  0.32981065  0.37131012  1
