# generated using pymatgen
data_La7(Ru4O11)2
_symmetry_space_group_name_H-M   'P 1'
_cell_length_a   23.99315415
_cell_length_b   16.83427819
_cell_length_c   15.43046346
_cell_angle_alpha   89.99752612
_cell_angle_beta   89.99869230
_cell_angle_gamma   90.00129515
_symmetry_Int_Tables_number   1
_chemical_formula_structural   La7(Ru4O11)2
_chemical_formula_sum   'La84 Ru96 O264'
_cell_volume   6232.47885495
_cell_formula_units_Z   12
loop_
 _symmetry_equiv_pos_site_id
 _symmetry_equiv_pos_as_xyz
  1  'x, y, z'
loop_
 _atom_type_symbol
 _atom_type_oxidation_number
  La3+  3.0
  Ru4+  4.0
  O2-  -2.0
loop_
 _atom_site_type_symbol
 _atom_site_label
 _atom_site_symmetry_multiplicity
 _atom_site_fract_x
 _atom_site_fract_y
 _atom_site_fract_z
 _atom_site_occupancy
  La3+  La0  1  0.15130079  -0.00525774  0.12939662  1
  La3+  La1  1  0.14030456  -0.00263723  0.37052181  1
  La3+  La2  1  0.14331036  0.00191746  0.62951259  1
  La3+  La3  1  0.13948795  0.00422691  0.87175712  1
  La3+  La4  1  0.14379293  0.33147168  0.12523294  1
  La3+  La5  1  0.14327785  0.32837505  0.38007727  1
  La3+  La6  1  0.13696909  0.34187268  0.62424821  1
  La3+  La7  1  0.14602644  0.33570598  0.87399362  1
  La3+  La8  1  0.14677570  0.67359266  0.12342313  1
  La3+  La9  1  0.14716887  0.66454442  0.37442651  1
  La3+  La10  1  0.13828001  0.65655861  0.62598246  1
  La3+  La11  1  0.14859687  0.66328617  0.87543426  1
  La3+  La12  1  0.63679377  0.00560408  0.12133716  1
  La3+  La13  1  0.64363394  0.00236946  0.37103780  1
  La3+  La14  1  0.64021685  0.00562813  0.62814678  1
  La3+  La15  1  0.63757153  -0.00048969  0.86770591  1
  La3+  La16  1  0.63291599  0.33545225  0.12698831  1
  La3+  La17  1  0.62696082  0.33835165  0.38302678  1
  La3+  La18  1  0.64489546  0.33234800  0.63396608  1
  La3+  La19  1  0.64013160  0.33498875  0.87137177  1
  La3+  La20  1  0.63207511  0.66372749  0.12874293  1
  La3+  La21  1  0.63132532  0.66149877  0.37893329  1
  La3+  La22  1  0.64455886  0.65789728  0.61816857  1
  La3+  La23  1  0.63394938  0.66485889  0.87068853  1
  La3+  La24  1  0.35619071  -0.00345785  0.13040934  1
  La3+  La25  1  0.36169280  -0.00299111  0.37415145  1
  La3+  La26  1  0.36010398  -0.00284489  0.62286038  1
  La3+  La27  1  0.34986058  -0.00087842  0.87561199  1
  La3+  La28  1  0.35486557  0.33227654  0.12360396  1
  La3+  La29  1  0.35562305  0.33053462  0.37762160  1
  La3+  La30  1  0.36178780  0.33939341  0.62487843  1
  La3+  La31  1  0.35834904  0.33810571  0.87199775  1
  La3+  La32  1  0.35404540  0.67193797  0.12441762  1
  La3+  La33  1  0.35852899  0.66516066  0.37583977  1
  La3+  La34  1  0.35772795  0.66093400  0.62433806  1
  La3+  La35  1  0.34930928  0.66118446  0.87521836  1
  La3+  La36  1  0.86666858  0.00582320  0.11637755  1
  La3+  La37  1  0.85860534  -0.00483250  0.37876303  1
  La3+  La38  1  0.86347643  0.00315433  0.63052867  1
  La3+  La39  1  0.87091467  0.00384656  0.87186039  1
  La3+  La40  1  0.86230660  0.33551887  0.12676989  1
  La3+  La41  1  0.85749002  0.32156730  0.36785024  1
  La3+  La42  1  0.86850001  0.33580392  0.63477884  1
  La3+  La43  1  0.86443378  0.32919888  0.86208585  1
  La3+  La44  1  0.86398524  0.66722605  0.12706932  1
  La3+  La45  1  0.86191550  0.66514116  0.38046049  1
  La3+  La46  1  0.85736663  0.65615941  0.62120166  1
  La3+  La47  1  0.86528259  0.66621728  0.87085847  1
  La3+  La48  1  0.48825944  0.82400216  0.36308751  1
  La3+  La49  1  0.00367618  0.51055180  0.86977085  1
  La3+  La50  1  0.49920547  0.17509794  0.14681293  1
  La3+  La51  1  0.50201223  0.50083293  0.87708090  1
  La3+  La52  1  -0.00041676  0.83485721  0.64256452  1
  La3+  La53  1  -0.00127513  0.50180043  0.13239717  1
  La3+  La54  1  0.49757544  0.49743502  0.13569584  1
  La3+  La55  1  0.48934914  0.84271977  0.88007507  1
  La3+  La56  1  0.00039688  0.83856412  0.62036459  1
  La3+  La57  1  -0.00034465  0.84123031  0.11034515  1
  La3+  La58  1  -0.00141496  0.50183584  0.85104779  1
  La3+  La59  1  0.00360345  0.50528111  0.39655862  1
  La3+  La60  1  0.00410178  0.15454418  0.11594783  1
  La3+  La61  1  -0.00110963  0.16680527  0.64373013  1
  La3+  La62  1  -0.01222089  0.17804213  0.38260795  1
  La3+  La63  1  0.50006569  0.15975892  0.87620910  1
  La3+  La64  1  -0.00375337  0.16706145  0.12852234  1
  La3+  La65  1  0.49384928  0.83372093  0.89904938  1
  La3+  La66  1  -0.00670986  0.15972215  0.87262895  1
  La3+  La67  1  0.00922957  0.82114092  0.37860686  1
  La3+  La68  1  0.50009725  0.17735431  0.62553298  1
  La3+  La69  1  0.50152159  0.16439717  0.37233154  1
  La3+  La70  1  -0.00539236  0.49786710  0.38054813  1
  La3+  La71  1  0.00515023  0.49867566  0.11299778  1
  La3+  La72  1  0.25048475  0.20039342  0.56013724  1
  La3+  La73  1  0.74946445  0.85956836  0.05110511  1
  La3+  La74  1  0.74794848  0.18631306  0.20213039  1
  La3+  La75  1  0.75090767  0.16764061  0.57208825  1
  La3+  La76  1  0.24990077  0.49832628  0.47204348  1
  La3+  La77  1  0.24974186  0.16698245  -0.01705722  1
  La3+  La78  1  0.74978712  0.88086836  0.68270075  1
  La3+  La79  1  0.25032362  0.76420784  0.75411100  1
  La3+  La80  1  0.25030278  0.16514248  0.20677243  1
  La3+  La81  1  0.75026353  0.18060895  -0.08822615  1
  La3+  La82  1  0.74898178  0.46797124  0.28497873  1
  La3+  La83  1  0.75113410  0.44930840  -0.01890067  1
  Ru4+  Ru84  1  0.00837751  -0.01857372  -0.01058620  1
  Ru4+  Ru85  1  0.00142795  -0.00455052  0.24809992  1
  Ru4+  Ru86  1  0.00059668  0.00080201  0.51476043  1
  Ru4+  Ru87  1  -0.00837292  -0.00283206  0.75483034  1
  Ru4+  Ru88  1  0.00006011  0.33325328  -0.00361566  1
  Ru4+  Ru89  1  -0.00016301  0.33159784  0.24811573  1
  Ru4+  Ru90  1  0.00229628  0.33925388  0.50527305  1
  Ru4+  Ru91  1  0.00675225  0.34216920  0.74308302  1
  Ru4+  Ru92  1  -0.00002936  0.66525840  -0.00202424  1
  Ru4+  Ru93  1  0.00691196  0.67641406  0.25483538  1
  Ru4+  Ru94  1  -0.00013369  0.66796502  0.49637710  1
  Ru4+  Ru95  1  -0.00454122  0.67502268  0.74688626  1
  Ru4+  Ru96  1  0.49802369  0.00877391  0.00631686  1
  Ru4+  Ru97  1  0.50833752  -0.01663110  0.24085142  1
  Ru4+  Ru98  1  0.49743495  -0.01196373  0.51479765  1
  Ru4+  Ru99  1  0.50145694  0.00116382  0.74162986  1
  Ru4+  Ru100  1  0.50207992  0.33525245  -0.01299019  1
  Ru4+  Ru101  1  0.50434497  0.33377073  0.25003639  1
  Ru4+  Ru102  1  0.50487023  0.33997738  0.50731961  1
  Ru4+  Ru103  1  0.49540239  0.33600382  0.75193559  1
  Ru4+  Ru104  1  0.49905060  0.66796128  -0.00559287  1
  Ru4+  Ru105  1  0.48993565  0.67085432  0.24646696  1
  Ru4+  Ru106  1  0.50319534  0.65864178  0.49489483  1
  Ru4+  Ru107  1  0.50074437  0.66230783  0.75838838  1
  Ru4+  Ru108  1  0.11243775  0.16317895  -0.00162899  1
  Ru4+  Ru109  1  0.11232430  0.16153256  0.25078876  1
  Ru4+  Ru110  1  0.11254820  0.16445992  0.49885549  1
  Ru4+  Ru111  1  0.11671295  0.16993540  0.75239997  1
  Ru4+  Ru112  1  0.11042090  0.50316430  0.00340846  1
  Ru4+  Ru113  1  0.11590597  0.50334175  0.24474019  1
  Ru4+  Ru114  1  0.11252616  0.50083701  0.50400806  1
  Ru4+  Ru115  1  0.11391720  0.49190552  0.74721946  1
  Ru4+  Ru116  1  0.10943269  0.83435479  -0.00376531  1
  Ru4+  Ru117  1  0.10979636  0.82386247  0.25053158  1
  Ru4+  Ru118  1  0.11230804  0.83653936  0.50041272  1
  Ru4+  Ru119  1  0.10904975  0.83371123  0.75294298  1
  Ru4+  Ru120  1  0.60784352  0.16244393  -0.00285043  1
  Ru4+  Ru121  1  0.61299871  0.16673706  0.25143626  1
  Ru4+  Ru122  1  0.61099374  0.16263091  0.50018050  1
  Ru4+  Ru123  1  0.61538174  0.16455354  0.75035038  1
  Ru4+  Ru124  1  0.60873886  0.50053884  -0.00033064  1
  Ru4+  Ru125  1  0.61031283  0.49480710  0.25108133  1
  Ru4+  Ru126  1  0.60758385  0.49631529  0.50018490  1
  Ru4+  Ru127  1  0.61289643  0.49779966  0.74988864  1
  Ru4+  Ru128  1  0.61007471  0.83344262  0.00258646  1
  Ru4+  Ru129  1  0.60923191  0.84042106  0.23805075  1
  Ru4+  Ru130  1  0.61303132  0.83882049  0.50517027  1
  Ru4+  Ru131  1  0.60903770  0.82562361  0.74336822  1
  Ru4+  Ru132  1  0.38830843  0.16071695  -0.00561507  1
  Ru4+  Ru133  1  0.39105237  0.16702717  0.25130995  1
  Ru4+  Ru134  1  0.39082834  0.16746285  0.50009243  1
  Ru4+  Ru135  1  0.38685207  0.16704765  0.74853978  1
  Ru4+  Ru136  1  0.38623353  0.50241571  0.00006433  1
  Ru4+  Ru137  1  0.38747235  0.50185607  0.24993630  1
  Ru4+  Ru138  1  0.39184925  0.50430144  0.50169363  1
  Ru4+  Ru139  1  0.38742913  0.49815324  0.74827723  1
  Ru4+  Ru140  1  0.38563495  0.83174895  0.00099154  1
  Ru4+  Ru141  1  0.39046881  0.82793475  0.24772103  1
  Ru4+  Ru142  1  0.38776668  0.83666799  0.50484062  1
  Ru4+  Ru143  1  0.39130611  0.83590772  0.74966224  1
  Ru4+  Ru144  1  0.88651779  0.17331297  0.00110833  1
  Ru4+  Ru145  1  0.88527805  0.16623626  0.25349453  1
  Ru4+  Ru146  1  0.88996838  0.17055194  0.50165895  1
  Ru4+  Ru147  1  0.88181938  0.16640024  0.75166312  1
  Ru4+  Ru148  1  0.89303720  0.50682084  -0.00023999  1
  Ru4+  Ru149  1  0.88765652  0.49996927  0.24608302  1
  Ru4+  Ru150  1  0.88838557  0.49278584  0.50043969  1
  Ru4+  Ru151  1  0.88812275  0.49620542  0.74706671  1
  Ru4+  Ru152  1  0.89263220  0.83094235  -0.00336311  1
  Ru4+  Ru153  1  0.89096165  0.83858393  0.24642580  1
  Ru4+  Ru154  1  0.88352465  0.83517636  0.49809523  1
  Ru4+  Ru155  1  0.89040408  0.82648080  0.75389599  1
  Ru4+  Ru156  1  0.25002863  0.25236817  0.74620524  1
  Ru4+  Ru157  1  0.25004724  0.91114970  0.03118861  1
  Ru4+  Ru158  1  0.75077620  0.90914401  0.24551488  1
  Ru4+  Ru159  1  0.75049426  0.72911769  -0.00049194  1
  Ru4+  Ru160  1  0.74954308  0.75509818  0.49877763  1
  Ru4+  Ru161  1  0.74991384  0.29135673  0.50024618  1
  Ru4+  Ru162  1  0.75020240  0.03203491  0.52557300  1
  Ru4+  Ru163  1  0.24899430  0.74805680  0.50274953  1
  Ru4+  Ru164  1  0.24974562  0.42636954  -0.02594641  1
  Ru4+  Ru165  1  0.75016364  0.43401684  0.49587549  1
  Ru4+  Ru166  1  0.75013858  0.95440451  -0.05809496  1
  Ru4+  Ru167  1  0.25100923  0.58191659  0.22721878  1
  Ru4+  Ru168  1  0.75042515  0.55990768  0.74912110  1
  Ru4+  Ru169  1  0.25036053  0.05811533  0.49721592  1
  Ru4+  Ru170  1  0.25045762  0.93162820  0.74139637  1
  Ru4+  Ru171  1  0.74949831  0.60211097  0.23536343  1
  Ru4+  Ru172  1  0.24992884  0.41903444  0.24913475  1
  Ru4+  Ru173  1  0.75067859  0.74623570  0.73817650  1
  Ru4+  Ru174  1  0.75136072  0.04684278  0.21505778  1
  Ru4+  Ru175  1  0.74810849  0.30850675  0.27310606  1
  Ru4+  Ru176  1  0.74997757  0.58344324  0.02694072  1
  Ru4+  Ru177  1  0.74974268  0.29410754  0.02172339  1
  Ru4+  Ru178  1  0.74958309  0.74124073  0.26045495  1
  Ru4+  Ru179  1  0.75101747  0.06616374  0.02861445  1
  O2-  O180  1  0.16774553  0.08369290  -0.00156648  1
  O2-  O181  1  0.17011070  0.08200348  0.25608151  1
  O2-  O182  1  0.16576589  0.08047387  0.50144379  1
  O2-  O183  1  0.16545295  0.08532379  0.75109963  1
  O2-  O184  1  0.16723249  0.41444511  -0.00046855  1
  O2-  O185  1  0.16529750  0.41429412  0.25035563  1
  O2-  O186  1  0.17161906  0.41299926  0.49583730  1
  O2-  O187  1  0.16767041  0.41461003  0.75227510  1
  O2-  O188  1  0.16354699  0.75201440  -0.00008390  1
  O2-  O189  1  0.16854751  0.74821311  0.25203298  1
  O2-  O190  1  0.16468446  0.74625343  0.49824109  1
  O2-  O191  1  0.15739416  0.74251446  0.74543830  1
  O2-  O192  1  0.66998444  0.08384999  -0.00185578  1
  O2-  O193  1  0.66938988  0.07942879  0.24487472  1
  O2-  O194  1  0.66776050  0.08098585  0.50311899  1
  O2-  O195  1  0.66865150  0.08340690  0.75705522  1
  O2-  O196  1  0.66049440  0.41026205  0.00265526  1
  O2-  O197  1  0.66444068  0.40995165  0.25118508  1
  O2-  O198  1  0.67023029  0.42094145  0.49367362  1
  O2-  O199  1  0.66389132  0.41405373  0.75243549  1
  O2-  O200  1  0.66765332  0.74400771  0.00346100  1
  O2-  O201  1  0.66251230  0.74713809  0.24776913  1
  O2-  O202  1  0.66612635  0.75163408  0.49493822  1
  O2-  O203  1  0.66986338  0.74768437  0.75197528  1
  O2-  O204  1  0.33440168  0.24951861  0.00169130  1
  O2-  O205  1  0.33580938  0.25266993  0.24571887  1
  O2-  O206  1  0.32961836  0.25523698  0.49893742  1
  O2-  O207  1  0.33251624  0.25149487  0.75239457  1
  O2-  O208  1  0.33656123  0.58425181  0.00230637  1
  O2-  O209  1  0.33081632  0.58672418  0.24770712  1
  O2-  O210  1  0.33272983  0.58376722  0.49734417  1
  O2-  O211  1  0.33756258  0.58337348  0.74746488  1
  O2-  O212  1  0.33491880  0.91981378  0.00566394  1
  O2-  O213  1  0.33779201  0.91591413  0.25454683  1
  O2-  O214  1  0.33326566  0.91861329  0.49722466  1
  O2-  O215  1  0.33532225  0.91988562  0.74664230  1
  O2-  O216  1  0.83255634  0.25766391  -0.00317409  1
  O2-  O217  1  0.83031674  0.25339240  0.24391628  1
  O2-  O218  1  0.83422535  0.25656879  0.50453527  1
  O2-  O219  1  0.83367148  0.25530620  0.74893047  1
  O2-  O220  1  0.83544210  0.58596927  0.00405714  1
  O2-  O221  1  0.83229683  0.58862379  0.24904025  1
  O2-  O222  1  0.83414687  0.57924333  0.49526728  1
  O2-  O223  1  0.83396604  0.58319625  0.75320055  1
  O2-  O224  1  0.83506939  0.92030674  -0.00306594  1
  O2-  O225  1  0.83380003  0.91748398  0.25099832  1
  O2-  O226  1  0.83315515  0.91804554  0.50421295  1
  O2-  O227  1  0.83383368  0.91805147  0.75513348  1
  O2-  O228  1  0.16782081  0.25179306  0.00231729  1
  O2-  O229  1  0.16769450  0.24802938  0.24692516  1
  O2-  O230  1  0.17053329  0.25462086  0.50111283  1
  O2-  O231  1  0.16829600  0.25189173  0.75057764  1
  O2-  O232  1  0.16240556  0.58495866  0.00098450  1
  O2-  O233  1  0.17099419  0.58619545  0.24675972  1
  O2-  O234  1  0.16902853  0.58369101  0.49753147  1
  O2-  O235  1  0.15898565  0.58091531  0.74642044  1
  O2-  O236  1  0.16651525  0.91608336  -0.00091666  1
  O2-  O237  1  0.16087595  0.91353761  0.25967200  1
  O2-  O238  1  0.16264440  0.92065358  0.49622196  1
  O2-  O239  1  0.16495243  0.91977475  0.75062539  1
  O2-  O240  1  0.66431718  0.25330105  0.00010295  1
  O2-  O241  1  0.66709219  0.25830201  0.25236195  1
  O2-  O242  1  0.66617610  0.25789850  0.49911608  1
  O2-  O243  1  0.66375687  0.25216527  0.75709307  1
  O2-  O244  1  0.66462367  0.58489070  0.00444043  1
  O2-  O245  1  0.66544717  0.58516290  0.24733331  1
  O2-  O246  1  0.66394188  0.57732494  0.49233309  1
  O2-  O247  1  0.66872030  0.58259984  0.75005869  1
  O2-  O248  1  0.66406082  0.92135687  -0.00137947  1
  O2-  O249  1  0.66790845  0.91786848  0.24746439  1
  O2-  O250  1  0.66984122  0.91430089  0.50996158  1
  O2-  O251  1  0.66299449  0.91571397  0.74902523  1
  O2-  O252  1  0.32945755  0.08633364  0.00542112  1
  O2-  O253  1  0.33466828  0.08030573  0.25063723  1
  O2-  O254  1  0.33496432  0.08020935  0.50080785  1
  O2-  O255  1  0.33632103  0.08430608  0.74828176  1
  O2-  O256  1  0.33116199  0.41536184  -0.00003923  1
  O2-  O257  1  0.33534861  0.41521409  0.24773280  1
  O2-  O258  1  0.33537214  0.41544100  0.49770945  1
  O2-  O259  1  0.33353041  0.41593688  0.74871383  1
  O2-  O260  1  0.33782217  0.74729635  -0.00008276  1
  O2-  O261  1  0.33319104  0.75032608  0.24920571  1
  O2-  O262  1  0.32926380  0.74763589  0.49388426  1
  O2-  O263  1  0.34589642  0.74292330  0.74689839  1
  O2-  O264  1  0.83299392  0.08172851  -0.00672895  1
  O2-  O265  1  0.83385107  0.07557731  0.24749040  1
  O2-  O266  1  0.83455861  0.07738481  0.50149479  1
  O2-  O267  1  0.83257648  0.08123235  0.75529626  1
  O2-  O268  1  0.84176751  0.40874227  0.00236362  1
  O2-  O269  1  0.83310807  0.41291435  0.24810100  1
  O2-  O270  1  0.82769473  0.41652890  0.51097674  1
  O2-  O271  1  0.83380604  0.41243515  0.75166072  1
  O2-  O272  1  0.83561748  0.74337037  -0.00084638  1
  O2-  O273  1  0.83702506  0.74826802  0.24893000  1
  O2-  O274  1  0.83248953  0.74810817  0.49880685  1
  O2-  O275  1  0.83468445  0.74461199  0.75223090  1
  O2-  O276  1  0.54300417  0.90395780  0.01034019  1
  O2-  O277  1  0.44972023  0.56550004  0.26426018  1
  O2-  O278  1  0.52427177  0.44778038  0.49872436  1
  O2-  O279  1  0.04950815  0.09881400  0.76139120  1
  O2-  O280  1  0.95422251  0.09391407  0.00703312  1
  O2-  O281  1  0.95567773  0.78133344  0.80556443  1
  O2-  O282  1  0.46548323  0.76961901  0.51268459  1
  O2-  O283  1  0.55084948  0.42561296  0.01331376  1
  O2-  O284  1  0.44342089  0.91243125  0.49283488  1
  O2-  O285  1  0.96717765  0.44537956  0.53128391  1
  O2-  O286  1  0.44523185  0.91191436  0.50649392  1
  O2-  O287  1  0.54815492  0.58844288  0.22885119  1
  O2-  O288  1  0.95038240  0.75518821  0.98659025  1
  O2-  O289  1  0.45052810  0.43444724  0.99551984  1
  O2-  O290  1  0.04582823  0.23524295  0.00024729  1
  O2-  O291  1  0.44642293  0.90973216  0.23748005  1
  O2-  O292  1  0.04467739  0.10698184  0.30312636  1
  O2-  O293  1  0.05060389  0.75305162  0.19490295  1
  O2-  O294  1  0.95249086  0.89093309  0.30389661  1
  O2-  O295  1  0.54248531  0.22566511  0.49127107  1
  O2-  O296  1  0.05203979  0.75279734  0.75965970  1
  O2-  O297  1  0.45106305  0.57142596  0.50647057  1
  O2-  O298  1  0.45589542  0.56494497  0.76440228  1
  O2-  O299  1  0.55119699  0.10515597  0.06377775  1
  O2-  O300  1  0.55294251  0.57368234  0.26367221  1
  O2-  O301  1  0.95223485  0.23374491  0.76431634  1
  O2-  O302  1  0.47035167  0.77490948  0.20726905  1
  O2-  O303  1  0.04952757  0.56608661  0.73490498  1
  O2-  O304  1  0.04479309  0.90798939  0.75971366  1
  O2-  O305  1  0.05044540  0.24027980  0.47961355  1
  O2-  O306  1  0.96560013  0.45489107  0.53112862  1
  O2-  O307  1  0.04832667  0.43029943  0.26032529  1
  O2-  O308  1  0.95716795  0.10502574  0.50789367  1
  O2-  O309  1  0.54505336  0.57297495  0.02052867  1
  O2-  O310  1  0.04998464  0.90682787  0.23921827  1
  O2-  O311  1  0.45468877  0.12790247  0.03784658  1
  O2-  O312  1  0.53640549  0.45454192  0.46549037  1
  O2-  O313  1  0.94832144  0.09244907  0.23761332  1
  O2-  O314  1  0.53311013  0.78472944  0.77738156  1
  O2-  O315  1  0.55807762  0.90249814  0.30292037  1
  O2-  O316  1  0.54457750  0.23704780  0.98589512  1
  O2-  O317  1  0.45454772  0.10398468  0.74419813  1
  O2-  O318  1  0.94294417  0.91484074  0.01397213  1
  O2-  O319  1  0.55462433  0.75560431  0.46278373  1
  O2-  O320  1  0.54621031  0.43131134  0.25642668  1
  O2-  O321  1  0.53703920  0.88669143  0.47367878  1
  O2-  O322  1  0.95517708  0.42944871  0.98671486  1
  O2-  O323  1  0.04191901  0.88234677  0.94596792  1
  O2-  O324  1  0.06884676  0.40836264  0.51622471  1
  O2-  O325  1  0.06033350  0.40032685  0.83332723  1
  O2-  O326  1  0.90700485  0.39073753  0.44235741  1
  O2-  O327  1  0.58769859  0.37013490  0.53858671  1
  O2-  O328  1  0.55472904  0.90978445  0.29965170  1
  O2-  O329  1  0.07085442  0.72576751  0.34408920  1
  O2-  O330  1  0.05970841  0.59828814  0.52831588  1
  O2-  O331  1  0.93669608  0.25531336  0.26986778  1
  O2-  O332  1  0.43703527  0.41052827  0.78015437  1
  O2-  O333  1  0.56597001  0.25703281  0.22768132  1
  O2-  O334  1  0.05808843  0.59990589  0.73152754  1
  O2-  O335  1  0.57223698  0.74108456  0.55023962  1
  O2-  O336  1  0.43061896  0.05056827  0.93041670  1
  O2-  O337  1  0.42608579  0.71868975  0.31115120  1
  O2-  O338  1  0.58509703  0.72983848  0.69183002  1
  O2-  O339  1  0.58324391  0.92963549  0.44093787  1
  O2-  O340  1  0.05705933  0.75327682  0.19275761  1
  O2-  O341  1  0.41960947  0.72055552  0.52278888  1
  O2-  O342  1  0.05885144  0.25067953  0.46836595  1
  O2-  O343  1  0.06469653  0.42131591  0.68655539  1
  O2-  O344  1  0.57455391  0.06766913  0.93732240  1
  O2-  O345  1  0.93805521  0.92241309  0.52022587  1
  O2-  O346  1  0.56486148  0.74366464  0.98530703  1
  O2-  O347  1  0.94020966  0.58778849  0.72459893  1
  O2-  O348  1  0.93847837  0.74984430  0.47947714  1
  O2-  O349  1  0.93426215  0.59214782  0.47274064  1
  O2-  O350  1  0.06227451  0.25564628  0.22453855  1
  O2-  O351  1  0.56053399  0.08113553  0.27131056  1
  O2-  O352  1  0.56555053  0.94447327  0.59611352  1
  O2-  O353  1  0.93886610  0.40638020  0.71993684  1
  O2-  O354  1  0.93762964  0.40757558  0.21297849  1
  O2-  O355  1  0.56590648  0.58091775  0.77275139  1
  O2-  O356  1  0.93436916  0.91953426  0.72213239  1
  O2-  O357  1  0.93067356  0.73248665  0.67378047  1
  O2-  O358  1  0.93744783  0.59090316  0.26839373  1
  O2-  O359  1  0.06172513  0.07198739  0.77967015  1
  O2-  O360  1  0.93519038  0.94545680  0.18057820  1
  O2-  O361  1  0.06431651  0.73082758  0.97057414  1
  O2-  O362  1  0.06959458  0.94559160  0.06511471  1
  O2-  O363  1  0.43926182  0.25730236  0.51422055  1
  O2-  O364  1  0.94287143  0.07868183  0.03806553  1
  O2-  O365  1  0.56459129  0.94340145  0.15942759  1
  O2-  O366  1  0.93996376  0.26283262  0.77709378  1
  O2-  O367  1  0.56780816  0.59638930  0.47557843  1
  O2-  O368  1  0.06190102  0.59088057  0.21048614  1
  O2-  O369  1  0.56164826  0.07718288  0.77006571  1
  O2-  O370  1  0.06813506  0.05798259  0.17626878  1
  O2-  O371  1  0.93767016  0.08412006  0.77752874  1
  O2-  O372  1  0.24992872  0.32792589  0.90519802  1
  O2-  O373  1  0.74916195  0.34920595  0.38977603  1
  O2-  O374  1  0.75087755  0.00619963  0.64772855  1
  O2-  O375  1  0.24824980  0.67003698  0.85089745  1
  O2-  O376  1  0.25050667  0.32851420  0.17034832  1
  O2-  O377  1  0.25016189  0.65081895  0.12501402  1
  O2-  O378  1  0.74970605  0.33432420  0.14525908  1
  O2-  O379  1  0.24971694  0.32374487  0.65170747  1
  O2-  O380  1  0.25115901  0.00825156  0.64139885  1
  O2-  O381  1  0.24942177  0.67262059  0.59929508  1
  O2-  O382  1  0.75025719  0.66551926  0.35588107  1
  O2-  O383  1  0.75033986  -0.02915434  0.43669412  1
  O2-  O384  1  0.25230825  0.00727435  0.13312340  1
  O2-  O385  1  0.75032020  0.65008861  0.67057227  1
  O2-  O386  1  0.75078893  -0.00209471  0.32150949  1
  O2-  O387  1  0.75123497  0.64353951  0.92358993  1
  O2-  O388  1  0.74959749  0.66312513  0.54985553  1
  O2-  O389  1  0.24895866  0.01311487  0.81779298  1
  O2-  O390  1  0.74977808  0.66619422  0.12215263  1
  O2-  O391  1  0.75123156  0.32722774  0.89528084  1
  O2-  O392  1  0.25008023  0.33194996  0.07722367  1
  O2-  O393  1  0.75039060  0.65773671  0.80844943  1
  O2-  O394  1  0.25057419  -0.00153694  0.95055864  1
  O2-  O395  1  0.25031688  0.34104746  0.34626399  1
  O2-  O396  1  0.25053016  0.49847694  0.61055329  1
  O2-  O397  1  0.24988551  0.85076880  0.12549540  1
  O2-  O398  1  0.24926907  0.84291108  0.55078523  1
  O2-  O399  1  0.75072387  0.16696034  0.33987063  1
  O2-  O400  1  0.74871077  0.50879488  0.57986024  1
  O2-  O401  1  0.25004468  0.48423290  0.87947142  1
  O2-  O402  1  0.74994255  0.83195600  0.90804295  1
  O2-  O403  1  0.24974835  0.85273615  0.64172879  1
  O2-  O404  1  0.75001200  0.83318429  0.81698867  1
  O2-  O405  1  0.75021544  0.16472898  0.42728185  1
  O2-  O406  1  0.25034539  0.50794026  0.32789769  1
  O2-  O407  1  0.25097770  0.16466614  0.33879223  1
  O2-  O408  1  0.74903157  0.17334778  0.69600733  1
  O2-  O409  1  0.74989322  0.48037156  0.66470609  1
  O2-  O410  1  0.25022465  0.15063890  0.42543445  1
  O2-  O411  1  0.75033708  0.17701064  0.06408262  1
  O2-  O412  1  0.25060193  0.85838222  0.85722934  1
  O2-  O413  1  0.75081075  0.81667790  0.17494161  1
  O2-  O414  1  0.75022197  0.51385105  0.13530357  1
  O2-  O415  1  0.25164944  0.83018809  0.94436019  1
  O2-  O416  1  0.75043351  0.83676747  0.42161011  1
  O2-  O417  1  0.74989719  0.50190800  0.84871771  1
  O2-  O418  1  0.74979659  0.83074476  0.33438486  1
  O2-  O419  1  0.25052526  0.50118254  0.69291105  1
  O2-  O420  1  0.05177867  -0.00379008  0.61286215  1
  O2-  O421  1  0.46198611  0.00953093  0.35939264  1
  O2-  O422  1  0.97946258  0.67306349  0.37140101  1
  O2-  O423  1  0.51852891  0.01970691  0.39394486  1
  O2-  O424  1  0.47022827  0.00604991  0.12491740  1
  O2-  O425  1  0.51665669  0.33578781  0.12043010  1
  O2-  O426  1  0.54575576  0.31076063  0.66225208  1
  O2-  O427  1  0.96173180  0.01870993  0.63196023  1
  O2-  O428  1  0.52228962  0.64360957  0.62450631  1
  O2-  O429  1  0.45644404  0.34229512  0.63186060  1
  O2-  O430  1  0.01883382  0.30597124  0.62531441  1
  O2-  O431  1  0.45525513  0.30698451  0.88618764  1
  O2-  O432  1  0.52259826  0.31976234  0.37425505  1
  O2-  O433  1  0.44832500  0.67682088  0.88112358  1
  O2-  O434  1  0.47197576  0.00738526  0.62955925  1
  O2-  O435  1  0.54659664  0.34291630  0.85929301  1
  O2-  O436  1  0.51689500  -0.02363016  0.86700601  1
  O2-  O437  1  0.46986775  0.65701261  0.11544011  1
  O2-  O438  1  0.97352136  -0.00190850  0.87966914  1
  O2-  O439  1  0.46735557  0.66728951  0.64135467  1
  O2-  O440  1  0.98563088  0.33596803  0.37457430  1
  O2-  O441  1  0.02546400  0.34867986  0.12159836  1
  O2-  O442  1  0.53930242  0.66219754  0.87722020  1
  O2-  O443  1  0.51982091  0.67346900  0.36502626  1
