# generated using pymatgen
data_La7(Ru4O11)2
_symmetry_space_group_name_H-M   'P 1'
_cell_length_a   23.99135470
_cell_length_b   16.83285608
_cell_length_c   15.42897383
_cell_angle_alpha   90.00042360
_cell_angle_beta   90.00107200
_cell_angle_gamma   90.00056768
_symmetry_Int_Tables_number   1
_chemical_formula_structural   La7(Ru4O11)2
_chemical_formula_sum   'La84 Ru96 O264'
_cell_volume   6230.88339818
_cell_formula_units_Z   12
loop_
 _symmetry_equiv_pos_site_id
 _symmetry_equiv_pos_as_xyz
  1  'x, y, z'
loop_
 _atom_type_symbol
 _atom_type_oxidation_number
  La3+  3.0
  Ru4+  4.0
  O2-  -2.0
loop_
 _atom_site_type_symbol
 _atom_site_label
 _atom_site_symmetry_multiplicity
 _atom_site_fract_x
 _atom_site_fract_y
 _atom_site_fract_z
 _atom_site_occupancy
  La3+  La0  1  0.13043023  -0.00263512  0.12093256  1
  La3+  La1  1  0.13881565  -0.00073064  0.37996157  1
  La3+  La2  1  0.14300194  0.00117740  0.62657150  1
  La3+  La3  1  0.13350720  0.00058936  0.87432661  1
  La3+  La4  1  0.13506377  0.33204202  0.12281786  1
  La3+  La5  1  0.13525900  0.33405325  0.38242209  1
  La3+  La6  1  0.14239861  0.33496229  0.62406264  1
  La3+  La7  1  0.14404831  0.33361186  0.87191828  1
  La3+  La8  1  0.13341041  0.66480395  0.12331149  1
  La3+  La9  1  0.13772285  0.66526657  0.38389328  1
  La3+  La10  1  0.13683261  0.66228227  0.62514011  1
  La3+  La11  1  0.14043542  0.66526799  0.86943092  1
  La3+  La12  1  0.64375342  -0.00167110  0.12658744  1
  La3+  La13  1  0.63922138  0.00169431  0.37387346  1
  La3+  La14  1  0.63903160  0.00216977  0.62059843  1
  La3+  La15  1  0.63881807  -0.00179361  0.87602136  1
  La3+  La16  1  0.63632340  0.33412784  0.12939889  1
  La3+  La17  1  0.63907357  0.33102259  0.37717621  1
  La3+  La18  1  0.63941557  0.33232569  0.62019432  1
  La3+  La19  1  0.63948746  0.33502458  0.87439206  1
  La3+  La20  1  0.64229401  0.67261716  0.12649412  1
  La3+  La21  1  0.64214795  0.66344769  0.37207741  1
  La3+  La22  1  0.64521470  0.66569882  0.62807907  1
  La3+  La23  1  0.65059934  0.66641803  0.87261235  1
  La3+  La24  1  0.36834272  0.00018315  0.12470088  1
  La3+  La25  1  0.35188957  -0.00765207  0.37978589  1
  La3+  La26  1  0.37116407  -0.00728678  0.63159384  1
  La3+  La27  1  0.36663157  -0.01052506  0.86721094  1
  La3+  La28  1  0.36468057  0.32931656  0.12364625  1
  La3+  La29  1  0.36297384  0.33274340  0.37853186  1
  La3+  La30  1  0.35588164  0.33654989  0.62617253  1
  La3+  La31  1  0.35686393  0.33646560  0.87237142  1
  La3+  La32  1  0.36030127  0.67025791  0.12394973  1
  La3+  La33  1  0.36206118  0.66581425  0.38291142  1
  La3+  La34  1  0.35876490  0.66982298  0.63304147  1
  La3+  La35  1  0.36165389  0.66641514  0.86889926  1
  La3+  La36  1  0.85697345  -0.00469846  0.13102523  1
  La3+  La37  1  0.86172752  0.00293039  0.37012946  1
  La3+  La38  1  0.86228314  0.00272055  0.61864160  1
  La3+  La39  1  0.86090652  -0.00050133  0.87619958  1
  La3+  La40  1  0.86272902  0.33295100  0.12653153  1
  La3+  La41  1  0.86058276  0.33229456  0.37828976  1
  La3+  La42  1  0.85979212  0.33060795  0.62042528  1
  La3+  La43  1  0.86078982  0.33346024  0.87572368  1
  La3+  La44  1  0.85842194  0.67131788  0.12164622  1
  La3+  La45  1  0.86055479  0.66813987  0.36983183  1
  La3+  La46  1  0.85459942  0.66627170  0.63093709  1
  La3+  La47  1  0.84932648  0.66805350  0.87539854  1
  La3+  La48  1  0.49814605  0.16688270  0.38932671  1
  La3+  La49  1  -0.00016669  0.83063931  0.12248845  1
  La3+  La50  1  0.50573751  0.49663417  0.87412618  1
  La3+  La51  1  0.50068005  0.49454045  0.38375471  1
  La3+  La52  1  -0.00141993  0.16809445  0.38731486  1
  La3+  La53  1  0.49844866  0.50195156  0.11637326  1
  La3+  La54  1  -0.00176181  0.50019169  0.88565086  1
  La3+  La55  1  0.49404300  0.83212277  0.87757582  1
  La3+  La56  1  0.50101471  0.82950995  0.64362190  1
  La3+  La57  1  0.00382308  0.50578386  0.86597576  1
  La3+  La58  1  0.50157420  0.50080328  0.36858983  1
  La3+  La59  1  0.50189194  0.83206577  0.37002053  1
  La3+  La60  1  0.49850035  0.16797595  0.87697102  1
  La3+  La61  1  0.00827718  0.17754072  0.86443272  1
  La3+  La62  1  -0.00089033  0.16475041  0.11798447  1
  La3+  La63  1  0.00624255  0.83827866  0.62370938  1
  La3+  La64  1  0.49600472  0.83045674  0.86070660  1
  La3+  La65  1  -0.00197784  0.82490516  0.87172803  1
  La3+  La66  1  0.50380530  0.17877176  0.12035359  1
  La3+  La67  1  0.50018266  0.17240604  0.13454784  1
  La3+  La68  1  0.00755933  0.49408181  0.62388732  1
  La3+  La69  1  0.49992395  0.16327186  0.85509594  1
  La3+  La70  1  0.48999825  0.84398516  0.12532004  1
  La3+  La71  1  -0.00127886  0.50211941  0.37128957  1
  La3+  La72  1  0.25080009  0.50690319  0.19528954  1
  La3+  La73  1  0.75048250  0.12400882  -0.00229901  1
  La3+  La74  1  0.24946955  0.11453648  0.01406299  1
  La3+  La75  1  0.75037375  0.80122558  0.51080242  1
  La3+  La76  1  0.25115138  0.82914523  -0.05928382  1
  La3+  La77  1  0.25060709  0.49455467  0.70043694  1
  La3+  La78  1  0.74950565  0.55027559  0.04525795  1
  La3+  La79  1  0.24996253  0.49770150  0.02822096  1
  La3+  La80  1  0.75021999  0.15432152  0.70565454  1
  La3+  La81  1  0.24765545  0.10333241  0.22944779  1
  La3+  La82  1  0.24984166  0.84725009  0.34341628  1
  La3+  La83  1  0.25057684  0.17460927  0.69402931  1
  Ru4+  Ru84  1  -0.00463143  0.00819810  0.00550421  1
  Ru4+  Ru85  1  -0.00120139  -0.00004766  0.25193421  1
  Ru4+  Ru86  1  -0.00219142  0.00137891  0.50124903  1
  Ru4+  Ru87  1  0.00066631  0.00130436  0.74562288  1
  Ru4+  Ru88  1  0.00224794  0.33267728  0.00432267  1
  Ru4+  Ru89  1  0.00229152  0.33284695  0.24536047  1
  Ru4+  Ru90  1  0.00061189  0.33794366  0.49945609  1
  Ru4+  Ru91  1  0.00323859  0.32757013  0.74523731  1
  Ru4+  Ru92  1  -0.00011105  0.66001016  0.00691088  1
  Ru4+  Ru93  1  0.00107266  0.66270671  0.25172328  1
  Ru4+  Ru94  1  -0.00179205  0.66395564  0.49840498  1
  Ru4+  Ru95  1  -0.00410949  0.67399958  0.75138407  1
  Ru4+  Ru96  1  0.49901751  -0.00382089  -0.00069667  1
  Ru4+  Ru97  1  0.50160004  0.00220422  0.24439554  1
  Ru4+  Ru98  1  0.50024615  0.00450994  0.51155111  1
  Ru4+  Ru99  1  0.49610303  0.00149665  0.74366023  1
  Ru4+  Ru100  1  0.49907241  0.33996959  -0.00176486  1
  Ru4+  Ru101  1  0.50475353  0.33883609  0.25322622  1
  Ru4+  Ru102  1  0.49890017  0.33266348  0.49695012  1
  Ru4+  Ru103  1  0.49839979  0.33519550  0.74789748  1
  Ru4+  Ru104  1  0.49227605  0.66075195  0.00348166  1
  Ru4+  Ru105  1  0.50348018  0.67108516  0.24360400  1
  Ru4+  Ru106  1  0.50337305  0.66891069  0.49744366  1
  Ru4+  Ru107  1  0.50236481  0.65564207  0.75107156  1
  Ru4+  Ru108  1  0.10775027  0.16791910  -0.00029018  1
  Ru4+  Ru109  1  0.10885128  0.16665596  0.24900376  1
  Ru4+  Ru110  1  0.11299240  0.16342132  0.50144064  1
  Ru4+  Ru111  1  0.11166700  0.16456513  0.75302285  1
  Ru4+  Ru112  1  0.11208930  0.49930308  0.00424829  1
  Ru4+  Ru113  1  0.10813151  0.50233114  0.24836031  1
  Ru4+  Ru114  1  0.11816780  0.49911350  0.49697422  1
  Ru4+  Ru115  1  0.11629168  0.49521303  0.74881104  1
  Ru4+  Ru116  1  0.11362273  0.82719345  0.00012900  1
  Ru4+  Ru117  1  0.10810735  0.83290110  0.25237723  1
  Ru4+  Ru118  1  0.11695663  0.83202769  0.50001460  1
  Ru4+  Ru119  1  0.11399571  0.82823227  0.74918543  1
  Ru4+  Ru120  1  0.61320495  0.16287878  0.00299498  1
  Ru4+  Ru121  1  0.61016501  0.16550886  0.24934434  1
  Ru4+  Ru122  1  0.61406604  0.16517555  0.50126411  1
  Ru4+  Ru123  1  0.60927795  0.16380068  0.74816128  1
  Ru4+  Ru124  1  0.61072266  0.49805932  -0.00084251  1
  Ru4+  Ru125  1  0.61543053  0.50316374  0.25071157  1
  Ru4+  Ru126  1  0.61256729  0.50372378  0.50340756  1
  Ru4+  Ru127  1  0.61313649  0.50213450  0.75017205  1
  Ru4+  Ru128  1  0.61233303  0.82622471  -0.00149042  1
  Ru4+  Ru129  1  0.61302057  0.82561399  0.25647729  1
  Ru4+  Ru130  1  0.60842066  0.83070093  0.49811048  1
  Ru4+  Ru131  1  0.60990570  0.83096119  0.74960927  1
  Ru4+  Ru132  1  0.38688532  0.16710409  -0.00073753  1
  Ru4+  Ru133  1  0.38748983  0.15977449  0.25121046  1
  Ru4+  Ru134  1  0.39174579  0.16090909  0.50745298  1
  Ru4+  Ru135  1  0.39073280  0.16232654  0.74709111  1
  Ru4+  Ru136  1  0.38918806  0.50264865  0.00296451  1
  Ru4+  Ru137  1  0.39072979  0.49622073  0.25097216  1
  Ru4+  Ru138  1  0.38397829  0.50232948  0.50497055  1
  Ru4+  Ru139  1  0.39219398  0.50268697  0.74768012  1
  Ru4+  Ru140  1  0.39045102  0.83210213  -0.00410957  1
  Ru4+  Ru141  1  0.39028525  0.83032046  0.25105882  1
  Ru4+  Ru142  1  0.38709101  0.83642606  0.50293140  1
  Ru4+  Ru143  1  0.38343859  0.83815640  0.74955893  1
  Ru4+  Ru144  1  0.89094459  0.16277776  0.00419376  1
  Ru4+  Ru145  1  0.88834980  0.16456324  0.24826040  1
  Ru4+  Ru146  1  0.88494511  0.16350364  0.50122847  1
  Ru4+  Ru147  1  0.89243668  0.16494646  0.74851346  1
  Ru4+  Ru148  1  0.89198961  0.50717376  0.00264182  1
  Ru4+  Ru149  1  0.88746106  0.50299112  0.24989369  1
  Ru4+  Ru150  1  0.88623918  0.50206433  0.49586452  1
  Ru4+  Ru151  1  0.88456066  0.50199512  0.74749485  1
  Ru4+  Ru152  1  0.88130559  0.83511883  -0.00096710  1
  Ru4+  Ru153  1  0.88490918  0.83510801  0.25100988  1
  Ru4+  Ru154  1  0.88576341  0.83035207  0.49836866  1
  Ru4+  Ru155  1  0.88848159  0.82817828  0.75146153  1
  Ru4+  Ru156  1  0.74975540  0.90028367  -0.00004555  1
  Ru4+  Ru157  1  0.24928221  0.95135067  0.22827534  1
  Ru4+  Ru158  1  0.25021077  0.71013332  0.02169970  1
  Ru4+  Ru159  1  0.24987044  0.95931584  -0.00702844  1
  Ru4+  Ru160  1  0.74975662  0.26159436  0.02781911  1
  Ru4+  Ru161  1  0.74961083  0.24142842  0.24979583  1
  Ru4+  Ru162  1  0.75012663  0.27825064  0.74838399  1
  Ru4+  Ru163  1  0.25041312  0.25285601  0.52045764  1
  Ru4+  Ru164  1  0.75048408  0.41716900  0.25463291  1
  Ru4+  Ru165  1  0.74926702  0.09259492  0.24758885  1
  Ru4+  Ru166  1  0.74959774  0.94475652  0.49421839  1
  Ru4+  Ru167  1  0.24949567  0.27474227  -0.02233342  1
  Ru4+  Ru168  1  0.75048459  0.02044730  0.73862467  1
  Ru4+  Ru169  1  0.24855520  0.91779791  0.73873521  1
  Ru4+  Ru170  1  0.24997673  0.24716484  0.24822250  1
  Ru4+  Ru171  1  0.25047601  0.07896473  0.50935748  1
  Ru4+  Ru172  1  0.24927969  0.39780911  0.27397929  1
  Ru4+  Ru173  1  0.74942818  0.43228368  0.73005259  1
  Ru4+  Ru174  1  0.75060604  0.58545386  0.51413586  1
  Ru4+  Ru175  1  0.25003333  0.60864379  0.28625191  1
  Ru4+  Ru176  1  0.74979897  0.42282611  0.49797394  1
  Ru4+  Ru177  1  0.74974549  0.89140671  0.75615605  1
  Ru4+  Ru178  1  0.24931711  0.74064609  0.23584032  1
  Ru4+  Ru179  1  0.75036674  0.40984781  0.00982054  1
  O2-  O180  1  0.15775528  0.07503859  -0.00282382  1
  O2-  O181  1  0.15608235  0.07552987  0.25143415  1
  O2-  O182  1  0.16657298  0.08037922  0.49897071  1
  O2-  O183  1  0.16942594  0.07977023  0.74920528  1
  O2-  O184  1  0.16477391  0.41601613  0.00038811  1
  O2-  O185  1  0.16311635  0.41118766  0.25125735  1
  O2-  O186  1  0.16596595  0.41471698  0.50047874  1
  O2-  O187  1  0.16650449  0.41209020  0.75004230  1
  O2-  O188  1  0.16810244  0.74572413  0.00214022  1
  O2-  O189  1  0.16504035  0.74602269  0.24951667  1
  O2-  O190  1  0.16624251  0.74750896  0.49745804  1
  O2-  O191  1  0.16827817  0.74870623  0.74860078  1
  O2-  O192  1  0.66430902  0.07567128  -0.00297605  1
  O2-  O193  1  0.66683928  0.08069312  0.25017755  1
  O2-  O194  1  0.66476994  0.08046432  0.49811011  1
  O2-  O195  1  0.66425699  0.07727528  0.74927648  1
  O2-  O196  1  0.66577196  0.41216487  0.00168465  1
  O2-  O197  1  0.66989392  0.41469136  0.25046361  1
  O2-  O198  1  0.66810225  0.41365844  0.50061215  1
  O2-  O199  1  0.66461010  0.41405282  0.74751715  1
  O2-  O200  1  0.66787947  0.75092330  0.00379469  1
  O2-  O201  1  0.67002716  0.74869855  0.25008584  1
  O2-  O202  1  0.66687184  0.74514864  0.50054294  1
  O2-  O203  1  0.66170301  0.75061871  0.74866705  1
  O2-  O204  1  0.33200075  0.25403081  -0.00092059  1
  O2-  O205  1  0.33685200  0.25124533  0.25010291  1
  O2-  O206  1  0.33618120  0.25037772  0.50258857  1
  O2-  O207  1  0.33622653  0.24855106  0.74718677  1
  O2-  O208  1  0.33049663  0.58423997  0.00373610  1
  O2-  O209  1  0.33465468  0.58936819  0.25246537  1
  O2-  O210  1  0.33254754  0.58506439  0.49713394  1
  O2-  O211  1  0.33200107  0.58323927  0.74705757  1
  O2-  O212  1  0.33016595  0.92252644  0.00059379  1
  O2-  O213  1  0.33267206  0.92097003  0.24618479  1
  O2-  O214  1  0.32967722  0.91574033  0.50464225  1
  O2-  O215  1  0.33014400  0.92145345  0.74657096  1
  O2-  O216  1  0.83483660  0.25121369  0.00147155  1
  O2-  O217  1  0.83399269  0.25319918  0.25066931  1
  O2-  O218  1  0.83738914  0.25468995  0.49796814  1
  O2-  O219  1  0.83550944  0.25699838  0.75007130  1
  O2-  O220  1  0.83428625  0.58712727  -0.00077179  1
  O2-  O221  1  0.83395694  0.58383989  0.25081424  1
  O2-  O222  1  0.83048390  0.58617794  0.50170096  1
  O2-  O223  1  0.83496830  0.58296845  0.74822870  1
  O2-  O224  1  0.83248740  0.92096227  -0.00298230  1
  O2-  O225  1  0.83019455  0.91791856  0.25526643  1
  O2-  O226  1  0.82866524  0.91954406  0.49964879  1
  O2-  O227  1  0.83418859  0.91718893  0.75066959  1
  O2-  O228  1  0.16583781  0.25434344  -0.00112105  1
  O2-  O229  1  0.16629562  0.25354001  0.24956871  1
  O2-  O230  1  0.16614207  0.25199931  0.50362736  1
  O2-  O231  1  0.16298818  0.25056399  0.74738861  1
  O2-  O232  1  0.16705670  0.58526163  0.00431489  1
  O2-  O233  1  0.16748993  0.58957055  0.25183871  1
  O2-  O234  1  0.16830192  0.58639374  0.49635101  1
  O2-  O235  1  0.16813287  0.58515322  0.74656051  1
  O2-  O236  1  0.16580086  0.92165783  0.00042925  1
  O2-  O237  1  0.16536588  0.92090342  0.24951851  1
  O2-  O238  1  0.17038526  0.91536049  0.49298466  1
  O2-  O239  1  0.16472150  0.92071031  0.75049232  1
  O2-  O240  1  0.66462957  0.25398850  0.00047899  1
  O2-  O241  1  0.66734012  0.25360023  0.24905558  1
  O2-  O242  1  0.66299909  0.25361636  0.49924737  1
  O2-  O243  1  0.66514260  0.25819151  0.74979937  1
  O2-  O244  1  0.66289775  0.58713748  -0.00082466  1
  O2-  O245  1  0.66864914  0.58391203  0.24802954  1
  O2-  O246  1  0.66877697  0.58561860  0.50089177  1
  O2-  O247  1  0.66279689  0.58264434  0.74756818  1
  O2-  O248  1  0.66526885  0.91814780  -0.00080763  1
  O2-  O249  1  0.66254636  0.91689299  0.25227076  1
  O2-  O250  1  0.66610029  0.91926810  0.50034914  1
  O2-  O251  1  0.66661496  0.91990051  0.74979495  1
  O2-  O252  1  0.33889541  0.07599000  -0.00207411  1
  O2-  O253  1  0.33616686  0.07582113  0.24797343  1
  O2-  O254  1  0.33198988  0.08106909  0.50490208  1
  O2-  O255  1  0.33139178  0.07961054  0.74455100  1
  O2-  O256  1  0.33340945  0.41776883  0.00117548  1
  O2-  O257  1  0.33486195  0.41104330  0.25030408  1
  O2-  O258  1  0.33668345  0.41543080  0.49930751  1
  O2-  O259  1  0.33666376  0.41596312  0.74918838  1
  O2-  O260  1  0.33440601  0.74476535  -0.00120545  1
  O2-  O261  1  0.33384526  0.74823598  0.25196414  1
  O2-  O262  1  0.33614346  0.74970448  0.49794615  1
  O2-  O263  1  0.33475246  0.74964104  0.74685028  1
  O2-  O264  1  0.83662546  0.07750070  -0.00647050  1
  O2-  O265  1  0.83107752  0.08369410  0.25081701  1
  O2-  O266  1  0.83340981  0.08166158  0.49657006  1
  O2-  O267  1  0.83667060  0.07870656  0.75008615  1
  O2-  O268  1  0.83627932  0.41291414  0.00284078  1
  O2-  O269  1  0.83262212  0.41520276  0.25152071  1
  O2-  O270  1  0.83259309  0.41410325  0.50052356  1
  O2-  O271  1  0.83364657  0.41297395  0.74824869  1
  O2-  O272  1  0.83473441  0.75129182  0.00047312  1
  O2-  O273  1  0.83604080  0.74940624  0.25159411  1
  O2-  O274  1  0.83528422  0.74407368  0.49906485  1
  O2-  O275  1  0.83357728  0.75219646  0.74664555  1
  O2-  O276  1  0.45794086  0.90102895  0.75633359  1
  O2-  O277  1  0.95426176  0.23533619  0.23508733  1
  O2-  O278  1  0.45283077  0.42434986  0.50410928  1
  O2-  O279  1  0.95510661  0.56141332  0.24333600  1
  O2-  O280  1  0.45781946  0.56494946  0.24406000  1
  O2-  O281  1  0.04746413  0.08673633  0.48393570  1
  O2-  O282  1  0.44953481  0.56312299  0.95767010  1
  O2-  O283  1  0.95064627  0.76918349  0.00848488  1
  O2-  O284  1  0.95293234  0.42474552  0.76178251  1
  O2-  O285  1  0.04681247  0.75791612  0.50596226  1
  O2-  O286  1  0.54761822  0.90450008  0.98408731  1
  O2-  O287  1  0.46805461  0.88690250  0.53849512  1
  O2-  O288  1  0.45513103  0.42934806  0.49705166  1
  O2-  O289  1  0.04567110  0.42917168  0.01062438  1
  O2-  O290  1  0.45573972  0.24083001  0.51244411  1
  O2-  O291  1  0.47225002  0.10658661  0.70759959  1
  O2-  O292  1  0.95206592  0.91233848  0.74195252  1
  O2-  O293  1  0.54742530  0.23730705  0.00378828  1
  O2-  O294  1  0.95907974  0.88145364  0.49392329  1
  O2-  O295  1  0.05489110  0.57668291  0.51312195  1
  O2-  O296  1  0.04537359  0.76564226  0.26019333  1
  O2-  O297  1  0.95256591  0.56953886  0.73675530  1
  O2-  O298  1  0.95473513  0.23318551  0.73856861  1
  O2-  O299  1  0.55079606  0.09656091  0.51004070  1
  O2-  O300  1  0.44530532  0.91159305  0.74005469  1
  O2-  O301  1  0.04493911  0.90644770  0.97661673  1
  O2-  O302  1  0.44758278  0.08944917  0.55051250  1
  O2-  O303  1  0.96525940  0.11155112  0.95938266  1
  O2-  O304  1  0.04842992  0.90566122  0.01547205  1
  O2-  O305  1  0.53207730  0.77562535  0.03181235  1
  O2-  O306  1  0.95030291  0.90622838  0.22850695  1
  O2-  O307  1  0.44841818  0.09391533  0.20856047  1
  O2-  O308  1  0.04510757  0.23520730  0.50099348  1
  O2-  O309  1  0.04783344  0.57201271  0.99567658  1
  O2-  O310  1  0.45329337  0.89866038  0.26101209  1
  O2-  O311  1  0.96223325  0.77774045  0.71928628  1
  O2-  O312  1  0.45723930  0.75740327  0.75659341  1
  O2-  O313  1  0.54878242  0.76713923  0.20655748  1
  O2-  O314  1  0.05124219  0.56583563  0.73470710  1
  O2-  O315  1  0.45491708  0.43034940  0.75899675  1
  O2-  O316  1  0.44931191  0.23657184  0.23801585  1
  O2-  O317  1  0.46689011  0.56085218  0.50570142  1
  O2-  O318  1  0.04301545  0.89426888  0.49158015  1
  O2-  O319  1  0.54932817  0.56484305  0.00980175  1
  O2-  O320  1  0.04529904  0.23550523  0.49756086  1
  O2-  O321  1  0.55002737  0.23928784  0.73570027  1
  O2-  O322  1  0.95774057  0.54716293  0.53424966  1
  O2-  O323  1  0.44836817  0.24451740  0.73520440  1
  O2-  O324  1  0.93909090  0.73973137  0.02229189  1
  O2-  O325  1  0.06097428  0.07145759  0.78720373  1
  O2-  O326  1  0.43554810  0.75472440  0.77653466  1
  O2-  O327  1  0.94191640  0.91754761  0.21870689  1
  O2-  O328  1  0.56459879  0.59308763  0.53415784  1
  O2-  O329  1  0.93744706  0.07609305  0.21890071  1
  O2-  O330  1  0.43795038  0.59688693  0.71526044  1
  O2-  O331  1  0.06443885  0.41152511  0.47149035  1
  O2-  O332  1  0.42770587  0.06898023  0.81548110  1
  O2-  O333  1  0.93305731  0.59294317  0.92387229  1
  O2-  O334  1  0.43256165  0.92567829  0.01786159  1
  O2-  O335  1  0.06044177  0.58495691  0.51877377  1
  O2-  O336  1  0.93772994  0.07253704  0.53248675  1
  O2-  O337  1  0.55378454  0.76329349  0.20140163  1
  O2-  O338  1  0.43318682  0.61128452  0.08943830  1
  O2-  O339  1  0.42831469  0.61805371  0.53778767  1
  O2-  O340  1  0.93821745  0.26251255  0.03173756  1
  O2-  O341  1  0.92102652  0.60662444  0.44376266  1
  O2-  O342  1  0.44149688  0.57381590  0.95152317  1
  O2-  O343  1  0.56529974  0.41302931  0.22555993  1
  O2-  O344  1  0.44088430  0.08735066  0.19914127  1
  O2-  O345  1  0.44303621  0.26251417  0.21245644  1
  O2-  O346  1  0.56142626  0.07154826  0.03463891  1
  O2-  O347  1  0.56133429  0.58646728  0.28743617  1
  O2-  O348  1  0.57986306  0.72921010  0.94314193  1
  O2-  O349  1  0.57211055  0.73647815  0.33826022  1
  O2-  O350  1  0.06564609  0.74959924  0.81505465  1
  O2-  O351  1  0.92749756  0.71933552  0.81755099  1
  O2-  O352  1  0.42032323  0.93172255  0.44842520  1
  O2-  O353  1  0.43624482  0.25851335  0.03579610  1
  O2-  O354  1  0.06520729  0.59646344  0.21845086  1
  O2-  O355  1  0.42002185  0.07899301  0.33331160  1
  O2-  O356  1  0.92803683  0.05066869  0.06152341  1
  O2-  O357  1  0.08013338  0.94724764  0.53120704  1
  O2-  O358  1  0.07193728  0.75097262  0.68089095  1
  O2-  O359  1  0.43295879  0.92548067  0.79589501  1
  O2-  O360  1  0.93447471  0.58508884  0.06362957  1
  O2-  O361  1  0.56537280  0.41394996  0.47329274  1
  O2-  O362  1  0.43722790  0.40979358  0.97512455  1
  O2-  O363  1  0.06417542  0.73798101  0.97795930  1
  O2-  O364  1  0.56019544  0.74158480  0.47899820  1
  O2-  O365  1  0.92105447  0.94234592  0.47102398  1
  O2-  O366  1  0.42338655  0.08312284  0.42085089  1
  O2-  O367  1  0.06609517  0.25646041  0.22462268  1
  O2-  O368  1  0.06113195  0.59838646  0.72830992  1
  O2-  O369  1  0.43977125  0.07562710  0.96930214  1
  O2-  O370  1  0.93690766  0.40563582  0.46405636  1
  O2-  O371  1  0.44269833  0.07388596  0.55832596  1
  O2-  O372  1  0.24946726  0.67184257  0.82720272  1
  O2-  O373  1  0.74906489  0.00213570  0.17140016  1
  O2-  O374  1  0.24939016  0.68306012  0.37740338  1
  O2-  O375  1  0.74987645  0.34463136  0.63329453  1
  O2-  O376  1  0.74980240  0.66223894  0.10013931  1
  O2-  O377  1  0.25004141  0.65249501  0.91556671  1
  O2-  O378  1  0.24763615  -0.00237888  0.35210153  1
  O2-  O379  1  0.74969910  0.36502253  0.82426524  1
  O2-  O380  1  0.25022180  0.33084164  0.17112591  1
  O2-  O381  1  0.75028903  0.32306570  0.93153522  1
  O2-  O382  1  0.74990304  0.66570481  0.85305904  1
  O2-  O383  1  0.75011083  0.66062178  0.62676107  1
  O2-  O384  1  0.24960201  0.35630710  0.05201400  1
  O2-  O385  1  0.25067315  0.32252538  0.64090081  1
  O2-  O386  1  0.24965532  0.00597025  0.11305068  1
  O2-  O387  1  0.24901467  0.65805736  0.13655380  1
  O2-  O388  1  0.74969855  0.00217650  0.07865212  1
  O2-  O389  1  0.75038863  -0.00600260  0.86454896  1
  O2-  O390  1  0.25019599  0.31041715  0.34789168  1
  O2-  O391  1  0.74963277  0.00555940  0.60471736  1
  O2-  O392  1  0.25009543  0.00281139  0.60287091  1
  O2-  O393  1  0.25016924  0.34167402  0.46090254  1
  O2-  O394  1  0.24985802  0.32995117  0.86465346  1
  O2-  O395  1  0.75044216  0.33295627  0.15828258  1
  O2-  O396  1  0.24994372  0.84064851  0.17522300  1
  O2-  O397  1  0.24998421  0.16775206  0.43986833  1
  O2-  O398  1  0.24998369  0.49649049  0.34936138  1
  O2-  O399  1  0.74981476  0.84065112  0.90522880  1
  O2-  O400  1  0.74985606  0.17627787  0.86067720  1
  O2-  O401  1  0.24977187  0.49875054  0.91096573  1
  O2-  O402  1  0.25031907  0.15504402  0.82312175  1
  O2-  O403  1  0.75013722  0.84011890  0.08948482  1
  O2-  O404  1  0.74985061  0.49686195  0.59515590  1
  O2-  O405  1  0.74996823  0.49125803  0.90988696  1
  O2-  O406  1  0.75015166  0.49799493  0.40679441  1
  O2-  O407  1  0.74991932  0.17141256  0.58243390  1
  O2-  O408  1  0.25044463  0.50296550  0.57893506  1
  O2-  O409  1  0.24980139  0.83566400  0.58354317  1
  O2-  O410  1  0.24999742  0.19661673  0.12380161  1
  O2-  O411  1  0.24992754  0.82883959  0.66597426  1
  O2-  O412  1  0.74990548  0.16924688  0.34326823  1
  O2-  O413  1  0.24973256  0.82824777  0.08473169  1
  O2-  O414  1  0.24979421  0.18556507  0.90438221  1
  O2-  O415  1  0.74959361  0.83793200  0.65489468  1
  O2-  O416  1  0.24965862  0.83590116  0.81059169  1
  O2-  O417  1  0.25054173  0.17291242  0.34578330  1
  O2-  O418  1  0.74997542  0.50884364  0.81727463  1
  O2-  O419  1  0.24986824  0.50088454  0.82900028  1
  O2-  O420  1  0.54454635  0.64931129  0.84654666  1
  O2-  O421  1  0.02531593  0.32980846  0.87453458  1
  O2-  O422  1  0.97676167  0.01043624  0.37157070  1
  O2-  O423  1  0.03013276  0.00326004  0.12933000  1
  O2-  O424  1  0.02250234  0.33521018  0.12309283  1
  O2-  O425  1  0.48383998  -0.01285575  0.37151997  1
  O2-  O426  1  0.02318311  0.00178045  0.63052804  1
  O2-  O427  1  0.46272328  0.68430844  0.88450726  1
  O2-  O428  1  0.47648199  0.32028921  0.87481974  1
  O2-  O429  1  0.02111379  0.33210630  0.36452677  1
  O2-  O430  1  0.96280061  0.67082693  0.62411325  1
  O2-  O431  1  0.02505439  0.33887385  0.62892423  1
  O2-  O432  1  0.52942314  0.00420270  0.87127023  1
  O2-  O433  1  0.54514450  0.32276051  0.36374194  1
  O2-  O434  1  0.52535493  0.33069043  0.12162459  1
  O2-  O435  1  0.97952284  0.67446023  0.36415309  1
  O2-  O436  1  0.54384059  -0.00128657  0.36852161  1
  O2-  O437  1  0.45416819  0.33325557  0.36333505  1
  O2-  O438  1  0.02185456  0.66403352  0.61934684  1
  O2-  O439  1  0.02038936  0.65033163  0.87378016  1
  O2-  O440  1  0.46949170  0.66765099  0.37389675  1
  O2-  O441  1  0.52579537  0.64915213  0.12261509  1
  O2-  O442  1  0.98197024  0.68147434  0.13474815  1
  O2-  O443  1  0.48295432  -0.01034646  0.12162072  1
