# generated using pymatgen
data_La7(Ru4O11)2
_symmetry_space_group_name_H-M   'P 1'
_cell_length_a   23.99522850
_cell_length_b   16.83502835
_cell_length_c   15.43173774
_cell_angle_alpha   89.99963180
_cell_angle_beta   90.00237873
_cell_angle_gamma   90.00507342
_symmetry_Int_Tables_number   1
_chemical_formula_structural   La7(Ru4O11)2
_chemical_formula_sum   'La84 Ru96 O264'
_cell_volume   6233.81018029
_cell_formula_units_Z   12
loop_
 _symmetry_equiv_pos_site_id
 _symmetry_equiv_pos_as_xyz
  1  'x, y, z'
loop_
 _atom_type_symbol
 _atom_type_oxidation_number
  La3+  3.0
  Ru4+  4.0
  O2-  -2.0
loop_
 _atom_site_type_symbol
 _atom_site_label
 _atom_site_symmetry_multiplicity
 _atom_site_fract_x
 _atom_site_fract_y
 _atom_site_fract_z
 _atom_site_occupancy
  La3+  La0  1  0.13114985  -0.00255427  0.12034406  1
  La3+  La1  1  0.14168758  -0.00386562  0.37080787  1
  La3+  La2  1  0.14362660  0.00083973  0.62823842  1
  La3+  La3  1  0.13409041  -0.00609304  0.87429503  1
  La3+  La4  1  0.14082158  0.33683666  0.12875626  1
  La3+  La5  1  0.14786542  0.33218462  0.37093077  1
  La3+  La6  1  0.14037227  0.33399650  0.62724340  1
  La3+  La7  1  0.13659594  0.33329666  0.87701347  1
  La3+  La8  1  0.14181077  0.67097388  0.11962362  1
  La3+  La9  1  0.14225312  0.67172356  0.37484457  1
  La3+  La10  1  0.12872488  0.66418203  0.61823655  1
  La3+  La11  1  0.15146042  0.66769793  0.87367762  1
  La3+  La12  1  0.64030448  -0.00231049  0.12714090  1
  La3+  La13  1  0.64455091  -0.01046392  0.37432817  1
  La3+  La14  1  0.63965248  -0.00444468  0.61797064  1
  La3+  La15  1  0.63954471  0.00097027  0.87181820  1
  La3+  La16  1  0.63638632  0.33445354  0.12867077  1
  La3+  La17  1  0.64817384  0.33628731  0.37600098  1
  La3+  La18  1  0.64927659  0.33837299  0.61947663  1
  La3+  La19  1  0.64716978  0.32964121  0.87315322  1
  La3+  La20  1  0.64645074  0.67178840  0.12879853  1
  La3+  La21  1  0.65111521  0.66943034  0.37286506  1
  La3+  La22  1  0.64544556  0.66597012  0.62180563  1
  La3+  La23  1  0.64113577  0.66526633  0.87330628  1
  La3+  La24  1  0.35830049  0.00778813  0.12884401  1
  La3+  La25  1  0.35991275  -0.00317930  0.37412914  1
  La3+  La26  1  0.36669448  -0.00563826  0.62905173  1
  La3+  La27  1  0.36437948  -0.00665977  0.87512303  1
  La3+  La28  1  0.36097925  0.33882114  0.12486384  1
  La3+  La29  1  0.35969286  0.33699261  0.37288584  1
  La3+  La30  1  0.36446039  0.33491649  0.62345089  1
  La3+  La31  1  0.36510814  0.33430592  0.88127256  1
  La3+  La32  1  0.36188456  0.67095678  0.12082504  1
  La3+  La33  1  0.35367311  0.66812236  0.37621478  1
  La3+  La34  1  0.36760372  0.66131987  0.62465853  1
  La3+  La35  1  0.35394888  0.67209986  0.87621997  1
  La3+  La36  1  0.84862574  -0.00781593  0.13138153  1
  La3+  La37  1  0.85954126  -0.00618593  0.37427153  1
  La3+  La38  1  0.85640684  0.00016357  0.62602777  1
  La3+  La39  1  0.86299219  0.00049230  0.87895111  1
  La3+  La40  1  0.86566921  0.33645999  0.12655266  1
  La3+  La41  1  0.85574419  0.34278168  0.38017173  1
  La3+  La42  1  0.86136534  0.33620453  0.62702338  1
  La3+  La43  1  0.86579815  0.33585333  0.86856062  1
  La3+  La44  1  0.85567549  0.67256030  0.12874618  1
  La3+  La45  1  0.85339060  0.67435017  0.37225891  1
  La3+  La46  1  0.85592404  0.66864861  0.62045989  1
  La3+  La47  1  0.86525650  0.66611410  0.87131866  1
  La3+  La48  1  -0.00846609  0.48977233  0.63452202  1
  La3+  La49  1  -0.00536011  0.17252000  0.12359606  1
  La3+  La50  1  0.49083830  0.84587597  0.62251594  1
  La3+  La51  1  -0.00584987  0.16809998  0.37402055  1
  La3+  La52  1  0.49787297  0.50098511  0.36416848  1
  La3+  La53  1  0.49738223  0.15435741  0.88226753  1
  La3+  La54  1  0.50246879  0.50205294  0.86647812  1
  La3+  La55  1  -0.00292168  0.80253290  0.38209422  1
  La3+  La56  1  0.00185549  0.49219605  0.86335130  1
  La3+  La57  1  0.00396114  0.50956690  0.37783855  1
  La3+  La58  1  -0.00456416  0.84063667  0.12568339  1
  La3+  La59  1  0.00321743  0.17474288  0.38987612  1
  La3+  La60  1  0.50214033  0.83199648  0.37377668  1
  La3+  La61  1  0.49897094  0.50714829  0.38559910  1
  La3+  La62  1  0.50102895  0.16642533  0.13079730  1
  La3+  La63  1  -0.00498808  0.49443410  0.88279009  1
  La3+  La64  1  0.00286097  0.50342770  0.36314789  1
  La3+  La65  1  -0.00990170  0.52073724  0.11282590  1
  La3+  La66  1  0.00403839  0.15913074  0.11459050  1
  La3+  La67  1  -0.00093486  0.80225763  0.36507042  1
  La3+  La68  1  0.00569248  0.84344711  0.88908272  1
  La3+  La69  1  0.50119080  0.17327729  0.37860979  1
  La3+  La70  1  0.50767292  0.82107299  0.86121433  1
  La3+  La71  1  0.00037717  0.47819605  0.62197269  1
  La3+  La72  1  0.24991747  0.18796409  0.05990301  1
  La3+  La73  1  0.25125003  0.50729655  0.23044923  1
  La3+  La74  1  0.75058061  0.83473237  0.48773429  1
  La3+  La75  1  0.74904362  0.50046959  0.50968664  1
  La3+  La76  1  0.74829284  0.50103305  -0.03015017  1
  La3+  La77  1  0.75085422  0.86478129  0.76746910  1
  La3+  La78  1  0.25122933  0.88379855  0.21724901  1
  La3+  La79  1  0.75084400  0.20337886  0.23944254  1
  La3+  La80  1  0.24964318  0.13761461  0.69345986  1
  La3+  La81  1  0.75308068  0.21689356  0.74098973  1
  La3+  La82  1  0.24952926  0.79529350  0.49347230  1
  La3+  La83  1  0.25130484  0.12783926  0.43111813  1
  Ru4+  Ru84  1  -0.00426621  0.00597327  -0.00683511  1
  Ru4+  Ru85  1  -0.00423499  -0.00242113  0.24735512  1
  Ru4+  Ru86  1  0.01783355  0.00262615  0.51766662  1
  Ru4+  Ru87  1  0.00018809  0.00967664  0.76729482  1
  Ru4+  Ru88  1  0.00133520  0.33121402  0.00130709  1
  Ru4+  Ru89  1  0.00149687  0.33969451  0.25410422  1
  Ru4+  Ru90  1  -0.00436085  0.32071796  0.51170655  1
  Ru4+  Ru91  1  0.00146945  0.31642974  0.74043959  1
  Ru4+  Ru92  1  0.00576714  0.67838481  0.00179395  1
  Ru4+  Ru93  1  0.00455600  0.66590129  0.23703109  1
  Ru4+  Ru94  1  -0.00891688  0.66734248  0.52300233  1
  Ru4+  Ru95  1  -0.00214449  0.67388236  0.74216237  1
  Ru4+  Ru96  1  0.49344964  -0.01253776  -0.00144434  1
  Ru4+  Ru97  1  0.50096785  -0.00352034  0.24798608  1
  Ru4+  Ru98  1  0.50460845  0.00620141  0.49955143  1
  Ru4+  Ru99  1  0.49456751  -0.00154910  0.75210738  1
  Ru4+  Ru100  1  0.50018285  0.35026758  0.01935056  1
  Ru4+  Ru101  1  0.50036530  0.33276971  0.23789810  1
  Ru4+  Ru102  1  0.49964307  0.33125140  0.49870856  1
  Ru4+  Ru103  1  0.51841087  0.33754141  0.73595538  1
  Ru4+  Ru104  1  0.49197891  0.66085042  -0.00806046  1
  Ru4+  Ru105  1  0.50103347  0.67099872  0.23301744  1
  Ru4+  Ru106  1  0.50352447  0.67024500  0.51229360  1
  Ru4+  Ru107  1  0.49720226  0.66891452  0.75711136  1
  Ru4+  Ru108  1  0.11355434  0.16459165  -0.00715986  1
  Ru4+  Ru109  1  0.12366722  0.17099601  0.24921274  1
  Ru4+  Ru110  1  0.10752504  0.15516543  0.51016723  1
  Ru4+  Ru111  1  0.10815586  0.16534438  0.75595630  1
  Ru4+  Ru112  1  0.11536403  0.49415012  0.00192369  1
  Ru4+  Ru113  1  0.11066138  0.49470466  0.24328324  1
  Ru4+  Ru114  1  0.11922770  0.50377190  0.49651795  1
  Ru4+  Ru115  1  0.12085914  0.50153638  0.75013372  1
  Ru4+  Ru116  1  0.11219192  0.82449986  0.00171461  1
  Ru4+  Ru117  1  0.11449599  0.83419465  0.24697954  1
  Ru4+  Ru118  1  0.10950551  0.84581969  0.50791167  1
  Ru4+  Ru119  1  0.11390499  0.84033511  0.75223892  1
  Ru4+  Ru120  1  0.60908708  0.16278726  0.00431824  1
  Ru4+  Ru121  1  0.60865840  0.16401448  0.24929596  1
  Ru4+  Ru122  1  0.60869949  0.15710925  0.49793637  1
  Ru4+  Ru123  1  0.60143716  0.17682249  0.74296211  1
  Ru4+  Ru124  1  0.60291894  0.48594363  -0.00049740  1
  Ru4+  Ru125  1  0.61227000  0.49934348  0.25308347  1
  Ru4+  Ru126  1  0.61018267  0.50281017  0.50054416  1
  Ru4+  Ru127  1  0.60256654  0.49080035  0.74790390  1
  Ru4+  Ru128  1  0.61101575  0.83157472  0.00068342  1
  Ru4+  Ru129  1  0.60872136  0.83107825  0.24191507  1
  Ru4+  Ru130  1  0.60933879  0.82758146  0.50004900  1
  Ru4+  Ru131  1  0.60944676  0.83263282  0.74903007  1
  Ru4+  Ru132  1  0.39211657  0.16895117  -0.00496240  1
  Ru4+  Ru133  1  0.38516095  0.16730528  0.25075715  1
  Ru4+  Ru134  1  0.39013952  0.16566437  0.50182435  1
  Ru4+  Ru135  1  0.38992554  0.16654827  0.75151393  1
  Ru4+  Ru136  1  0.38768523  0.49651241  -0.00059857  1
  Ru4+  Ru137  1  0.38817517  0.49977504  0.24784267  1
  Ru4+  Ru138  1  0.39305750  0.51098400  0.50567296  1
  Ru4+  Ru139  1  0.38670939  0.50436761  0.75145454  1
  Ru4+  Ru140  1  0.39304511  0.83660958  0.00316387  1
  Ru4+  Ru141  1  0.39360303  0.83158772  0.24839842  1
  Ru4+  Ru142  1  0.39070038  0.83012813  0.49389192  1
  Ru4+  Ru143  1  0.38111475  0.83421835  0.75442147  1
  Ru4+  Ru144  1  0.89310556  0.16280797  -0.00831590  1
  Ru4+  Ru145  1  0.88537962  0.17169124  0.25118734  1
  Ru4+  Ru146  1  0.88815820  0.16771907  0.50327109  1
  Ru4+  Ru147  1  0.89906112  0.16239745  0.74331983  1
  Ru4+  Ru148  1  0.88599293  0.50382956  0.00280235  1
  Ru4+  Ru149  1  0.88954655  0.49712486  0.24985721  1
  Ru4+  Ru150  1  0.88157083  0.50852500  0.49549213  1
  Ru4+  Ru151  1  0.87999395  0.50676350  0.75506336  1
  Ru4+  Ru152  1  0.88404822  0.83109139  0.00043544  1
  Ru4+  Ru153  1  0.87880510  0.84034304  0.24805522  1
  Ru4+  Ru154  1  0.88792478  0.83425302  0.50454715  1
  Ru4+  Ru155  1  0.89170448  0.83096438  0.74617727  1
  Ru4+  Ru156  1  0.25339003  0.42584062  0.74704728  1
  Ru4+  Ru157  1  0.25128003  0.72906850  0.25677307  1
  Ru4+  Ru158  1  0.25203119  0.42075532  0.51157919  1
  Ru4+  Ru159  1  0.75029701  0.72031936  0.72060062  1
  Ru4+  Ru160  1  0.75200743  0.09723336  0.49677588  1
  Ru4+  Ru161  1  0.25026880  0.58306031  0.00958923  1
  Ru4+  Ru162  1  0.25147032  0.32926750  -0.00617372  1
  Ru4+  Ru163  1  0.75066118  0.37748429  0.05814128  1
  Ru4+  Ru164  1  0.25077133  0.28348514  0.75894125  1
  Ru4+  Ru165  1  0.75060707  0.23609756  -0.00260380  1
  Ru4+  Ru166  1  0.25040076  0.04898291  -0.00671965  1
  Ru4+  Ru167  1  0.74928404  0.42803796  0.74005944  1
  Ru4+  Ru168  1  0.74939525  0.23846219  0.49448631  1
  Ru4+  Ru169  1  0.75138614  0.57748452  0.26975332  1
  Ru4+  Ru170  1  0.74896182  0.07412978  0.74092697  1
  Ru4+  Ru171  1  0.74748670  0.89339611  0.00600503  1
  Ru4+  Ru172  1  0.74833834  0.05871941  0.26286511  1
  Ru4+  Ru173  1  0.24920555  0.27748280  0.50118594  1
  Ru4+  Ru174  1  0.25352391  -0.00173272  0.76279698  1
  Ru4+  Ru175  1  0.74970886  0.09201694  0.00313601  1
  Ru4+  Ru176  1  0.25234865  0.94781092  0.49986078  1
  Ru4+  Ru177  1  0.75172134  0.65211339  -0.03448698  1
  Ru4+  Ru178  1  0.24921982  0.90285178  -0.00510958  1
  Ru4+  Ru179  1  0.24807580  0.76785858  0.74508711  1
  O2-  O180  1  0.16420349  0.07440797  0.00097379  1
  O2-  O181  1  0.16561748  0.07867287  0.25040209  1
  O2-  O182  1  0.16891732  0.07969684  0.49691438  1
  O2-  O183  1  0.16507670  0.08063441  0.75646307  1
  O2-  O184  1  0.16883096  0.40986035  -0.00320894  1
  O2-  O185  1  0.17332688  0.41540738  0.24117032  1
  O2-  O186  1  0.16587791  0.41388849  0.50393297  1
  O2-  O187  1  0.17324251  0.41494191  0.75402403  1
  O2-  O188  1  0.16738190  0.74820693  -0.00359634  1
  O2-  O189  1  0.17147406  0.74878499  0.24209657  1
  O2-  O190  1  0.16008304  0.74986731  0.50614338  1
  O2-  O191  1  0.16415643  0.74923970  0.74231876  1
  O2-  O192  1  0.66682145  0.08077944  0.00203770  1
  O2-  O193  1  0.66638513  0.08136368  0.25175358  1
  O2-  O194  1  0.67253224  0.08576659  0.49838693  1
  O2-  O195  1  0.66480270  0.08511355  0.74365952  1
  O2-  O196  1  0.66879087  0.41342107  0.00443954  1
  O2-  O197  1  0.66019963  0.41313727  0.24974421  1
  O2-  O198  1  0.66727752  0.41576518  0.49740273  1
  O2-  O199  1  0.66665746  0.41900258  0.74694616  1
  O2-  O200  1  0.65924819  0.74741868  -0.00141588  1
  O2-  O201  1  0.66429263  0.75243245  0.24828350  1
  O2-  O202  1  0.66581894  0.74857002  0.50135574  1
  O2-  O203  1  0.66941489  0.74650379  0.75092106  1
  O2-  O204  1  0.33049843  0.25838070  -0.00034443  1
  O2-  O205  1  0.33865029  0.25503230  0.25241917  1
  O2-  O206  1  0.33332938  0.25590888  0.50058055  1
  O2-  O207  1  0.33392472  0.26005654  0.74825152  1
  O2-  O208  1  0.33496355  0.58509607  -0.00071244  1
  O2-  O209  1  0.33773211  0.58791689  0.24422973  1
  O2-  O210  1  0.33543612  0.58650934  0.50920317  1
  O2-  O211  1  0.33652830  0.58594809  0.74735661  1
  O2-  O212  1  0.32990535  0.91468631  -0.00486465  1
  O2-  O213  1  0.34273895  0.92175388  0.25152639  1
  O2-  O214  1  0.33296517  0.91897252  0.50229172  1
  O2-  O215  1  0.32683524  0.92451984  0.75072519  1
  O2-  O216  1  0.83593006  0.24801022  0.00014187  1
  O2-  O217  1  0.83725050  0.26201605  0.24949996  1
  O2-  O218  1  0.83205161  0.25112137  0.50219875  1
  O2-  O219  1  0.84297304  0.25272664  0.75634067  1
  O2-  O220  1  0.82960411  0.58885026  -0.00218843  1
  O2-  O221  1  0.83732936  0.58463987  0.25214214  1
  O2-  O222  1  0.82705481  0.58911711  0.49832670  1
  O2-  O223  1  0.83081424  0.59163509  0.75248560  1
  O2-  O224  1  0.82830184  0.91580670  0.00191443  1
  O2-  O225  1  0.82684223  0.92013583  0.26092549  1
  O2-  O226  1  0.83814605  0.92244473  0.49805665  1
  O2-  O227  1  0.84436634  0.92061921  0.74992123  1
  O2-  O228  1  0.16958120  0.25936675  -0.00186548  1
  O2-  O229  1  0.17278028  0.25635971  0.24572412  1
  O2-  O230  1  0.16055714  0.25074503  0.50122362  1
  O2-  O231  1  0.16429076  0.25712922  0.75155314  1
  O2-  O232  1  0.16717304  0.58309342  0.00023849  1
  O2-  O233  1  0.16236194  0.58303762  0.24588237  1
  O2-  O234  1  0.16967440  0.59248040  0.50925280  1
  O2-  O235  1  0.16868382  0.58626942  0.74395926  1
  O2-  O236  1  0.16616637  0.91514478  -0.00089898  1
  O2-  O237  1  0.16173586  0.92654651  0.24358703  1
  O2-  O238  1  0.17178866  0.91916258  0.49710635  1
  O2-  O239  1  0.16963000  0.91965227  0.75245921  1
  O2-  O240  1  0.66335264  0.24718879  0.00209459  1
  O2-  O241  1  0.66590904  0.25841419  0.25197669  1
  O2-  O242  1  0.66426696  0.24603260  0.49855425  1
  O2-  O243  1  0.66452757  0.24555681  0.75852257  1
  O2-  O244  1  0.66120798  0.58285789  -0.00141476  1
  O2-  O245  1  0.66727983  0.58262358  0.24927254  1
  O2-  O246  1  0.66477686  0.58546291  0.50331927  1
  O2-  O247  1  0.65222406  0.58006809  0.74988728  1
  O2-  O248  1  0.66362240  0.91818159  0.00353270  1
  O2-  O249  1  0.66003199  0.91674141  0.24552808  1
  O2-  O250  1  0.66693851  0.91593153  0.49870783  1
  O2-  O251  1  0.66038202  0.92107413  0.74745752  1
  O2-  O252  1  0.33725314  0.07828559  0.00006927  1
  O2-  O253  1  0.33718203  0.08150889  0.25840401  1
  O2-  O254  1  0.33327731  0.07999954  0.50040622  1
  O2-  O255  1  0.33456416  0.07802087  0.75083558  1
  O2-  O256  1  0.32673249  0.41257831  -0.00418523  1
  O2-  O257  1  0.32817637  0.41244049  0.24686385  1
  O2-  O258  1  0.33699587  0.41834534  0.50692329  1
  O2-  O259  1  0.33533674  0.41519207  0.74899371  1
  O2-  O260  1  0.33771818  0.75548340  0.00250637  1
  O2-  O261  1  0.33126875  0.74829973  0.24320600  1
  O2-  O262  1  0.33639828  0.74250878  0.50790106  1
  O2-  O263  1  0.32915190  0.74655155  0.74206155  1
  O2-  O264  1  0.83378052  0.08411893  -0.00129492  1
  O2-  O265  1  0.82920098  0.08024515  0.25652106  1
  O2-  O266  1  0.83454995  0.08179218  0.49533837  1
  O2-  O267  1  0.83124283  0.08478224  0.74507842  1
  O2-  O268  1  0.83476553  0.41059962  0.00374588  1
  O2-  O269  1  0.83976273  0.41208687  0.24663172  1
  O2-  O270  1  0.83298719  0.41602264  0.50298030  1
  O2-  O271  1  0.83318681  0.41508997  0.74863265  1
  O2-  O272  1  0.83637466  0.74308273  -0.00506171  1
  O2-  O273  1  0.83496132  0.75018962  0.24656339  1
  O2-  O274  1  0.83206336  0.74777750  0.49845354  1
  O2-  O275  1  0.82787197  0.74743704  0.75414033  1
  O2-  O276  1  0.44526724  0.08983603  0.49400941  1
  O2-  O277  1  0.04971292  0.09891789  0.25610912  1
  O2-  O278  1  0.96862295  0.11282158  -0.02698704  1
  O2-  O279  1  0.05013534  0.23445407  0.76493316  1
  O2-  O280  1  0.05631200  0.24640326  -0.00126696  1
  O2-  O281  1  0.52956857  0.46385244  0.70345228  1
  O2-  O282  1  0.94755033  0.57916504  0.75125026  1
  O2-  O283  1  0.94641371  0.58359397  0.77058813  1
  O2-  O284  1  0.46803959  0.55373844  0.54427382  1
  O2-  O285  1  0.04526523  0.56828974  0.23374798  1
  O2-  O286  1  0.55423363  0.91941585  0.52818695  1
  O2-  O287  1  0.46893731  0.88198315  0.96224047  1
  O2-  O288  1  0.45641766  0.10388804  0.26315884  1
  O2-  O289  1  0.05482080  0.57664032  0.74474894  1
  O2-  O290  1  0.43667963  0.91746652  0.73774575  1
  O2-  O291  1  0.95007935  0.42404539  0.01535291  1
  O2-  O292  1  0.03048959  0.42901623  0.19119392  1
  O2-  O293  1  0.04941046  0.09835523  0.25268061  1
  O2-  O294  1  0.05060981  0.90703328  0.01156073  1
  O2-  O295  1  0.95151146  0.43626688  0.50540594  1
  O2-  O296  1  0.97155235  0.10561423  0.70012985  1
  O2-  O297  1  0.55119725  0.91131540  0.73356219  1
  O2-  O298  1  0.94293186  0.08965529  0.24545976  1
  O2-  O299  1  0.06370781  0.74288685  0.07122574  1
  O2-  O300  1  0.52834646  0.22040978  0.77314753  1
  O2-  O301  1  0.95245823  0.76521898  0.00202857  1
  O2-  O302  1  0.54439370  0.76396132  0.54457025  1
  O2-  O303  1  0.54412369  0.09254185  0.70771845  1
  O2-  O304  1  0.94148072  0.25995883  0.97816290  1
  O2-  O305  1  0.04294092  0.75823041  0.49089787  1
  O2-  O306  1  0.04844432  0.57120706  0.99174535  1
  O2-  O307  1  0.95300643  0.43278204  0.46639374  1
  O2-  O308  1  0.95559391  0.76466286  0.25479286  1
  O2-  O309  1  0.96409430  0.11473883  0.96547094  1
  O2-  O310  1  0.53490141  0.47272355  0.04737340  1
  O2-  O311  1  0.04556577  0.90261469  0.25383268  1
  O2-  O312  1  0.44937284  0.91081120  0.47678937  1
  O2-  O313  1  0.45194639  0.56036880  0.99063350  1
  O2-  O314  1  0.05292325  0.57085194  0.54223723  1
  O2-  O315  1  0.44301071  0.41942067  0.48015531  1
  O2-  O316  1  0.03655132  0.90507414  0.44851450  1
  O2-  O317  1  0.95155614  0.08374760  0.49232799  1
  O2-  O318  1  0.55219014  0.42336573  0.48314504  1
  O2-  O319  1  0.43883766  0.24759250  0.77002606  1
  O2-  O320  1  0.94991795  0.42722023  0.75970781  1
  O2-  O321  1  0.54956074  0.75351835  0.72944435  1
  O2-  O322  1  0.53433527  0.16069753  0.51793733  1
  O2-  O323  1  0.54364673  0.90098009  0.23380339  1
  O2-  O324  1  0.55817656  0.91335445  0.52328794  1
  O2-  O325  1  0.44160923  0.90978353  0.74398919  1
  O2-  O326  1  0.05572503  0.57833089  0.54981641  1
  O2-  O327  1  0.93221580  0.91310937  0.97138545  1
  O2-  O328  1  0.07673051  0.41588390  0.32028968  1
  O2-  O329  1  0.07298225  0.93248437  0.57583302  1
  O2-  O330  1  0.05760173  0.27542455  0.17159378  1
  O2-  O331  1  0.43349250  0.75003040  0.77561753  1
  O2-  O332  1  0.55632708  0.24798350  0.23645202  1
  O2-  O333  1  0.06623396  0.74700367  0.25694650  1
  O2-  O334  1  0.55640320  0.07733953  0.03539051  1
  O2-  O335  1  0.43081021  0.59854453  0.41599587  1
  O2-  O336  1  0.56542096  0.07218556  0.79223282  1
  O2-  O337  1  0.93307182  0.92651481  0.22140638  1
  O2-  O338  1  0.91964738  0.06254705  0.79137839  1
  O2-  O339  1  0.43280496  0.40551769  0.01717594  1
  O2-  O340  1  0.06350500  0.06846195  0.42567011  1
  O2-  O341  1  0.93931542  0.59730757  0.95834337  1
  O2-  O342  1  0.93994912  0.75146946  0.52976957  1
  O2-  O343  1  0.05816098  0.08801679  0.57877299  1
  O2-  O344  1  0.58618008  0.28495918  0.69756698  1
  O2-  O345  1  0.05570718  0.92399950  0.76612978  1
  O2-  O346  1  0.05589728  0.71867362  0.89471578  1
  O2-  O347  1  0.43797690  0.41072489  0.27332657  1
  O2-  O348  1  0.43849337  0.74142497  0.23472200  1
  O2-  O349  1  0.92811102  0.03177555  0.07452845  1
  O2-  O350  1  0.06208016  0.75255938  0.46572039  1
  O2-  O351  1  0.55866592  0.59239805  0.28392904  1
  O2-  O352  1  0.56647210  0.37392042  0.95309660  1
  O2-  O353  1  0.05565081  0.91289595  0.01886653  1
  O2-  O354  1  0.94124809  0.40854434  0.79038982  1
  O2-  O355  1  0.07585119  0.23835091  0.32505185  1
  O2-  O356  1  0.43689053  0.74378599  0.97419638  1
  O2-  O357  1  0.56191605  0.74077257  0.21595126  1
  O2-  O358  1  0.93508825  0.74186023  0.72663252  1
  O2-  O359  1  0.55851513  0.70614043  0.41617457  1
  O2-  O360  1  0.44608018  0.25916835  0.96402473  1
  O2-  O361  1  0.44175323  0.74607353  0.46068797  1
  O2-  O362  1  0.93365344  0.58769679  0.55368760  1
  O2-  O363  1  0.41798658  0.94421203  0.05040862  1
  O2-  O364  1  0.93721779  0.75616054  0.28030717  1
  O2-  O365  1  0.05719980  0.75182505  0.05641110  1
  O2-  O366  1  0.58260269  0.05080779  0.46746463  1
  O2-  O367  1  0.93823002  0.25675305  0.74018420  1
  O2-  O368  1  0.06485254  0.40377300  0.73904539  1
  O2-  O369  1  0.57000373  0.39376824  0.81041679  1
  O2-  O370  1  0.43623769  0.25856667  0.47993537  1
  O2-  O371  1  0.08776591  0.56291814  0.39624615  1
  O2-  O372  1  0.74917686  0.33761691  0.64292691  1
  O2-  O373  1  0.25158602  0.66910618  0.91850679  1
  O2-  O374  1  0.74814491  0.68364072  0.07264480  1
  O2-  O375  1  0.75133279  0.33310514  0.93863733  1
  O2-  O376  1  0.24899196  -0.01622358  0.88699087  1
  O2-  O377  1  0.75065809  0.66046130  0.19755998  1
  O2-  O378  1  0.25269701  0.33913806  0.63834913  1
  O2-  O379  1  0.74817071  -0.00465049  0.94916815  1
  O2-  O380  1  0.75214752  0.00168358  0.56816759  1
  O2-  O381  1  0.24973460  0.34851450  0.87120768  1
  O2-  O382  1  0.75080988  -0.01422378  0.65805351  1
  O2-  O383  1  0.25282176  0.33581156  0.39377356  1
  O2-  O384  1  0.25034988  -0.00620007  0.11103161  1
  O2-  O385  1  0.25094345  0.66156028  0.10264510  1
  O2-  O386  1  0.25200426  -0.00443211  0.37349392  1
  O2-  O387  1  0.74818330  0.31960573  0.40497823  1
  O2-  O388  1  0.25132338  0.00371930  0.63365895  1
  O2-  O389  1  0.25061435  0.66486861  0.82417264  1
  O2-  O390  1  0.75075507  0.66258804  0.35989681  1
  O2-  O391  1  0.74591352  0.00859130  0.14259114  1
  O2-  O392  1  0.74815271  0.66446015  0.61730762  1
  O2-  O393  1  0.24978957  0.66153560  0.35573272  1
  O2-  O394  1  0.75000474  0.33639636  0.80773968  1
  O2-  O395  1  0.75162139  -0.01080992  0.81476935  1
  O2-  O396  1  0.24918661  0.82614412  0.83665165  1
  O2-  O397  1  0.25041764  0.51481778  0.45580274  1
  O2-  O398  1  0.25050413  0.19330814  0.82304887  1
  O2-  O399  1  0.75005451  0.84367305  0.36202645  1
  O2-  O400  1  0.24978905  0.50047720  0.08497624  1
  O2-  O401  1  0.75080351  0.48419543  0.20520524  1
  O2-  O402  1  0.75066467  0.15336561  0.60857354  1
  O2-  O403  1  0.25010554  0.81970236  0.34813873  1
  O2-  O404  1  0.24991462  0.13851464  0.92635986  1
  O2-  O405  1  0.74960237  0.15387401  0.88996534  1
  O2-  O406  1  0.24930252  0.18157432  0.56364596  1
  O2-  O407  1  0.74943254  0.50866441  0.36699783  1
  O2-  O408  1  0.24928990  0.82452875  0.64238790  1
  O2-  O409  1  0.24924687  0.49222479  0.37232818  1
  O2-  O410  1  0.75044133  0.14542437  0.37876820  1
  O2-  O411  1  0.24966664  0.83038535  0.08165980  1
  O2-  O412  1  0.75047041  0.48767172  0.11725195  1
  O2-  O413  1  0.74997751  0.83965023  0.10008564  1
  O2-  O414  1  0.74971879  0.49949584  0.83000951  1
  O2-  O415  1  0.75045174  0.81669655  0.63450023  1
  O2-  O416  1  0.74850054  0.83053730  0.91169155  1
  O2-  O417  1  0.25105805  0.16215878  0.18230842  1
  O2-  O418  1  0.75021002  0.50247029  0.65672192  1
  O2-  O419  1  0.75005423  0.16656838  0.09922200  1
  O2-  O420  1  0.54745655  -0.02195694  0.90686809  1
  O2-  O421  1  0.95453507  0.34133578  0.62104443  1
  O2-  O422  1  0.96644428  0.65677217  0.12224186  1
  O2-  O423  1  0.45222878  0.30620763  0.13666503  1
  O2-  O424  1  0.54551110  0.33798257  0.11988994  1
  O2-  O425  1  0.47420888  0.00772624  0.62336555  1
  O2-  O426  1  0.51869514  -0.00686762  0.36908377  1
  O2-  O427  1  0.02647462  0.69559440  0.63319507  1
  O2-  O428  1  0.95003169  0.64048844  0.40525117  1
  O2-  O429  1  0.45653588  0.02556330  0.86899647  1
  O2-  O430  1  0.04556139  0.33653259  0.42678831  1
  O2-  O431  1  0.05023235  0.31742493  0.60475539  1
  O2-  O432  1  0.04709178  0.02440983  0.88937076  1
  O2-  O433  1  0.02564889  0.01870367  0.12163745  1
  O2-  O434  1  0.47867553  0.65911753  0.11141991  1
  O2-  O435  1  0.49064000  0.32313689  0.36496787  1
  O2-  O436  1  0.96452214  -0.02531794  0.86627284  1
  O2-  O437  1  0.51099678  0.32949399  0.61393000  1
  O2-  O438  1  0.45661359  0.63505624  0.85940521  1
  O2-  O439  1  0.48267894  0.01745400  0.12942304  1
  O2-  O440  1  0.95186274  0.32501134  0.35354606  1
  O2-  O441  1  0.03230569  0.66601951  0.35408554  1
  O2-  O442  1  0.46902239  0.67409476  0.63512287  1
  O2-  O443  1  0.54861342  0.66832807  0.88642398  1
