# generated using pymatgen
data_La7(Ru4O11)2
_symmetry_space_group_name_H-M   'P 1'
_cell_length_a   23.98850987
_cell_length_b   16.82778750
_cell_length_c   15.42489195
_cell_angle_alpha   90.00018182
_cell_angle_beta   90.00015290
_cell_angle_gamma   90.00013085
_symmetry_Int_Tables_number   1
_chemical_formula_structural   La7(Ru4O11)2
_chemical_formula_sum   'La84 Ru96 O264'
_cell_volume   6226.62083548
_cell_formula_units_Z   12
loop_
 _symmetry_equiv_pos_site_id
 _symmetry_equiv_pos_as_xyz
  1  'x, y, z'
loop_
 _atom_type_symbol
 _atom_type_oxidation_number
  La3+  3.0
  Ru4+  4.0
  O2-  -2.0
loop_
 _atom_site_type_symbol
 _atom_site_label
 _atom_site_symmetry_multiplicity
 _atom_site_fract_x
 _atom_site_fract_y
 _atom_site_fract_z
 _atom_site_occupancy
  La3+  La0  1  0.13857441  -0.00013837  0.12467746  1
  La3+  La1  1  0.13864922  0.00003184  0.37537001  1
  La3+  La2  1  0.13862228  0.00092350  0.62417134  1
  La3+  La3  1  0.13863880  0.00065034  0.87540293  1
  La3+  La4  1  0.13846681  0.33374562  0.12542636  1
  La3+  La5  1  0.13867436  0.33325305  0.37455789  1
  La3+  La6  1  0.13755107  0.33268309  0.62508429  1
  La3+  La7  1  0.13795181  0.33316126  0.87528058  1
  La3+  La8  1  0.13867173  0.66621068  0.12431977  1
  La3+  La9  1  0.13813026  0.66644658  0.37524546  1
  La3+  La10  1  0.13808014  0.66693109  0.62423490  1
  La3+  La11  1  0.13831495  0.66641088  0.87614255  1
  La3+  La12  1  0.63896597  -0.00002918  0.12452763  1
  La3+  La13  1  0.63828657  -0.00040656  0.37631227  1
  La3+  La14  1  0.63884503  -0.00074253  0.62427690  1
  La3+  La15  1  0.63857228  -0.00009632  0.87471754  1
  La3+  La16  1  0.63912076  0.33328057  0.12426190  1
  La3+  La17  1  0.63926313  0.33348074  0.37545208  1
  La3+  La18  1  0.63915173  0.33329434  0.62539408  1
  La3+  La19  1  0.63928262  0.33340973  0.87529148  1
  La3+  La20  1  0.63874891  0.66643554  0.12477951  1
  La3+  La21  1  0.63851298  0.66685581  0.37542890  1
  La3+  La22  1  0.63902596  0.66706139  0.62488380  1
  La3+  La23  1  0.63945460  0.66651236  0.87498356  1
  La3+  La24  1  0.36098594  -0.00006590  0.12434822  1
  La3+  La25  1  0.36106943  0.00002430  0.37573007  1
  La3+  La26  1  0.36182129  0.00046942  0.62442990  1
  La3+  La27  1  0.36154940  0.00053793  0.87548731  1
  La3+  La28  1  0.36150055  0.33381971  0.12480186  1
  La3+  La29  1  0.36191005  0.33348180  0.37477655  1
  La3+  La30  1  0.36240234  0.33292785  0.62472538  1
  La3+  La31  1  0.36204475  0.33349883  0.87570905  1
  La3+  La32  1  0.36126619  0.66634573  0.12421426  1
  La3+  La33  1  0.36174011  0.66660054  0.37534153  1
  La3+  La34  1  0.36209528  0.66678837  0.62446867  1
  La3+  La35  1  0.36150996  0.66633869  0.87581918  1
  La3+  La36  1  0.86155179  -0.00028464  0.12520844  1
  La3+  La37  1  0.86142692  0.00006894  0.37481632  1
  La3+  La38  1  0.86057908  -0.00024823  0.62463521  1
  La3+  La39  1  0.86122013  0.00000731  0.87528433  1
  La3+  La40  1  0.86107104  0.33342373  0.12465843  1
  La3+  La41  1  0.86120451  0.33329987  0.37504459  1
  La3+  La42  1  0.86120248  0.33348967  0.62501898  1
  La3+  La43  1  0.86067524  0.33338859  0.87524353  1
  La3+  La44  1  0.86127384  0.66650236  0.12434510  1
  La3+  La45  1  0.86098101  0.66668422  0.37563702  1
  La3+  La46  1  0.86077478  0.66661337  0.62507950  1
  La3+  La47  1  0.86071207  0.66647217  0.87538825  1
  La3+  La48  1  0.50074068  0.49979338  0.88526133  1
  La3+  La49  1  0.50040452  0.83254017  0.13408569  1
  La3+  La50  1  -0.00039624  0.16650347  0.38456029  1
  La3+  La51  1  0.00010680  0.16689534  0.88418391  1
  La3+  La52  1  0.50008564  0.16665645  0.86576385  1
  La3+  La53  1  0.00030512  0.83299287  0.38207052  1
  La3+  La54  1  -0.00028323  0.16592183  0.63674983  1
  La3+  La55  1  -0.00028425  0.83364294  0.11479464  1
  La3+  La56  1  0.00013342  0.50028425  0.61486608  1
  La3+  La57  1  0.00014828  0.83293798  0.88529415  1
  La3+  La58  1  0.49981691  0.49962341  0.86343690  1
  La3+  La59  1  0.49995716  0.50033336  0.63527483  1
  La3+  La60  1  0.50037291  0.16678717  0.38576542  1
  La3+  La61  1  0.00002090  0.83338926  0.36466140  1
  La3+  La62  1  -0.00072942  0.16635133  0.61440758  1
  La3+  La63  1  -0.00036886  0.49932807  0.86583242  1
  La3+  La64  1  0.49999321  0.16631688  0.63492991  1
  La3+  La65  1  0.49980849  0.50014613  0.13502337  1
  La3+  La66  1  0.50042877  0.16764078  0.13373770  1
  La3+  La67  1  0.50034569  0.83276708  0.86409979  1
  La3+  La68  1  -0.00019731  0.50034874  0.38526632  1
  La3+  La69  1  0.49948324  0.83420709  0.88417012  1
  La3+  La70  1  0.49992705  0.83254459  0.38476906  1
  La3+  La71  1  -0.00028474  0.16673149  0.13641481  1
  La3+  La72  1  0.75004798  0.83333956  0.00046983  1
  La3+  La73  1  0.24977470  0.83488197  0.74985478  1
  La3+  La74  1  0.74999253  0.49997650  0.75018179  1
  La3+  La75  1  0.25011491  0.50090583  0.77404357  1
  La3+  La76  1  0.24989749  0.16614191  0.25000742  1
  La3+  La77  1  0.74997952  0.16669568  0.01160098  1
  La3+  La78  1  0.24991416  0.52650638  0.49651012  1
  La3+  La79  1  0.74996784  0.16605596  0.51365294  1
  La3+  La80  1  0.24996583  0.85494423  0.23055530  1
  La3+  La81  1  0.74992234  0.83318980  0.76122959  1
  La3+  La82  1  0.75002929  0.18847295  0.25021200  1
  La3+  La83  1  0.24996894  0.14336052  0.76401691  1
  Ru4+  Ru84  1  -0.00011755  -0.00123977  0.00094521  1
  Ru4+  Ru85  1  0.00057541  0.00050875  0.25019196  1
  Ru4+  Ru86  1  0.00044889  0.00090112  0.49885239  1
  Ru4+  Ru87  1  -0.00100577  0.00105621  0.74988666  1
  Ru4+  Ru88  1  -0.00008327  0.33434187  0.00062251  1
  Ru4+  Ru89  1  -0.00051749  0.33244053  0.25000048  1
  Ru4+  Ru90  1  -0.00050692  0.33370551  0.49984940  1
  Ru4+  Ru91  1  -0.00041230  0.33483294  0.74995941  1
  Ru4+  Ru92  1  0.00006044  0.66640730  0.00020945  1
  Ru4+  Ru93  1  0.00136110  0.66496631  0.25033285  1
  Ru4+  Ru94  1  0.00067778  0.66581467  0.49953945  1
  Ru4+  Ru95  1  -0.00081221  0.66843539  0.75027073  1
  Ru4+  Ru96  1  0.49914100  0.00084129  0.00033293  1
  Ru4+  Ru97  1  0.50182259  0.00049490  0.25032170  1
  Ru4+  Ru98  1  0.50006547  0.00189320  0.49982574  1
  Ru4+  Ru99  1  0.50050780  0.00201949  0.74909594  1
  Ru4+  Ru100  1  0.50083577  0.33185574  0.00047105  1
  Ru4+  Ru101  1  0.49972070  0.33133138  0.25042821  1
  Ru4+  Ru102  1  0.50054423  0.33090582  0.49941756  1
  Ru4+  Ru103  1  0.49958583  0.33351026  0.74986830  1
  Ru4+  Ru104  1  0.49998693  0.66663270  0.00018164  1
  Ru4+  Ru105  1  0.50044930  0.66604923  0.25066830  1
  Ru4+  Ru106  1  0.50039317  0.66649869  0.49886115  1
  Ru4+  Ru107  1  0.50005982  0.66684767  0.75080265  1
  Ru4+  Ru108  1  0.11345893  0.16676094  -0.00018222  1
  Ru4+  Ru109  1  0.11218686  0.16707945  0.24973469  1
  Ru4+  Ru110  1  0.11334973  0.16568624  0.50005422  1
  Ru4+  Ru111  1  0.11309180  0.16513963  0.75048678  1
  Ru4+  Ru112  1  0.11264965  0.50072801  -0.00023696  1
  Ru4+  Ru113  1  0.11352368  0.50060913  0.25006452  1
  Ru4+  Ru114  1  0.11228018  0.50068761  0.49997799  1
  Ru4+  Ru115  1  0.11277881  0.49906638  0.74998187  1
  Ru4+  Ru116  1  0.11248090  0.83326105  0.00002810  1
  Ru4+  Ru117  1  0.11243550  0.83361065  0.25011888  1
  Ru4+  Ru118  1  0.11249763  0.83291135  0.50012316  1
  Ru4+  Ru119  1  0.11276148  0.83237130  0.75010487  1
  Ru4+  Ru120  1  0.61284429  0.16655610  -0.00002203  1
  Ru4+  Ru121  1  0.61244617  0.16685407  0.24987968  1
  Ru4+  Ru122  1  0.61259685  0.16602730  0.49997663  1
  Ru4+  Ru123  1  0.61301944  0.16678962  0.75005176  1
  Ru4+  Ru124  1  0.61373150  0.49981671  0.00010706  1
  Ru4+  Ru125  1  0.61325548  0.50115584  0.25021586  1
  Ru4+  Ru126  1  0.61346394  0.50056608  0.49998920  1
  Ru4+  Ru127  1  0.61282043  0.49980238  0.74971114  1
  Ru4+  Ru128  1  0.61339706  0.83300898  0.00019153  1
  Ru4+  Ru129  1  0.61269341  0.83372002  0.25009034  1
  Ru4+  Ru130  1  0.61440276  0.83257965  0.49971658  1
  Ru4+  Ru131  1  0.61322769  0.83213117  0.74932660  1
  Ru4+  Ru132  1  0.38712385  0.16598574  -0.00012791  1
  Ru4+  Ru133  1  0.38721225  0.16743435  0.25017952  1
  Ru4+  Ru134  1  0.38715350  0.16626896  0.50006806  1
  Ru4+  Ru135  1  0.38769473  0.16686978  0.75003705  1
  Ru4+  Ru136  1  0.38609174  0.50113119  0.00004040  1
  Ru4+  Ru137  1  0.38653042  0.50031178  0.25003820  1
  Ru4+  Ru138  1  0.38626311  0.50260958  0.50015120  1
  Ru4+  Ru139  1  0.38787833  0.49993204  0.74990522  1
  Ru4+  Ru140  1  0.38733263  0.83337475  0.00021811  1
  Ru4+  Ru141  1  0.38697678  0.83265674  0.25035295  1
  Ru4+  Ru142  1  0.38745355  0.83339606  0.49988692  1
  Ru4+  Ru143  1  0.38719587  0.83221828  0.74946805  1
  Ru4+  Ru144  1  0.88725814  0.16682730  0.00004711  1
  Ru4+  Ru145  1  0.88706084  0.16807361  0.25018997  1
  Ru4+  Ru146  1  0.88724398  0.16646147  0.49993681  1
  Ru4+  Ru147  1  0.88682718  0.16683967  0.75018918  1
  Ru4+  Ru148  1  0.88697878  0.49993989  0.00002950  1
  Ru4+  Ru149  1  0.88709569  0.49998817  0.25005933  1
  Ru4+  Ru150  1  0.88685331  0.49997350  0.50007570  1
  Ru4+  Ru151  1  0.88726357  0.49995479  0.74998082  1
  Ru4+  Ru152  1  0.88710865  0.83292483  -0.00001925  1
  Ru4+  Ru153  1  0.88608275  0.83390670  0.24975655  1
  Ru4+  Ru154  1  0.88534221  0.83359619  0.50046535  1
  Ru4+  Ru155  1  0.88718822  0.83325704  0.75008141  1
  Ru4+  Ru156  1  0.75005745  0.58195850  0.50153519  1
  Ru4+  Ru157  1  0.74999419  0.08522090  0.75002878  1
  Ru4+  Ru158  1  0.25004910  0.24911198  0.00000096  1
  Ru4+  Ru159  1  0.24998386  0.58146698  0.24893742  1
  Ru4+  Ru160  1  0.24995736  0.40199209  0.49560215  1
  Ru4+  Ru161  1  0.25002878  0.26437614  0.75422952  1
  Ru4+  Ru162  1  0.74989755  0.75282278  0.25107146  1
  Ru4+  Ru163  1  0.25000119  0.73358443  0.24849495  1
  Ru4+  Ru164  1  0.24996408  0.41764650  0.00006174  1
  Ru4+  Ru165  1  0.74997127  0.91422799  0.25106271  1
  Ru4+  Ru166  1  0.25003429  0.73773625  0.75154969  1
  Ru4+  Ru167  1  0.25003679  0.39869824  0.75435554  1
  Ru4+  Ru168  1  0.24990338  0.26325358  0.24990265  1
  Ru4+  Ru169  1  0.24991111  0.91609416  0.00141905  1
  Ru4+  Ru170  1  0.24997467  0.75043686  0.49984964  1
  Ru4+  Ru171  1  0.75005263  0.41795408  0.24882497  1
  Ru4+  Ru172  1  0.25006171  0.91708584  0.49912814  1
  Ru4+  Ru173  1  0.24998191  0.60282139  0.75135129  1
  Ru4+  Ru174  1  0.24999859  0.75013383  0.00095875  1
  Ru4+  Ru175  1  0.24998730  0.06993444  0.24999771  1
  Ru4+  Ru176  1  0.75003431  0.06479295  0.24992133  1
  Ru4+  Ru177  1  0.74998753  0.58056721  0.24861794  1
  Ru4+  Ru178  1  0.25003274  0.24701759  0.49940242  1
  Ru4+  Ru179  1  0.24997960  0.93093482  0.75003545  1
  O2-  O180  1  0.16805830  0.08106125  -0.00004884  1
  O2-  O181  1  0.16737969  0.07996670  0.25008116  1
  O2-  O182  1  0.16807769  0.08113390  0.50008043  1
  O2-  O183  1  0.16806346  0.08037411  0.74986200  1
  O2-  O184  1  0.16829557  0.41412230  -0.00010962  1
  O2-  O185  1  0.16779981  0.41483459  0.24983815  1
  O2-  O186  1  0.16759166  0.41345687  0.50005405  1
  O2-  O187  1  0.16699549  0.41363415  0.74994892  1
  O2-  O188  1  0.16809393  0.74746002  -0.00013643  1
  O2-  O189  1  0.16740021  0.74686545  0.24988369  1
  O2-  O190  1  0.16860844  0.74760173  0.50004461  1
  O2-  O191  1  0.16729800  0.74700080  0.75006166  1
  O2-  O192  1  0.66786658  0.08109045  0.00009939  1
  O2-  O193  1  0.66753144  0.08045198  0.24995535  1
  O2-  O194  1  0.66787683  0.08122926  0.50023691  1
  O2-  O195  1  0.66824431  0.08096445  0.74971072  1
  O2-  O196  1  0.66782659  0.41462548  0.00007859  1
  O2-  O197  1  0.66804586  0.41429651  0.24998030  1
  O2-  O198  1  0.66790092  0.41462046  0.49976683  1
  O2-  O199  1  0.66806383  0.41402863  0.75018309  1
  O2-  O200  1  0.66799813  0.74759650  0.00022757  1
  O2-  O201  1  0.66793047  0.74753709  0.24985463  1
  O2-  O202  1  0.66760472  0.74808078  0.50013666  1
  O2-  O203  1  0.66814181  0.74750140  0.75020159  1
  O2-  O204  1  0.33150823  0.25269083  -0.00019512  1
  O2-  O205  1  0.33282552  0.25293569  0.24996685  1
  O2-  O206  1  0.33164046  0.25263529  0.50021332  1
  O2-  O207  1  0.33271060  0.25328201  0.74990247  1
  O2-  O208  1  0.33250897  0.58548683  -0.00015585  1
  O2-  O209  1  0.33197534  0.58577466  0.25004134  1
  O2-  O210  1  0.33204476  0.58601321  0.49987858  1
  O2-  O211  1  0.33279417  0.58656650  0.75006922  1
  O2-  O212  1  0.33199324  0.91937586  -0.00027465  1
  O2-  O213  1  0.33201576  0.91973052  0.24977798  1
  O2-  O214  1  0.33180398  0.91919969  0.50019079  1
  O2-  O215  1  0.33237791  0.91993986  0.75014608  1
  O2-  O216  1  0.83199601  0.25241977  0.00020035  1
  O2-  O217  1  0.83217281  0.25211083  0.24979733  1
  O2-  O218  1  0.83207732  0.25283550  0.49998929  1
  O2-  O219  1  0.83207407  0.25234079  0.75000137  1
  O2-  O220  1  0.83246698  0.58545548  0.00016260  1
  O2-  O221  1  0.83197784  0.58580198  0.25005914  1
  O2-  O222  1  0.83166354  0.58556036  0.49972041  1
  O2-  O223  1  0.83208598  0.58606143  0.75007179  1
  O2-  O224  1  0.83207248  0.91894891  -0.00019909  1
  O2-  O225  1  0.83187067  0.91909442  0.25016961  1
  O2-  O226  1  0.83247062  0.91846502  0.49986947  1
  O2-  O227  1  0.83209168  0.91947328  0.75013654  1
  O2-  O228  1  0.16832858  0.25249468  -0.00006709  1
  O2-  O229  1  0.16757439  0.25300862  0.25011966  1
  O2-  O230  1  0.16827438  0.25277831  0.50003814  1
  O2-  O231  1  0.16725142  0.25337798  0.74987028  1
  O2-  O232  1  0.16788797  0.58527783  0.00001725  1
  O2-  O233  1  0.16822696  0.58562251  0.24981175  1
  O2-  O234  1  0.16776734  0.58623892  0.50013914  1
  O2-  O235  1  0.16740829  0.58638618  0.75013639  1
  O2-  O236  1  0.16818478  0.91935155  -0.00012553  1
  O2-  O237  1  0.16812859  0.91970320  0.24999198  1
  O2-  O238  1  0.16811967  0.91909431  0.50001223  1
  O2-  O239  1  0.16779766  0.91938975  0.74998755  1
  O2-  O240  1  0.66795438  0.25234943  0.00021268  1
  O2-  O241  1  0.66776877  0.25251932  0.25004791  1
  O2-  O242  1  0.66785801  0.25244765  0.49990979  1
  O2-  O243  1  0.66792574  0.25227003  0.75000432  1
  O2-  O244  1  0.66752095  0.58555703  0.00012664  1
  O2-  O245  1  0.66801421  0.58559151  0.24982684  1
  O2-  O246  1  0.66798764  0.58549989  0.49984637  1
  O2-  O247  1  0.66779110  0.58604268  0.75016264  1
  O2-  O248  1  0.66821475  0.91883674  -0.00002385  1
  O2-  O249  1  0.66832805  0.91905915  0.25002956  1
  O2-  O250  1  0.66762959  0.91834158  0.50047534  1
  O2-  O251  1  0.66799665  0.91926087  0.74990141  1
  O2-  O252  1  0.33226196  0.08103799  -0.00018923  1
  O2-  O253  1  0.33237119  0.07999251  0.24979748  1
  O2-  O254  1  0.33217100  0.08097123  0.50028603  1
  O2-  O255  1  0.33216063  0.07998055  0.74997668  1
  O2-  O256  1  0.33158795  0.41419906  -0.00007562  1
  O2-  O257  1  0.33204770  0.41461824  0.25023413  1
  O2-  O258  1  0.33229356  0.41357444  0.49997638  1
  O2-  O259  1  0.33283945  0.41334957  0.74985890  1
  O2-  O260  1  0.33172636  0.74743056  -0.00024871  1
  O2-  O261  1  0.33249617  0.74707095  0.24992511  1
  O2-  O262  1  0.33167254  0.74730264  0.50002630  1
  O2-  O263  1  0.33254664  0.74694941  0.75024036  1
  O2-  O264  1  0.83237188  0.08086687  -0.00006457  1
  O2-  O265  1  0.83243864  0.08041245  0.24984622  1
  O2-  O266  1  0.83239223  0.08090337  0.49993892  1
  O2-  O267  1  0.83172149  0.08091781  0.74995471  1
  O2-  O268  1  0.83249641  0.41458996  0.00002676  1
  O2-  O269  1  0.83200227  0.41430402  0.24998256  1
  O2-  O270  1  0.83224191  0.41433033  0.50000434  1
  O2-  O271  1  0.83224461  0.41403598  0.75012854  1
  O2-  O272  1  0.83163061  0.74780361  0.00014539  1
  O2-  O273  1  0.83199286  0.74756554  0.25008799  1
  O2-  O274  1  0.83224886  0.74802910  0.49962624  1
  O2-  O275  1  0.83210757  0.74731135  0.75017354  1
  O2-  O276  1  0.45423964  0.56899664  0.98559719  1
  O2-  O277  1  0.94974450  0.75725003  0.21782205  1
  O2-  O278  1  0.55298972  0.08745000  0.47886865  1
  O2-  O279  1  0.45818983  0.43818865  0.50416075  1
  O2-  O280  1  0.04226325  0.56258535  0.77260827  1
  O2-  O281  1  0.04557337  0.43202705  0.48484551  1
  O2-  O282  1  0.54001865  0.89385683  0.48632575  1
  O2-  O283  1  0.04584608  0.23523063  0.73055559  1
  O2-  O284  1  0.45439126  0.23475407  0.26491511  1
  O2-  O285  1  0.04530498  0.23448282  0.76989104  1
  O2-  O286  1  0.04499646  0.23521457  0.98509637  1
  O2-  O287  1  0.95476830  0.56737712  0.73473176  1
  O2-  O288  1  0.54507196  0.56820576  0.51543558  1
  O2-  O289  1  0.45516442  0.23443858  0.98484517  1
  O2-  O290  1  0.54477678  0.90076908  0.51885853  1
  O2-  O291  1  0.45436631  0.09864989  0.48515907  1
  O2-  O292  1  0.95764324  0.89735455  0.47770623  1
  O2-  O293  1  0.45822859  0.89597819  0.22728024  1
  O2-  O294  1  0.45514652  0.09843769  0.76483293  1
  O2-  O295  1  0.95352095  0.09619215  0.26686971  1
  O2-  O296  1  0.95392743  0.23465103  0.76561764  1
  O2-  O297  1  0.04180560  0.10378131  0.02355231  1
  O2-  O298  1  0.95438092  0.09898441  0.98545389  1
  O2-  O299  1  0.95350952  0.90340970  0.23351494  1
  O2-  O300  1  0.45830623  0.10314446  0.22714697  1
  O2-  O301  1  0.54440142  0.23523603  0.51542924  1
  O2-  O302  1  0.04576206  0.43183100  0.98451144  1
  O2-  O303  1  0.96424540  0.77911044  0.50792603  1
  O2-  O304  1  0.95529120  0.90144832  0.98543396  1
  O2-  O305  1  0.45478372  0.43128152  0.98056044  1
  O2-  O306  1  0.54540337  0.56786144  0.01512776  1
  O2-  O307  1  0.45814953  0.43813240  0.50404051  1
  O2-  O308  1  0.54684629  0.90400979  0.76650792  1
  O2-  O309  1  0.03251772  0.88329766  0.73479582  1
  O2-  O310  1  0.54490987  0.23455640  0.76478884  1
  O2-  O311  1  0.95483643  0.56786990  0.98472808  1
  O2-  O312  1  0.54500707  0.76497830  0.98577054  1
  O2-  O313  1  0.54549035  0.23474411  0.23494174  1
  O2-  O314  1  0.04504710  0.76493881  0.76524132  1
  O2-  O315  1  0.04515594  0.23535540  0.51382183  1
  O2-  O316  1  0.53823960  0.44534767  0.50746129  1
  O2-  O317  1  0.45534783  0.43228528  0.01976338  1
  O2-  O318  1  0.95450012  0.43210560  0.51469527  1
  O2-  O319  1  0.54505993  0.76594978  0.23533472  1
  O2-  O320  1  0.95442365  0.43126823  0.98479786  1
  O2-  O321  1  0.04563930  0.90115330  0.48488409  1
  O2-  O322  1  0.03589100  0.44589541  0.25724054  1
  O2-  O323  1  0.45842395  0.43770323  0.27335124  1
  O2-  O324  1  0.06472512  0.06994643  0.78148085  1
  O2-  O325  1  0.06496069  0.59728861  0.96854268  1
  O2-  O326  1  0.93588604  0.26485889  0.03248988  1
  O2-  O327  1  0.56455652  0.93034426  0.28085313  1
  O2-  O328  1  0.56446413  0.73637319  0.46869748  1
  O2-  O329  1  0.56428598  0.40192570  0.20571506  1
  O2-  O330  1  0.06464013  0.59724876  0.28136602  1
  O2-  O331  1  0.57261081  0.38763862  0.54014411  1
  O2-  O332  1  0.43582618  0.73519177  0.03246524  1
  O2-  O333  1  0.43582537  0.73520025  0.28239386  1
  O2-  O334  1  0.93210052  0.93561296  0.53866580  1
  O2-  O335  1  0.56463611  0.73595461  0.71904491  1
  O2-  O336  1  0.56942904  0.93781409  0.46516347  1
  O2-  O337  1  0.06396181  0.93164091  0.28240837  1
  O2-  O338  1  0.93775905  0.92858755  0.21953743  1
  O2-  O339  1  0.06841807  0.60239432  0.71047728  1
  O2-  O340  1  0.56395336  0.26441033  0.03250339  1
  O2-  O341  1  0.43532872  0.93166212  0.79451323  1
  O2-  O342  1  0.07354110  0.94395292  0.70062620  1
  O2-  O343  1  0.06485260  0.73566572  0.53107407  1
  O2-  O344  1  0.56460200  0.59726498  0.28076653  1
  O2-  O345  1  0.56404801  0.06918112  0.96762126  1
  O2-  O346  1  0.43235029  0.93619459  0.29105358  1
  O2-  O347  1  0.42757983  0.39008891  0.46086029  1
  O2-  O348  1  0.43214500  0.39764645  0.21073648  1
  O2-  O349  1  0.92636139  0.72306358  0.53853433  1
  O2-  O350  1  0.43526449  0.93042232  0.70683374  1
  O2-  O351  1  0.56460521  0.93050382  0.04318352  1
  O2-  O352  1  0.06452727  0.26329594  0.21881342  1
  O2-  O353  1  0.43231111  0.06355259  0.29060240  1
  O2-  O354  1  0.94436651  0.75071492  0.21465953  1
  O2-  O355  1  0.43521156  0.73611952  0.71896523  1
  O2-  O356  1  0.93785856  0.07093570  0.28078270  1
  O2-  O357  1  0.06818429  0.06428928  0.96094865  1
  O2-  O358  1  0.06448784  0.06916025  0.53098223  1
  O2-  O359  1  0.93567311  0.59662036  0.53106582  1
  O2-  O360  1  0.56413054  0.40204132  0.71760963  1
  O2-  O361  1  0.93540142  0.73616375  0.03134476  1
  O2-  O362  1  0.07257877  0.38823975  0.29030140  1
  O2-  O363  1  0.56435521  0.40185774  0.29430550  1
  O2-  O364  1  0.93198067  0.72931738  0.30392342  1
  O2-  O365  1  0.56404206  0.40195817  0.96739388  1
  O2-  O366  1  0.06811484  0.93454390  0.79930847  1
  O2-  O367  1  0.56220887  0.92866531  0.78218259  1
  O2-  O368  1  0.55687901  0.08099416  0.47549045  1
  O2-  O369  1  0.93561905  0.26392330  0.28078651  1
  O2-  O370  1  0.56439328  0.93131311  0.95556809  1
  O2-  O371  1  0.43510185  0.59736174  0.53134166  1
  O2-  O372  1  0.25000988  0.33320133  0.66321504  1
  O2-  O373  1  0.75002136  0.66553761  0.59135922  1
  O2-  O374  1  0.25003885  -0.00076939  0.40793658  1
  O2-  O375  1  0.74990892  0.33372392  0.34161695  1
  O2-  O376  1  0.24998007  0.66722739  0.09251996  1
  O2-  O377  1  0.74998449  0.33344842  0.15821331  1
  O2-  O378  1  0.24998320  0.66708779  0.65468247  1
  O2-  O379  1  0.25001745  0.33325351  0.15674033  1
  O2-  O380  1  0.75005311  0.00014267  0.09352286  1
  O2-  O381  1  0.75008304  0.66662987  0.34203373  1
  O2-  O382  1  0.75000322  0.33323199  0.90764682  1
  O2-  O383  1  0.75000442  0.33318765  0.58394834  1
  O2-  O384  1  0.74993568  0.00107308  0.59370562  1
  O2-  O385  1  0.24999817  0.33060084  0.58233446  1
  O2-  O386  1  0.74998179  0.66751793  0.90742662  1
  O2-  O387  1  0.25002890  0.66547764  0.34408357  1
  O2-  O388  1  0.75009685  0.00003222  0.40582517  1
  O2-  O389  1  0.24997947  0.33333881  0.34329540  1
  O2-  O390  1  0.74999697  0.33326735  0.66607753  1
  O2-  O391  1  0.75003297  -0.00018424  0.83215352  1
  O2-  O392  1  0.24998717  0.66719673  0.90754442  1
  O2-  O393  1  0.75003936  0.66679019  0.15799003  1
  O2-  O394  1  0.75002689  0.00001179  0.91704462  1
  O2-  O395  1  0.25008212  -0.00057000  0.09217530  1
  O2-  O396  1  0.25002845  0.83338002  0.92423819  1
  O2-  O397  1  0.25000209  0.49680734  0.59649380  1
  O2-  O398  1  0.25000248  0.49905661  0.32346773  1
  O2-  O399  1  0.75002681  0.83328332  0.64869469  1
  O2-  O400  1  0.24999522  0.83318599  0.64894474  1
  O2-  O401  1  0.74999301  0.83326565  0.40839514  1
  O2-  O402  1  0.25002881  0.16691560  0.14741783  1
  O2-  O403  1  0.74998580  0.50007051  0.33338480  1
  O2-  O404  1  0.74998910  0.49994527  0.85797959  1
  O2-  O405  1  0.75000508  0.16633673  0.89760909  1
  O2-  O406  1  0.75000381  0.50026537  0.64137691  1
  O2-  O407  1  0.25002133  0.83221819  0.34601907  1
  O2-  O408  1  0.25000819  0.16746094  0.64619752  1
  O2-  O409  1  0.25001613  0.83325527  0.08951949  1
  O2-  O410  1  0.24996850  0.50018314  0.66606696  1
  O2-  O411  1  0.24997411  0.83317794  0.42214295  1
  O2-  O412  1  0.25004443  0.49714964  0.39593071  1
  O2-  O413  1  0.74998046  0.83334813  0.15969506  1
  O2-  O414  1  0.74998521  0.16692231  0.39699886  1
  O2-  O415  1  0.75000356  0.49986073  0.41741210  1
  O2-  O416  1  0.24998391  0.83332794  0.57566687  1
  O2-  O417  1  0.24997183  0.83298938  0.85078876  1
  O2-  O418  1  0.25003986  0.16695935  0.35270524  1
  O2-  O419  1  0.74996946  0.50001967  0.09174484  1
  O2-  O420  1  0.52869311  0.66612359  0.62404813  1
  O2-  O421  1  0.02732900  0.33396066  0.12403274  1
  O2-  O422  1  0.47242990  0.00129471  0.62302716  1
  O2-  O423  1  0.02955882  0.66667667  0.12482634  1
  O2-  O424  1  0.97048553  0.00067651  0.62716489  1
  O2-  O425  1  0.02731116  0.66761388  0.37619125  1
  O2-  O426  1  0.96988257  -0.00016326  0.87451419  1
  O2-  O427  1  0.02807671  -0.00021343  0.12484463  1
  O2-  O428  1  0.97202291  0.66647579  0.62737673  1
  O2-  O429  1  0.52734002  0.00100812  0.12636587  1
  O2-  O430  1  0.02895248  0.66747405  0.87440905  1
  O2-  O431  1  0.97036492  0.66714726  0.87453494  1
  O2-  O432  1  0.47260770  0.33220846  0.12408094  1
  O2-  O433  1  0.52653417  0.66691571  0.37508685  1
  O2-  O434  1  0.97155618  0.66482970  0.12468948  1
  O2-  O435  1  0.52767655  0.66667846  0.12551768  1
  O2-  O436  1  0.52611189  0.00066780  0.37377431  1
  O2-  O437  1  0.47164453  0.66659856  0.62461120  1
  O2-  O438  1  0.47263446  0.33203105  0.37423329  1
  O2-  O439  1  0.97282110  0.33420826  0.37605437  1
  O2-  O440  1  0.97217495  0.33331594  0.62514551  1
  O2-  O441  1  0.02872320  0.00045831  0.62500679  1
  O2-  O442  1  0.02808334  0.66679913  0.62475478  1
  O2-  O443  1  0.02806369  -0.00078848  0.87574564  1
