# generated using pymatgen
data_La7(Ru4O11)2
_symmetry_space_group_name_H-M   'P 1'
_cell_length_a   23.99093021
_cell_length_b   16.83062691
_cell_length_c   15.42784486
_cell_angle_alpha   90.00058151
_cell_angle_beta   90.00097063
_cell_angle_gamma   89.99821073
_symmetry_Int_Tables_number   1
_chemical_formula_structural   La7(Ru4O11)2
_chemical_formula_sum   'La84 Ru96 O264'
_cell_volume   6229.49215446
_cell_formula_units_Z   12
loop_
 _symmetry_equiv_pos_site_id
 _symmetry_equiv_pos_as_xyz
  1  'x, y, z'
loop_
 _atom_type_symbol
 _atom_type_oxidation_number
  La3+  3.0
  Ru4+  4.0
  O2-  -2.0
loop_
 _atom_site_type_symbol
 _atom_site_label
 _atom_site_symmetry_multiplicity
 _atom_site_fract_x
 _atom_site_fract_y
 _atom_site_fract_z
 _atom_site_occupancy
  La3+  La0  1  0.14237654  0.00081437  0.11986300  1
  La3+  La1  1  0.14522483  -0.00130628  0.37407110  1
  La3+  La2  1  0.14006992  0.00041310  0.62746067  1
  La3+  La3  1  0.14605168  0.00230361  0.87899636  1
  La3+  La4  1  0.14020276  0.33426187  0.12560496  1
  La3+  La5  1  0.14233169  0.33221602  0.37646228  1
  La3+  La6  1  0.13903304  0.34097846  0.62506105  1
  La3+  La7  1  0.13915674  0.33157815  0.87297518  1
  La3+  La8  1  0.13813043  0.66415781  0.12630921  1
  La3+  La9  1  0.13356874  0.66771826  0.37808518  1
  La3+  La10  1  0.13433948  0.66661000  0.62247242  1
  La3+  La11  1  0.13586441  0.66701530  0.87340639  1
  La3+  La12  1  0.63867879  0.00164195  0.13031792  1
  La3+  La13  1  0.63331755  -0.00174201  0.36736043  1
  La3+  La14  1  0.63867047  0.00181710  0.62431671  1
  La3+  La15  1  0.63743671  0.00537715  0.87312168  1
  La3+  La16  1  0.64391685  0.33480106  0.11678583  1
  La3+  La17  1  0.63883205  0.32586753  0.37165354  1
  La3+  La18  1  0.63901259  0.33163832  0.62807226  1
  La3+  La19  1  0.63634011  0.33567941  0.87747850  1
  La3+  La20  1  0.63365723  0.66748291  0.12665678  1
  La3+  La21  1  0.63435959  0.67328141  0.37780860  1
  La3+  La22  1  0.63830485  0.67039577  0.62464232  1
  La3+  La23  1  0.64295676  0.66264358  0.87034624  1
  La3+  La24  1  0.35672779  0.00141548  0.12244660  1
  La3+  La25  1  0.35819968  0.00184799  0.37387984  1
  La3+  La26  1  0.36986085  0.01082925  0.63766633  1
  La3+  La27  1  0.36332979  0.00716958  0.87242856  1
  La3+  La28  1  0.36177492  0.33237990  0.12646098  1
  La3+  La29  1  0.35847840  0.33063277  0.37333595  1
  La3+  La30  1  0.36442798  0.33379668  0.62851498  1
  La3+  La31  1  0.36436587  0.33292023  0.87181707  1
  La3+  La32  1  0.36153621  0.66671922  0.12575457  1
  La3+  La33  1  0.36230574  0.66819975  0.37486489  1
  La3+  La34  1  0.35883763  0.66733873  0.62297265  1
  La3+  La35  1  0.36088032  0.67030615  0.87640379  1
  La3+  La36  1  0.85221949  0.00319441  0.12573881  1
  La3+  La37  1  0.85758675  -0.00089459  0.37585667  1
  La3+  La38  1  0.85869911  -0.00265576  0.62304063  1
  La3+  La39  1  0.85894423  -0.00015953  0.87322982  1
  La3+  La40  1  0.86405465  0.33369703  0.11855217  1
  La3+  La41  1  0.86000942  0.33039853  0.37800328  1
  La3+  La42  1  0.86038827  0.33171241  0.62568927  1
  La3+  La43  1  0.85876702  0.33506641  0.87602467  1
  La3+  La44  1  0.86490227  0.66494066  0.12371220  1
  La3+  La45  1  0.86083411  0.66907820  0.38059185  1
  La3+  La46  1  0.86406839  0.66708356  0.62188289  1
  La3+  La47  1  0.86227817  0.66412258  0.87289416  1
  La3+  La48  1  -0.00073643  0.17083193  0.35045725  1
  La3+  La49  1  -0.00010674  0.50063581  0.36676503  1
  La3+  La50  1  0.49800035  0.83341483  0.63579912  1
  La3+  La51  1  0.00693165  0.82812171  0.85688715  1
  La3+  La52  1  -0.00363174  0.50779264  0.63669783  1
  La3+  La53  1  0.50129221  0.49398435  0.63993263  1
  La3+  La54  1  -0.00720791  0.83003259  0.12951931  1
  La3+  La55  1  0.00451881  0.17209417  0.61727703  1
  La3+  La56  1  0.50115995  0.84050118  0.13723831  1
  La3+  La57  1  0.49445702  0.15781832  0.63934416  1
  La3+  La58  1  -0.00053171  0.16669220  0.86621884  1
  La3+  La59  1  -0.00045238  0.83692916  0.38701993  1
  La3+  La60  1  0.00021305  0.49689665  0.38306621  1
  La3+  La61  1  0.50001808  0.50154317  0.61912894  1
  La3+  La62  1  -0.00538922  0.17274563  0.11184685  1
  La3+  La63  1  0.00083996  0.16347734  0.88786588  1
  La3+  La64  1  0.49972460  0.84177953  0.15414560  1
  La3+  La65  1  0.49751905  0.50397949  0.35285599  1
  La3+  La66  1  -0.00324767  0.15917847  0.36853008  1
  La3+  La67  1  -0.00010711  0.16696167  0.63763583  1
  La3+  La68  1  0.50462871  0.49771468  0.37127808  1
  La3+  La69  1  0.49842093  0.49486024  0.88883994  1
  La3+  La70  1  0.49938320  0.83090560  0.87374403  1
  La3+  La71  1  0.50105922  0.15366025  0.86344390  1
  La3+  La72  1  0.24947966  0.16290838  0.71338681  1
  La3+  La73  1  0.75041343  0.49495541  0.28635092  1
  La3+  La74  1  0.25051638  0.16317923  0.23087984  1
  La3+  La75  1  0.24991693  0.46262851  0.80621130  1
  La3+  La76  1  0.24984609  0.49662869  0.46165399  1
  La3+  La77  1  0.74849510  0.89710325  -0.04687303  1
  La3+  La78  1  0.74933024  0.16443409  -0.01008046  1
  La3+  La79  1  0.25037672  0.80258084  0.72323138  1
  La3+  La80  1  0.74956101  0.56272085  0.51252486  1
  La3+  La81  1  0.74901130  0.88366933  0.71401251  1
  La3+  La82  1  0.75084779  0.13068206  0.76895817  1
  La3+  La83  1  0.75123242  0.91178364  0.26595377  1
  Ru4+  Ru84  1  0.00128851  -0.00874355  0.00790015  1
  Ru4+  Ru85  1  -0.00525371  0.00169103  0.24400347  1
  Ru4+  Ru86  1  0.00047894  -0.00600092  0.50539408  1
  Ru4+  Ru87  1  -0.00244348  -0.00254135  0.74861048  1
  Ru4+  Ru88  1  0.00121580  0.33706503  0.00169593  1
  Ru4+  Ru89  1  -0.00072585  0.33578775  0.24831828  1
  Ru4+  Ru90  1  -0.00449148  0.33561796  0.50708316  1
  Ru4+  Ru91  1  -0.00018634  0.33001535  0.75436237  1
  Ru4+  Ru92  1  0.00044836  0.65771851  -0.00538446  1
  Ru4+  Ru93  1  -0.00330100  0.67389437  0.25118051  1
  Ru4+  Ru94  1  0.00039625  0.67172260  0.50727866  1
  Ru4+  Ru95  1  -0.00383596  0.67425657  0.75090500  1
  Ru4+  Ru96  1  0.49595666  0.00027117  -0.00163326  1
  Ru4+  Ru97  1  0.49869075  0.00699298  0.24549218  1
  Ru4+  Ru98  1  0.49938531  -0.00073159  0.50839102  1
  Ru4+  Ru99  1  0.49429609  -0.00509007  0.74523185  1
  Ru4+  Ru100  1  0.50375416  0.33151267  -0.00256085  1
  Ru4+  Ru101  1  0.49725232  0.32431996  0.25225388  1
  Ru4+  Ru102  1  0.49772430  0.32688001  0.50062880  1
  Ru4+  Ru103  1  0.50472048  0.32695239  0.74946259  1
  Ru4+  Ru104  1  0.50273037  0.67024084  0.01212692  1
  Ru4+  Ru105  1  0.49577235  0.66044703  0.24761308  1
  Ru4+  Ru106  1  0.49524922  0.66764830  0.49304771  1
  Ru4+  Ru107  1  0.50180388  0.67143618  0.74743463  1
  Ru4+  Ru108  1  0.11496753  0.16328262  -0.00027811  1
  Ru4+  Ru109  1  0.11202020  0.16352101  0.25038392  1
  Ru4+  Ru110  1  0.11585899  0.16693098  0.50439508  1
  Ru4+  Ru111  1  0.11076255  0.16726745  0.75053530  1
  Ru4+  Ru112  1  0.10999974  0.50123159  -0.00238129  1
  Ru4+  Ru113  1  0.11413039  0.49704969  0.24791821  1
  Ru4+  Ru114  1  0.11175025  0.49852910  0.49884849  1
  Ru4+  Ru115  1  0.11134675  0.49456212  0.75092194  1
  Ru4+  Ru116  1  0.11291497  0.83685154  -0.00290635  1
  Ru4+  Ru117  1  0.11226568  0.83221103  0.24951847  1
  Ru4+  Ru118  1  0.11506225  0.84008157  0.50235940  1
  Ru4+  Ru119  1  0.10982556  0.83047213  0.74895045  1
  Ru4+  Ru120  1  0.61282907  0.17153624  -0.00016973  1
  Ru4+  Ru121  1  0.60949237  0.16485136  0.24998708  1
  Ru4+  Ru122  1  0.61497794  0.16841420  0.50063249  1
  Ru4+  Ru123  1  0.61569960  0.17400310  0.74709421  1
  Ru4+  Ru124  1  0.61292476  0.49705852  -0.00152401  1
  Ru4+  Ru125  1  0.61040707  0.49870887  0.24984036  1
  Ru4+  Ru126  1  0.61284496  0.49380747  0.49960231  1
  Ru4+  Ru127  1  0.61784985  0.49981779  0.75258492  1
  Ru4+  Ru128  1  0.60971554  0.83008794  -0.00089248  1
  Ru4+  Ru129  1  0.61440742  0.83789843  0.24966318  1
  Ru4+  Ru130  1  0.61616064  0.83883137  0.49672255  1
  Ru4+  Ru131  1  0.60970479  0.83481162  0.75070416  1
  Ru4+  Ru132  1  0.38687888  0.16296084  -0.00352636  1
  Ru4+  Ru133  1  0.39063676  0.17122284  0.24907583  1
  Ru4+  Ru134  1  0.38968388  0.16595525  0.50296329  1
  Ru4+  Ru135  1  0.38834253  0.16356410  0.75084853  1
  Ru4+  Ru136  1  0.38813358  0.49915222  -0.00133873  1
  Ru4+  Ru137  1  0.38948009  0.49934595  0.25022157  1
  Ru4+  Ru138  1  0.38477666  0.50000056  0.49966759  1
  Ru4+  Ru139  1  0.38389291  0.50328507  0.75236763  1
  Ru4+  Ru140  1  0.38630617  0.83521133  -0.00355570  1
  Ru4+  Ru141  1  0.38672210  0.83402077  0.25042294  1
  Ru4+  Ru142  1  0.38636493  0.83451938  0.50162929  1
  Ru4+  Ru143  1  0.39340842  0.83583269  0.74962364  1
  Ru4+  Ru144  1  0.88792002  0.16163136  -0.00085191  1
  Ru4+  Ru145  1  0.88607654  0.15947735  0.24804717  1
  Ru4+  Ru146  1  0.88291877  0.17011793  0.50143778  1
  Ru4+  Ru147  1  0.89358549  0.16719688  0.74901114  1
  Ru4+  Ru148  1  0.88883038  0.50078397  -0.00175713  1
  Ru4+  Ru149  1  0.88982670  0.50081591  0.24966509  1
  Ru4+  Ru150  1  0.88385741  0.49418583  0.49996098  1
  Ru4+  Ru151  1  0.88340272  0.50051968  0.75120383  1
  Ru4+  Ru152  1  0.89183202  0.83801665  0.00228426  1
  Ru4+  Ru153  1  0.89097733  0.83325830  0.25100865  1
  Ru4+  Ru154  1  0.88482543  0.83525285  0.50253883  1
  Ru4+  Ru155  1  0.89156328  0.83547732  0.74663012  1
  Ru4+  Ru156  1  0.24998939  0.58504537  -0.00725156  1
  Ru4+  Ru157  1  0.25133457  0.90717988  0.49974096  1
  Ru4+  Ru158  1  0.74957571  0.61763427  0.21347447  1
  Ru4+  Ru159  1  0.24970183  0.60542501  0.74392216  1
  Ru4+  Ru160  1  0.25013279  0.24855966  0.00216259  1
  Ru4+  Ru161  1  0.75058583  0.73652148  0.73897844  1
  Ru4+  Ru162  1  0.25033244  0.59529458  0.25137573  1
  Ru4+  Ru163  1  0.24988840  0.90935004  0.25104713  1
  Ru4+  Ru164  1  0.25033915  0.41419884  -0.00526787  1
  Ru4+  Ru165  1  0.25062711  0.09465398  0.49532962  1
  Ru4+  Ru166  1  0.74961152  0.08161081  0.50101857  1
  Ru4+  Ru167  1  0.25027109  0.76072987  0.50198081  1
  Ru4+  Ru168  1  0.75045407  0.74896149  0.25525237  1
  Ru4+  Ru169  1  0.75058468  0.73936964  0.00225433  1
  Ru4+  Ru170  1  0.25053899  0.23597010  0.49164012  1
  Ru4+  Ru171  1  0.24958690  0.75599585  0.25118821  1
  Ru4+  Ru172  1  0.75018834  0.37363634  0.20571442  1
  Ru4+  Ru173  1  0.25050014  0.94382314  0.77476015  1
  Ru4+  Ru174  1  0.75027847  0.23199231  0.23949630  1
  Ru4+  Ru175  1  0.74928814  0.39912875  0.51600926  1
  Ru4+  Ru176  1  0.75031760  0.27299554  0.73958649  1
  Ru4+  Ru177  1  0.74950249  0.57597229  -0.00200328  1
  Ru4+  Ru178  1  0.24973764  0.75602992  -0.00655988  1
  Ru4+  Ru179  1  0.25056663  0.41150796  0.24763885  1
  O2-  O180  1  0.16743314  0.08374601  0.00115761  1
  O2-  O181  1  0.16822348  0.08227137  0.24694725  1
  O2-  O182  1  0.16896926  0.08168545  0.50068077  1
  O2-  O183  1  0.16877948  0.08207566  0.74760471  1
  O2-  O184  1  0.16400209  0.41483987  -0.00085403  1
  O2-  O185  1  0.16611218  0.41406098  0.24914964  1
  O2-  O186  1  0.16966950  0.41501113  0.50099508  1
  O2-  O187  1  0.16654357  0.41371881  0.75237140  1
  O2-  O188  1  0.16750403  0.74959026  0.00008738  1
  O2-  O189  1  0.16782609  0.74809131  0.24972373  1
  O2-  O190  1  0.16868681  0.75025341  0.49771626  1
  O2-  O191  1  0.16666351  0.74457351  0.75225156  1
  O2-  O192  1  0.66572070  0.08362280  -0.00235394  1
  O2-  O193  1  0.66519955  0.08400737  0.24995925  1
  O2-  O194  1  0.66538453  0.08112060  0.50010049  1
  O2-  O195  1  0.66379527  0.08065169  0.75115888  1
  O2-  O196  1  0.66518554  0.41606122  -0.00559853  1
  O2-  O197  1  0.66512576  0.41181348  0.25108167  1
  O2-  O198  1  0.66628745  0.41115798  0.50164149  1
  O2-  O199  1  0.66766519  0.41222099  0.75328096  1
  O2-  O200  1  0.66652498  0.74747203  0.00028895  1
  O2-  O201  1  0.66431396  0.74788252  0.25030173  1
  O2-  O202  1  0.66248826  0.75019126  0.50143462  1
  O2-  O203  1  0.66763939  0.74672558  0.74913157  1
  O2-  O204  1  0.33515081  0.25362843  0.00028403  1
  O2-  O205  1  0.33098314  0.24972645  0.24970149  1
  O2-  O206  1  0.33406487  0.25187989  0.50139399  1
  O2-  O207  1  0.33376487  0.25230794  0.74611145  1
  O2-  O208  1  0.33542742  0.58621405  -0.00045042  1
  O2-  O209  1  0.33362192  0.58921688  0.25084292  1
  O2-  O210  1  0.33267043  0.58749891  0.49789408  1
  O2-  O211  1  0.33294318  0.58809234  0.74951915  1
  O2-  O212  1  0.33488390  0.91543077  0.00214223  1
  O2-  O213  1  0.33349745  0.91760386  0.25024633  1
  O2-  O214  1  0.33000671  0.91896665  0.50161904  1
  O2-  O215  1  0.33287062  0.92166536  0.75048777  1
  O2-  O216  1  0.83110244  0.25257487  -0.00083473  1
  O2-  O217  1  0.83572719  0.25125400  0.24727971  1
  O2-  O218  1  0.83204816  0.25204641  0.50399984  1
  O2-  O219  1  0.83163586  0.25523753  0.74977171  1
  O2-  O220  1  0.83556505  0.58408150  0.00092572  1
  O2-  O221  1  0.83312779  0.58933395  0.24827900  1
  O2-  O222  1  0.84098397  0.58994206  0.50130778  1
  O2-  O223  1  0.83792333  0.58484017  0.75067587  1
  O2-  O224  1  0.83519583  0.91987180  -0.00181596  1
  O2-  O225  1  0.84089649  0.92041185  0.24986315  1
  O2-  O226  1  0.83477200  0.91641176  0.49905299  1
  O2-  O227  1  0.83677517  0.91997594  0.75053577  1
  O2-  O228  1  0.16535783  0.25485281  -0.00038281  1
  O2-  O229  1  0.16534892  0.25193207  0.24612016  1
  O2-  O230  1  0.17047674  0.25054893  0.49934981  1
  O2-  O231  1  0.16759417  0.25457467  0.75014432  1
  O2-  O232  1  0.16632386  0.58737064  -0.00025805  1
  O2-  O233  1  0.16579466  0.58841252  0.25013514  1
  O2-  O234  1  0.16877764  0.58695100  0.49461843  1
  O2-  O235  1  0.16672182  0.58701178  0.75111067  1
  O2-  O236  1  0.16785651  0.91476786  0.00474574  1
  O2-  O237  1  0.16768250  0.91765507  0.24902759  1
  O2-  O238  1  0.16959652  0.91706775  0.50174902  1
  O2-  O239  1  0.16568875  0.91918126  0.74995909  1
  O2-  O240  1  0.67189932  0.25334075  -0.00578884  1
  O2-  O241  1  0.67038841  0.24754939  0.25151807  1
  O2-  O242  1  0.66292902  0.25227933  0.50098839  1
  O2-  O243  1  0.67014956  0.25370760  0.75349129  1
  O2-  O244  1  0.66498787  0.58614100  0.00084579  1
  O2-  O245  1  0.66784462  0.58984532  0.24880192  1
  O2-  O246  1  0.65850580  0.59164379  0.50026210  1
  O2-  O247  1  0.66621457  0.58302667  0.75005548  1
  O2-  O248  1  0.66027726  0.92083704  0.00135840  1
  O2-  O249  1  0.66204552  0.92347338  0.24998746  1
  O2-  O250  1  0.66713113  0.91653345  0.50182477  1
  O2-  O251  1  0.65996763  0.92247187  0.75195131  1
  O2-  O252  1  0.33578419  0.08308547  0.00102062  1
  O2-  O253  1  0.33264934  0.08306332  0.24768116  1
  O2-  O254  1  0.33021937  0.08177804  0.50042627  1
  O2-  O255  1  0.32962904  0.08339841  0.74851384  1
  O2-  O256  1  0.33309457  0.41337955  -0.00201992  1
  O2-  O257  1  0.33404463  0.41258788  0.25013451  1
  O2-  O258  1  0.33311880  0.41183517  0.50138845  1
  O2-  O259  1  0.33249443  0.41250969  0.74930923  1
  O2-  O260  1  0.33158440  0.74822703  0.00051357  1
  O2-  O261  1  0.32854131  0.74752670  0.25108597  1
  O2-  O262  1  0.33166758  0.74815279  0.49927457  1
  O2-  O263  1  0.33651686  0.74373168  0.74992817  1
  O2-  O264  1  0.83039569  0.08119213  -0.00346632  1
  O2-  O265  1  0.83243293  0.08329082  0.25409480  1
  O2-  O266  1  0.83327618  0.08037197  0.50178707  1
  O2-  O267  1  0.83759322  0.07768636  0.74850060  1
  O2-  O268  1  0.83319385  0.41528189  0.00056787  1
  O2-  O269  1  0.83513227  0.41042088  0.24691928  1
  O2-  O270  1  0.83143633  0.41246141  0.50364411  1
  O2-  O271  1  0.83536825  0.41257484  0.74992086  1
  O2-  O272  1  0.83728867  0.74668259  0.00005310  1
  O2-  O273  1  0.83674012  0.74638203  0.24839595  1
  O2-  O274  1  0.83679790  0.74720205  0.50086610  1
  O2-  O275  1  0.83573091  0.74619758  0.75032657  1
  O2-  O276  1  0.04912944  0.43157919  0.26292605  1
  O2-  O277  1  0.45362025  0.10057032  0.76102338  1
  O2-  O278  1  0.54610481  0.75597586  0.51380607  1
  O2-  O279  1  0.94786817  0.58012684  0.02157092  1
  O2-  O280  1  0.54976846  0.56557717  0.48970189  1
  O2-  O281  1  0.55506318  0.09393793  0.98402570  1
  O2-  O282  1  0.45100920  0.43110060  0.76764962  1
  O2-  O283  1  0.55101946  0.76975072  0.47879345  1
  O2-  O284  1  0.55194436  0.09898862  0.74063805  1
  O2-  O285  1  0.45226917  0.57367174  0.74134558  1
  O2-  O286  1  0.96857682  0.44454880  0.99223436  1
  O2-  O287  1  0.54654635  0.89868715  0.25441434  1
  O2-  O288  1  0.95772960  0.88486547  0.94975115  1
  O2-  O289  1  0.05129325  0.56734950  0.98506081  1
  O2-  O290  1  0.53375144  0.89226536  0.52983399  1
  O2-  O291  1  0.04706582  0.89841767  0.26258386  1
  O2-  O292  1  0.95249245  0.56207272  0.50950621  1
  O2-  O293  1  0.04108130  0.57514533  0.76707838  1
  O2-  O294  1  0.55527364  0.76083668  0.23362362  1
  O2-  O295  1  0.53292486  0.22136746  0.28558918  1
  O2-  O296  1  0.03878436  0.12006305  0.21429609  1
  O2-  O297  1  0.03914548  0.21674765  0.47147590  1
  O2-  O298  1  0.44900558  0.09002133  0.73587629  1
  O2-  O299  1  0.05285969  0.57279595  0.73251863  1
  O2-  O300  1  0.54509277  0.90825557  0.01207326  1
  O2-  O301  1  0.53795893  0.21054235  0.24973148  1
  O2-  O302  1  0.05090146  0.57104786  0.23604014  1
  O2-  O303  1  0.45347809  0.42891032  0.48904389  1
  O2-  O304  1  0.05293373  0.75866484  0.48162706  1
  O2-  O305  1  0.04734860  0.42858349  0.54726907  1
  O2-  O306  1  0.45155694  0.23912712  0.76578058  1
  O2-  O307  1  0.53750675  0.90774747  0.23156036  1
  O2-  O308  1  0.95290516  0.76840679  0.74100689  1
  O2-  O309  1  0.95274854  0.09610218  0.51355926  1
  O2-  O310  1  0.04716525  0.24021875  0.00836902  1
  O2-  O311  1  0.45376855  0.23195978  0.51399684  1
  O2-  O312  1  0.53358037  0.22343908  0.96518862  1
  O2-  O313  1  0.04836859  0.90537067  0.51051971  1
  O2-  O314  1  0.04772330  0.42964495  0.74146168  1
  O2-  O315  1  0.45037531  0.57342584  0.49072881  1
  O2-  O316  1  0.46103655  0.10874222  0.22252524  1
  O2-  O317  1  0.94732229  0.76025084  0.48060436  1
  O2-  O318  1  0.53467316  0.77660277  0.03388393  1
  O2-  O319  1  0.95221860  0.43657101  0.23941161  1
  O2-  O320  1  0.45257695  0.09774947  0.98250753  1
  O2-  O321  1  0.54179699  0.76398654  0.26666234  1
  O2-  O322  1  0.04322755  0.88313165  0.04266749  1
  O2-  O323  1  0.04906030  0.76054468  0.52037598  1
  O2-  O324  1  0.93960013  0.92464159  0.28399932  1
  O2-  O325  1  0.43937526  0.40316402  0.96679233  1
  O2-  O326  1  0.93752558  0.41419591  0.47402852  1
  O2-  O327  1  0.93602407  0.25630063  0.47701448  1
  O2-  O328  1  0.56917025  0.93899370  0.21044463  1
  O2-  O329  1  0.93619177  0.07383908  0.92263208  1
  O2-  O330  1  0.43745184  0.73768829  0.96010257  1
  O2-  O331  1  0.56847044  0.71573040  0.93315036  1
  O2-  O332  1  0.93610992  0.07141223  0.18899138  1
  O2-  O333  1  0.93735514  0.07904116  0.05896907  1
  O2-  O334  1  0.07096669  0.05232908  0.31724701  1
  O2-  O335  1  0.93654453  0.59708890  0.28684817  1
  O2-  O336  1  0.06485870  0.73785364  0.71937729  1
  O2-  O337  1  0.43374911  0.74347999  0.22382205  1
  O2-  O338  1  0.93774504  0.93298032  0.72034502  1
  O2-  O339  1  0.06123525  0.07708473  0.02489644  1
  O2-  O340  1  0.57647370  0.27366138  0.04501429  1
  O2-  O341  1  0.43573825  0.07496371  0.52446751  1
  O2-  O342  1  0.56396972  0.58811178  0.72498005  1
  O2-  O343  1  0.57629659  0.93815136  0.45649257  1
  O2-  O344  1  0.93477160  0.06816563  0.32771623  1
  O2-  O345  1  0.42855602  0.26310547  0.22311894  1
  O2-  O346  1  0.06165635  0.60147495  0.22275500  1
  O2-  O347  1  0.56209973  0.74590660  0.72601543  1
  O2-  O348  1  0.43714603  0.40182596  0.77561446  1
  O2-  O349  1  0.92857179  0.39129681  0.96136861  1
  O2-  O350  1  0.56332251  0.40841262  0.71568245  1
  O2-  O351  1  0.56449392  0.58933224  0.27451222  1
  O2-  O352  1  0.56827523  0.07419522  0.27686105  1
  O2-  O353  1  0.92727438  0.93496115  0.06749164  1
  O2-  O354  1  0.56308481  0.25712018  0.71318061  1
  O2-  O355  1  0.06218922  0.06925502  0.71583822  1
  O2-  O356  1  0.05465581  0.42914635  0.55021686  1
  O2-  O357  1  0.94091398  0.59287727  0.51922252  1
  O2-  O358  1  0.43014217  0.06523933  0.28544776  1
  O2-  O359  1  0.06367744  0.07046794  0.53365074  1
  O2-  O360  1  0.43074904  0.06146620  0.78543720  1
  O2-  O361  1  0.56128108  0.06660280  0.96025482  1
  O2-  O362  1  0.58751906  0.29506159  0.20481601  1
  O2-  O363  1  0.07796029  0.42050483  0.41534918  1
  O2-  O364  1  0.06240428  0.59536053  0.53484590  1
  O2-  O365  1  0.08177675  0.26731714  0.56100804  1
  O2-  O366  1  0.93605510  0.93325272  0.52902295  1
  O2-  O367  1  0.07756145  0.93744966  0.94008671  1
  O2-  O368  1  0.56588631  0.07050657  0.73034880  1
  O2-  O369  1  0.93805217  0.25320624  0.96387932  1
  O2-  O370  1  0.06160157  0.73789839  0.96561816  1
  O2-  O371  1  0.43803015  0.92866805  0.96397998  1
  O2-  O372  1  0.24975911  0.66794639  0.90053830  1
  O2-  O373  1  0.25026919  -0.00786398  0.34590285  1
  O2-  O374  1  0.75040093  0.66049995  0.92197754  1
  O2-  O375  1  0.25019687  0.00413531  0.17394833  1
  O2-  O376  1  0.25029625  -0.00218140  0.08454988  1
  O2-  O377  1  0.75019029  0.66236009  0.33755137  1
  O2-  O378  1  0.74940867  0.32149841  0.44151955  1
  O2-  O379  1  0.74973764  0.00509177  0.40590438  1
  O2-  O380  1  0.75019874  0.32447831  0.31730456  1
  O2-  O381  1  0.25063061  -0.00573450  0.88435235  1
  O2-  O382  1  0.74835415  -0.00689356  0.14914188  1
  O2-  O383  1  0.75002678  0.67047059  0.43066460  1
  O2-  O384  1  0.75077404  0.65085655  0.80835940  1
  O2-  O385  1  0.24988556  0.32717956  0.33199412  1
  O2-  O386  1  0.24951300  0.00037914  0.65346323  1
  O2-  O387  1  0.25052079  0.67492735  0.59651532  1
  O2-  O388  1  0.75002595  0.66228620  0.64550583  1
  O2-  O389  1  0.24926480  0.67009167  0.09280976  1
  O2-  O390  1  0.25000284  0.33407988  0.89871815  1
  O2-  O391  1  0.75017188  0.00568667  0.59733874  1
  O2-  O392  1  0.74931015  0.00308907  0.85106317  1
  O2-  O393  1  0.24978433  0.33229017  0.09960520  1
  O2-  O394  1  0.75055629  0.65833362  0.09821333  1
  O2-  O395  1  0.25058597  0.33593605  0.42331015  1
  O2-  O396  1  0.24983341  0.50249145  0.32788199  1
  O2-  O397  1  0.24983986  0.16707692  0.37628530  1
  O2-  O398  1  0.75017174  0.17750376  0.12697196  1
  O2-  O399  1  0.75000294  0.48088878  0.61187217  1
  O2-  O400  1  0.74989076  0.49545790  0.14503292  1
  O2-  O401  1  0.25014852  0.49841075  0.59205436  1
  O2-  O402  1  0.25010317  0.50058082  0.06544480  1
  O2-  O403  1  0.25002007  0.83506591  0.86232807  1
  O2-  O404  1  0.25000994  0.16045674  0.93685983  1
  O2-  O405  1  0.74954561  0.48559280  0.05826347  1
  O2-  O406  1  0.75029997  0.81085106  0.84756071  1
  O2-  O407  1  0.25002598  0.17062456  0.84927067  1
  O2-  O408  1  0.74987143  0.81742713  0.16172909  1
  O2-  O409  1  0.74963007  0.17459269  0.63582892  1
  O2-  O410  1  0.75047065  0.82320965  0.60169033  1
  O2-  O411  1  0.74996831  0.15829892  0.33166773  1
  O2-  O412  1  0.74999172  0.16946711  0.41961358  1
  O2-  O413  1  0.75042981  0.82942510  0.07291271  1
  O2-  O414  1  0.75006553  0.49882002  0.69836647  1
  O2-  O415  1  0.74988682  0.83390563  0.44953950  1
  O2-  O416  1  0.75006256  0.47400671  0.41346780  1
  O2-  O417  1  0.25004745  0.51121567  0.67729889  1
  O2-  O418  1  0.74973027  0.81609059  0.36641646  1
  O2-  O419  1  0.25000321  0.50296567  0.18593712  1
  O2-  O420  1  0.97103297  0.67043136  0.87353593  1
  O2-  O421  1  0.54458864  0.00127321  0.61512828  1
  O2-  O422  1  0.95587315  0.33382098  0.35619391  1
  O2-  O423  1  0.97392656  0.66543258  0.62871443  1
  O2-  O424  1  0.02630713  -0.00772857  0.13191862  1
  O2-  O425  1  0.54518847  0.65845992  0.12402890  1
  O2-  O426  1  0.04439628  0.31331208  0.35272700  1
  O2-  O427  1  0.45363686  0.66578574  0.37006001  1
  O2-  O428  1  0.46928870  -0.00862538  0.12488524  1
  O2-  O429  1  0.53057864  0.33928267  0.87424243  1
  O2-  O430  1  0.97120308  0.32846105  0.12585516  1
  O2-  O431  1  0.47247861  0.33726735  0.62929239  1
  O2-  O432  1  0.47397951  0.33648348  0.37148275  1
  O2-  O433  1  0.02836914  0.66163787  0.37265090  1
  O2-  O434  1  0.45765495  -0.01569370  0.62769662  1
  O2-  O435  1  0.51858834  0.66296533  0.61571879  1
  O2-  O436  1  0.02265147  0.01240620  0.86311665  1
  O2-  O437  1  0.46741358  -0.01096231  0.38886940  1
  O2-  O438  1  0.53932586  0.66603056  0.38337009  1
  O2-  O439  1  0.45611600  0.65793801  0.11395615  1
  O2-  O440  1  0.52274151  0.35314903  0.12547693  1
  O2-  O441  1  0.52345189  0.00843978  0.37531176  1
  O2-  O442  1  0.46724625  0.33857307  0.11761613  1
  O2-  O443  1  0.01451634  0.32343301  0.63714529  1
