# generated using pymatgen
data_La7(Ru4O11)2
_symmetry_space_group_name_H-M   'P 1'
_cell_length_a   23.99128899
_cell_length_b   16.83078082
_cell_length_c   15.42684243
_cell_angle_alpha   89.99925550
_cell_angle_beta   90.00034079
_cell_angle_gamma   89.99890099
_symmetry_Int_Tables_number   1
_chemical_formula_structural   La7(Ru4O11)2
_chemical_formula_sum   'La84 Ru96 O264'
_cell_volume   6229.23751167
_cell_formula_units_Z   12
loop_
 _symmetry_equiv_pos_site_id
 _symmetry_equiv_pos_as_xyz
  1  'x, y, z'
loop_
 _atom_type_symbol
 _atom_type_oxidation_number
  La3+  3.0
  Ru4+  4.0
  O2-  -2.0
loop_
 _atom_site_type_symbol
 _atom_site_label
 _atom_site_symmetry_multiplicity
 _atom_site_fract_x
 _atom_site_fract_y
 _atom_site_fract_z
 _atom_site_occupancy
  La3+  La0  1  0.13922185  -0.00141627  0.12154555  1
  La3+  La1  1  0.14041445  0.00293195  0.37440533  1
  La3+  La2  1  0.13922575  0.00227418  0.62585675  1
  La3+  La3  1  0.14301807  0.00129151  0.88050465  1
  La3+  La4  1  0.14314445  0.33437997  0.12075604  1
  La3+  La5  1  0.13950214  0.33233275  0.37327125  1
  La3+  La6  1  0.14116245  0.33449999  0.62715135  1
  La3+  La7  1  0.14443732  0.33283468  0.87445027  1
  La3+  La8  1  0.14469596  0.66726812  0.12269034  1
  La3+  La9  1  0.13723181  0.66789419  0.37695425  1
  La3+  La10  1  0.14068872  0.66464307  0.62444990  1
  La3+  La11  1  0.14146885  0.66468352  0.87946967  1
  La3+  La12  1  0.63577184  0.00330990  0.11995058  1
  La3+  La13  1  0.64219363  -0.00028033  0.37562526  1
  La3+  La14  1  0.64016405  0.00005138  0.62257168  1
  La3+  La15  1  0.63745205  0.00158522  0.87585029  1
  La3+  La16  1  0.64877858  0.33347174  0.12515074  1
  La3+  La17  1  0.63728543  0.33016340  0.37415189  1
  La3+  La18  1  0.63866415  0.33131521  0.62569839  1
  La3+  La19  1  0.64457325  0.33380062  0.87947346  1
  La3+  La20  1  0.63742097  0.66365243  0.12382131  1
  La3+  La21  1  0.63691626  0.66422884  0.37755438  1
  La3+  La22  1  0.64604969  0.66152366  0.62223755  1
  La3+  La23  1  0.63857331  0.66801090  0.87096397  1
  La3+  La24  1  0.36358527  -0.00201892  0.12180929  1
  La3+  La25  1  0.35921940  0.00081415  0.37150598  1
  La3+  La26  1  0.36197401  0.00318316  0.62617150  1
  La3+  La27  1  0.36057995  0.00343590  0.88384560  1
  La3+  La28  1  0.35700373  0.33075417  0.12279940  1
  La3+  La29  1  0.36177048  0.33345974  0.37516500  1
  La3+  La30  1  0.36085539  0.33416954  0.62701063  1
  La3+  La31  1  0.35404501  0.33293444  0.87363968  1
  La3+  La32  1  0.35747805  0.66529175  0.12084839  1
  La3+  La33  1  0.35716507  0.66386449  0.37476230  1
  La3+  La34  1  0.36039026  0.66249412  0.62514046  1
  La3+  La35  1  0.35664168  0.66596540  0.88097402  1
  La3+  La36  1  0.86329612  0.00247851  0.12396676  1
  La3+  La37  1  0.86205894  0.00009566  0.37659054  1
  La3+  La38  1  0.85906065  -0.00004264  0.62574420  1
  La3+  La39  1  0.86041358  0.00162821  0.87420767  1
  La3+  La40  1  0.85399746  0.33089094  0.12543989  1
  La3+  La41  1  0.86350790  0.33145816  0.37342705  1
  La3+  La42  1  0.86047894  0.33435509  0.62308504  1
  La3+  La43  1  0.85724291  0.33355714  0.87901899  1
  La3+  La44  1  0.86549806  0.65103697  0.13093521  1
  La3+  La45  1  0.86819512  0.65840594  0.37072118  1
  La3+  La46  1  0.86057260  0.66573330  0.62446289  1
  La3+  La47  1  0.86007130  0.66572282  0.87390417  1
  La3+  La48  1  0.50234100  0.49492013  0.37170802  1
  La3+  La49  1  -0.00385687  0.17044655  0.37736147  1
  La3+  La50  1  0.49767386  0.16902294  0.37413580  1
  La3+  La51  1  0.49537523  0.83365627  0.63842997  1
  La3+  La52  1  0.49189620  0.15612483  0.86611004  1
  La3+  La53  1  0.49793339  0.16625725  0.10690773  1
  La3+  La54  1  0.49581990  0.83813444  0.37771395  1
  La3+  La55  1  0.49863269  0.83127829  0.12709714  1
  La3+  La56  1  0.50056437  0.84100732  0.61895753  1
  La3+  La57  1  -0.00162728  0.16704652  0.11333766  1
  La3+  La58  1  0.50051331  0.50051824  0.89123702  1
  La3+  La59  1  0.00080808  0.83208484  0.63168666  1
  La3+  La60  1  0.50176351  0.50242811  0.86878108  1
  La3+  La61  1  -0.00032651  0.83095994  0.88992518  1
  La3+  La62  1  0.49904886  0.84246491  0.10796996  1
  La3+  La63  1  0.49912738  0.84117436  0.36207054  1
  La3+  La64  1  -0.00026101  0.50037813  0.62796242  1
  La3+  La65  1  0.49913938  0.49860453  0.61515693  1
  La3+  La66  1  -0.00262117  0.50117803  0.36797292  1
  La3+  La67  1  -0.00004628  0.16599547  0.63416893  1
  La3+  La68  1  0.50204615  0.16020492  0.12757656  1
  La3+  La69  1  0.00117585  0.82967114  0.60961103  1
  La3+  La70  1  -0.00041108  0.50199970  0.13796712  1
  La3+  La71  1  0.00239028  0.49985674  0.88157971  1
  La3+  La72  1  0.74948606  0.47147425  0.50685808  1
  La3+  La73  1  0.24968173  0.88375405  0.49163827  1
  La3+  La74  1  0.75077292  0.87812337  0.78334867  1
  La3+  La75  1  0.25061810  0.20655410  0.77832964  1
  La3+  La76  1  0.24942103  0.88570437  0.72931477  1
  La3+  La77  1  0.75018702  0.44912098  0.21537513  1
  La3+  La78  1  0.24879778  0.53626618  0.28506795  1
  La3+  La79  1  0.25054727  0.16554550  0.22728942  1
  La3+  La80  1  0.75073133  0.87132219  0.03260981  1
  La3+  La81  1  0.75049677  0.17301686  -0.01454375  1
  La3+  La82  1  0.75113978  0.84283200  0.24281195  1
  La3+  La83  1  0.75062254  0.83931196  0.45478149  1
  Ru4+  Ru84  1  0.00540624  -0.00098249  0.00223688  1
  Ru4+  Ru85  1  -0.00322726  -0.00573479  0.24478502  1
  Ru4+  Ru86  1  0.00122830  -0.00026075  0.49593876  1
  Ru4+  Ru87  1  0.00141951  -0.00264626  0.75549297  1
  Ru4+  Ru88  1  0.00080905  0.33454631  -0.00767612  1
  Ru4+  Ru89  1  0.00093284  0.33118498  0.25036354  1
  Ru4+  Ru90  1  0.00163438  0.33492535  0.49578883  1
  Ru4+  Ru91  1  0.00159001  0.33516432  0.74948783  1
  Ru4+  Ru92  1  -0.00019170  0.66403139  -0.00874147  1
  Ru4+  Ru93  1  -0.00958467  0.67478653  0.25857327  1
  Ru4+  Ru94  1  -0.00245828  0.65930699  0.49130999  1
  Ru4+  Ru95  1  0.00034082  0.66778957  0.76054636  1
  Ru4+  Ru96  1  0.50572930  -0.00430893  -0.00365164  1
  Ru4+  Ru97  1  0.50397602  0.00826056  0.25714936  1
  Ru4+  Ru98  1  0.50401815  0.00748566  0.50331789  1
  Ru4+  Ru99  1  0.49945223  0.00406427  0.75157551  1
  Ru4+  Ru100  1  0.50206533  0.33051274  0.00048849  1
  Ru4+  Ru101  1  0.49911374  0.33732618  0.25234906  1
  Ru4+  Ru102  1  0.49325715  0.33323938  0.50026008  1
  Ru4+  Ru103  1  0.50295895  0.33642026  0.74737558  1
  Ru4+  Ru104  1  0.50126568  0.66312748  0.00160416  1
  Ru4+  Ru105  1  0.50647015  0.66561596  0.24539268  1
  Ru4+  Ru106  1  0.49964133  0.66031071  0.49899838  1
  Ru4+  Ru107  1  0.50097245  0.66686419  0.74791782  1
  Ru4+  Ru108  1  0.11298812  0.16802007  -0.00084564  1
  Ru4+  Ru109  1  0.11481373  0.16804288  0.24716729  1
  Ru4+  Ru110  1  0.11301604  0.16755518  0.49910538  1
  Ru4+  Ru111  1  0.11214519  0.16590053  0.75051027  1
  Ru4+  Ru112  1  0.11415901  0.50205597  -0.00058091  1
  Ru4+  Ru113  1  0.11166940  0.49897690  0.24957526  1
  Ru4+  Ru114  1  0.11382797  0.50039821  0.49960578  1
  Ru4+  Ru115  1  0.11413318  0.49813800  0.75039268  1
  Ru4+  Ru116  1  0.11488765  0.83454520  0.00076009  1
  Ru4+  Ru117  1  0.10960588  0.83653858  0.24824380  1
  Ru4+  Ru118  1  0.11234585  0.83687162  0.49971532  1
  Ru4+  Ru119  1  0.11106633  0.83328626  0.74783117  1
  Ru4+  Ru120  1  0.61279871  0.16918352  0.00049898  1
  Ru4+  Ru121  1  0.61423735  0.16708960  0.25144301  1
  Ru4+  Ru122  1  0.61366923  0.16131817  0.49898259  1
  Ru4+  Ru123  1  0.61003598  0.16868182  0.74768185  1
  Ru4+  Ru124  1  0.61163224  0.49978898  0.00022155  1
  Ru4+  Ru125  1  0.60936934  0.50016379  0.25174162  1
  Ru4+  Ru126  1  0.60960877  0.49941129  0.49790173  1
  Ru4+  Ru127  1  0.61132692  0.49791751  0.74891859  1
  Ru4+  Ru128  1  0.61270778  0.83288632  -0.00343832  1
  Ru4+  Ru129  1  0.61631923  0.82934756  0.25153419  1
  Ru4+  Ru130  1  0.61297727  0.83720651  0.49815886  1
  Ru4+  Ru131  1  0.60982951  0.83221597  0.75136987  1
  Ru4+  Ru132  1  0.38007245  0.16851578  -0.00053628  1
  Ru4+  Ru133  1  0.38575545  0.16394083  0.25239435  1
  Ru4+  Ru134  1  0.38817298  0.16748881  0.50120063  1
  Ru4+  Ru135  1  0.38981729  0.16633027  0.74767477  1
  Ru4+  Ru136  1  0.38662517  0.50365150  -0.00033027  1
  Ru4+  Ru137  1  0.38444804  0.49475236  0.24663330  1
  Ru4+  Ru138  1  0.38661533  0.50213617  0.50112621  1
  Ru4+  Ru139  1  0.38731660  0.49804989  0.74882326  1
  Ru4+  Ru140  1  0.38236879  0.83458446  -0.00354056  1
  Ru4+  Ru141  1  0.37998265  0.82988455  0.25232691  1
  Ru4+  Ru142  1  0.38614794  0.83556190  0.49603465  1
  Ru4+  Ru143  1  0.38915473  0.83759489  0.75660996  1
  Ru4+  Ru144  1  0.88851781  0.16675033  0.00099485  1
  Ru4+  Ru145  1  0.88575157  0.16850599  0.24886173  1
  Ru4+  Ru146  1  0.88776014  0.16636798  0.49965280  1
  Ru4+  Ru147  1  0.88732459  0.16787687  0.75066793  1
  Ru4+  Ru148  1  0.88820213  0.49897891  0.00341524  1
  Ru4+  Ru149  1  0.89007817  0.50096222  0.24919705  1
  Ru4+  Ru150  1  0.88909740  0.49574518  0.49957756  1
  Ru4+  Ru151  1  0.88707975  0.50274565  0.75035095  1
  Ru4+  Ru152  1  0.89068747  0.83413491  -0.00151387  1
  Ru4+  Ru153  1  0.89848570  0.82817075  0.25003855  1
  Ru4+  Ru154  1  0.89059845  0.83335363  0.50310405  1
  Ru4+  Ru155  1  0.89409366  0.83346840  0.74886137  1
  Ru4+  Ru156  1  0.24976621  0.39110967  0.23680421  1
  Ru4+  Ru157  1  0.25008577  0.25325575  0.51396752  1
  Ru4+  Ru158  1  0.74999136  0.24593014  0.75718191  1
  Ru4+  Ru159  1  0.75015352  0.42515807  0.75398367  1
  Ru4+  Ru160  1  0.75005696  0.10763770  0.23851118  1
  Ru4+  Ru161  1  0.25004145  0.05830307  0.76927620  1
  Ru4+  Ru162  1  0.75038400  0.72628874  0.74662565  1
  Ru4+  Ru163  1  0.75032393  0.23929761  0.49944021  1
  Ru4+  Ru164  1  0.75024085  0.61276514  0.49905440  1
  Ru4+  Ru165  1  0.25016589  0.74363095  0.75646194  1
  Ru4+  Ru166  1  0.74893076  0.58305267  0.26345876  1
  Ru4+  Ru167  1  0.75062756  0.72511033  0.00434775  1
  Ru4+  Ru168  1  0.74948452  0.08595977  0.74625080  1
  Ru4+  Ru169  1  0.24900155  0.76045166  0.23985848  1
  Ru4+  Ru170  1  0.74997117  0.97684322  0.25008484  1
  Ru4+  Ru171  1  0.75035169  0.08707496  0.50149618  1
  Ru4+  Ru172  1  0.25035488  0.56062504  0.75083009  1
  Ru4+  Ru173  1  0.74991671  0.57845711  -0.00070386  1
  Ru4+  Ru174  1  0.25042555  0.73953372  0.49894508  1
  Ru4+  Ru175  1  0.25024301  0.41331328  -0.00649699  1
  Ru4+  Ru176  1  0.75066891  0.71375845  0.26965643  1
  Ru4+  Ru177  1  0.25011982  0.08017552  0.52096012  1
  Ru4+  Ru178  1  0.25015930  0.42182301  0.50174653  1
  Ru4+  Ru179  1  0.24963924  0.90361326  0.24251168  1
  O2-  O180  1  0.16265793  0.08089229  0.00275878  1
  O2-  O181  1  0.16749363  0.08060018  0.25099545  1
  O2-  O182  1  0.16828770  0.07977999  0.50223228  1
  O2-  O183  1  0.16580232  0.07996628  0.75104616  1
  O2-  O184  1  0.16901967  0.41479217  -0.00251637  1
  O2-  O185  1  0.17007638  0.41301930  0.25116352  1
  O2-  O186  1  0.16806887  0.41398671  0.50006398  1
  O2-  O187  1  0.16403854  0.41503171  0.74859436  1
  O2-  O188  1  0.16233170  0.74862009  0.00128850  1
  O2-  O189  1  0.16478261  0.75058597  0.25043055  1
  O2-  O190  1  0.16738945  0.74694568  0.50061635  1
  O2-  O191  1  0.16604799  0.74670326  0.75085058  1
  O2-  O192  1  0.66897945  0.08081320  -0.00195008  1
  O2-  O193  1  0.66873871  0.08106417  0.24853681  1
  O2-  O194  1  0.67151148  0.08267844  0.50160009  1
  O2-  O195  1  0.66612009  0.08127407  0.74981503  1
  O2-  O196  1  0.66534880  0.41843262  0.00080611  1
  O2-  O197  1  0.66104514  0.41209181  0.25547855  1
  O2-  O198  1  0.66151353  0.41186390  0.49749151  1
  O2-  O199  1  0.66805759  0.41406823  0.75165594  1
  O2-  O200  1  0.66669590  0.74481637  0.00237753  1
  O2-  O201  1  0.66787634  0.74316076  0.25047113  1
  O2-  O202  1  0.66861583  0.74597273  0.49697901  1
  O2-  O203  1  0.67026704  0.74815901  0.75252497  1
  O2-  O204  1  0.33604154  0.25537408  0.00116646  1
  O2-  O205  1  0.33400500  0.25494375  0.24886174  1
  O2-  O206  1  0.33321862  0.25350009  0.50094708  1
  O2-  O207  1  0.33923503  0.25450961  0.74720520  1
  O2-  O208  1  0.33217674  0.58387353  -0.00075651  1
  O2-  O209  1  0.33454201  0.58786873  0.25092049  1
  O2-  O210  1  0.33705238  0.58512976  0.49990470  1
  O2-  O211  1  0.33205074  0.58641179  0.75136085  1
  O2-  O212  1  0.33341663  0.91883095  0.00153287  1
  O2-  O213  1  0.33162833  0.91839757  0.24849791  1
  O2-  O214  1  0.33739052  0.92492606  0.50255370  1
  O2-  O215  1  0.33660703  0.92316305  0.75239488  1
  O2-  O216  1  0.83560460  0.25278930  0.00059511  1
  O2-  O217  1  0.83415857  0.25046266  0.25258053  1
  O2-  O218  1  0.83328146  0.25167948  0.49978413  1
  O2-  O219  1  0.83400403  0.25192162  0.75047358  1
  O2-  O220  1  0.83207060  0.58476750  -0.00368008  1
  O2-  O221  1  0.83102268  0.58283834  0.25130165  1
  O2-  O222  1  0.83175015  0.58640613  0.50242399  1
  O2-  O223  1  0.83547368  0.58576288  0.75013170  1
  O2-  O224  1  0.83540483  0.92306207  -0.00067328  1
  O2-  O225  1  0.83440921  0.91953940  0.24931311  1
  O2-  O226  1  0.83483847  0.91908893  0.49817350  1
  O2-  O227  1  0.83849751  0.92362532  0.74781095  1
  O2-  O228  1  0.16324341  0.25083714  -0.00082969  1
  O2-  O229  1  0.17057096  0.25088505  0.25188068  1
  O2-  O230  1  0.16555497  0.25216756  0.50123752  1
  O2-  O231  1  0.16482265  0.25434536  0.74807455  1
  O2-  O232  1  0.16659459  0.58382606  0.00266224  1
  O2-  O233  1  0.16268460  0.58860527  0.24986605  1
  O2-  O234  1  0.16437319  0.58488371  0.49975111  1
  O2-  O235  1  0.16802788  0.58574465  0.74954056  1
  O2-  O236  1  0.16384108  0.91860764  0.00050696  1
  O2-  O237  1  0.16755651  0.91826083  0.24922338  1
  O2-  O238  1  0.16081382  0.92662718  0.50213566  1
  O2-  O239  1  0.16088513  0.92329702  0.75356718  1
  O2-  O240  1  0.66776077  0.25130010  -0.00146858  1
  O2-  O241  1  0.66504576  0.25162089  0.25425703  1
  O2-  O242  1  0.66672224  0.25059875  0.49807843  1
  O2-  O243  1  0.66746695  0.25073451  0.75019560  1
  O2-  O244  1  0.66835009  0.58530225  0.00217871  1
  O2-  O245  1  0.66698463  0.58486563  0.24935197  1
  O2-  O246  1  0.67022563  0.58582150  0.49777013  1
  O2-  O247  1  0.66325069  0.58355347  0.75143648  1
  O2-  O248  1  0.66785185  0.92212788  -0.00094210  1
  O2-  O249  1  0.66612516  0.92300262  0.24895032  1
  O2-  O250  1  0.66653625  0.91813405  0.49822442  1
  O2-  O251  1  0.66209703  0.92173068  0.74871300  1
  O2-  O252  1  0.33483810  0.08225094  0.00494827  1
  O2-  O253  1  0.33256254  0.07972959  0.24843861  1
  O2-  O254  1  0.33421722  0.08122348  0.50030982  1
  O2-  O255  1  0.33266746  0.08022258  0.75169172  1
  O2-  O256  1  0.33411597  0.41393354  -0.00193961  1
  O2-  O257  1  0.33099276  0.41338953  0.24818784  1
  O2-  O258  1  0.33192932  0.41354316  0.50120899  1
  O2-  O259  1  0.33818100  0.41373914  0.74819177  1
  O2-  O260  1  0.33518992  0.74710830  -0.00095933  1
  O2-  O261  1  0.33173822  0.74639224  0.25131785  1
  O2-  O262  1  0.33481554  0.74597972  0.50084996  1
  O2-  O263  1  0.33615708  0.74680263  0.75013867  1
  O2-  O264  1  0.83370270  0.07852036  -0.00202637  1
  O2-  O265  1  0.83097624  0.08076434  0.24928462  1
  O2-  O266  1  0.83395802  0.08205453  0.50094159  1
  O2-  O267  1  0.83192530  0.08164307  0.74963176  1
  O2-  O268  1  0.83738118  0.41560939  -0.00013543  1
  O2-  O269  1  0.83957934  0.41358188  0.25340934  1
  O2-  O270  1  0.83434627  0.41195719  0.49696212  1
  O2-  O271  1  0.83328002  0.41403206  0.75131468  1
  O2-  O272  1  0.83390257  0.74519272  0.00232184  1
  O2-  O273  1  0.83337391  0.74670104  0.25159026  1
  O2-  O274  1  0.83285343  0.74636470  0.49960193  1
  O2-  O275  1  0.83231342  0.74458683  0.74992197  1
  O2-  O276  1  0.95398259  0.23793213  0.73569163  1
  O2-  O277  1  0.04523316  0.23259916  0.98873575  1
  O2-  O278  1  0.52284589  0.11356230  0.50565284  1
  O2-  O279  1  0.45166004  0.76171716  0.48095222  1
  O2-  O280  1  0.54924726  0.90198044  0.25155093  1
  O2-  O281  1  0.54875241  0.24325594  0.49762457  1
  O2-  O282  1  0.53307185  0.77918999  0.77720844  1
  O2-  O283  1  0.54741816  0.42795450  0.26291786  1
  O2-  O284  1  0.95536898  0.56645717  0.25480821  1
  O2-  O285  1  0.54877499  0.91194958  0.73806607  1
  O2-  O286  1  0.05104953  0.09021947  0.48171210  1
  O2-  O287  1  0.94900138  0.57100031  0.49050807  1
  O2-  O288  1  0.03394036  0.21798266  0.24489581  1
  O2-  O289  1  0.94606592  0.24215327  0.26136865  1
  O2-  O290  1  0.04631799  0.09735203  0.01034271  1
  O2-  O291  1  0.45097287  0.10095003  0.99067663  1
  O2-  O292  1  0.94995946  0.09419555  0.25613818  1
  O2-  O293  1  0.04283168  0.90304524  0.49000013  1
  O2-  O294  1  0.04895497  0.57292600  0.25678592  1
  O2-  O295  1  0.94530899  0.08240645  0.72263803  1
  O2-  O296  1  0.54902180  0.90174903  0.25462985  1
  O2-  O297  1  0.45142745  0.76046812  0.25078099  1
  O2-  O298  1  0.45109765  0.23676128  0.23267299  1
  O2-  O299  1  0.44944809  0.76348224  0.00558262  1
  O2-  O300  1  0.94990890  0.42980432  0.73750470  1
  O2-  O301  1  0.04933737  0.90020613  0.24070350  1
  O2-  O302  1  0.04862853  0.43280057  0.74269654  1
  O2-  O303  1  0.53615842  0.77520799  0.76661538  1
  O2-  O304  1  0.54934517  0.24228575  0.49913686  1
  O2-  O305  1  0.95177100  0.56838697  0.50709978  1
  O2-  O306  1  0.55124448  0.09691961  0.76156893  1
  O2-  O307  1  0.98232264  0.79423884  0.23216841  1
  O2-  O308  1  0.95376861  0.23376558  0.49400718  1
  O2-  O309  1  0.95270073  0.42796366  0.23859620  1
  O2-  O310  1  0.53802961  0.22265794  0.96068795  1
  O2-  O311  1  0.05285205  0.75118842  0.48102789  1
  O2-  O312  1  0.45024429  0.10042188  0.73929369  1
  O2-  O313  1  0.04415666  0.89461105  0.00846023  1
  O2-  O314  1  0.54982485  0.76449734  0.98736111  1
  O2-  O315  1  0.44741259  0.90201817  0.23764110  1
  O2-  O316  1  0.04737378  0.09233101  0.28574303  1
  O2-  O317  1  0.44737704  0.23082241  0.51304799  1
  O2-  O318  1  0.54977693  0.76177296  0.50823989  1
  O2-  O319  1  0.94586465  0.57733101  0.23321891  1
  O2-  O320  1  0.44646099  0.57890984  0.28602811  1
  O2-  O321  1  0.05220612  0.56750919  0.48889871  1
  O2-  O322  1  0.54874246  0.23884587  0.26295233  1
  O2-  O323  1  0.53389498  0.54708455  0.04427025  1
  O2-  O324  1  0.43831120  0.07110617  0.28228764  1
  O2-  O325  1  0.93507592  0.92522330  0.30456418  1
  O2-  O326  1  0.43728807  0.92919405  0.82214996  1
  O2-  O327  1  0.57697550  0.70078175  0.68423411  1
  O2-  O328  1  0.06266595  0.58860782  0.97673643  1
  O2-  O329  1  0.93010337  0.73853419  0.32890663  1
  O2-  O330  1  0.05437928  0.74936982  0.48076029  1
  O2-  O331  1  0.56449514  0.59405387  0.28545158  1
  O2-  O332  1  0.43518413  0.59243538  0.02205069  1
  O2-  O333  1  0.56398575  0.26088270  0.71954761  1
  O2-  O334  1  0.56553682  0.07639718  0.02591554  1
  O2-  O335  1  0.06399372  0.58849770  0.77573886  1
  O2-  O336  1  0.58496034  0.04672626  0.46735129  1
  O2-  O337  1  0.06775252  0.41426349  0.56120590  1
  O2-  O338  1  0.05991735  0.07796429  0.47555399  1
  O2-  O339  1  0.93866304  0.59618198  0.03379024  1
  O2-  O340  1  0.93159452  0.59538008  0.29041195  1
  O2-  O341  1  0.93499315  0.92956290  0.18470414  1
  O2-  O342  1  0.57814591  0.60098546  0.94682018  1
  O2-  O343  1  0.06572328  0.25509452  0.80213095  1
  O2-  O344  1  0.56227878  0.40652948  0.96776068  1
  O2-  O345  1  0.43715600  0.59098735  0.72707620  1
  O2-  O346  1  0.43433903  0.40603589  0.27483982  1
  O2-  O347  1  0.93616706  0.40345890  0.53689651  1
  O2-  O348  1  0.44327851  0.58363161  0.28848979  1
  O2-  O349  1  0.56287845  0.59581775  0.46923622  1
  O2-  O350  1  0.06846229  0.25515912  0.69779721  1
  O2-  O351  1  0.56294920  0.40555268  0.81925787  1
  O2-  O352  1  0.07190531  0.06609904  0.20691829  1
  O2-  O353  1  0.43700515  0.93235161  0.02964182  1
  O2-  O354  1  0.43045800  0.91870041  0.68840343  1
  O2-  O355  1  0.42946098  0.59545649  0.20288895  1
  O2-  O356  1  0.56225419  0.41268416  0.67443666  1
  O2-  O357  1  0.06351373  0.41362526  0.22121292  1
  O2-  O358  1  0.06163244  0.74016155  0.71041763  1
  O2-  O359  1  0.43484495  0.41109278  0.47498372  1
  O2-  O360  1  0.08371871  0.27563701  0.21438051  1
  O2-  O361  1  0.93052353  0.71661793  0.17627762  1
  O2-  O362  1  0.43855054  0.07547769  0.97087584  1
  O2-  O363  1  0.06681808  0.41436241  0.43982602  1
  O2-  O364  1  0.43538946  0.92694557  0.21651362  1
  O2-  O365  1  0.06477000  0.41241530  0.02759329  1
  O2-  O366  1  0.56661622  0.92516535  0.02739583  1
  O2-  O367  1  0.06089828  0.92862392  0.71399532  1
  O2-  O368  1  0.94363108  0.08015689  0.72284937  1
  O2-  O369  1  0.56607368  0.73671432  0.21600473  1
  O2-  O370  1  0.43891243  0.92939186  0.46245388  1
  O2-  O371  1  0.56907645  0.27960979  0.07220337  1
  O2-  O372  1  0.74930057  0.66637783  0.13825218  1
  O2-  O373  1  0.24993661  0.00214587  0.41874267  1
  O2-  O374  1  0.24941179  0.00065140  0.64264988  1
  O2-  O375  1  0.25093247  0.65438033  0.41449136  1
  O2-  O376  1  0.25012415  0.65769783  0.68253323  1
  O2-  O377  1  0.24969649  0.00437563  0.88407304  1
  O2-  O378  1  0.24961688  0.67133775  0.15929746  1
  O2-  O379  1  0.25031777  0.66795990  0.92499932  1
  O2-  O380  1  0.25024790  0.65126073  0.56242773  1
  O2-  O381  1  0.75005924  0.33378345  0.55695409  1
  O2-  O382  1  0.75032359  0.33130844  0.88551356  1
  O2-  O383  1  0.75058354  0.00398848  0.84697131  1
  O2-  O384  1  0.75094301  0.33679180  0.15228858  1
  O2-  O385  1  0.75026172  -0.00221538  0.40406114  1
  O2-  O386  1  0.75042239  0.33378185  0.68726575  1
  O2-  O387  1  0.25039571  0.33182432  0.40826535  1
  O2-  O388  1  0.75078458  0.00793724  0.59924791  1
  O2-  O389  1  0.25009809  0.33424940  0.85798346  1
  O2-  O390  1  0.25036420  0.33793938  0.59922664  1
  O2-  O391  1  0.25059571  0.33927826  0.09574479  1
  O2-  O392  1  0.24981911  0.00089263  0.32558918  1
  O2-  O393  1  0.74945650  0.65913815  0.89409440  1
  O2-  O394  1  0.25046431  0.65564668  0.83654529  1
  O2-  O395  1  0.25024927  0.67165714  0.32277937  1
  O2-  O396  1  0.74963634  0.50773867  0.36211552  1
  O2-  O397  1  0.25004012  0.16479233  0.10522686  1
  O2-  O398  1  0.25021329  0.80886048  0.61295185  1
  O2-  O399  1  0.25039005  0.49014707  0.15064794  1
  O2-  O400  1  0.74989802  0.81333650  0.66742338  1
  O2-  O401  1  0.24996407  0.50148180  0.84352454  1
  O2-  O402  1  0.75011498  0.16588530  0.40422996  1
  O2-  O403  1  0.25010062  0.15901333  0.89940522  1
  O2-  O404  1  0.24988443  0.16478395  0.44566708  1
  O2-  O405  1  0.25024676  0.82216595  0.85308799  1
  O2-  O406  1  0.75014201  0.15397603  0.12866143  1
  O2-  O407  1  0.74998212  0.81634577  0.90728496  1
  O2-  O408  1  0.75010481  0.83375789  0.58284954  1
  O2-  O409  1  0.75006164  0.49611390  0.66222966  1
  O2-  O410  1  0.25011849  0.49539203  0.41897784  1
  O2-  O411  1  0.25024913  0.50169706  0.06301556  1
  O2-  O412  1  0.75012743  0.16269075  0.84009027  1
  O2-  O413  1  0.25001287  0.16184359  0.62153134  1
  O2-  O414  1  0.25013355  0.16624955  0.35829385  1
  O2-  O415  1  0.75027163  0.50627067  0.08367713  1
  O2-  O416  1  0.25000902  0.50198400  0.65748144  1
  O2-  O417  1  0.25002388  0.82158947  0.36389079  1
  O2-  O418  1  0.25005707  0.83288364  0.93580124  1
  O2-  O419  1  0.24985382  0.83519387  0.12371877  1
  O2-  O420  1  0.01548521  0.32799548  0.62340929  1
  O2-  O421  1  0.47379795  0.67213617  0.61950575  1
  O2-  O422  1  0.01985093  -0.00241605  0.11977365  1
  O2-  O423  1  0.02739894  -0.00334798  0.87536130  1
  O2-  O424  1  0.47834908  0.32300593  0.37699250  1
  O2-  O425  1  0.03812214  0.35150515  0.88532033  1
  O2-  O426  1  0.52870210  0.00208579  0.87444433  1
  O2-  O427  1  0.47939203  0.67922842  0.12193533  1
  O2-  O428  1  0.47054887  0.33524663  0.87233008  1
  O2-  O429  1  0.52159175  0.00804588  0.13228912  1
  O2-  O430  1  0.45900973  0.01028805  0.60608069  1
  O2-  O431  1  0.04065468  0.68949184  0.87862847  1
  O2-  O432  1  0.47238417  0.33812116  0.62971329  1
  O2-  O433  1  0.04079366  0.31953488  0.36172959  1
  O2-  O434  1  0.96336006  0.33031204  0.11792809  1
  O2-  O435  1  0.95544833  0.33488609  0.87783311  1
  O2-  O436  1  0.02734862  0.67018247  0.36916062  1
  O2-  O437  1  0.02382764  0.32861691  0.12300866  1
  O2-  O438  1  0.95525832  0.34072321  0.37794734  1
  O2-  O439  1  0.51789110  0.65819365  0.86720263  1
  O2-  O440  1  0.95242315  0.66200991  0.87235993  1
  O2-  O441  1  0.54605493  -0.00022485  0.62100027  1
  O2-  O442  1  0.52189338  -0.00529560  0.37520964  1
  O2-  O443  1  0.97394951  0.00683247  0.38453185  1
