# generated using pymatgen
data_La7(Ru4O11)2
_symmetry_space_group_name_H-M   'P 1'
_cell_length_a   23.99275969
_cell_length_b   16.83121071
_cell_length_c   15.42877056
_cell_angle_alpha   90.00115510
_cell_angle_beta   90.00068860
_cell_angle_gamma   89.99885374
_symmetry_Int_Tables_number   1
_chemical_formula_structural   La7(Ru4O11)2
_chemical_formula_sum   'La84 Ru96 O264'
_cell_volume   6230.55711916
_cell_formula_units_Z   12
loop_
 _symmetry_equiv_pos_site_id
 _symmetry_equiv_pos_as_xyz
  1  'x, y, z'
loop_
 _atom_type_symbol
 _atom_type_oxidation_number
  La3+  3.0
  Ru4+  4.0
  O2-  -2.0
loop_
 _atom_site_type_symbol
 _atom_site_label
 _atom_site_symmetry_multiplicity
 _atom_site_fract_x
 _atom_site_fract_y
 _atom_site_fract_z
 _atom_site_occupancy
  La3+  La0  1  0.14539039  -0.00462688  0.12857251  1
  La3+  La1  1  0.14047669  0.00183200  0.36778690  1
  La3+  La2  1  0.14561329  -0.00356360  0.62988501  1
  La3+  La3  1  0.14029735  -0.00414308  0.87111193  1
  La3+  La4  1  0.13687846  0.33428353  0.12288084  1
  La3+  La5  1  0.13535998  0.33365891  0.37339430  1
  La3+  La6  1  0.13986359  0.33357800  0.62551251  1
  La3+  La7  1  0.14313944  0.32928043  0.87776733  1
  La3+  La8  1  0.14300851  0.66986407  0.12460075  1
  La3+  La9  1  0.13221573  0.66507031  0.37497171  1
  La3+  La10  1  0.14848315  0.66068213  0.62284427  1
  La3+  La11  1  0.14714206  0.67152590  0.87492579  1
  La3+  La12  1  0.64201934  0.00027894  0.12351486  1
  La3+  La13  1  0.63911572  0.00222645  0.37558962  1
  La3+  La14  1  0.63734441  -0.00210075  0.62916406  1
  La3+  La15  1  0.64741061  -0.00091365  0.87475761  1
  La3+  La16  1  0.64579519  0.33230625  0.12619152  1
  La3+  La17  1  0.64260953  0.32692851  0.37482161  1
  La3+  La18  1  0.63780768  0.33025850  0.62413431  1
  La3+  La19  1  0.64049459  0.33321440  0.87737863  1
  La3+  La20  1  0.64640719  0.66654402  0.12659496  1
  La3+  La21  1  0.64670796  0.66240542  0.37643804  1
  La3+  La22  1  0.64317215  0.66926577  0.62949334  1
  La3+  La23  1  0.63887706  0.66637248  0.88107642  1
  La3+  La24  1  0.35698273  -0.00288745  0.13276613  1
  La3+  La25  1  0.36054998  0.00213993  0.36985530  1
  La3+  La26  1  0.35490128  0.00066995  0.62999405  1
  La3+  La27  1  0.36325068  -0.00064516  0.87200133  1
  La3+  La28  1  0.37099886  0.33325189  0.12896476  1
  La3+  La29  1  0.37201189  0.33899048  0.36214435  1
  La3+  La30  1  0.36545972  0.33127109  0.62432552  1
  La3+  La31  1  0.35950035  0.33089647  0.88066056  1
  La3+  La32  1  0.35971235  0.66454119  0.12923308  1
  La3+  La33  1  0.36926653  0.66739995  0.37002113  1
  La3+  La34  1  0.35603550  0.66860015  0.62664310  1
  La3+  La35  1  0.35227072  0.66671122  0.87734485  1
  La3+  La36  1  0.86461602  0.00242905  0.12627928  1
  La3+  La37  1  0.85935765  0.00228024  0.37841994  1
  La3+  La38  1  0.86367115  -0.00237952  0.63303036  1
  La3+  La39  1  0.85608780  -0.00324589  0.87237483  1
  La3+  La40  1  0.85463051  0.32724984  0.13273549  1
  La3+  La41  1  0.85707394  0.32707394  0.37347766  1
  La3+  La42  1  0.85298757  0.34055186  0.62015188  1
  La3+  La43  1  0.86463228  0.33035067  0.87652364  1
  La3+  La44  1  0.85421491  0.66863512  0.12447053  1
  La3+  La45  1  0.86175785  0.66227205  0.37300412  1
  La3+  La46  1  0.86108159  0.66587170  0.62738794  1
  La3+  La47  1  0.86404148  0.66958789  0.87675941  1
  La3+  La48  1  0.50053688  0.17051152  0.13117672  1
  La3+  La49  1  0.50063808  0.49093006  0.12738792  1
  La3+  La50  1  0.50017830  0.16723615  0.62774220  1
  La3+  La51  1  0.00272524  0.84127672  0.61713639  1
  La3+  La52  1  0.49930981  0.82970242  0.62606724  1
  La3+  La53  1  0.49378522  0.83979935  0.11777803  1
  La3+  La54  1  0.00089705  0.17355447  0.62625203  1
  La3+  La55  1  -0.00840609  0.16638068  0.89280943  1
  La3+  La56  1  0.50194861  0.83303293  0.87146225  1
  La3+  La57  1  0.50165335  0.17449264  0.85825831  1
  La3+  La58  1  0.50152725  0.50511477  0.37634840  1
  La3+  La59  1  -0.00199287  0.83231698  0.63638238  1
  La3+  La60  1  0.50651179  0.17943671  0.87842287  1
  La3+  La61  1  -0.01229716  0.83749415  0.36173609  1
  La3+  La62  1  -0.00762274  0.49211854  0.38177474  1
  La3+  La63  1  0.49096150  0.15588237  0.38020600  1
  La3+  La64  1  0.50204083  0.50184527  0.87552258  1
  La3+  La65  1  0.50028974  0.49827831  0.63479263  1
  La3+  La66  1  -0.00145372  0.49395075  0.62229350  1
  La3+  La67  1  0.00015869  0.49622156  0.86575445  1
  La3+  La68  1  0.49655000  0.50733121  0.61573327  1
  La3+  La69  1  0.00601482  0.50462731  0.88421251  1
  La3+  La70  1  0.00460654  0.18127930  0.61287003  1
  La3+  La71  1  0.00657546  0.15596976  0.36533132  1
  La3+  La72  1  0.75014245  0.53739886  0.49156098  1
  La3+  La73  1  0.74855025  0.11789315  0.74715345  1
  La3+  La74  1  0.25116816  0.21776933  0.47789581  1
  La3+  La75  1  0.25135599  0.53368331  0.49648311  1
  La3+  La76  1  0.24981849  0.82867525  0.24409634  1
  La3+  La77  1  0.75022571  0.54443291  0.76128199  1
  La3+  La78  1  0.25102033  0.82089167  0.75794012  1
  La3+  La79  1  0.24957857  0.54816398  0.76537666  1
  La3+  La80  1  0.75087192  0.16864554  0.01662158  1
  La3+  La81  1  0.24942602  0.20413367  0.03733587  1
  La3+  La82  1  0.74963311  0.84458023  0.41190161  1
  La3+  La83  1  0.75043876  0.84136293  0.78837631  1
  Ru4+  Ru84  1  0.01146029  0.01300067  0.00753122  1
  Ru4+  Ru85  1  -0.00518003  0.01089555  0.24426874  1
  Ru4+  Ru86  1  -0.00027424  0.00653594  0.49472604  1
  Ru4+  Ru87  1  0.00358540  0.00802653  0.76375484  1
  Ru4+  Ru88  1  -0.00124682  0.33908744  0.00857382  1
  Ru4+  Ru89  1  -0.00202957  0.33863481  0.24163018  1
  Ru4+  Ru90  1  -0.00172561  0.33096335  0.50367151  1
  Ru4+  Ru91  1  -0.00229209  0.33537341  0.74677660  1
  Ru4+  Ru92  1  -0.00072196  0.67135674  0.00246257  1
  Ru4+  Ru93  1  0.00013981  0.66370298  0.23812598  1
  Ru4+  Ru94  1  0.00199589  0.67892623  0.49370267  1
  Ru4+  Ru95  1  -0.00034866  0.67040189  0.75578909  1
  Ru4+  Ru96  1  0.49728783  0.00114467  -0.00043511  1
  Ru4+  Ru97  1  0.49793129  -0.00049441  0.25711208  1
  Ru4+  Ru98  1  0.50048059  0.00095748  0.50015557  1
  Ru4+  Ru99  1  0.50014444  -0.00008971  0.74970769  1
  Ru4+  Ru100  1  0.50439668  0.34034226  -0.00084895  1
  Ru4+  Ru101  1  0.50579865  0.33653808  0.25064557  1
  Ru4+  Ru102  1  0.49776594  0.32944892  0.49838302  1
  Ru4+  Ru103  1  0.49910109  0.33660212  0.74925008  1
  Ru4+  Ru104  1  0.49677373  0.66587183  -0.00323013  1
  Ru4+  Ru105  1  0.50060081  0.67996190  0.25493843  1
  Ru4+  Ru106  1  0.49741914  0.66939439  0.50768934  1
  Ru4+  Ru107  1  0.50014228  0.67246745  0.74414460  1
  Ru4+  Ru108  1  0.10152793  0.16095977  0.00050277  1
  Ru4+  Ru109  1  0.11458577  0.16010514  0.25307903  1
  Ru4+  Ru110  1  0.11145374  0.16054274  0.50005984  1
  Ru4+  Ru111  1  0.11311678  0.15785353  0.74939681  1
  Ru4+  Ru112  1  0.11189506  0.49830253  0.00016738  1
  Ru4+  Ru113  1  0.10867009  0.50241894  0.24613568  1
  Ru4+  Ru114  1  0.11284293  0.49298954  0.50170721  1
  Ru4+  Ru115  1  0.10647364  0.50001317  0.74999868  1
  Ru4+  Ru116  1  0.11049287  0.83182289  -0.00115998  1
  Ru4+  Ru117  1  0.11002635  0.83159704  0.24563685  1
  Ru4+  Ru118  1  0.11297610  0.82965859  0.49762606  1
  Ru4+  Ru119  1  0.11009450  0.83298315  0.75429217  1
  Ru4+  Ru120  1  0.61281624  0.16210972  0.00105920  1
  Ru4+  Ru121  1  0.61299778  0.17488482  0.24978089  1
  Ru4+  Ru122  1  0.61317461  0.17175672  0.49724473  1
  Ru4+  Ru123  1  0.60743014  0.16631919  0.74701875  1
  Ru4+  Ru124  1  0.61385065  0.50551478  -0.00303512  1
  Ru4+  Ru125  1  0.61202083  0.49976085  0.24789481  1
  Ru4+  Ru126  1  0.60881699  0.50335994  0.50018638  1
  Ru4+  Ru127  1  0.60830750  0.50190415  0.75125252  1
  Ru4+  Ru128  1  0.61261624  0.83371854  -0.00129700  1
  Ru4+  Ru129  1  0.61451453  0.82298061  0.25624997  1
  Ru4+  Ru130  1  0.60957259  0.83426553  0.50083295  1
  Ru4+  Ru131  1  0.61130303  0.82924648  0.74931616  1
  Ru4+  Ru132  1  0.38540276  0.15791303  0.00427506  1
  Ru4+  Ru133  1  0.38210740  0.15885458  0.25200673  1
  Ru4+  Ru134  1  0.39094862  0.16988188  0.50288187  1
  Ru4+  Ru135  1  0.38756758  0.16297259  0.74874469  1
  Ru4+  Ru136  1  0.38641020  0.50447993  0.00380604  1
  Ru4+  Ru137  1  0.37971460  0.49707018  0.25165436  1
  Ru4+  Ru138  1  0.39158310  0.50179195  0.49516870  1
  Ru4+  Ru139  1  0.39107434  0.49370134  0.75019790  1
  Ru4+  Ru140  1  0.38722408  0.83033730  -0.00013954  1
  Ru4+  Ru141  1  0.38889010  0.83587055  0.24926558  1
  Ru4+  Ru142  1  0.38974041  0.83388229  0.49965994  1
  Ru4+  Ru143  1  0.39024852  0.82988038  0.74976650  1
  Ru4+  Ru144  1  0.88786400  0.16518454  0.00097304  1
  Ru4+  Ru145  1  0.89263140  0.16421627  0.24932213  1
  Ru4+  Ru146  1  0.88621865  0.17078455  0.50048867  1
  Ru4+  Ru147  1  0.89399328  0.16473393  0.74955445  1
  Ru4+  Ru148  1  0.88804260  0.49975090  0.00542404  1
  Ru4+  Ru149  1  0.89088697  0.49655235  0.24988829  1
  Ru4+  Ru150  1  0.88640114  0.49350085  0.50111774  1
  Ru4+  Ru151  1  0.89071608  0.50205288  0.75077581  1
  Ru4+  Ru152  1  0.88509857  0.83062742  0.00063976  1
  Ru4+  Ru153  1  0.88781797  0.82304069  0.24954471  1
  Ru4+  Ru154  1  0.88506599  0.83626790  0.49786188  1
  Ru4+  Ru155  1  0.88522825  0.82998117  0.75263435  1
  Ru4+  Ru156  1  0.25029156  0.91638501  0.01125358  1
  Ru4+  Ru157  1  0.25075200  0.42734262  -0.00050735  1
  Ru4+  Ru158  1  0.24997532  0.39589708  0.72223195  1
  Ru4+  Ru159  1  0.25097561  0.73675333  0.48195678  1
  Ru4+  Ru160  1  0.75003322  0.40129383  0.74565720  1
  Ru4+  Ru161  1  0.24977990  0.23612038  0.26257837  1
  Ru4+  Ru162  1  0.74943360  0.72788982  0.50568465  1
  Ru4+  Ru163  1  0.75065643  0.57113940  0.24824998  1
  Ru4+  Ru164  1  0.74970805  0.42552087  0.24760963  1
  Ru4+  Ru165  1  0.25038811  0.92517675  0.48644926  1
  Ru4+  Ru166  1  0.74962780  0.26256776  0.75667482  1
  Ru4+  Ru167  1  0.74960118  0.09269337  0.24494961  1
  Ru4+  Ru168  1  0.24828076  0.57994938  0.24304621  1
  Ru4+  Ru169  1  0.24932470  0.05894342  -0.01445498  1
  Ru4+  Ru170  1  0.74920330  0.39214485  0.50598802  1
  Ru4+  Ru171  1  0.74907984  0.94683719  0.53806966  1
  Ru4+  Ru172  1  0.25047136  0.39117660  0.51037675  1
  Ru4+  Ru173  1  0.25036120  0.06214614  0.51782003  1
  Ru4+  Ru174  1  0.74999174  0.42161640  -0.00940109  1
  Ru4+  Ru175  1  0.24838979  0.42903400  0.25832496  1
  Ru4+  Ru176  1  0.25032645  0.24777705  0.74412636  1
  Ru4+  Ru177  1  0.74960981  0.09549125  0.50804446  1
  Ru4+  Ru178  1  0.75083328  0.90559065  0.23113044  1
  Ru4+  Ru179  1  0.75059313  0.90848800  0.00546425  1
  O2-  O180  1  0.16919274  0.08053945  0.00151093  1
  O2-  O181  1  0.16766777  0.08261087  0.25078823  1
  O2-  O182  1  0.16677893  0.07893620  0.50002395  1
  O2-  O183  1  0.16761333  0.08483452  0.75502505  1
  O2-  O184  1  0.16846027  0.41642323  0.00278079  1
  O2-  O185  1  0.16741574  0.41897223  0.25549984  1
  O2-  O186  1  0.16829009  0.41375367  0.49973916  1
  O2-  O187  1  0.16729781  0.41416282  0.74661008  1
  O2-  O188  1  0.16369626  0.75105351  0.00082017  1
  O2-  O189  1  0.16740462  0.75048891  0.25634088  1
  O2-  O190  1  0.16993740  0.74524218  0.48951977  1
  O2-  O191  1  0.16965885  0.75291751  0.75496754  1
  O2-  O192  1  0.66650126  0.07849437  0.00229625  1
  O2-  O193  1  0.66251660  0.08120734  0.24984536  1
  O2-  O194  1  0.66503116  0.08114863  0.50336512  1
  O2-  O195  1  0.65712169  0.07711041  0.74949581  1
  O2-  O196  1  0.66595135  0.41457794  0.00037333  1
  O2-  O197  1  0.66649278  0.41575802  0.25436486  1
  O2-  O198  1  0.66672655  0.41149378  0.50193698  1
  O2-  O199  1  0.66845359  0.41231986  0.74921985  1
  O2-  O200  1  0.66209785  0.74805090  -0.00161049  1
  O2-  O201  1  0.67216111  0.75243628  0.24831315  1
  O2-  O202  1  0.66497635  0.74713336  0.50085198  1
  O2-  O203  1  0.66537204  0.74767380  0.75669450  1
  O2-  O204  1  0.33658389  0.25002274  -0.00321451  1
  O2-  O205  1  0.33471002  0.25303084  0.25294467  1
  O2-  O206  1  0.34243462  0.25850203  0.49924700  1
  O2-  O207  1  0.33308063  0.25456725  0.75049287  1
  O2-  O208  1  0.33286487  0.58560737  0.00499559  1
  O2-  O209  1  0.33008019  0.58640655  0.25315163  1
  O2-  O210  1  0.33752391  0.58876878  0.49590799  1
  O2-  O211  1  0.34006999  0.58742631  0.74829682  1
  O2-  O212  1  0.33512679  0.92067933  -0.00116482  1
  O2-  O213  1  0.32880852  0.91705483  0.25489601  1
  O2-  O214  1  0.33559413  0.91861582  0.49887131  1
  O2-  O215  1  0.33356313  0.92167634  0.75316299  1
  O2-  O216  1  0.83488163  0.25179920  0.00023173  1
  O2-  O217  1  0.83643769  0.24511957  0.25529616  1
  O2-  O218  1  0.82991157  0.24868472  0.49931604  1
  O2-  O219  1  0.82771037  0.24751251  0.75790403  1
  O2-  O220  1  0.83746026  0.58359085  -0.00385917  1
  O2-  O221  1  0.83380092  0.58175972  0.25040363  1
  O2-  O222  1  0.83925954  0.58815326  0.50111071  1
  O2-  O223  1  0.83992095  0.58955814  0.75275928  1
  O2-  O224  1  0.83447414  0.91969160  0.00367711  1
  O2-  O225  1  0.83522637  0.91566844  0.24693361  1
  O2-  O226  1  0.83007756  0.92060223  0.50226354  1
  O2-  O227  1  0.83509058  0.91777718  0.74998555  1
  O2-  O228  1  0.16209683  0.24888518  0.00022663  1
  O2-  O229  1  0.16439884  0.25258735  0.25309674  1
  O2-  O230  1  0.16028348  0.25859428  0.50041357  1
  O2-  O231  1  0.16353772  0.25067819  0.74743259  1
  O2-  O232  1  0.16224947  0.58553411  0.00145451  1
  O2-  O233  1  0.16757700  0.58556569  0.25765889  1
  O2-  O234  1  0.16492451  0.58671858  0.49099736  1
  O2-  O235  1  0.15942886  0.58530541  0.75216900  1
  O2-  O236  1  0.16775270  0.91703946  -0.00056344  1
  O2-  O237  1  0.17081276  0.91654687  0.25737530  1
  O2-  O238  1  0.16411795  0.91668161  0.49725832  1
  O2-  O239  1  0.16968934  0.91488328  0.74950739  1
  O2-  O240  1  0.66603146  0.25394832  0.00046105  1
  O2-  O241  1  0.66863444  0.24970447  0.25514683  1
  O2-  O242  1  0.66701764  0.25099800  0.50584300  1
  O2-  O243  1  0.66808352  0.25432153  0.74993884  1
  O2-  O244  1  0.66690983  0.58435409  -0.00047917  1
  O2-  O245  1  0.67100574  0.58412997  0.24967141  1
  O2-  O246  1  0.66019607  0.58803830  0.50497780  1
  O2-  O247  1  0.65977450  0.58878726  0.75327694  1
  O2-  O248  1  0.66833087  0.91956635  0.00159141  1
  O2-  O249  1  0.66394190  0.91787748  0.24959932  1
  O2-  O250  1  0.66579597  0.92249209  0.49991617  1
  O2-  O251  1  0.66460711  0.91907729  0.74906658  1
  O2-  O252  1  0.33091920  0.07766224  -0.00295922  1
  O2-  O253  1  0.33077399  0.07992630  0.24996815  1
  O2-  O254  1  0.33392727  0.07854346  0.50018365  1
  O2-  O255  1  0.33788259  0.07996362  0.75332792  1
  O2-  O256  1  0.33631051  0.41455558  0.00172216  1
  O2-  O257  1  0.32996535  0.41282685  0.25258033  1
  O2-  O258  1  0.33032112  0.41273107  0.49906178  1
  O2-  O259  1  0.33351893  0.41335327  0.74780787  1
  O2-  O260  1  0.33891375  0.74628514  0.00308732  1
  O2-  O261  1  0.33125373  0.74712333  0.25417220  1
  O2-  O262  1  0.33426360  0.74644148  0.49568752  1
  O2-  O263  1  0.33776596  0.74783614  0.74929927  1
  O2-  O264  1  0.83166737  0.07843233  0.00309781  1
  O2-  O265  1  0.83102120  0.08406717  0.24690979  1
  O2-  O266  1  0.83248623  0.08365711  0.50532943  1
  O2-  O267  1  0.83599661  0.08208686  0.74439339  1
  O2-  O268  1  0.83037878  0.41652415  -0.00162108  1
  O2-  O269  1  0.83045090  0.41655152  0.25075370  1
  O2-  O270  1  0.83079578  0.41537088  0.49477117  1
  O2-  O271  1  0.83056519  0.41412904  0.75426686  1
  O2-  O272  1  0.83702429  0.74738969  -0.00275568  1
  O2-  O273  1  0.82983636  0.74931843  0.25444693  1
  O2-  O274  1  0.83421795  0.74477861  0.49727744  1
  O2-  O275  1  0.83003527  0.74968210  0.75905714  1
  O2-  O276  1  0.04047078  0.89965155  0.27295543  1
  O2-  O277  1  0.54503981  0.43792284  0.98975334  1
  O2-  O278  1  0.96282302  0.44028769  0.20725887  1
  O2-  O279  1  0.44846187  0.24266468  0.23002487  1
  O2-  O280  1  0.04194697  0.11220258  0.79100164  1
  O2-  O281  1  0.45383724  0.55549814  0.25146604  1
  O2-  O282  1  0.03526468  0.77419814  0.77490909  1
  O2-  O283  1  0.54440694  0.76259433  0.00864455  1
  O2-  O284  1  0.04151078  0.77981220  0.44933553  1
  O2-  O285  1  0.55535561  0.57647558  0.22852354  1
  O2-  O286  1  0.95141191  0.57812338  0.00621333  1
  O2-  O287  1  0.04537835  0.58009351  0.47916439  1
  O2-  O288  1  0.96413372  0.44934608  -0.00756826  1
  O2-  O289  1  0.95099611  0.56578485  0.50929208  1
  O2-  O290  1  0.54597674  0.78351288  0.21929636  1
  O2-  O291  1  0.97430506  0.22314096  0.75321851  1
  O2-  O292  1  0.02809605  0.14287083  0.02612358  1
  O2-  O293  1  0.45057663  0.90132986  0.75775501  1
  O2-  O294  1  0.95431052  0.08885641  0.68991487  1
  O2-  O295  1  0.54922616  0.90122802  0.74278744  1
  O2-  O296  1  0.45438989  0.24303109  0.01292026  1
  O2-  O297  1  0.05211144  0.46146032  0.05427907  1
  O2-  O298  1  0.54390082  0.78944739  0.23072131  1
  O2-  O299  1  0.44316164  0.75944953  0.25641655  1
  O2-  O300  1  0.45745295  0.56795107  0.22897858  1
  O2-  O301  1  0.97486215  0.13097748  0.23245716  1
  O2-  O302  1  0.54505256  0.43203464  0.51074006  1
  O2-  O303  1  0.05012619  0.56629330  0.51457844  1
  O2-  O304  1  0.45485527  0.77361564  0.49356479  1
  O2-  O305  1  0.46221659  0.10848016  0.96798841  1
  O2-  O306  1  0.94549920  0.57746053  0.27379306  1
  O2-  O307  1  0.44401636  0.23986815  0.26867057  1
  O2-  O308  1  0.54858930  0.23020450  0.01510681  1
  O2-  O309  1  0.45268246  0.43275205  0.26756268  1
  O2-  O310  1  0.45917169  0.44301948  0.24326830  1
  O2-  O311  1  0.95816698  0.22120204  0.45486199  1
  O2-  O312  1  0.94860296  0.76337657  0.50990557  1
  O2-  O313  1  0.45563358  0.56619816  0.75936749  1
  O2-  O314  1  0.03119331  0.77942967  0.78366110  1
  O2-  O315  1  0.96828926  0.22643828  0.76788880  1
  O2-  O316  1  0.45039233  0.09577810  0.52040245  1
  O2-  O317  1  0.55205615  0.09546478  0.48510219  1
  O2-  O318  1  0.94810930  0.90933920  0.74128858  1
  O2-  O319  1  0.54226986  0.21944072  0.29650724  1
  O2-  O320  1  0.05140882  0.23614526  0.49302832  1
  O2-  O321  1  0.44180093  0.75528852  0.23783021  1
  O2-  O322  1  0.04556066  0.55756789  0.30079131  1
  O2-  O323  1  0.94384180  0.09393157  0.01172535  1
  O2-  O324  1  0.57486060  0.69911291  0.32261406  1
  O2-  O325  1  0.06499976  0.06802664  0.28912155  1
  O2-  O326  1  0.43537194  0.40900469  0.52155147  1
  O2-  O327  1  0.06983479  0.06144386  0.92433346  1
  O2-  O328  1  0.57616419  0.27629391  0.19513301  1
  O2-  O329  1  0.93461228  0.92751720  0.53525846  1
  O2-  O330  1  0.93616106  0.41229610  0.77846266  1
  O2-  O331  1  0.92120437  0.26830789  0.55611009  1
  O2-  O332  1  0.08766849  0.72107490  0.69791144  1
  O2-  O333  1  0.91831787  0.04247518  0.28118247  1
  O2-  O334  1  0.92235464  0.06711128  0.81208393  1
  O2-  O335  1  0.42971652  0.39835452  0.23196066  1
  O2-  O336  1  0.06106340  0.74472219  0.22020220  1
  O2-  O337  1  0.93922025  0.92533565  0.70886622  1
  O2-  O338  1  0.07824026  0.06866926  0.68221028  1
  O2-  O339  1  0.93383506  0.75124354  0.18654410  1
  O2-  O340  1  0.93442552  0.07662773  0.47479392  1
  O2-  O341  1  0.56168942  0.59749609  0.96247444  1
  O2-  O342  1  0.94200104  0.59897715  0.51345781  1
  O2-  O343  1  0.56101624  0.26555039  0.46839796  1
  O2-  O344  1  0.06875650  0.93792737  0.20039187  1
  O2-  O345  1  0.07210157  0.60411314  0.18489691  1
  O2-  O346  1  0.06049004  0.73408113  0.97117769  1
  O2-  O347  1  0.42905898  0.60329331  0.28404861  1
  O2-  O348  1  0.43720907  0.07683948  0.27558902  1
  O2-  O349  1  0.90486418  0.27839095  0.69942742  1
  O2-  O350  1  0.93622055  0.26442984  0.22108901  1
  O2-  O351  1  0.56056488  0.93052033  0.96741858  1
  O2-  O352  1  0.56162936  0.41119626  0.77417283  1
  O2-  O353  1  0.07855286  0.72916983  0.55226899  1
  O2-  O354  1  0.06755517  0.26313061  0.05670548  1
  O2-  O355  1  0.92290372  0.35492794  0.04591833  1
  O2-  O356  1  0.55722985  0.58025712  0.22075093  1
  O2-  O357  1  0.07011872  0.39844112  0.93062700  1
  O2-  O358  1  0.43148099  0.25705029  0.01920977  1
  O2-  O359  1  0.06546627  0.25115903  0.92644303  1
  O2-  O360  1  0.92746812  0.39720903  0.31746820  1
  O2-  O361  1  0.06431311  0.93236315  0.78182437  1
  O2-  O362  1  0.92981560  0.73994508  0.72568845  1
  O2-  O363  1  0.93708483  0.73206922  0.32712712  1
  O2-  O364  1  0.56293190  0.25889219  0.71313265  1
  O2-  O365  1  0.07503878  0.05479015  0.07838971  1
  O2-  O366  1  0.06057226  0.91578431  0.02339013  1
  O2-  O367  1  0.43063583  0.04704427  0.07142168  1
  O2-  O368  1  0.43797706  0.92983596  0.21299567  1
  O2-  O369  1  0.06957045  0.40599990  0.23000080  1
  O2-  O370  1  0.43681180  0.25630728  0.72801472  1
  O2-  O371  1  0.43908476  0.59044205  0.97629417  1
  O2-  O372  1  0.25054369  0.66342922  0.84470985  1
  O2-  O373  1  0.75144885  0.66267779  0.39462693  1
  O2-  O374  1  0.74912663  0.33867832  0.90563026  1
  O2-  O375  1  0.25040704  0.33771348  0.07310364  1
  O2-  O376  1  0.74911266  0.34690877  0.15133920  1
  O2-  O377  1  0.74902191  0.00139252  0.14921453  1
  O2-  O378  1  0.74939090  0.66126960  0.08508416  1
  O2-  O379  1  0.74928304  0.33450925  0.40171957  1
  O2-  O380  1  0.25063560  0.33381582  0.82318104  1
  O2-  O381  1  0.25018716  0.00089848  0.39437661  1
  O2-  O382  1  0.25040029  0.33097582  0.93982400  1
  O2-  O383  1  0.75020022  0.66717981  0.68262207  1
  O2-  O384  1  0.25055549  0.65994415  0.57515126  1
  O2-  O385  1  0.74912705  0.00395077  0.43289109  1
  O2-  O386  1  0.74952330  0.00624048  0.64413481  1
  O2-  O387  1  0.75054599  0.66458833  0.17558355  1
  O2-  O388  1  0.25028036  0.33573463  0.38577465  1
  O2-  O389  1  0.74807081  -0.00786202  0.85669781  1
  O2-  O390  1  0.75038729  0.64464219  0.59443446  1
  O2-  O391  1  0.24974091  0.33181080  0.19617353  1
  O2-  O392  1  0.25039516  0.66532407  0.15927133  1
  O2-  O393  1  0.25021826  0.66633550  0.66911392  1
  O2-  O394  1  0.25179087  0.00020078  0.63208663  1
  O2-  O395  1  0.74947461  -0.00676038  0.30753904  1
  O2-  O396  1  0.24983367  0.14933999  0.59975695  1
  O2-  O397  1  0.24996098  0.15625755  0.90539592  1
  O2-  O398  1  0.25038637  0.84169087  0.10354915  1
  O2-  O399  1  0.74964164  0.83164971  0.65497116  1
  O2-  O400  1  0.74915316  0.49969769  0.91015590  1
  O2-  O401  1  0.74998303  0.83021500  0.56607421  1
  O2-  O402  1  0.24989561  0.49735289  0.15589512  1
  O2-  O403  1  0.74910830  0.16657228  0.16086232  1
  O2-  O404  1  0.24946161  0.83078556  0.62923938  1
  O2-  O405  1  0.74949711  0.17143948  0.42295219  1
  O2-  O406  1  0.25013122  0.15339739  0.81858364  1
  O2-  O407  1  0.74993549  0.83082165  0.92582814  1
  O2-  O408  1  0.75016615  0.84586883  0.10022989  1
  O2-  O409  1  0.25036966  0.49538199  0.90792997  1
  O2-  O410  1  0.24994179  0.16532562  0.17548370  1
  O2-  O411  1  0.74897575  0.17421291  0.87592696  1
  O2-  O412  1  0.74946789  0.16547737  0.33443146  1
  O2-  O413  1  0.75006424  0.47259457  0.62626740  1
  O2-  O414  1  0.74978591  0.49161743  0.35124127  1
  O2-  O415  1  0.24969231  0.16115427  0.35180926  1
  O2-  O416  1  0.25011260  0.83074994  0.54306403  1
  O2-  O417  1  0.24945107  0.84812758  0.88336504  1
  O2-  O418  1  0.25146461  0.81592050  0.96426969  1
  O2-  O419  1  0.25020741  0.15066720  0.68708784  1
  O2-  O420  1  0.97875824  -0.01078172  0.89077767  1
  O2-  O421  1  0.46525666  0.33589123  0.12238956  1
  O2-  O422  1  0.52323987  0.32105565  0.87681502  1
  O2-  O423  1  0.97077207  -0.00653019  0.12475175  1
  O2-  O424  1  0.47699257  -0.00873984  0.38322454  1
  O2-  O425  1  0.01956124  0.33129485  0.13174839  1
  O2-  O426  1  0.97421066  0.33252488  0.88469362  1
  O2-  O427  1  0.54601900  0.66594178  0.62404209  1
  O2-  O428  1  0.04953026  0.32764131  0.63272906  1
  O2-  O429  1  0.48086752  0.33667395  0.62571255  1
  O2-  O430  1  0.96473877  0.36812111  0.62211281  1
  O2-  O431  1  0.52654252  0.00279422  0.62434101  1
  O2-  O432  1  0.02592816  0.64117440  0.63065292  1
  O2-  O433  1  0.02660692  0.33741539  0.37448049  1
  O2-  O434  1  0.02249731  -0.01254240  0.61293017  1
  O2-  O435  1  0.97050927  0.66277798  0.87535277  1
  O2-  O436  1  0.53489814  0.35568355  0.11496355  1
  O2-  O437  1  0.98397025  -0.01688698  0.37576123  1
  O2-  O438  1  0.45292251  0.66517203  0.62440082  1
  O2-  O439  1  0.47843998  0.65816817  0.39178776  1
  O2-  O440  1  0.47264385  -0.00198288  0.87101036  1
  O2-  O441  1  0.98206913  0.66212281  0.11461792  1
  O2-  O442  1  0.47751341  0.68197984  0.86515267  1
  O2-  O443  1  0.96798257  0.66163926  0.63223917  1
