# generated using pymatgen
data_La7(Ru4O11)2
_symmetry_space_group_name_H-M   'P 1'
_cell_length_a   23.99122732
_cell_length_b   16.83230583
_cell_length_c   15.42869476
_cell_angle_alpha   89.99878746
_cell_angle_beta   90.00073959
_cell_angle_gamma   90.00138613
_symmetry_Int_Tables_number   1
_chemical_formula_structural   La7(Ru4O11)2
_chemical_formula_sum   'La84 Ru96 O264'
_cell_volume   6230.53393369
_cell_formula_units_Z   12
loop_
 _symmetry_equiv_pos_site_id
 _symmetry_equiv_pos_as_xyz
  1  'x, y, z'
loop_
 _atom_type_symbol
 _atom_type_oxidation_number
  La3+  3.0
  Ru4+  4.0
  O2-  -2.0
loop_
 _atom_site_type_symbol
 _atom_site_label
 _atom_site_symmetry_multiplicity
 _atom_site_fract_x
 _atom_site_fract_y
 _atom_site_fract_z
 _atom_site_occupancy
  La3+  La0  1  0.13727137  -0.00017538  0.12502103  1
  La3+  La1  1  0.13610943  0.00103278  0.37543411  1
  La3+  La2  1  0.14303129  -0.00043779  0.62373964  1
  La3+  La3  1  0.14058187  -0.00006972  0.87587661  1
  La3+  La4  1  0.14280002  0.33314370  0.12453480  1
  La3+  La5  1  0.14173275  0.33570711  0.37177454  1
  La3+  La6  1  0.14152861  0.33511680  0.62876239  1
  La3+  La7  1  0.14006419  0.33379841  0.87465979  1
  La3+  La8  1  0.14303100  0.66569299  0.12232438  1
  La3+  La9  1  0.14018007  0.66712763  0.37669433  1
  La3+  La10  1  0.14432255  0.66469272  0.62427532  1
  La3+  La11  1  0.14269377  0.66392287  0.87773824  1
  La3+  La12  1  0.63572441  0.00024296  0.13016413  1
  La3+  La13  1  0.63963656  0.00012672  0.37461516  1
  La3+  La14  1  0.63766065  0.00415705  0.62373382  1
  La3+  La15  1  0.63608639  0.00279883  0.87326400  1
  La3+  La16  1  0.63526788  0.33099595  0.12455579  1
  La3+  La17  1  0.63892199  0.33109352  0.37628828  1
  La3+  La18  1  0.63782814  0.33090654  0.62291316  1
  La3+  La19  1  0.63690525  0.33110079  0.87396943  1
  La3+  La20  1  0.63583370  0.66663398  0.12808339  1
  La3+  La21  1  0.63890034  0.66705899  0.37419607  1
  La3+  La22  1  0.63399274  0.66712960  0.62437391  1
  La3+  La23  1  0.63042967  0.66615542  0.87459778  1
  La3+  La24  1  0.36073677  -0.00160346  0.12212799  1
  La3+  La25  1  0.36327722  -0.00054857  0.37854032  1
  La3+  La26  1  0.36002347  0.00103782  0.62474573  1
  La3+  La27  1  0.36004524  -0.00052761  0.87754012  1
  La3+  La28  1  0.35569424  0.33444952  0.12380770  1
  La3+  La29  1  0.35709467  0.33601696  0.37236164  1
  La3+  La30  1  0.35846783  0.33407042  0.62784841  1
  La3+  La31  1  0.36036807  0.33362519  0.87455487  1
  La3+  La32  1  0.35759207  0.66528911  0.12208240  1
  La3+  La33  1  0.35607288  0.66733511  0.37762007  1
  La3+  La34  1  0.36032963  0.66625687  0.62372595  1
  La3+  La35  1  0.35969236  0.66490670  0.87903174  1
  La3+  La36  1  0.86403689  0.00155686  0.13031876  1
  La3+  La37  1  0.86117026  0.00091864  0.37447218  1
  La3+  La38  1  0.86319667  0.00439047  0.62372814  1
  La3+  La39  1  0.86271017  0.00372400  0.87152995  1
  La3+  La40  1  0.86337234  0.33186278  0.12672096  1
  La3+  La41  1  0.85939917  0.33216927  0.37621575  1
  La3+  La42  1  0.86102079  0.33100353  0.62401180  1
  La3+  La43  1  0.86113005  0.33242939  0.87020578  1
  La3+  La44  1  0.86427560  0.66656685  0.12790344  1
  La3+  La45  1  0.86369865  0.66824642  0.37620182  1
  La3+  La46  1  0.86462835  0.66634426  0.62459364  1
  La3+  La47  1  0.86503568  0.66844206  0.87367776  1
  La3+  La48  1  -0.00218372  0.49566771  0.61823553  1
  La3+  La49  1  -0.00186660  0.16456313  0.88757057  1
  La3+  La50  1  0.50127403  0.49696800  0.61905891  1
  La3+  La51  1  -0.00063082  0.83455504  0.36501497  1
  La3+  La52  1  0.49779304  0.16753364  0.37083238  1
  La3+  La53  1  -0.00239303  0.83358870  0.89113202  1
  La3+  La54  1  0.50158969  0.83234716  0.63690829  1
  La3+  La55  1  -0.00442527  0.83430631  0.87479385  1
  La3+  La56  1  0.00053541  0.83239851  0.62994405  1
  La3+  La57  1  -0.00986217  0.50090014  0.36779425  1
  La3+  La58  1  0.00217026  0.50454382  0.63003595  1
  La3+  La59  1  0.00309857  0.50148509  0.86969444  1
  La3+  La60  1  -0.00162724  0.16392409  0.63325403  1
  La3+  La61  1  0.49874927  0.83781296  0.38101378  1
  La3+  La62  1  0.49687653  0.16402218  0.13151238  1
  La3+  La63  1  0.50219385  0.83060994  0.11085204  1
  La3+  La64  1  -0.00366077  0.84036278  0.12749535  1
  La3+  La65  1  0.49982302  0.16397098  0.86441983  1
  La3+  La66  1  0.50462387  0.16226941  0.38992762  1
  La3+  La67  1  0.50094077  0.49926030  0.37927503  1
  La3+  La68  1  0.49688538  0.83870685  0.61667234  1
  La3+  La69  1  0.00275447  0.17006903  0.61263297  1
  La3+  La70  1  0.50143275  0.83527035  0.87102559  1
  La3+  La71  1  0.00168255  0.49660496  0.13928970  1
  La3+  La72  1  0.25034877  0.82980779  0.50206405  1
  La3+  La73  1  0.74978166  0.86445701  0.71602137  1
  La3+  La74  1  0.74959275  0.48018393  0.07282886  1
  La3+  La75  1  0.74984246  0.20520867  -0.00602189  1
  La3+  La76  1  0.24967102  0.86490997  0.28508251  1
  La3+  La77  1  0.74964939  0.17048742  0.53716921  1
  La3+  La78  1  0.24990766  0.20382065  0.27104841  1
  La3+  La79  1  0.25000472  0.13367757  0.48139114  1
  La3+  La80  1  0.25036682  0.87181221  0.78099756  1
  La3+  La81  1  0.74892769  0.49341721  0.75790263  1
  La3+  La82  1  0.75037535  0.43802713  0.46717227  1
  La3+  La83  1  0.75012028  0.84753596  0.09530286  1
  Ru4+  Ru84  1  0.00208630  0.00632653  0.00312585  1
  Ru4+  Ru85  1  0.00142352  0.01048097  0.24648337  1
  Ru4+  Ru86  1  -0.00089673  -0.00147902  0.49621838  1
  Ru4+  Ru87  1  -0.00309024  0.00181553  0.75463307  1
  Ru4+  Ru88  1  0.00394871  0.33051571  0.00238825  1
  Ru4+  Ru89  1  0.00101007  0.32958999  0.24721718  1
  Ru4+  Ru90  1  -0.00140927  0.33266464  0.49979685  1
  Ru4+  Ru91  1  0.00153076  0.32586817  0.75221866  1
  Ru4+  Ru92  1  0.00030685  0.66137309  0.00491700  1
  Ru4+  Ru93  1  -0.00114060  0.66572687  0.24728846  1
  Ru4+  Ru94  1  0.00000203  0.66524017  0.49358683  1
  Ru4+  Ru95  1  0.00061216  0.66634227  0.74817043  1
  Ru4+  Ru96  1  0.50074423  0.00129584  -0.00363926  1
  Ru4+  Ru97  1  0.50216235  -0.00289463  0.24778009  1
  Ru4+  Ru98  1  0.49881606  0.00144384  0.50261517  1
  Ru4+  Ru99  1  0.50071072  -0.00025534  0.75058697  1
  Ru4+  Ru100  1  0.50183135  0.33843640  0.00651977  1
  Ru4+  Ru101  1  0.49764304  0.33960942  0.24492393  1
  Ru4+  Ru102  1  0.50178075  0.33392635  0.50177882  1
  Ru4+  Ru103  1  0.49903723  0.33443164  0.75161734  1
  Ru4+  Ru104  1  0.49853095  0.65796217  -0.00317224  1
  Ru4+  Ru105  1  0.49988271  0.66739285  0.25026072  1
  Ru4+  Ru106  1  0.50129878  0.66393317  0.49620799  1
  Ru4+  Ru107  1  0.50341804  0.66153543  0.75438806  1
  Ru4+  Ru108  1  0.11297435  0.16798716  0.00022050  1
  Ru4+  Ru109  1  0.10666703  0.16712372  0.25208722  1
  Ru4+  Ru110  1  0.11092064  0.16733673  0.49886503  1
  Ru4+  Ru111  1  0.11516450  0.16740939  0.75047988  1
  Ru4+  Ru112  1  0.11516903  0.49991845  0.00017950  1
  Ru4+  Ru113  1  0.11516298  0.49968806  0.25024496  1
  Ru4+  Ru114  1  0.11465374  0.49864878  0.50112349  1
  Ru4+  Ru115  1  0.11913689  0.50224778  0.75387252  1
  Ru4+  Ru116  1  0.11572835  0.83222311  0.00052468  1
  Ru4+  Ru117  1  0.10998283  0.83376627  0.24967232  1
  Ru4+  Ru118  1  0.11082734  0.83045466  0.50089973  1
  Ru4+  Ru119  1  0.11429170  0.83251755  0.74604253  1
  Ru4+  Ru120  1  0.61128813  0.16488611  -0.00118022  1
  Ru4+  Ru121  1  0.61747618  0.16096351  0.24815974  1
  Ru4+  Ru122  1  0.61185969  0.16513391  0.50325869  1
  Ru4+  Ru123  1  0.61541534  0.16838135  0.74989114  1
  Ru4+  Ru124  1  0.60605330  0.49911299  0.00048821  1
  Ru4+  Ru125  1  0.61305671  0.50244411  0.24935503  1
  Ru4+  Ru126  1  0.60998381  0.49935919  0.50058127  1
  Ru4+  Ru127  1  0.60813508  0.50038171  0.74982317  1
  Ru4+  Ru128  1  0.61032743  0.83348054  -0.00075745  1
  Ru4+  Ru129  1  0.61337207  0.83539188  0.24812166  1
  Ru4+  Ru130  1  0.61366127  0.83631534  0.49868812  1
  Ru4+  Ru131  1  0.60730843  0.83435281  0.74969911  1
  Ru4+  Ru132  1  0.38557782  0.16747824  0.00016067  1
  Ru4+  Ru133  1  0.38609304  0.16881794  0.24891054  1
  Ru4+  Ru134  1  0.38805797  0.16355368  0.50319176  1
  Ru4+  Ru135  1  0.38649932  0.16974236  0.75018955  1
  Ru4+  Ru136  1  0.38723519  0.50375104  0.00047467  1
  Ru4+  Ru137  1  0.38529969  0.50290443  0.24958853  1
  Ru4+  Ru138  1  0.38634539  0.49669297  0.49967484  1
  Ru4+  Ru139  1  0.38903118  0.49823707  0.75146233  1
  Ru4+  Ru140  1  0.38476611  0.83259647  0.00113400  1
  Ru4+  Ru141  1  0.38925429  0.83281901  0.25048957  1
  Ru4+  Ru142  1  0.38731642  0.83307095  0.50003943  1
  Ru4+  Ru143  1  0.38757972  0.83589512  0.74987142  1
  Ru4+  Ru144  1  0.88748758  0.16223229  0.00204589  1
  Ru4+  Ru145  1  0.88860292  0.16238231  0.24854243  1
  Ru4+  Ru146  1  0.88625069  0.16895964  0.49826980  1
  Ru4+  Ru147  1  0.88448779  0.16601939  0.75119989  1
  Ru4+  Ru148  1  0.89097670  0.49981256  0.00030368  1
  Ru4+  Ru149  1  0.88849991  0.49979107  0.25071019  1
  Ru4+  Ru150  1  0.89104434  0.49917023  0.49984189  1
  Ru4+  Ru151  1  0.88574401  0.50498839  0.75080484  1
  Ru4+  Ru152  1  0.88742902  0.83331987  0.00098691  1
  Ru4+  Ru153  1  0.88622061  0.83656171  0.24825405  1
  Ru4+  Ru154  1  0.88544980  0.83709120  0.50023917  1
  Ru4+  Ru155  1  0.88892470  0.83322203  0.74910265  1
  Ru4+  Ru156  1  0.25028084  0.08766353  0.73929628  1
  Ru4+  Ru157  1  0.74993540  0.25244597  0.25202451  1
  Ru4+  Ru158  1  0.75021154  0.61296591  0.49676087  1
  Ru4+  Ru159  1  0.74979271  0.60208558  0.01500550  1
  Ru4+  Ru160  1  0.74973806  0.35869964  0.02319034  1
  Ru4+  Ru161  1  0.74948928  0.74020649  0.74073257  1
  Ru4+  Ru162  1  0.74999800  0.75237433  0.25234330  1
  Ru4+  Ru163  1  0.25016184  0.05911071  0.24385987  1
  Ru4+  Ru164  1  0.74958924  0.99091643  0.75859194  1
  Ru4+  Ru165  1  0.24993472  0.72058239  0.23551547  1
  Ru4+  Ru166  1  0.25053999  0.57816995  0.74793224  1
  Ru4+  Ru167  1  0.24983501  0.28148689  0.49523365  1
  Ru4+  Ru168  1  0.25019883  0.73444915  0.74014744  1
  Ru4+  Ru169  1  0.75008185  0.41158861  0.26331047  1
  Ru4+  Ru170  1  0.74960504  0.73898914  0.01160181  1
  Ru4+  Ru171  1  0.74998156  0.07822427  0.00621194  1
  Ru4+  Ru172  1  0.74972733  0.61207886  0.72147869  1
  Ru4+  Ru173  1  0.25031435  0.57679594  0.49072302  1
  Ru4+  Ru174  1  0.75032222  0.58964249  0.26048924  1
  Ru4+  Ru175  1  0.74970708  0.37146272  0.74091566  1
  Ru4+  Ru176  1  0.74991021  0.94725434  -0.00515757  1
  Ru4+  Ru177  1  0.74983650  0.91521158  0.49842607  1
  Ru4+  Ru178  1  0.75009937  0.75293975  0.49845198  1
  Ru4+  Ru179  1  0.25031560  0.08857918  0.00612996  1
  O2-  O180  1  0.16751496  0.08180577  0.00082160  1
  O2-  O181  1  0.16718857  0.07843405  0.25077903  1
  O2-  O182  1  0.16573644  0.07715589  0.49726494  1
  O2-  O183  1  0.16938287  0.08276518  0.75144932  1
  O2-  O184  1  0.16465831  0.41403822  -0.00104733  1
  O2-  O185  1  0.16479485  0.41663615  0.24917389  1
  O2-  O186  1  0.16722081  0.41650131  0.49785930  1
  O2-  O187  1  0.16836115  0.41321270  0.75218445  1
  O2-  O188  1  0.16655159  0.75098222  0.00102542  1
  O2-  O189  1  0.16780775  0.74574537  0.25131785  1
  O2-  O190  1  0.16936053  0.74972165  0.49849570  1
  O2-  O191  1  0.16714414  0.74777755  0.75230848  1
  O2-  O192  1  0.66641776  0.08056142  0.00151413  1
  O2-  O193  1  0.66713672  0.07904713  0.24932355  1
  O2-  O194  1  0.66964432  0.07934498  0.49910265  1
  O2-  O195  1  0.66500387  0.07918587  0.74953017  1
  O2-  O196  1  0.66685494  0.41256204  0.00020848  1
  O2-  O197  1  0.66889252  0.41363972  0.25151070  1
  O2-  O198  1  0.66283092  0.41246553  0.50110107  1
  O2-  O199  1  0.66521077  0.41131025  0.74998563  1
  O2-  O200  1  0.66460198  0.74527165  0.00126097  1
  O2-  O201  1  0.66791915  0.74754149  0.25163732  1
  O2-  O202  1  0.66583451  0.74655127  0.50180787  1
  O2-  O203  1  0.66485148  0.74299554  0.75013058  1
  O2-  O204  1  0.33247263  0.25068497  -0.00244347  1
  O2-  O205  1  0.33499031  0.25314929  0.24877648  1
  O2-  O206  1  0.33373763  0.25369421  0.49811196  1
  O2-  O207  1  0.33240891  0.24971468  0.74990624  1
  O2-  O208  1  0.33560306  0.58326485  0.00026125  1
  O2-  O209  1  0.33106759  0.58317786  0.24872004  1
  O2-  O210  1  0.33407910  0.58672073  0.50131417  1
  O2-  O211  1  0.33411802  0.58572734  0.74995896  1
  O2-  O212  1  0.33277332  0.91895075  0.00167768  1
  O2-  O213  1  0.33152284  0.92133237  0.24795769  1
  O2-  O214  1  0.32960801  0.91957824  0.49889213  1
  O2-  O215  1  0.33391443  0.92096610  0.75011190  1
  O2-  O216  1  0.83527831  0.25532415  0.00224517  1
  O2-  O217  1  0.83440973  0.25245701  0.24959535  1
  O2-  O218  1  0.83563304  0.25180791  0.50069651  1
  O2-  O219  1  0.83699811  0.25302364  0.74885332  1
  O2-  O220  1  0.83331380  0.58888670  0.00147727  1
  O2-  O221  1  0.83380188  0.58614790  0.25014005  1
  O2-  O222  1  0.83313899  0.58861766  0.49957606  1
  O2-  O223  1  0.83464570  0.58920368  0.75121818  1
  O2-  O224  1  0.83480829  0.92174957  0.00172160  1
  O2-  O225  1  0.83138013  0.91795321  0.25094572  1
  O2-  O226  1  0.83089361  0.92091855  0.50122769  1
  O2-  O227  1  0.83394528  0.92346594  0.75057043  1
  O2-  O228  1  0.16704709  0.25255077  -0.00221150  1
  O2-  O229  1  0.16460556  0.25270112  0.24878734  1
  O2-  O230  1  0.16641089  0.25273834  0.49869433  1
  O2-  O231  1  0.16611758  0.25151477  0.75245582  1
  O2-  O232  1  0.16377725  0.58343109  0.00108499  1
  O2-  O233  1  0.16545956  0.58523282  0.25049033  1
  O2-  O234  1  0.16753791  0.58480848  0.49770923  1
  O2-  O235  1  0.16790057  0.58705156  0.75101992  1
  O2-  O236  1  0.16482129  0.91923912  0.00027381  1
  O2-  O237  1  0.16593192  0.92231917  0.25034213  1
  O2-  O238  1  0.16787889  0.91888859  0.49729580  1
  O2-  O239  1  0.16620000  0.92048833  0.75252740  1
  O2-  O240  1  0.66545381  0.25545200  0.00243487  1
  O2-  O241  1  0.66770482  0.25409142  0.25033378  1
  O2-  O242  1  0.66531626  0.25218648  0.49950854  1
  O2-  O243  1  0.66373350  0.25122728  0.75015593  1
  O2-  O244  1  0.66419217  0.58836457  -0.00026114  1
  O2-  O245  1  0.66613916  0.58530920  0.25105527  1
  O2-  O246  1  0.66576092  0.58876383  0.49991824  1
  O2-  O247  1  0.66518442  0.58875891  0.74992532  1
  O2-  O248  1  0.66487508  0.92146747  0.00152646  1
  O2-  O249  1  0.66893489  0.91840519  0.25079878  1
  O2-  O250  1  0.66855316  0.91918611  0.50059550  1
  O2-  O251  1  0.66525043  0.92370149  0.75049433  1
  O2-  O252  1  0.33158326  0.08294754  0.00190577  1
  O2-  O253  1  0.33296138  0.07842463  0.24929762  1
  O2-  O254  1  0.33243384  0.07865210  0.49890003  1
  O2-  O255  1  0.33209748  0.08255164  0.74907216  1
  O2-  O256  1  0.33586097  0.41535424  -0.00039504  1
  O2-  O257  1  0.33517713  0.41554357  0.24976267  1
  O2-  O258  1  0.33547173  0.41517178  0.50027820  1
  O2-  O259  1  0.33443911  0.41398084  0.74989337  1
  O2-  O260  1  0.33475745  0.75060154  -0.00104291  1
  O2-  O261  1  0.33298075  0.74782876  0.25044419  1
  O2-  O262  1  0.33172765  0.74842259  0.50213399  1
  O2-  O263  1  0.33490700  0.74544713  0.75089785  1
  O2-  O264  1  0.83326585  0.07979084  0.00116814  1
  O2-  O265  1  0.83324647  0.08089582  0.24972341  1
  O2-  O266  1  0.83001021  0.07808678  0.49936605  1
  O2-  O267  1  0.83240053  0.07909897  0.74865340  1
  O2-  O268  1  0.83534992  0.41277151  0.00040871  1
  O2-  O269  1  0.83154794  0.41350605  0.25000299  1
  O2-  O270  1  0.83958792  0.41185022  0.50218147  1
  O2-  O271  1  0.83592345  0.41151416  0.74858674  1
  O2-  O272  1  0.83453628  0.74474299  0.00100826  1
  O2-  O273  1  0.83268056  0.74721296  0.25132579  1
  O2-  O274  1  0.83218867  0.74764834  0.50092511  1
  O2-  O275  1  0.83340143  0.74487832  0.74965336  1
  O2-  O276  1  0.45838294  0.21994852  0.96416266  1
  O2-  O277  1  0.05381996  0.41837798  0.72820857  1
  O2-  O278  1  0.46059800  0.11023517  0.72219529  1
  O2-  O279  1  0.95520463  0.21968484  1.00410617  1
  O2-  O280  1  0.95077069  0.42860312  0.72855579  1
  O2-  O281  1  0.46331857  0.88434955  0.21302443  1
  O2-  O282  1  0.45238791  0.09555669  0.25551779  1
  O2-  O283  1  0.04658713  0.23968075  0.76681038  1
  O2-  O284  1  0.44989070  0.24044283  0.48659440  1
  O2-  O285  1  0.04188053  0.78118719  0.03505781  1
  O2-  O286  1  0.95362217  0.42767496  0.76770900  1
  O2-  O287  1  0.54529021  0.23772875  0.25063954  1
  O2-  O288  1  0.05025127  0.09422185  0.25323326  1
  O2-  O289  1  0.45522159  0.56821577  0.48828084  1
  O2-  O290  1  0.03549702  0.43452078  0.46149035  1
  O2-  O291  1  0.04966044  0.23817294  1.00265059  1
  O2-  O292  1  0.54909609  0.23297334  0.51533445  1
  O2-  O293  1  0.46245496  0.55505833  0.23196875  1
  O2-  O294  1  0.04776899  0.09740443  0.25085759  1
  O2-  O295  1  0.05073903  0.75829611  0.45436514  1
  O2-  O296  1  0.45427607  0.76270282  0.76134204  1
  O2-  O297  1  0.54712362  0.23270790  0.76129187  1
  O2-  O298  1  0.54630748  0.76487291  0.50944729  1
  O2-  O299  1  0.94720082  0.76131566  0.45553760  1
  O2-  O300  1  0.55020503  0.56933296  0.98731125  1
  O2-  O301  1  0.94932752  0.76108991  0.98737109  1
  O2-  O302  1  0.03887741  0.76827112  0.78284275  1
  O2-  O303  1  0.04612846  0.90275331  0.51219810  1
  O2-  O304  1  0.54648672  0.90423522  0.98963174  1
  O2-  O305  1  0.45157380  0.56917477  0.01545926  1
  O2-  O306  1  0.45429193  0.43541813  0.75944953  1
  O2-  O307  1  0.03898441  0.89551748  0.77815471  1
  O2-  O308  1  0.03763272  0.10930775  0.78449598  1
  O2-  O309  1  0.95282936  0.90732951  0.99090710  1
  O2-  O310  1  0.96484661  0.54906200  0.03425048  1
  O2-  O311  1  0.04587226  0.43435648  0.26541626  1
  O2-  O312  1  0.03815721  0.56080681  0.46322016  1
  O2-  O313  1  0.54067730  0.44324581  0.27387029  1
  O2-  O314  1  0.04894860  0.09809789  0.48392069  1
  O2-  O315  1  0.94735720  0.09226385  0.51572374  1
  O2-  O316  1  0.46280954  0.55481793  0.23158541  1
  O2-  O317  1  0.55157705  0.22893743  0.24850380  1
  O2-  O318  1  0.54568425  0.76195713  0.98815032  1
  O2-  O319  1  0.94752652  0.09982085  0.23469226  1
  O2-  O320  1  0.54248185  0.22050855  0.03270616  1
  O2-  O321  1  0.95430677  0.76839465  0.23720563  1
  O2-  O322  1  0.04996431  0.23547723  -0.00616601  1
  O2-  O323  1  0.95281865  0.57176653  0.76545824  1
  O2-  O324  1  0.43452598  0.92438727  0.72261239  1
  O2-  O325  1  0.93590850  0.92945701  0.46405176  1
  O2-  O326  1  0.43616921  0.92233446  0.47188664  1
  O2-  O327  1  0.57454080  0.26633240  0.95220906  1
  O2-  O328  1  0.07818956  0.06671915  0.69941383  1
  O2-  O329  1  0.56542659  0.40690732  0.02579425  1
  O2-  O330  1  0.07659974  0.93218908  0.69827787  1
  O2-  O331  1  0.43838781  0.73581061  0.03356148  1
  O2-  O332  1  0.56285762  0.92797732  0.46423002  1
  O2-  O333  1  0.06287917  0.26739103  0.28337919  1
  O2-  O334  1  0.43647702  0.07171623  0.96851565  1
  O2-  O335  1  0.56520521  0.07410480  0.52522257  1
  O2-  O336  1  0.43561413  0.59973597  0.78177446  1
  O2-  O337  1  0.43583754  0.73746262  0.53489091  1
  O2-  O338  1  0.56582416  0.07302992  0.97307399  1
  O2-  O339  1  0.56354287  0.40934509  0.52726873  1
  O2-  O340  1  0.56543552  0.92564175  0.22457537  1
  O2-  O341  1  0.93425801  0.74091900  0.72378910  1
  O2-  O342  1  0.56629554  0.59201322  0.77427056  1
  O2-  O343  1  0.93754594  0.93060113  0.21716077  1
  O2-  O344  1  0.43038902  0.06422347  0.79861595  1
  O2-  O345  1  0.43411168  0.07579419  0.52612559  1
  O2-  O346  1  0.43334182  0.26066708  0.77869915  1
  O2-  O347  1  0.42462647  0.62847318  0.30826707  1
  O2-  O348  1  0.92910909  0.28426703  0.95565071  1
  O2-  O349  1  0.05543067  0.41792343  0.72983166  1
  O2-  O350  1  0.92691155  0.73527139  0.57236757  1
  O2-  O351  1  0.57379354  0.39805987  0.20770373  1
  O2-  O352  1  0.93919617  0.08072641  0.52554632  1
  O2-  O353  1  0.07124177  0.71681529  0.93990334  1
  O2-  O354  1  0.93589572  0.07312293  0.78418300  1
  O2-  O355  1  0.07791320  0.39436133  0.55365645  1
  O2-  O356  1  0.06283303  0.59532593  0.78663861  1
  O2-  O357  1  0.05792621  0.74612785  0.44382393  1
  O2-  O358  1  0.42383245  0.93804948  0.30060709  1
  O2-  O359  1  0.92904848  0.61102822  0.94041434  1
  O2-  O360  1  0.94004578  0.75993492  0.45195750  1
  O2-  O361  1  0.56625347  0.40855138  0.72234457  1
  O2-  O362  1  0.93517733  0.92726971  0.78421339  1
  O2-  O363  1  0.56284082  0.73682412  0.21708409  1
  O2-  O364  1  0.07029372  0.74035583  0.58088116  1
  O2-  O365  1  0.43650416  0.26704179  0.28229376  1
  O2-  O366  1  0.93542696  0.06777331  0.03142935  1
  O2-  O367  1  0.07413852  0.60260094  0.56177779  1
  O2-  O368  1  0.43705353  0.92634017  0.96671146  1
  O2-  O369  1  0.93597265  0.40190288  0.28342266  1
  O2-  O370  1  0.07340059  0.72302142  0.69231039  1
  O2-  O371  1  0.42861744  0.27811479  0.05556699  1
  O2-  O372  1  0.25042634  0.67013412  0.10923633  1
  O2-  O373  1  0.24991373  0.66753990  0.92597688  1
  O2-  O374  1  0.75012510  0.33513211  0.15436547  1
  O2-  O375  1  0.25004768  0.32540022  0.35463279  1
  O2-  O376  1  0.25087307  0.65938450  0.64427632  1
  O2-  O377  1  0.74977015  0.67305170  0.39666883  1
  O2-  O378  1  0.24964359  -0.00002294  0.92315022  1
  O2-  O379  1  0.24982975  0.00254733  0.82969691  1
  O2-  O380  1  0.75021337  0.31419359  0.91628576  1
  O2-  O381  1  0.75006807  0.00367353  0.88329659  1
  O2-  O382  1  0.25008360  0.00158898  0.65750494  1
  O2-  O383  1  0.74996657  0.66639757  0.15825368  1
  O2-  O384  1  0.25017698  0.33368246  0.08073614  1
  O2-  O385  1  0.74979741  0.66995478  0.62027157  1
  O2-  O386  1  0.75037549  0.33518281  0.56787975  1
  O2-  O387  1  0.25027010  0.66049274  0.83544759  1
  O2-  O388  1  0.25023710  0.33278328  0.16961856  1
  O2-  O389  1  0.75017605  0.66163917  0.83103200  1
  O2-  O390  1  0.75026810  0.66836699  0.92038236  1
  O2-  O391  1  0.75014203  0.33081784  0.39112852  1
  O2-  O392  1  0.24962761  0.66819393  0.40630467  1
  O2-  O393  1  0.25030039  0.33381764  0.59674865  1
  O2-  O394  1  0.74999521  0.30142782  0.82862729  1
  O2-  O395  1  0.75024455  0.30317650  0.65098862  1
  O2-  O396  1  0.75031935  0.48587865  0.63406648  1
  O2-  O397  1  0.75001087  0.83330091  0.93690465  1
  O2-  O398  1  0.75001798  0.51294089  0.34986665  1
  O2-  O399  1  0.75002823  0.82852953  0.58706201  1
  O2-  O400  1  0.75003957  0.50085835  0.95083027  1
  O2-  O401  1  0.74942017  0.52690943  0.56474521  1
  O2-  O402  1  0.24999400  0.16675298  0.61764582  1
  O2-  O403  1  0.25011419  0.15426377  0.13116949  1
  O2-  O404  1  0.24993336  0.82739249  0.63866711  1
  O2-  O405  1  0.75001837  0.16241233  0.85440532  1
  O2-  O406  1  0.74991859  0.50220476  0.19265266  1
  O2-  O407  1  0.24992800  0.83418587  0.06567294  1
  O2-  O408  1  0.75012113  0.82661657  0.84769583  1
  O2-  O409  1  0.24981009  0.49571531  0.83442431  1
  O2-  O410  1  0.74996016  0.16296413  0.66054573  1
  O2-  O411  1  0.24987199  0.49900478  0.58125535  1
  O2-  O412  1  0.74985170  0.83324225  0.40545882  1
  O2-  O413  1  0.25001508  0.50479996  0.41360887  1
  O2-  O414  1  0.24998089  0.82765764  0.15122243  1
  O2-  O415  1  0.24992738  0.49671957  0.66754150  1
  O2-  O416  1  0.74998780  0.50445955  0.87520539  1
  O2-  O417  1  0.74990668  0.16217175  0.31238972  1
  O2-  O418  1  0.24994227  0.50185082  0.91698219  1
  O2-  O419  1  0.75002618  0.16633163  0.39936489  1
  O2-  O420  1  0.52489490  0.00681122  0.12010993  1
  O2-  O421  1  0.46434237  -0.00528631  0.62050052  1
  O2-  O422  1  0.52657903  0.33430066  0.37837501  1
  O2-  O423  1  0.04423828  0.66323928  0.13060000  1
  O2-  O424  1  0.97454951  0.65652889  0.36426648  1
  O2-  O425  1  0.02035398  0.31808229  0.62479645  1
  O2-  O426  1  0.51859810  0.32645419  0.12341242  1
  O2-  O427  1  0.52631331  0.32742674  0.62730469  1
  O2-  O428  1  0.02795717  -0.00073301  0.87980654  1
  O2-  O429  1  0.95645082  0.66619253  0.12727250  1
  O2-  O430  1  0.52906426  0.34181427  0.86930921  1
  O2-  O431  1  0.97840754  0.65060643  0.62841738  1
  O2-  O432  1  0.54100673  -0.00764744  0.63227553  1
  O2-  O433  1  0.52554451  -0.00287856  0.86778701  1
  O2-  O434  1  0.95784562  0.33556922  0.12665945  1
  O2-  O435  1  0.52401295  0.67367793  0.87576020  1
  O2-  O436  1  0.46604384  0.33364111  0.62529401  1
  O2-  O437  1  0.03409956  0.00526620  0.60378867  1
  O2-  O438  1  0.48008856  0.01123292  0.37871176  1
  O2-  O439  1  0.04139652  0.33811011  0.12836970  1
  O2-  O440  1  0.02856050  -0.00386650  0.12090591  1
  O2-  O441  1  0.47123023  0.33836156  0.87938660  1
  O2-  O442  1  0.95925413  -0.00889190  0.63924527  1
  O2-  O443  1  0.52762722  0.66559301  0.62837063  1
