# generated using pymatgen
data_La7(Ru4O11)2
_symmetry_space_group_name_H-M   'P 1'
_cell_length_a   23.99221994
_cell_length_b   16.83309746
_cell_length_c   15.42845169
_cell_angle_alpha   89.99971076
_cell_angle_beta   89.99922044
_cell_angle_gamma   90.00026759
_symmetry_Int_Tables_number   1
_chemical_formula_structural   La7(Ru4O11)2
_chemical_formula_sum   'La84 Ru96 O264'
_cell_volume   6230.98659420
_cell_formula_units_Z   12
loop_
 _symmetry_equiv_pos_site_id
 _symmetry_equiv_pos_as_xyz
  1  'x, y, z'
loop_
 _atom_type_symbol
 _atom_type_oxidation_number
  La3+  3.0
  Ru4+  4.0
  O2-  -2.0
loop_
 _atom_site_type_symbol
 _atom_site_label
 _atom_site_symmetry_multiplicity
 _atom_site_fract_x
 _atom_site_fract_y
 _atom_site_fract_z
 _atom_site_occupancy
  La3+  La0  1  0.14444797  -0.00057858  0.11974881  1
  La3+  La1  1  0.13896902  -0.00162690  0.37930561  1
  La3+  La2  1  0.14173620  -0.00344560  0.62080591  1
  La3+  La3  1  0.14259664  0.00111129  0.87852008  1
  La3+  La4  1  0.14316448  0.33190303  0.11916177  1
  La3+  La5  1  0.12703495  0.32155693  0.39222785  1
  La3+  La6  1  0.13389330  0.32658538  0.61251500  1
  La3+  La7  1  0.14049149  0.33312777  0.87760276  1
  La3+  La8  1  0.14525442  0.66659533  0.12074444  1
  La3+  La9  1  0.14577781  0.66780970  0.37980194  1
  La3+  La10  1  0.13837470  0.66469499  0.61910103  1
  La3+  La11  1  0.14310824  0.67193161  0.87847532  1
  La3+  La12  1  0.63187087  0.00876677  0.11680172  1
  La3+  La13  1  0.64401502  0.00307959  0.37277775  1
  La3+  La14  1  0.64032352  0.00019771  0.62185566  1
  La3+  La15  1  0.63221076  0.00635067  0.89171116  1
  La3+  La16  1  0.64180055  0.33540609  0.12967018  1
  La3+  La17  1  0.63729182  0.33245150  0.37866126  1
  La3+  La18  1  0.64253205  0.34035765  0.62400012  1
  La3+  La19  1  0.64076207  0.33601316  0.87398470  1
  La3+  La20  1  0.63206172  0.66404688  0.12603948  1
  La3+  La21  1  0.63428020  0.66276749  0.37527239  1
  La3+  La22  1  0.64361509  0.66663440  0.61883922  1
  La3+  La23  1  0.63674752  0.66345261  0.87783371  1
  La3+  La24  1  0.35683556  0.00247789  0.11929119  1
  La3+  La25  1  0.36122421  0.00358368  0.37235084  1
  La3+  La26  1  0.36421459  0.00003975  0.62181631  1
  La3+  La27  1  0.35740259  0.00059348  0.88027192  1
  La3+  La28  1  0.35687359  0.32835753  0.11982662  1
  La3+  La29  1  0.36472091  0.33603590  0.37248954  1
  La3+  La30  1  0.35700267  0.33567800  0.61671133  1
  La3+  La31  1  0.36070082  0.33345254  0.88069725  1
  La3+  La32  1  0.36775040  0.65982074  0.13198483  1
  La3+  La33  1  0.37313457  0.65666833  0.36035806  1
  La3+  La34  1  0.35811824  0.66302697  0.61872705  1
  La3+  La35  1  0.36428722  0.66530837  0.88434235  1
  La3+  La36  1  0.86190317  0.00648896  0.12356149  1
  La3+  La37  1  0.85646543  0.00421541  0.37572680  1
  La3+  La38  1  0.86318024  0.00150806  0.62383078  1
  La3+  La39  1  0.86496633  -0.00158075  0.87226104  1
  La3+  La40  1  0.86493967  0.33007024  0.12938063  1
  La3+  La41  1  0.85386460  0.33828275  0.38142097  1
  La3+  La42  1  0.85227152  0.32774161  0.62725192  1
  La3+  La43  1  0.85971910  0.33597633  0.87542648  1
  La3+  La44  1  0.86349339  0.66626552  0.12507067  1
  La3+  La45  1  0.86318727  0.66523809  0.38252354  1
  La3+  La46  1  0.86139246  0.66574411  0.61975274  1
  La3+  La47  1  0.86268682  0.66538149  0.87288802  1
  La3+  La48  1  0.00450453  0.16241573  0.61215945  1
  La3+  La49  1  -0.00188060  0.83025481  0.12175290  1
  La3+  La50  1  -0.00092675  0.15300740  0.13355768  1
  La3+  La51  1  0.50264497  0.84048745  0.61855989  1
  La3+  La52  1  0.50462996  0.15057261  0.86785257  1
  La3+  La53  1  0.00301262  0.16581604  0.86543460  1
  La3+  La54  1  0.49604385  0.83119734  0.13170407  1
  La3+  La55  1  0.49849459  0.14640654  0.88045526  1
  La3+  La56  1  -0.00332101  0.18159639  0.37100556  1
  La3+  La57  1  0.49967162  0.51245840  0.37803420  1
  La3+  La58  1  0.49343782  0.16387488  0.35718302  1
  La3+  La59  1  0.49968163  0.83125312  0.36958213  1
  La3+  La60  1  -0.00480712  0.16726873  0.88440577  1
  La3+  La61  1  -0.00392386  0.82766366  0.86497636  1
  La3+  La62  1  0.49131915  0.50138416  0.12406140  1
  La3+  La63  1  0.49976676  0.83536997  0.86633556  1
  La3+  La64  1  0.49976914  0.50194965  0.14258258  1
  La3+  La65  1  0.49565359  0.16798865  0.60206346  1
  La3+  La66  1  0.00093131  0.15867923  0.11439778  1
  La3+  La67  1  0.50678888  0.15769357  0.11278280  1
  La3+  La68  1  0.00273812  0.82813154  0.14303821  1
  La3+  La69  1  0.49632753  0.18068334  0.61930695  1
  La3+  La70  1  0.00312379  0.51402921  0.38732258  1
  La3+  La71  1  0.00190617  0.49823994  0.12664130  1
  La3+  La72  1  0.75082480  0.53629907  -0.00985269  1
  La3+  La73  1  0.74927029  0.87229924  0.00494795  1
  La3+  La74  1  0.24992141  0.82586589  0.48307035  1
  La3+  La75  1  0.25074205  0.77198027  0.21780723  1
  La3+  La76  1  0.75034975  0.88196325  0.21435826  1
  La3+  La77  1  0.75108797  0.45910983  0.25163317  1
  La3+  La78  1  0.25133164  0.86875361  0.83179475  1
  La3+  La79  1  0.24922446  0.11035343  0.74420250  1
  La3+  La80  1  0.74993408  0.12261648  0.76546863  1
  La3+  La81  1  0.24906885  0.50450864  0.72929233  1
  La3+  La82  1  0.74886756  0.83223289  0.80495332  1
  La3+  La83  1  0.74885910  0.20721168  0.03430255  1
  Ru4+  Ru84  1  0.00700001  -0.00516754  -0.00134872  1
  Ru4+  Ru85  1  0.00040137  -0.00264570  0.25741346  1
  Ru4+  Ru86  1  -0.00078868  -0.00120515  0.48417937  1
  Ru4+  Ru87  1  0.00504853  0.00124964  0.74581807  1
  Ru4+  Ru88  1  -0.00055573  0.34163273  -0.00774990  1
  Ru4+  Ru89  1  0.00530152  0.34090469  0.25123810  1
  Ru4+  Ru90  1  -0.00218204  0.33516940  0.51257126  1
  Ru4+  Ru91  1  -0.00010607  0.34189468  0.75723172  1
  Ru4+  Ru92  1  0.00777147  0.65152620  -0.00788188  1
  Ru4+  Ru93  1  0.00014615  0.66935151  0.24323068  1
  Ru4+  Ru94  1  0.00399210  0.67722962  0.50653517  1
  Ru4+  Ru95  1  0.00585701  0.66278167  0.74443621  1
  Ru4+  Ru96  1  0.50336951  -0.00211055  -0.00450669  1
  Ru4+  Ru97  1  0.50402554  -0.00412707  0.25201811  1
  Ru4+  Ru98  1  0.50167788  -0.00414706  0.51175899  1
  Ru4+  Ru99  1  0.50208362  -0.00297587  0.74654605  1
  Ru4+  Ru100  1  0.50476712  0.32833227  0.00224630  1
  Ru4+  Ru101  1  0.50207799  0.32875698  0.25024676  1
  Ru4+  Ru102  1  0.50157260  0.32536419  0.50597359  1
  Ru4+  Ru103  1  0.50131044  0.33057064  0.75090628  1
  Ru4+  Ru104  1  0.49395096  0.67040891  0.00303011  1
  Ru4+  Ru105  1  0.49912929  0.66462376  0.25391941  1
  Ru4+  Ru106  1  0.50241954  0.66760361  0.50017131  1
  Ru4+  Ru107  1  0.49587206  0.66385319  0.74769773  1
  Ru4+  Ru108  1  0.11832713  0.16581900  -0.00132908  1
  Ru4+  Ru109  1  0.11463981  0.16526772  0.25509313  1
  Ru4+  Ru110  1  0.11228196  0.16613102  0.50179222  1
  Ru4+  Ru111  1  0.10823312  0.16809444  0.74390904  1
  Ru4+  Ru112  1  0.10653227  0.51215321  -0.00422271  1
  Ru4+  Ru113  1  0.11406259  0.49440519  0.24907891  1
  Ru4+  Ru114  1  0.11627270  0.49376209  0.50115837  1
  Ru4+  Ru115  1  0.11026138  0.50002181  0.74933626  1
  Ru4+  Ru116  1  0.11682778  0.83136212  -0.00188111  1
  Ru4+  Ru117  1  0.10927988  0.83183677  0.25294459  1
  Ru4+  Ru118  1  0.10418512  0.83544840  0.49957849  1
  Ru4+  Ru119  1  0.10998910  0.83948704  0.74674899  1
  Ru4+  Ru120  1  0.60938977  0.16789837  -0.00098985  1
  Ru4+  Ru121  1  0.61459148  0.16415246  0.24419183  1
  Ru4+  Ru122  1  0.61494194  0.17092454  0.49950598  1
  Ru4+  Ru123  1  0.61263250  0.16758929  0.75818115  1
  Ru4+  Ru124  1  0.61249982  0.49286592  -0.00509908  1
  Ru4+  Ru125  1  0.61649986  0.49431361  0.24919230  1
  Ru4+  Ru126  1  0.61394200  0.50689085  0.49952560  1
  Ru4+  Ru127  1  0.61236245  0.49186330  0.74704694  1
  Ru4+  Ru128  1  0.60505884  0.83629148  -0.00185405  1
  Ru4+  Ru129  1  0.61235800  0.83700810  0.24690077  1
  Ru4+  Ru130  1  0.61264551  0.83002500  0.50022003  1
  Ru4+  Ru131  1  0.60729943  0.83320590  0.75147451  1
  Ru4+  Ru132  1  0.38538805  0.16324445  0.00109439  1
  Ru4+  Ru133  1  0.38345876  0.17248532  0.25147517  1
  Ru4+  Ru134  1  0.38539672  0.16945912  0.50088241  1
  Ru4+  Ru135  1  0.38877202  0.17239329  0.75196020  1
  Ru4+  Ru136  1  0.38444267  0.50809943  -0.00384241  1
  Ru4+  Ru137  1  0.38618353  0.49911279  0.24927370  1
  Ru4+  Ru138  1  0.38353248  0.50113347  0.50004657  1
  Ru4+  Ru139  1  0.39444296  0.50121898  0.74701388  1
  Ru4+  Ru140  1  0.38525980  0.83020035  0.00106817  1
  Ru4+  Ru141  1  0.38453458  0.84036750  0.25009862  1
  Ru4+  Ru142  1  0.38935936  0.83558900  0.50073423  1
  Ru4+  Ru143  1  0.38977944  0.83442475  0.74839514  1
  Ru4+  Ru144  1  0.88188362  0.17069372  -0.00295796  1
  Ru4+  Ru145  1  0.88225656  0.16681287  0.25927424  1
  Ru4+  Ru146  1  0.88543741  0.16990696  0.50378368  1
  Ru4+  Ru147  1  0.88843742  0.16503589  0.74861745  1
  Ru4+  Ru148  1  0.89066580  0.50095704  0.00031630  1
  Ru4+  Ru149  1  0.88967167  0.50316161  0.24845506  1
  Ru4+  Ru150  1  0.88821106  0.49551549  0.50485118  1
  Ru4+  Ru151  1  0.88982383  0.49327316  0.74974338  1
  Ru4+  Ru152  1  0.88892904  0.83775134  0.00248393  1
  Ru4+  Ru153  1  0.88989776  0.83497376  0.24954625  1
  Ru4+  Ru154  1  0.88521741  0.83143751  0.49603703  1
  Ru4+  Ru155  1  0.88334054  0.83326585  0.74911263  1
  Ru4+  Ru156  1  0.75024640  0.91862311  0.50180544  1
  Ru4+  Ru157  1  0.74999761  0.60146189  0.24695755  1
  Ru4+  Ru158  1  0.74967344  0.41810430  0.49882038  1
  Ru4+  Ru159  1  0.24953019  0.94113865  0.22060177  1
  Ru4+  Ru160  1  0.25121970  0.61687739  0.81102727  1
  Ru4+  Ru161  1  0.74926841  0.70748144  0.72962290  1
  Ru4+  Ru162  1  0.24922457  0.40973156  0.25327256  1
  Ru4+  Ru163  1  0.74961553  0.26497817  0.73127490  1
  Ru4+  Ru164  1  0.24951810  0.41786807  0.00628374  1
  Ru4+  Ru165  1  0.75083186  0.06639629  -0.01076414  1
  Ru4+  Ru166  1  0.25005759  0.10240294  0.50217423  1
  Ru4+  Ru167  1  0.25035186  0.73597249  0.74757878  1
  Ru4+  Ru168  1  0.24834799  0.25115210  0.24844969  1
  Ru4+  Ru169  1  0.74991237  0.73767130  0.26067738  1
  Ru4+  Ru170  1  0.74982315  0.24279298  0.24825049  1
  Ru4+  Ru171  1  0.24976331  0.24430275  0.76365149  1
  Ru4+  Ru172  1  0.74997298  0.56788943  0.74625518  1
  Ru4+  Ru173  1  0.74933315  0.95636098  0.72421036  1
  Ru4+  Ru174  1  0.24979403  0.36928754  0.71881197  1
  Ru4+  Ru175  1  0.74976544  0.39246747  0.01456914  1
  Ru4+  Ru176  1  0.74963584  0.72825802  0.00889722  1
  Ru4+  Ru177  1  0.25014615  0.96006194  0.70916070  1
  Ru4+  Ru178  1  0.24877111  0.58684263  0.26478305  1
  Ru4+  Ru179  1  0.25034835  0.08503133  0.24862659  1
  O2-  O180  1  0.16455858  0.08047947  0.00027858  1
  O2-  O181  1  0.16655143  0.08123667  0.24914819  1
  O2-  O182  1  0.17025235  0.08411411  0.49641274  1
  O2-  O183  1  0.15611007  0.07699964  0.75186363  1
  O2-  O184  1  0.16717048  0.41854749  -0.00452438  1
  O2-  O185  1  0.17034042  0.41165838  0.25447102  1
  O2-  O186  1  0.16711415  0.41328489  0.49336218  1
  O2-  O187  1  0.16252740  0.41229953  0.74928396  1
  O2-  O188  1  0.16643612  0.74740974  0.00100631  1
  O2-  O189  1  0.16063884  0.74554348  0.25421439  1
  O2-  O190  1  0.16243256  0.74984319  0.50125637  1
  O2-  O191  1  0.16358003  0.74850564  0.74685736  1
  O2-  O192  1  0.66873657  0.08251882  0.00226872  1
  O2-  O193  1  0.66364561  0.07976841  0.24689652  1
  O2-  O194  1  0.66172620  0.08253314  0.49947147  1
  O2-  O195  1  0.66191903  0.07750827  0.74743690  1
  O2-  O196  1  0.66792650  0.41524772  -0.00039817  1
  O2-  O197  1  0.66621011  0.41071059  0.25333934  1
  O2-  O198  1  0.66837712  0.41968256  0.50160747  1
  O2-  O199  1  0.66703196  0.41726825  0.75316936  1
  O2-  O200  1  0.66609752  0.74547210  0.00225689  1
  O2-  O201  1  0.66523536  0.74516195  0.24984321  1
  O2-  O202  1  0.66188172  0.74625259  0.49721610  1
  O2-  O203  1  0.66716987  0.74251831  0.75248280  1
  O2-  O204  1  0.33550122  0.25200115  -0.00530807  1
  O2-  O205  1  0.32971335  0.25259176  0.25171515  1
  O2-  O206  1  0.33720156  0.25418661  0.49791258  1
  O2-  O207  1  0.33486058  0.25393053  0.75034108  1
  O2-  O208  1  0.33125135  0.58603454  -0.00154546  1
  O2-  O209  1  0.33166686  0.58478067  0.24995251  1
  O2-  O210  1  0.33903373  0.58594742  0.49804437  1
  O2-  O211  1  0.33654563  0.58663655  0.75224374  1
  O2-  O212  1  0.33885173  0.91775069  -0.00055151  1
  O2-  O213  1  0.33417613  0.92368288  0.24727273  1
  O2-  O214  1  0.33413788  0.92041791  0.49770258  1
  O2-  O215  1  0.33246944  0.92180218  0.74810764  1
  O2-  O216  1  0.83342231  0.25862486  0.00073694  1
  O2-  O217  1  0.83083183  0.25321656  0.24763204  1
  O2-  O218  1  0.83142105  0.25009327  0.50170331  1
  O2-  O219  1  0.83357063  0.25189867  0.75523054  1
  O2-  O220  1  0.83866607  0.58888081  -0.00129018  1
  O2-  O221  1  0.83406827  0.58683912  0.25062113  1
  O2-  O222  1  0.83577901  0.58366067  0.49631220  1
  O2-  O223  1  0.83476712  0.58479076  0.74971634  1
  O2-  O224  1  0.83613355  0.92204323  -0.00300318  1
  O2-  O225  1  0.83818141  0.92155631  0.24719862  1
  O2-  O226  1  0.83668887  0.92000262  0.50077926  1
  O2-  O227  1  0.83328593  0.92019313  0.75162411  1
  O2-  O228  1  0.16575772  0.25227365  -0.00246286  1
  O2-  O229  1  0.16820431  0.25462413  0.25399444  1
  O2-  O230  1  0.16795863  0.24939365  0.49635417  1
  O2-  O231  1  0.16671387  0.25176814  0.75039659  1
  O2-  O232  1  0.17026938  0.58027712  -0.00340278  1
  O2-  O233  1  0.16433290  0.58381467  0.25167663  1
  O2-  O234  1  0.16018104  0.58339824  0.50030740  1
  O2-  O235  1  0.16319349  0.58682829  0.74988428  1
  O2-  O236  1  0.16276127  0.91915906  -0.00019837  1
  O2-  O237  1  0.16319370  0.92137073  0.24666977  1
  O2-  O238  1  0.16966140  0.91687024  0.49850074  1
  O2-  O239  1  0.17127848  0.91998786  0.75197837  1
  O2-  O240  1  0.66340896  0.25384241  -0.00615029  1
  O2-  O241  1  0.66743931  0.25243806  0.25099312  1
  O2-  O242  1  0.66653622  0.25105221  0.49841645  1
  O2-  O243  1  0.66548967  0.25373542  0.75131110  1
  O2-  O244  1  0.66236330  0.58795291  0.00329901  1
  O2-  O245  1  0.66604250  0.58665005  0.25052313  1
  O2-  O246  1  0.66568581  0.58626628  0.49855145  1
  O2-  O247  1  0.66459100  0.58412424  0.75070139  1
  O2-  O248  1  0.66379563  0.92093476  0.00153296  1
  O2-  O249  1  0.66489268  0.92092560  0.24874878  1
  O2-  O250  1  0.66712251  0.92018785  0.49813806  1
  O2-  O251  1  0.66696572  0.92183833  0.75153452  1
  O2-  O252  1  0.33316390  0.08309550  -0.00023297  1
  O2-  O253  1  0.33456432  0.08202459  0.24951660  1
  O2-  O254  1  0.33024434  0.07870678  0.50019235  1
  O2-  O255  1  0.34188017  0.07416569  0.74928929  1
  O2-  O256  1  0.33295551  0.41580105  -0.00325749  1
  O2-  O257  1  0.33230792  0.41203386  0.25327636  1
  O2-  O258  1  0.33773537  0.41384031  0.49674256  1
  O2-  O259  1  0.33754728  0.41406455  0.75066395  1
  O2-  O260  1  0.33451137  0.74706627  -0.00086435  1
  O2-  O261  1  0.33995624  0.74342383  0.25197391  1
  O2-  O262  1  0.33917087  0.74822549  0.49896025  1
  O2-  O263  1  0.33621863  0.74535125  0.74937705  1
  O2-  O264  1  0.83331619  0.07849767  -0.00098870  1
  O2-  O265  1  0.83647721  0.07927323  0.24716693  1
  O2-  O266  1  0.83396223  0.08367298  0.50273593  1
  O2-  O267  1  0.83740516  0.07535030  0.75014415  1
  O2-  O268  1  0.83018840  0.41422697  0.00216234  1
  O2-  O269  1  0.83672087  0.41172837  0.24654957  1
  O2-  O270  1  0.82934398  0.42206891  0.50213584  1
  O2-  O271  1  0.83592770  0.41824308  0.75163945  1
  O2-  O272  1  0.83234315  0.74506143  -0.00020721  1
  O2-  O273  1  0.83124587  0.74536068  0.25086539  1
  O2-  O274  1  0.83717838  0.74660287  0.49818409  1
  O2-  O275  1  0.83275395  0.74217681  0.75009155  1
  O2-  O276  1  0.54960586  0.09203363  0.99032000  1
  O2-  O277  1  0.04914203  0.23518218  0.00182672  1
  O2-  O278  1  0.54639428  0.23710275  0.95279671  1
  O2-  O279  1  0.03078807  0.86608596  0.74429668  1
  O2-  O280  1  0.45019298  0.09851472  0.74054421  1
  O2-  O281  1  0.96674221  0.43913725  0.48181110  1
  O2-  O282  1  0.03367851  0.10585027  0.46343070  1
  O2-  O283  1  0.53739643  0.21321520  0.46389303  1
  O2-  O284  1  0.94975422  0.76180996  0.00587729  1
  O2-  O285  1  0.96016210  0.43974887  0.48827822  1
  O2-  O286  1  0.54810909  0.57706681  0.49013730  1
  O2-  O287  1  0.44394219  0.09315172  0.25457369  1
  O2-  O288  1  0.95540777  0.23618642  0.21461024  1
  O2-  O289  1  0.45099986  0.23448235  0.98430201  1
  O2-  O290  1  0.45782317  0.89686625  0.98915593  1
  O2-  O291  1  0.54683743  0.09739375  0.25140152  1
  O2-  O292  1  0.04564793  0.76399591  0.49391185  1
  O2-  O293  1  0.55035487  0.43303066  0.48363709  1
  O2-  O294  1  0.45729952  0.76392227  0.73626878  1
  O2-  O295  1  0.45460946  0.57037179  0.73650904  1
  O2-  O296  1  0.95006458  0.58949884  0.48266155  1
  O2-  O297  1  0.05044261  0.23368401  0.25807774  1
  O2-  O298  1  0.45306508  0.76164433  0.25983283  1
  O2-  O299  1  0.05542802  0.24458189  0.48156023  1
  O2-  O300  1  0.94914419  0.43534362  0.25743839  1
  O2-  O301  1  0.54944788  0.76262619  0.23725884  1
  O2-  O302  1  0.95306895  0.09429537  0.00755302  1
  O2-  O303  1  0.04738284  0.76304094  0.50004398  1
  O2-  O304  1  0.54959258  0.57346431  0.98171950  1
  O2-  O305  1  0.54685970  0.57554753  0.02091477  1
  O2-  O306  1  0.44677603  0.43078222  0.00735035  1
  O2-  O307  1  0.44513289  0.57695428  0.26421587  1
  O2-  O308  1  0.94192461  0.90617341  0.76459596  1
  O2-  O309  1  0.04322411  0.45620059  0.28523638  1
  O2-  O310  1  0.94548254  0.76217984  0.73583578  1
  O2-  O311  1  0.04155925  0.24098297  0.50068765  1
  O2-  O312  1  0.54818257  0.42697336  0.98811404  1
  O2-  O313  1  0.01089250  0.53163575  0.98216850  1
  O2-  O314  1  0.95526752  0.23315497  0.75826776  1
  O2-  O315  1  0.95341200  0.43145206  0.73517561  1
  O2-  O316  1  0.54412616  0.12418802  0.71880551  1
  O2-  O317  1  0.95033563  0.57690914  0.51933873  1
  O2-  O318  1  0.45726136  0.76605337  0.51307026  1
  O2-  O319  1  0.04859600  0.90159404  0.00746867  1
  O2-  O320  1  0.55398915  0.56601452  0.26836203  1
  O2-  O321  1  0.46271736  0.42763848  0.29053957  1
  O2-  O322  1  0.04832547  0.76345663  0.98907343  1
  O2-  O323  1  0.45401659  0.56537751  0.24294676  1
  O2-  O324  1  0.56122819  0.40338354  0.71997056  1
  O2-  O325  1  0.06486530  0.40957187  0.53601488  1
  O2-  O326  1  0.56142866  0.92807933  0.21319841  1
  O2-  O327  1  0.93590879  0.24383987  0.57961201  1
  O2-  O328  1  0.56640659  0.04408124  0.81146770  1
  O2-  O329  1  0.57039276  0.27811109  0.07243287  1
  O2-  O330  1  0.06461775  0.92654951  0.47659264  1
  O2-  O331  1  0.43948884  0.74367780  0.03678758  1
  O2-  O332  1  0.08295674  0.95656924  0.72434623  1
  O2-  O333  1  0.91958457  0.37973241  0.56857410  1
  O2-  O334  1  0.93678116  0.25489990  0.97528710  1
  O2-  O335  1  0.93273069  0.25489309  0.44755121  1
  O2-  O336  1  0.07838907  0.60737662  0.93677707  1
  O2-  O337  1  0.43624214  0.92285208  0.77660500  1
  O2-  O338  1  0.94074298  0.07776798  0.03679255  1
  O2-  O339  1  0.06629721  0.40945942  0.02664159  1
  O2-  O340  1  0.06042985  0.73745131  0.28789563  1
  O2-  O341  1  0.43806102  0.06990722  0.03953453  1
  O2-  O342  1  0.06057018  0.26432272  0.71632476  1
  O2-  O343  1  0.93437337  0.41586576  0.02283700  1
  O2-  O344  1  0.56790219  0.28067588  0.57153657  1
  O2-  O345  1  0.56585292  0.06661261  0.04144388  1
  O2-  O346  1  0.56430282  0.25264411  0.27162450  1
  O2-  O347  1  0.43581769  0.07547566  0.51580063  1
  O2-  O348  1  0.93676665  0.23735472  0.18838729  1
  O2-  O349  1  0.91454116  0.25688638  0.32958148  1
  O2-  O350  1  0.43313597  0.74524052  0.27629173  1
  O2-  O351  1  0.93689317  0.72973407  0.72490008  1
  O2-  O352  1  0.08130117  0.39429208  0.19437097  1
  O2-  O353  1  0.08403843  0.07302172  0.55794849  1
  O2-  O354  1  0.93482434  0.07741351  0.47887887  1
  O2-  O355  1  0.07808082  0.58203947  0.08201647  1
  O2-  O356  1  0.43727778  0.25800420  0.27692958  1
  O2-  O357  1  0.06664483  0.26550962  0.53912056  1
  O2-  O358  1  0.43682786  0.59464216  0.96456402  1
  O2-  O359  1  0.93595382  0.74249738  0.22990537  1
  O2-  O360  1  0.94064888  0.07778643  0.72773906  1
  O2-  O361  1  0.43092338  0.60348248  0.21519983  1
  O2-  O362  1  0.43969858  0.07026487  0.28441913  1
  O2-  O363  1  0.43643339  0.40083229  0.02168936  1
  O2-  O364  1  0.56320119  0.91940728  0.51994282  1
  O2-  O365  1  0.93732342  0.93354390  0.78912935  1
  O2-  O366  1  0.56397519  0.40554528  0.47002461  1
  O2-  O367  1  0.43947429  0.42548143  0.30542291  1
  O2-  O368  1  0.56306413  0.40394370  0.21379940  1
  O2-  O369  1  0.56388039  0.59717718  0.28070852  1
  O2-  O370  1  0.56209800  0.07621418  0.97940144  1
  O2-  O371  1  0.41932035  0.41410558  0.16268467  1
  O2-  O372  1  0.25018172  0.00607542  0.11655497  1
  O2-  O373  1  0.24963254  0.65976695  0.65359822  1
  O2-  O374  1  0.74909566  0.34521844  0.64474467  1
  O2-  O375  1  0.25118537  0.67472672  0.56490710  1
  O2-  O376  1  0.75120574  0.33636368  0.15296715  1
  O2-  O377  1  0.25077517  0.33513233  0.60647207  1
  O2-  O378  1  0.74877892  0.33259960  0.42468999  1
  O2-  O379  1  0.25120696  0.65356792  0.15307915  1
  O2-  O380  1  0.25152268  0.33907856  0.85412491  1
  O2-  O381  1  0.75018056  -0.00578623  0.32836956  1
  O2-  O382  1  0.24973768  -0.00795006  0.92508965  1
  O2-  O383  1  0.24850819  0.66197740  0.37749431  1
  O2-  O384  1  0.75005940  0.66469967  0.89653829  1
  O2-  O385  1  0.75068002  -0.00696239  0.85394831  1
  O2-  O386  1  0.24980896  0.00868787  0.83227808  1
  O2-  O387  1  0.74972238  0.33758833  0.33103432  1
  O2-  O388  1  0.75069503  -0.00362551  0.60356043  1
  O2-  O389  1  0.24976898  0.33941408  0.09644875  1
  O2-  O390  1  0.75024747  -0.01037402  0.09819386  1
  O2-  O391  1  0.74918050  0.34358311  0.83014743  1
  O2-  O392  1  0.74960180  0.31973329  0.91868546  1
  O2-  O393  1  0.25062083  0.00700522  0.34610842  1
  O2-  O394  1  0.75011937  0.66273143  0.61505964  1
  O2-  O395  1  0.74993633  0.00533105  0.41970076  1
  O2-  O396  1  0.24993038  0.49997536  0.18592013  1
  O2-  O397  1  0.24996640  0.49703091  0.33919762  1
  O2-  O398  1  0.74966921  0.82610475  0.34338022  1
  O2-  O399  1  0.75002573  0.50776516  0.84376699  1
  O2-  O400  1  0.75014293  0.17114876  0.41523224  1
  O2-  O401  1  0.25067705  0.16239529  0.41106085  1
  O2-  O402  1  0.24939954  0.80033027  0.35892524  1
  O2-  O403  1  0.75028310  0.15693905  0.90192044  1
  O2-  O404  1  0.24957801  0.81059249  0.93418873  1
  O2-  O405  1  0.75035838  0.82334315  0.43035652  1
  O2-  O406  1  0.74988382  0.18357641  0.63924475  1
  O2-  O407  1  0.25117999  0.49519988  0.60143760  1
  O2-  O408  1  0.75017145  0.16187865  0.33241583  1
  O2-  O409  1  0.25064226  0.83804474  0.69262135  1
  O2-  O410  1  0.25050773  0.16742679  0.61171149  1
  O2-  O411  1  0.24955799  0.16880387  0.16130533  1
  O2-  O412  1  0.74999679  0.16248085  0.16877796  1
  O2-  O413  1  0.74986552  0.82783988  0.57023647  1
  O2-  O414  1  0.75004150  0.83816506  0.65885306  1
  O2-  O415  1  0.25012442  0.87608366  0.31921469  1
  O2-  O416  1  0.25033602  0.50581185  0.05720216  1
  O2-  O417  1  0.24917289  0.84062027  0.60810689  1
  O2-  O418  1  0.25006523  0.18327742  0.86780423  1
  O2-  O419  1  0.24971022  0.86198231  0.12217554  1
  O2-  O420  1  0.03805207  0.33538735  0.37208883  1
  O2-  O421  1  0.52587488  -0.00489392  0.38161446  1
  O2-  O422  1  0.47096094  0.00977794  0.87494339  1
  O2-  O423  1  0.03001414  0.66099592  0.63188937  1
  O2-  O424  1  0.53402239  0.34350563  0.35956444  1
  O2-  O425  1  0.48015546  0.31192331  0.12528495  1
  O2-  O426  1  0.47134601  0.66370463  0.38603790  1
  O2-  O427  1  0.45741895  0.32425044  0.41171989  1
  O2-  O428  1  0.95678221  -0.00979760  0.36727394  1
  O2-  O429  1  0.96514084  -0.00643042  0.61017253  1
  O2-  O430  1  0.97789442  0.34782276  0.36917961  1
  O2-  O431  1  0.04329776  0.69201006  0.14283645  1
  O2-  O432  1  0.45612651  -0.01910576  0.62954464  1
  O2-  O433  1  0.54429599  0.00778424  0.63129542  1
  O2-  O434  1  0.02644175  0.00301892  0.12924713  1
  O2-  O435  1  0.04372075  0.00500036  0.35901955  1
  O2-  O436  1  0.01565045  0.67941271  0.86128039  1
  O2-  O437  1  0.95549892  0.64520139  0.11059045  1
  O2-  O438  1  0.02600739  0.31086088  0.12249785  1
  O2-  O439  1  0.02723268  0.00526904  0.87227477  1
  O2-  O440  1  0.04731087  0.32696421  0.87329046  1
  O2-  O441  1  0.97166453  0.34702341  0.12024225  1
  O2-  O442  1  0.02196435  0.00069925  0.61993593  1
  O2-  O443  1  0.95707540  0.34359850  0.86939714  1
