# generated using pymatgen
data_La7(Ru4O11)2
_symmetry_space_group_name_H-M   'P 1'
_cell_length_a   23.99188381
_cell_length_b   16.83183813
_cell_length_c   15.42798496
_cell_angle_alpha   89.99832526
_cell_angle_beta   90.00025833
_cell_angle_gamma   89.99992337
_symmetry_Int_Tables_number   1
_chemical_formula_structural   La7(Ru4O11)2
_chemical_formula_sum   'La84 Ru96 O264'
_cell_volume   6230.24466818
_cell_formula_units_Z   12
loop_
 _symmetry_equiv_pos_site_id
 _symmetry_equiv_pos_as_xyz
  1  'x, y, z'
loop_
 _atom_type_symbol
 _atom_type_oxidation_number
  La3+  3.0
  Ru4+  4.0
  O2-  -2.0
loop_
 _atom_site_type_symbol
 _atom_site_label
 _atom_site_symmetry_multiplicity
 _atom_site_fract_x
 _atom_site_fract_y
 _atom_site_fract_z
 _atom_site_occupancy
  La3+  La0  1  0.13616668  0.00257866  0.12781206  1
  La3+  La1  1  0.13621939  0.00624824  0.37620171  1
  La3+  La2  1  0.14420869  0.00281842  0.62176376  1
  La3+  La3  1  0.14136221  0.00209742  0.87209899  1
  La3+  La4  1  0.14332081  0.33123654  0.12039321  1
  La3+  La5  1  0.13725403  0.32865693  0.37804839  1
  La3+  La6  1  0.13500663  0.32984346  0.62268875  1
  La3+  La7  1  0.14207923  0.33161557  0.87865344  1
  La3+  La8  1  0.13295133  0.66831342  0.12222077  1
  La3+  La9  1  0.13565202  0.66960625  0.37557647  1
  La3+  La10  1  0.13198534  0.67864488  0.63588988  1
  La3+  La11  1  0.13021058  0.67553674  0.86716845  1
  La3+  La12  1  0.64638452  0.00718953  0.12351452  1
  La3+  La13  1  0.63976967  0.00270682  0.37371730  1
  La3+  La14  1  0.63272942  -0.00039369  0.62825718  1
  La3+  La15  1  0.64301597  0.00417207  0.87455982  1
  La3+  La16  1  0.64249928  0.33332279  0.12437348  1
  La3+  La17  1  0.64070738  0.33859811  0.37500113  1
  La3+  La18  1  0.63655986  0.33414275  0.62608918  1
  La3+  La19  1  0.64115284  0.33346067  0.87598997  1
  La3+  La20  1  0.64241042  0.66242732  0.12040675  1
  La3+  La21  1  0.63347802  0.66359762  0.37671128  1
  La3+  La22  1  0.64528526  0.65969976  0.62737318  1
  La3+  La23  1  0.63495539  0.66370504  0.87808388  1
  La3+  La24  1  0.35572889  -0.00218943  0.12531896  1
  La3+  La25  1  0.36386928  0.00407401  0.37983776  1
  La3+  La26  1  0.35948672  0.00069143  0.62030447  1
  La3+  La27  1  0.36194743  0.00404669  0.87084071  1
  La3+  La28  1  0.35681805  0.33207671  0.12192955  1
  La3+  La29  1  0.36143907  0.33719184  0.37260147  1
  La3+  La30  1  0.36167536  0.33195771  0.62418982  1
  La3+  La31  1  0.35828808  0.33191291  0.88005284  1
  La3+  La32  1  0.36328432  0.66617764  0.12349761  1
  La3+  La33  1  0.36145132  0.66506702  0.37750016  1
  La3+  La34  1  0.35884578  0.66601029  0.62412212  1
  La3+  La35  1  0.36294851  0.66572901  0.87407300  1
  La3+  La36  1  0.85731606  -0.00075701  0.12178674  1
  La3+  La37  1  0.86114112  -0.00015558  0.37347321  1
  La3+  La38  1  0.86503182  0.00133286  0.62510213  1
  La3+  La39  1  0.85946159  -0.00000829  0.87907245  1
  La3+  La40  1  0.85796273  0.33176265  0.12910825  1
  La3+  La41  1  0.85975828  0.33550803  0.37117317  1
  La3+  La42  1  0.85918982  0.33575081  0.62448854  1
  La3+  La43  1  0.85516161  0.33091537  0.87750569  1
  La3+  La44  1  0.85885723  0.66571548  0.12122921  1
  La3+  La45  1  0.86764896  0.66587509  0.37589526  1
  La3+  La46  1  0.85715226  0.66764831  0.62572971  1
  La3+  La47  1  0.86335846  0.66976228  0.87949384  1
  La3+  La48  1  0.00363536  0.83525826  0.11390865  1
  La3+  La49  1  0.00302663  0.50020834  0.13086408  1
  La3+  La50  1  0.00227053  0.83276889  0.86823312  1
  La3+  La51  1  0.50747412  0.17560107  0.86585811  1
  La3+  La52  1  0.49549173  0.16147184  0.11613206  1
  La3+  La53  1  0.49363848  0.84460324  0.39250276  1
  La3+  La54  1  -0.00234525  0.82511182  0.63135051  1
  La3+  La55  1  0.50199834  0.50075094  0.13710658  1
  La3+  La56  1  0.00707091  0.83728989  0.62121290  1
  La3+  La57  1  0.00264408  0.49328787  0.36198496  1
  La3+  La58  1  0.49878238  0.50170141  0.63411610  1
  La3+  La59  1  0.50073723  0.16979145  0.13536852  1
  La3+  La60  1  0.50678950  0.17417646  0.38297137  1
  La3+  La61  1  0.49529629  0.83289856  0.63677165  1
  La3+  La62  1  -0.00297410  0.83435904  0.13411206  1
  La3+  La63  1  0.49226525  0.84805214  0.37629575  1
  La3+  La64  1  0.00091785  0.16669955  0.62801230  1
  La3+  La65  1  -0.00140155  0.49969407  0.61772074  1
  La3+  La66  1  0.50189061  0.83330895  0.61678037  1
  La3+  La67  1  0.00053978  0.49941488  0.88469008  1
  La3+  La68  1  0.49436848  0.82889357  0.87638769  1
  La3+  La69  1  -0.00150719  0.16643485  0.87314327  1
  La3+  La70  1  0.50043630  0.83417348  0.13524735  1
  La3+  La71  1  0.49765122  0.49699136  0.11666267  1
  La3+  La72  1  0.25113172  0.84756360  0.25450229  1
  La3+  La73  1  0.24943926  0.83338396  0.48840295  1
  La3+  La74  1  0.74995654  0.88248844  0.49156508  1
  La3+  La75  1  0.24932811  0.54319994  0.80730015  1
  La3+  La76  1  0.24911851  0.55971155  0.48102082  1
  La3+  La77  1  0.24929662  0.80059008  -0.03007008  1
  La3+  La78  1  0.75000517  0.15121710  0.45272246  1
  La3+  La79  1  0.75158564  0.44842320  -0.01255739  1
  La3+  La80  1  0.75015577  0.87542767  0.73450441  1
  La3+  La81  1  0.75066995  0.20415919  0.73691929  1
  La3+  La82  1  0.74901639  0.85117521  0.25164385  1
  La3+  La83  1  0.24962309  0.44848655  0.22642389  1
  Ru4+  Ru84  1  0.00094036  0.00572051  -0.00557058  1
  Ru4+  Ru85  1  -0.00609368  0.01934576  0.24436809  1
  Ru4+  Ru86  1  -0.00064867  0.00237667  0.50251222  1
  Ru4+  Ru87  1  0.00229904  -0.00036324  0.75725846  1
  Ru4+  Ru88  1  0.00284819  0.33236433  0.00290926  1
  Ru4+  Ru89  1  -0.00710124  0.33232085  0.24643164  1
  Ru4+  Ru90  1  -0.00026517  0.33336314  0.49391797  1
  Ru4+  Ru91  1  0.00328737  0.33404145  0.75404108  1
  Ru4+  Ru92  1  0.00428097  0.66181500  0.00271680  1
  Ru4+  Ru93  1  -0.00512642  0.66226301  0.25128618  1
  Ru4+  Ru94  1  0.00019253  0.65791981  0.49919283  1
  Ru4+  Ru95  1  0.00366303  0.66952731  0.75469729  1
  Ru4+  Ru96  1  0.49231991  -0.00179056  -0.00572383  1
  Ru4+  Ru97  1  0.50175609  0.00059214  0.26079259  1
  Ru4+  Ru98  1  0.50226974  0.01191213  0.48838865  1
  Ru4+  Ru99  1  0.50147052  0.00524008  0.75337180  1
  Ru4+  Ru100  1  0.50065096  0.33647536  -0.00810657  1
  Ru4+  Ru101  1  0.50536148  0.32847243  0.25779892  1
  Ru4+  Ru102  1  0.50236863  0.33510940  0.50232309  1
  Ru4+  Ru103  1  0.50373030  0.33203113  0.75391415  1
  Ru4+  Ru104  1  0.49553756  0.67212217  -0.00810086  1
  Ru4+  Ru105  1  0.49636536  0.67677455  0.25256741  1
  Ru4+  Ru106  1  0.50273038  0.66268606  0.49193092  1
  Ru4+  Ru107  1  0.49881839  0.66309618  0.75176746  1
  Ru4+  Ru108  1  0.11187059  0.16847400  -0.00009931  1
  Ru4+  Ru109  1  0.11369601  0.16073332  0.25122000  1
  Ru4+  Ru110  1  0.11572772  0.15786831  0.50081488  1
  Ru4+  Ru111  1  0.11412929  0.16617655  0.75160617  1
  Ru4+  Ru112  1  0.11417150  0.49959036  0.00037034  1
  Ru4+  Ru113  1  0.11017665  0.49585504  0.24933861  1
  Ru4+  Ru114  1  0.10873787  0.49489427  0.49917519  1
  Ru4+  Ru115  1  0.10865036  0.50520894  0.74868834  1
  Ru4+  Ru116  1  0.10884024  0.83256310  -0.00830230  1
  Ru4+  Ru117  1  0.11482539  0.84031017  0.25404100  1
  Ru4+  Ru118  1  0.11324536  0.83442158  0.50217775  1
  Ru4+  Ru119  1  0.11128817  0.83463967  0.75367108  1
  Ru4+  Ru120  1  0.61727615  0.16576313  -0.00097303  1
  Ru4+  Ru121  1  0.61520150  0.16700438  0.25167601  1
  Ru4+  Ru122  1  0.60891432  0.16817760  0.50121119  1
  Ru4+  Ru123  1  0.61010383  0.16840028  0.74907399  1
  Ru4+  Ru124  1  0.61362450  0.49282871  -0.00493080  1
  Ru4+  Ru125  1  0.61725276  0.49974014  0.25232420  1
  Ru4+  Ru126  1  0.61247682  0.49876385  0.50002312  1
  Ru4+  Ru127  1  0.61290560  0.49961949  0.74929533  1
  Ru4+  Ru128  1  0.61349903  0.84191061  0.00089682  1
  Ru4+  Ru129  1  0.61028399  0.83114198  0.24549617  1
  Ru4+  Ru130  1  0.61422511  0.83241336  0.50284683  1
  Ru4+  Ru131  1  0.61538932  0.82744265  0.75435404  1
  Ru4+  Ru132  1  0.38507742  0.16712075  0.00144206  1
  Ru4+  Ru133  1  0.38379037  0.16366053  0.25021576  1
  Ru4+  Ru134  1  0.38721563  0.16401915  0.49808967  1
  Ru4+  Ru135  1  0.38503084  0.17038683  0.75088518  1
  Ru4+  Ru136  1  0.38628349  0.49806912  -0.00386362  1
  Ru4+  Ru137  1  0.38630898  0.50466792  0.24870726  1
  Ru4+  Ru138  1  0.39174870  0.49809255  0.49972597  1
  Ru4+  Ru139  1  0.39103993  0.50216257  0.75230599  1
  Ru4+  Ru140  1  0.39004686  0.83282306  -0.00098805  1
  Ru4+  Ru141  1  0.38986110  0.82566786  0.24874715  1
  Ru4+  Ru142  1  0.38154950  0.83120802  0.49856986  1
  Ru4+  Ru143  1  0.38556255  0.83398517  0.75209438  1
  Ru4+  Ru144  1  0.88440781  0.16772132  0.00039162  1
  Ru4+  Ru145  1  0.89452891  0.15663072  0.24753981  1
  Ru4+  Ru146  1  0.89237590  0.16753615  0.50089297  1
  Ru4+  Ru147  1  0.89144630  0.16702264  0.75020875  1
  Ru4+  Ru148  1  0.89114920  0.50018927  -0.00148735  1
  Ru4+  Ru149  1  0.88532222  0.49487434  0.24824446  1
  Ru4+  Ru150  1  0.88714589  0.50073391  0.50298679  1
  Ru4+  Ru151  1  0.88684733  0.50277264  0.75117512  1
  Ru4+  Ru152  1  0.88233078  0.83718423  -0.00203585  1
  Ru4+  Ru153  1  0.89007849  0.83053239  0.25268201  1
  Ru4+  Ru154  1  0.88725084  0.84024815  0.49376121  1
  Ru4+  Ru155  1  0.88951776  0.82925086  0.75297735  1
  Ru4+  Ru156  1  0.75014666  0.42672130  0.76339923  1
  Ru4+  Ru157  1  0.75046558  0.24274603  0.23639373  1
  Ru4+  Ru158  1  0.24947676  0.94746013  -0.00037873  1
  Ru4+  Ru159  1  0.74972031  0.03502341  0.52986686  1
  Ru4+  Ru160  1  0.74996706  0.98809356  0.24987884  1
  Ru4+  Ru161  1  0.24925678  0.71636387  0.22639726  1
  Ru4+  Ru162  1  0.75014289  0.73191068  0.77455658  1
  Ru4+  Ru163  1  0.25075669  0.76471447  0.74044456  1
  Ru4+  Ru164  1  0.24997000  0.39101828  0.76156709  1
  Ru4+  Ru165  1  0.25024366  0.24852332  0.75850682  1
  Ru4+  Ru166  1  0.24864442  0.58680709  0.25106432  1
  Ru4+  Ru167  1  0.75008023  0.27799361  0.50792879  1
  Ru4+  Ru168  1  0.24980215  0.09349581  -0.00384701  1
  Ru4+  Ru169  1  0.25026253  0.24740677  0.49883275  1
  Ru4+  Ru170  1  0.25012017  0.39527261  0.50532493  1
  Ru4+  Ru171  1  0.75036676  0.59967495  -0.01646558  1
  Ru4+  Ru172  1  0.75045762  0.06343408  0.76479687  1
  Ru4+  Ru173  1  0.25032257  0.98660554  0.26461538  1
  Ru4+  Ru174  1  0.25038346  0.90934411  0.74710738  1
  Ru4+  Ru175  1  0.75040531  0.73207369  0.48270683  1
  Ru4+  Ru176  1  0.25015570  0.58090407  0.00104865  1
  Ru4+  Ru177  1  0.24940822  0.24460335  0.23656162  1
  Ru4+  Ru178  1  0.75016372  0.56629144  0.48272599  1
  Ru4+  Ru179  1  0.75029004  0.70963396  0.26016351  1
  O2-  O180  1  0.16739335  0.08043475  0.00188630  1
  O2-  O181  1  0.16825889  0.08080496  0.25018766  1
  O2-  O182  1  0.16921550  0.08295298  0.49689604  1
  O2-  O183  1  0.16429050  0.08228347  0.74886334  1
  O2-  O184  1  0.16395094  0.41594517  -0.00049334  1
  O2-  O185  1  0.16158323  0.40970152  0.25137147  1
  O2-  O186  1  0.16792683  0.41219395  0.49982650  1
  O2-  O187  1  0.16336581  0.41301204  0.75173740  1
  O2-  O188  1  0.16419444  0.74390407  0.00336719  1
  O2-  O189  1  0.16457559  0.74526633  0.25073531  1
  O2-  O190  1  0.16719956  0.74628424  0.49552471  1
  O2-  O191  1  0.17048854  0.74882367  0.75173992  1
  O2-  O192  1  0.66792993  0.08168408  0.00051896  1
  O2-  O193  1  0.66774200  0.07868052  0.25223383  1
  O2-  O194  1  0.66381319  0.07831122  0.50153753  1
  O2-  O195  1  0.66871120  0.08113864  0.74532804  1
  O2-  O196  1  0.66410972  0.40878300  0.00438958  1
  O2-  O197  1  0.66222443  0.41379479  0.24974990  1
  O2-  O198  1  0.66227748  0.41624766  0.49985560  1
  O2-  O199  1  0.66967186  0.41489118  0.75134335  1
  O2-  O200  1  0.66147935  0.74898686  -0.00277076  1
  O2-  O201  1  0.66771514  0.74383835  0.25168648  1
  O2-  O202  1  0.66816873  0.74567897  0.49554186  1
  O2-  O203  1  0.66717104  0.74551638  0.75307588  1
  O2-  O204  1  0.33399803  0.24949171  -0.00090641  1
  O2-  O205  1  0.33224137  0.25293839  0.25081801  1
  O2-  O206  1  0.33186988  0.25238015  0.50411557  1
  O2-  O207  1  0.33254159  0.25056276  0.75013957  1
  O2-  O208  1  0.33081642  0.58635203  0.00017608  1
  O2-  O209  1  0.33165650  0.58491064  0.24961940  1
  O2-  O210  1  0.33863545  0.58794062  0.50087837  1
  O2-  O211  1  0.33215792  0.58824687  0.75055772  1
  O2-  O212  1  0.32903896  0.92022688  -0.00499765  1
  O2-  O213  1  0.33493466  0.91931144  0.25374776  1
  O2-  O214  1  0.33119165  0.91872914  0.49737323  1
  O2-  O215  1  0.33338187  0.91938651  0.75044592  1
  O2-  O216  1  0.83667334  0.25010289  -0.00031913  1
  O2-  O217  1  0.83554484  0.24752626  0.25112951  1
  O2-  O218  1  0.83453884  0.25430369  0.50094850  1
  O2-  O219  1  0.83996386  0.25714231  0.74952692  1
  O2-  O220  1  0.83342249  0.58661928  -0.00463599  1
  O2-  O221  1  0.83770793  0.58479393  0.25128889  1
  O2-  O222  1  0.83235972  0.58534541  0.49600374  1
  O2-  O223  1  0.83728689  0.58491145  0.75285117  1
  O2-  O224  1  0.83158353  0.91798925  -0.00390562  1
  O2-  O225  1  0.83218111  0.92251234  0.25140143  1
  O2-  O226  1  0.83735822  0.92377514  0.50695831  1
  O2-  O227  1  0.83850503  0.92494156  0.74852343  1
  O2-  O228  1  0.16248038  0.25021373  0.00001865  1
  O2-  O229  1  0.16461953  0.25227812  0.24877269  1
  O2-  O230  1  0.16653676  0.25188269  0.50107756  1
  O2-  O231  1  0.16955018  0.25098675  0.75078170  1
  O2-  O232  1  0.16999236  0.58477246  0.00069130  1
  O2-  O233  1  0.16554406  0.58729612  0.24913924  1
  O2-  O234  1  0.15772653  0.58925218  0.50053326  1
  O2-  O235  1  0.16739954  0.58973732  0.75029525  1
  O2-  O236  1  0.16760327  0.92249650  0.00054993  1
  O2-  O237  1  0.16933579  0.92362728  0.25196340  1
  O2-  O238  1  0.16630286  0.91948317  0.49596349  1
  O2-  O239  1  0.16535861  0.91702005  0.74929512  1
  O2-  O240  1  0.66534216  0.25155804  0.00206554  1
  O2-  O241  1  0.66565613  0.25306916  0.25001885  1
  O2-  O242  1  0.66783021  0.25598902  0.49902608  1
  O2-  O243  1  0.66362546  0.25544382  0.75051175  1
  O2-  O244  1  0.66711528  0.58495909  -0.00385332  1
  O2-  O245  1  0.66281649  0.58619893  0.25033118  1
  O2-  O246  1  0.66858240  0.58474338  0.49764552  1
  O2-  O247  1  0.66180455  0.58375088  0.75406252  1
  O2-  O248  1  0.67152099  0.91434007  -0.00167418  1
  O2-  O249  1  0.66469724  0.92209628  0.25085148  1
  O2-  O250  1  0.66170747  0.92379077  0.50267206  1
  O2-  O251  1  0.66215592  0.92348907  0.74766870  1
  O2-  O252  1  0.32969428  0.08081781  -0.00293080  1
  O2-  O253  1  0.32935804  0.08106694  0.25659056  1
  O2-  O254  1  0.33275626  0.08452832  0.50155448  1
  O2-  O255  1  0.33493394  0.08355234  0.74913693  1
  O2-  O256  1  0.33560405  0.41638119  -0.00028138  1
  O2-  O257  1  0.33773575  0.41151808  0.25204621  1
  O2-  O258  1  0.33288742  0.41234768  0.50192307  1
  O2-  O259  1  0.33607608  0.41239510  0.75010801  1
  O2-  O260  1  0.33719530  0.74546636  0.00036645  1
  O2-  O261  1  0.33215300  0.74414579  0.24857605  1
  O2-  O262  1  0.33109323  0.74550247  0.49614820  1
  O2-  O263  1  0.33037209  0.74697700  0.75297119  1
  O2-  O264  1  0.83049425  0.08241724  0.00021724  1
  O2-  O265  1  0.83225580  0.08309518  0.25069818  1
  O2-  O266  1  0.83508734  0.07866462  0.50259160  1
  O2-  O267  1  0.83289189  0.07832382  0.74775741  1
  O2-  O268  1  0.84238975  0.41025585  0.00155589  1
  O2-  O269  1  0.83326820  0.41564687  0.24938723  1
  O2-  O270  1  0.83763770  0.41655639  0.50071573  1
  O2-  O271  1  0.83369675  0.41418415  0.75132807  1
  O2-  O272  1  0.83510537  0.74742370  -0.00444702  1
  O2-  O273  1  0.83277375  0.74370291  0.25329944  1
  O2-  O274  1  0.83438701  0.74718350  0.49775757  1
  O2-  O275  1  0.83410862  0.74711522  0.75435904  1
  O2-  O276  1  0.04543194  0.76874799  0.74920329  1
  O2-  O277  1  0.95020607  0.76375350  0.01789295  1
  O2-  O278  1  0.53911413  0.78498438  0.27918111  1
  O2-  O279  1  0.95249490  0.09345706  0.52056182  1
  O2-  O280  1  0.54793274  0.23604885  0.01131231  1
  O2-  O281  1  0.55110407  0.09842727  0.26030255  1
  O2-  O282  1  0.04793625  0.75473330  0.23600091  1
  O2-  O283  1  0.45776433  0.11938970  0.95959500  1
  O2-  O284  1  0.44880693  0.75838709  0.49064581  1
  O2-  O285  1  0.04374919  0.10155177  0.76026414  1
  O2-  O286  1  0.04947647  0.23942409  0.48165801  1
  O2-  O287  1  0.44854687  0.42750433  0.22731057  1
  O2-  O288  1  0.46084626  0.43448545  0.26101052  1
  O2-  O289  1  0.97805004  0.13379091  0.22872428  1
  O2-  O290  1  0.45191935  0.90196519  0.51342165  1
  O2-  O291  1  0.04513494  0.43509432  0.00863354  1
  O2-  O292  1  0.95172791  0.75317039  0.51736860  1
  O2-  O293  1  0.95513294  0.11009412  0.03326764  1
  O2-  O294  1  0.55181427  0.09269828  0.98807673  1
  O2-  O295  1  0.54889626  0.56548771  0.98775142  1
  O2-  O296  1  0.95056409  0.56785934  0.23502774  1
  O2-  O297  1  0.54713916  0.90617360  0.72927178  1
  O2-  O298  1  0.05129676  0.57409212  0.26366230  1
  O2-  O299  1  0.95283227  0.90419463  0.73882301  1
  O2-  O300  1  0.45788778  0.12139918  0.28926955  1
  O2-  O301  1  0.46543555  0.21863712  0.50641302  1
  O2-  O302  1  0.45292714  0.90036271  0.25224252  1
  O2-  O303  1  0.05344615  0.23253172  0.51967697  1
  O2-  O304  1  0.94872453  0.24166008  0.49465589  1
  O2-  O305  1  0.44964790  0.57023892  0.98641188  1
  O2-  O306  1  0.95606675  0.43222867  0.76368237  1
  O2-  O307  1  0.45215227  0.24028394  0.75615653  1
  O2-  O308  1  0.04992551  0.75722289  0.51211776  1
  O2-  O309  1  0.55229375  0.76309463  0.45913497  1
  O2-  O310  1  0.05041162  0.10187798  0.98118109  1
  O2-  O311  1  0.05363630  0.76663547  0.27213568  1
  O2-  O312  1  0.45725775  0.09438596  0.72955048  1
  O2-  O313  1  0.54822474  0.57684806  0.02516631  1
  O2-  O314  1  0.95564526  0.76293241  0.97966132  1
  O2-  O315  1  0.53173119  0.87355009  0.01040515  1
  O2-  O316  1  0.04962503  0.57305313  0.51237872  1
  O2-  O317  1  0.95703542  0.54505971  0.46318957  1
  O2-  O318  1  0.94994710  0.76893192  0.48213191  1
  O2-  O319  1  0.05513945  0.75607872  0.72858455  1
  O2-  O320  1  0.54456388  0.89715240  0.76699887  1
  O2-  O321  1  0.53176124  0.87027699  0.99170137  1
  O2-  O322  1  0.95530750  0.79292707  0.29405145  1
  O2-  O323  1  0.44785312  0.09710759  0.76589730  1
  O2-  O324  1  0.56499528  0.25497837  0.72260622  1
  O2-  O325  1  0.06542317  0.06961342  0.52602407  1
  O2-  O326  1  0.43734138  0.74002409  0.17456811  1
  O2-  O327  1  0.93844825  0.93304198  0.46929971  1
  O2-  O328  1  0.92981255  0.71903961  0.19038806  1
  O2-  O329  1  0.06702433  0.57772167  0.81948869  1
  O2-  O330  1  0.57151122  0.72952212  0.59910436  1
  O2-  O331  1  0.92989098  0.61462384  0.56576336  1
  O2-  O332  1  0.93075709  0.07404226  0.95879595  1
  O2-  O333  1  0.57051263  0.71395210  0.18412078  1
  O2-  O334  1  0.93483108  0.26108645  0.21820770  1
  O2-  O335  1  0.06438403  0.40701654  0.42647913  1
  O2-  O336  1  0.43863528  0.59372874  0.21698348  1
  O2-  O337  1  0.06424504  0.06985732  0.28626836  1
  O2-  O338  1  0.41895036  0.06278581  0.19863182  1
  O2-  O339  1  0.07112350  0.73647967  0.78095847  1
  O2-  O340  1  0.43396669  0.74277434  0.72830928  1
  O2-  O341  1  0.06127596  0.59355028  0.67492006  1
  O2-  O342  1  0.55944995  0.75384468  0.44996966  1
  O2-  O343  1  0.93720099  0.41001698  0.17302995  1
  O2-  O344  1  0.43981719  0.92431355  0.53783436  1
  O2-  O345  1  0.43196781  0.92036228  0.02565362  1
  O2-  O346  1  0.42114490  0.06363926  0.05308048  1
  O2-  O347  1  0.43418722  0.73763603  0.32265504  1
  O2-  O348  1  0.93785957  0.93020182  0.03273354  1
  O2-  O349  1  0.43719350  0.26491175  0.03513706  1
  O2-  O350  1  0.56627181  0.07306234  0.78343224  1
  O2-  O351  1  0.57315241  0.95475000  0.91588420  1
  O2-  O352  1  0.93545382  0.05806453  0.33009117  1
  O2-  O353  1  0.06481260  0.25845083  0.77618596  1
  O2-  O354  1  0.42642098  0.27132297  0.45542443  1
  O2-  O355  1  0.92511421  0.05843688  0.17667159  1
  O2-  O356  1  0.58833538  0.93623683  0.07194916  1
  O2-  O357  1  0.06721148  0.41612426  0.56725917  1
  O2-  O358  1  0.43916704  0.58798289  0.52383702  1
  O2-  O359  1  0.56411250  0.58803656  0.48000266  1
  O2-  O360  1  0.56499003  0.40652558  0.97521511  1
  O2-  O361  1  0.56359265  0.41301072  0.77226199  1
  O2-  O362  1  0.93824062  0.92435104  0.21626233  1
  O2-  O363  1  0.93077676  0.41465207  0.31415444  1
  O2-  O364  1  0.56222059  0.93335289  0.53402817  1
  O2-  O365  1  0.06308244  0.92493742  0.22616003  1
  O2-  O366  1  0.43886978  0.41085454  0.47194281  1
  O2-  O367  1  0.06628564  0.59000721  0.02466574  1
  O2-  O368  1  0.43629229  0.26393551  0.21660809  1
  O2-  O369  1  0.43699282  0.07680471  0.47592906  1
  O2-  O370  1  0.43730479  0.59239864  0.78182822  1
  O2-  O371  1  0.56580574  0.25920217  0.52497127  1
  O2-  O372  1  0.75018092  0.35138413  0.41288011  1
  O2-  O373  1  0.24966634  0.66345653  0.67313073  1
  O2-  O374  1  0.75005062  0.65891941  0.37008301  1
  O2-  O375  1  0.24984735  -0.00452468  0.58152700  1
  O2-  O376  1  0.25025635  0.00289078  0.67117634  1
  O2-  O377  1  0.25005933  0.66980558  0.58245045  1
  O2-  O378  1  0.75043119  0.65938922  0.69238071  1
  O2-  O379  1  0.75025151  0.65417518  0.56868073  1
  O2-  O380  1  0.25062193  0.32884164  0.64484603  1
  O2-  O381  1  0.74947922  -0.00214115  0.39505091  1
  O2-  O382  1  0.74993011  0.64627137  0.15970365  1
  O2-  O383  1  0.25011887  0.32918287  0.39714895  1
  O2-  O384  1  0.25059724  0.66389260  0.90285333  1
  O2-  O385  1  0.24920089  0.66746940  0.36144705  1
  O2-  O386  1  0.24907979  0.00328952  0.14064317  1
  O2-  O387  1  0.25019821  0.33161485  0.12095743  1
  O2-  O388  1  0.75012547  0.67921972  0.07508206  1
  O2-  O389  1  0.74988357  0.33379093  0.32404849  1
  O2-  O390  1  0.75136696  0.34063844  0.88870413  1
  O2-  O391  1  0.75092558  0.33423195  0.68076407  1
  O2-  O392  1  0.24982732  0.33815515  0.88074409  1
  O2-  O393  1  0.25026788  -0.01261913  0.84806335  1
  O2-  O394  1  0.74966977  0.33020548  0.15382619  1
  O2-  O395  1  0.75075796  0.35830573  0.59317623  1
  O2-  O396  1  0.75027083  0.49315274  0.58027102  1
  O2-  O397  1  0.25001073  0.17109377  0.15988182  1
  O2-  O398  1  0.75028026  0.82774431  0.12564259  1
  O2-  O399  1  0.75000878  0.81263844  0.60984247  1
  O2-  O400  1  0.75020978  0.83447723  0.04443558  1
  O2-  O401  1  0.24987878  0.48681642  0.68138178  1
  O2-  O402  1  0.75011893  0.51279854  0.86283784  1
  O2-  O403  1  0.75011384  0.14511698  0.86266779  1
  O2-  O404  1  0.74984233  0.49961421  0.19274393  1
  O2-  O405  1  0.74997062  0.51211439  0.11056503  1
  O2-  O406  1  0.25027405  0.83382368  0.10973634  1
  O2-  O407  1  0.25003753  0.83349394  0.62982678  1
  O2-  O408  1  0.74954039  0.50841035  0.36511229  1
  O2-  O409  1  0.24976708  0.47756951  0.59137433  1
  O2-  O410  1  0.25018915  0.16710661  0.33070779  1
  O2-  O411  1  0.74955461  0.16897857  0.15897681  1
  O2-  O412  1  0.75031908  0.50477082  0.66938872  1
  O2-  O413  1  0.74950992  0.17086026  0.32316424  1
  O2-  O414  1  0.75028616  0.81745395  0.86154355  1
  O2-  O415  1  0.75007042  0.80767986  0.37944540  1
  O2-  O416  1  0.24998034  0.48640516  0.36460212  1
  O2-  O417  1  0.75010455  0.16363238  0.60019830  1
  O2-  O418  1  0.25027132  0.16500019  0.41945104  1
  O2-  O419  1  0.24950360  0.15969824  0.90941409  1
  O2-  O420  1  0.97228585  0.66289291  0.37241314  1
  O2-  O421  1  0.01775737  0.66952044  0.88684954  1
  O2-  O422  1  0.04717085  -0.00927909  0.87436919  1
  O2-  O423  1  0.95661033  -0.00762985  0.86324204  1
  O2-  O424  1  0.51872903  0.34929413  0.62701739  1
  O2-  O425  1  0.53351231  0.01474806  0.14015892  1
  O2-  O426  1  0.53763137  0.31677097  0.87270964  1
  O2-  O427  1  0.97717182  0.32856171  0.38077785  1
  O2-  O428  1  0.52205709  0.65101340  0.36176576  1
  O2-  O429  1  0.52728095  0.33001267  0.37612914  1
  O2-  O430  1  0.45698750  -0.01007746  0.36930291  1
  O2-  O431  1  0.54702493  -0.00098906  0.37738171  1
  O2-  O432  1  0.02428077  0.66912171  0.12816211  1
  O2-  O433  1  0.45464142  0.34002879  0.87868072  1
  O2-  O434  1  0.52797851  0.67290271  0.87206779  1
  O2-  O435  1  0.02777959  0.33105575  0.12907400  1
  O2-  O436  1  0.52723756  0.33639017  0.12659887  1
  O2-  O437  1  0.46810099  -0.00716675  0.87350455  1
  O2-  O438  1  0.48026186  0.66447234  0.62501749  1
  O2-  O439  1  0.47853497  -0.01460505  0.13039484  1
  O2-  O440  1  0.01872126  0.32561020  0.63522429  1
  O2-  O441  1  0.02173289  0.33883715  0.88155103  1
  O2-  O442  1  0.02363571  -0.00775763  0.63334930  1
  O2-  O443  1  0.02721357  0.00259153  0.11658296  1
