# generated using pymatgen
data_La7(Ru4O11)2
_symmetry_space_group_name_H-M   'P 1'
_cell_length_a   23.99446679
_cell_length_b   16.83317619
_cell_length_c   15.43187753
_cell_angle_alpha   90.00147774
_cell_angle_beta   90.00066992
_cell_angle_gamma   89.99375188
_symmetry_Int_Tables_number   1
_chemical_formula_structural   La7(Ru4O11)2
_chemical_formula_sum   'La84 Ru96 O264'
_cell_volume   6232.98293702
_cell_formula_units_Z   12
loop_
 _symmetry_equiv_pos_site_id
 _symmetry_equiv_pos_as_xyz
  1  'x, y, z'
loop_
 _atom_type_symbol
 _atom_type_oxidation_number
  La3+  3.0
  Ru4+  4.0
  O2-  -2.0
loop_
 _atom_site_type_symbol
 _atom_site_label
 _atom_site_symmetry_multiplicity
 _atom_site_fract_x
 _atom_site_fract_y
 _atom_site_fract_z
 _atom_site_occupancy
  La3+  La0  1  0.13584615  0.00365955  0.12968524  1
  La3+  La1  1  0.14821855  0.00096858  0.37154415  1
  La3+  La2  1  0.14047992  -0.00111519  0.62718720  1
  La3+  La3  1  0.13770653  -0.00759000  0.87532267  1
  La3+  La4  1  0.13743287  0.33620669  0.13089023  1
  La3+  La5  1  0.14420539  0.33438219  0.37236903  1
  La3+  La6  1  0.13833439  0.32926919  0.62645712  1
  La3+  La7  1  0.13670502  0.33576880  0.87558923  1
  La3+  La8  1  0.14535573  0.66003751  0.12983884  1
  La3+  La9  1  0.13466213  0.66642252  0.37446234  1
  La3+  La10  1  0.14104136  0.66563989  0.62851643  1
  La3+  La11  1  0.13571084  0.66789287  0.87936039  1
  La3+  La12  1  0.64167210  0.00404968  0.12967805  1
  La3+  La13  1  0.64301048  0.00178397  0.37197491  1
  La3+  La14  1  0.64455378  0.00094342  0.62255023  1
  La3+  La15  1  0.64323206  0.00398248  0.87313521  1
  La3+  La16  1  0.63692914  0.33546678  0.12710857  1
  La3+  La17  1  0.64663869  0.33748391  0.37883266  1
  La3+  La18  1  0.63826715  0.33329392  0.62864002  1
  La3+  La19  1  0.63511238  0.33306483  0.87451677  1
  La3+  La20  1  0.65182162  0.67844937  0.12295592  1
  La3+  La21  1  0.65484199  0.67191661  0.38267084  1
  La3+  La22  1  0.63405929  0.66412353  0.62303194  1
  La3+  La23  1  0.64454643  0.66776886  0.86753096  1
  La3+  La24  1  0.36312644  0.00547557  0.13294551  1
  La3+  La25  1  0.34664875  -0.00196679  0.37239401  1
  La3+  La26  1  0.35922111  -0.00558879  0.62729613  1
  La3+  La27  1  0.35359478  0.00495296  0.87301847  1
  La3+  La28  1  0.35712204  0.33111636  0.12836135  1
  La3+  La29  1  0.35815026  0.33245834  0.37420521  1
  La3+  La30  1  0.36017326  0.33284528  0.62493882  1
  La3+  La31  1  0.36353063  0.33399741  0.87526387  1
  La3+  La32  1  0.35819403  0.66394584  0.12808395  1
  La3+  La33  1  0.36454028  0.66248867  0.37543386  1
  La3+  La34  1  0.35777933  0.66591758  0.62578929  1
  La3+  La35  1  0.35723868  0.66746995  0.87537144  1
  La3+  La36  1  0.85814447  0.00352672  0.12750428  1
  La3+  La37  1  0.85883630  0.00198379  0.37819438  1
  La3+  La38  1  0.84900735  0.00296300  0.62628230  1
  La3+  La39  1  0.85436119  0.01086120  0.87700223  1
  La3+  La40  1  0.86269146  0.33121346  0.12802563  1
  La3+  La41  1  0.85698079  0.33745851  0.37720363  1
  La3+  La42  1  0.86119676  0.32825298  0.63035300  1
  La3+  La43  1  0.85822126  0.33757208  0.86950925  1
  La3+  La44  1  0.85224945  0.65932650  0.12339640  1
  La3+  La45  1  0.85460508  0.66665507  0.37864684  1
  La3+  La46  1  0.86391535  0.66550170  0.62597964  1
  La3+  La47  1  0.85834441  0.65874909  0.87148028  1
  La3+  La48  1  0.50464845  0.83077915  0.36595461  1
  La3+  La49  1  0.49534340  0.48024213  0.13011281  1
  La3+  La50  1  0.00441206  0.84501906  0.63633859  1
  La3+  La51  1  0.00430865  0.83791027  0.38918839  1
  La3+  La52  1  0.00394243  0.17609503  0.36599554  1
  La3+  La53  1  0.50736194  0.82617329  0.63446549  1
  La3+  La54  1  0.49777304  0.49694557  0.39381096  1
  La3+  La55  1  0.50576108  0.49894535  0.87242845  1
  La3+  La56  1  0.00589563  0.85233064  0.62195822  1
  La3+  La57  1  0.50731709  0.82792058  0.12527975  1
  La3+  La58  1  -0.00318903  0.82107693  0.12266355  1
  La3+  La59  1  0.49908574  0.84207380  0.86865213  1
  La3+  La60  1  0.50773140  0.17326458  0.62752104  1
  La3+  La61  1  0.00368928  0.49782443  0.63465188  1
  La3+  La62  1  0.50518595  0.17141508  0.10781083  1
  La3+  La63  1  -0.00097342  0.50711945  0.38112115  1
  La3+  La64  1  0.00004102  0.50314422  0.11605460  1
  La3+  La65  1  0.49300919  0.48469677  0.12261078  1
  La3+  La66  1  0.50248649  0.16579300  0.64659480  1
  La3+  La67  1  0.49445782  0.82815822  0.38177238  1
  La3+  La68  1  0.00624058  0.15599217  0.12196330  1
  La3+  La69  1  0.00747326  0.84691940  0.36967760  1
  La3+  La70  1  0.50025796  0.82332926  0.61499056  1
  La3+  La71  1  0.49833499  0.83012329  0.10802545  1
  La3+  La72  1  0.24983220  0.50150448  0.48674566  1
  La3+  La73  1  0.75022239  0.83897770  0.54375730  1
  La3+  La74  1  0.25413920  0.83453928  0.47168554  1
  La3+  La75  1  0.75163372  0.50150170  0.28573363  1
  La3+  La76  1  0.24670306  0.82425604  0.78983095  1
  La3+  La77  1  0.75129632  0.50208379  0.69674197  1
  La3+  La78  1  0.24793457  0.47566708  0.02669251  1
  La3+  La79  1  0.24957199  0.86981915  0.17676068  1
  La3+  La80  1  0.75106284  0.44926612  0.03649460  1
  La3+  La81  1  0.24883623  0.17357680  -0.05402888  1
  La3+  La82  1  0.75153102  0.79974512  -0.05243674  1
  La3+  La83  1  0.74871190  0.12933325  0.47266045  1
  Ru4+  Ru84  1  0.00350737  0.00013698  -0.00082800  1
  Ru4+  Ru85  1  0.00105143  0.00592979  0.26829776  1
  Ru4+  Ru86  1  -0.00500888  0.00789712  0.49885923  1
  Ru4+  Ru87  1  -0.00092470  -0.00604684  0.75340182  1
  Ru4+  Ru88  1  -0.00242010  0.33493504  -0.00666944  1
  Ru4+  Ru89  1  -0.00472980  0.33090632  0.24802936  1
  Ru4+  Ru90  1  -0.00062616  0.32806569  0.51860372  1
  Ru4+  Ru91  1  -0.00345294  0.33906965  0.75090455  1
  Ru4+  Ru92  1  0.00541084  0.67065497  -0.00445938  1
  Ru4+  Ru93  1  0.00200753  0.66051422  0.25359526  1
  Ru4+  Ru94  1  0.00108110  0.65882744  0.48938791  1
  Ru4+  Ru95  1  -0.00812588  0.67057013  0.76694974  1
  Ru4+  Ru96  1  0.49400248  0.01240389  -0.02003266  1
  Ru4+  Ru97  1  0.49682670  0.01332901  0.25655900  1
  Ru4+  Ru98  1  0.49413406  0.01868743  0.50852845  1
  Ru4+  Ru99  1  0.50242327  -0.00019849  0.75313648  1
  Ru4+  Ru100  1  0.49602543  0.32066782  -0.00452063  1
  Ru4+  Ru101  1  0.50558787  0.31395812  0.26497829  1
  Ru4+  Ru102  1  0.50039235  0.33268357  0.50024014  1
  Ru4+  Ru103  1  0.49103968  0.34007400  0.74650394  1
  Ru4+  Ru104  1  0.50456822  0.66227395  -0.00128165  1
  Ru4+  Ru105  1  0.50769607  0.65533427  0.25737064  1
  Ru4+  Ru106  1  0.49829933  0.65941489  0.50538479  1
  Ru4+  Ru107  1  0.50207584  0.65690467  0.75146904  1
  Ru4+  Ru108  1  0.10736441  0.16650118  -0.00180538  1
  Ru4+  Ru109  1  0.11489093  0.16570387  0.24925486  1
  Ru4+  Ru110  1  0.11250220  0.17114261  0.50331857  1
  Ru4+  Ru111  1  0.11300794  0.16616349  0.75402040  1
  Ru4+  Ru112  1  0.10719300  0.50054711  -0.00416086  1
  Ru4+  Ru113  1  0.11578767  0.50031397  0.24776675  1
  Ru4+  Ru114  1  0.11133062  0.49660251  0.50087312  1
  Ru4+  Ru115  1  0.11176616  0.50218211  0.74677591  1
  Ru4+  Ru116  1  0.10714087  0.82459142  0.00529527  1
  Ru4+  Ru117  1  0.11577819  0.83396982  0.24355906  1
  Ru4+  Ru118  1  0.11742824  0.83099547  0.50508323  1
  Ru4+  Ru119  1  0.10908235  0.83521331  0.75030218  1
  Ru4+  Ru120  1  0.61057371  0.16664194  -0.00226744  1
  Ru4+  Ru121  1  0.60584991  0.17461642  0.25695081  1
  Ru4+  Ru122  1  0.60768229  0.17040964  0.49727389  1
  Ru4+  Ru123  1  0.61340557  0.16935881  0.74993470  1
  Ru4+  Ru124  1  0.61325704  0.50826842  -0.00548656  1
  Ru4+  Ru125  1  0.61141415  0.51466574  0.25052173  1
  Ru4+  Ru126  1  0.61283477  0.50041912  0.50175184  1
  Ru4+  Ru127  1  0.61025256  0.49678023  0.74815553  1
  Ru4+  Ru128  1  0.61159245  0.84024612  0.00172963  1
  Ru4+  Ru129  1  0.60672009  0.83423550  0.25410553  1
  Ru4+  Ru130  1  0.61578535  0.83243089  0.49578823  1
  Ru4+  Ru131  1  0.61769828  0.83297309  0.75418979  1
  Ru4+  Ru132  1  0.39343757  0.16053818  0.00545735  1
  Ru4+  Ru133  1  0.39067328  0.16414878  0.25695727  1
  Ru4+  Ru134  1  0.38417797  0.16297110  0.49090915  1
  Ru4+  Ru135  1  0.39119903  0.16815798  0.74697962  1
  Ru4+  Ru136  1  0.38821209  0.49573255  -0.00367129  1
  Ru4+  Ru137  1  0.38249038  0.50041140  0.25368091  1
  Ru4+  Ru138  1  0.38987656  0.49974830  0.50090865  1
  Ru4+  Ru139  1  0.39312804  0.48925134  0.74799012  1
  Ru4+  Ru140  1  0.38948692  0.83174681  -0.00093029  1
  Ru4+  Ru141  1  0.38795498  0.83283799  0.25171385  1
  Ru4+  Ru142  1  0.39454171  0.83211275  0.49007526  1
  Ru4+  Ru143  1  0.38745408  0.83739014  0.75569564  1
  Ru4+  Ru144  1  0.88664485  0.16359104  -0.00179466  1
  Ru4+  Ru145  1  0.88837611  0.17034483  0.25421819  1
  Ru4+  Ru146  1  0.88930729  0.17427379  0.49938259  1
  Ru4+  Ru147  1  0.88835103  0.16702492  0.75059234  1
  Ru4+  Ru148  1  0.89469869  0.50105708  -0.00238147  1
  Ru4+  Ru149  1  0.88923660  0.49737195  0.25080646  1
  Ru4+  Ru150  1  0.88402991  0.49896751  0.50199420  1
  Ru4+  Ru151  1  0.88913775  0.50058323  0.75149060  1
  Ru4+  Ru152  1  0.89202760  0.83220634  0.00096010  1
  Ru4+  Ru153  1  0.88540088  0.82845598  0.24177419  1
  Ru4+  Ru154  1  0.88497387  0.83575289  0.50098905  1
  Ru4+  Ru155  1  0.89954832  0.83560963  0.76074342  1
  Ru4+  Ru156  1  0.25136308  0.23681087  0.74220634  1
  Ru4+  Ru157  1  0.74988028  0.92948804  0.25172707  1
  Ru4+  Ru158  1  0.24961450  0.65211934  0.51114181  1
  Ru4+  Ru159  1  0.24981567  0.34990185  0.51524980  1
  Ru4+  Ru160  1  0.25016115  0.91347592  0.01664209  1
  Ru4+  Ru161  1  0.75012656  0.08554359  0.73810523  1
  Ru4+  Ru162  1  0.74981947  0.24404059  0.25226420  1
  Ru4+  Ru163  1  0.75186866  0.59787254  -0.00408418  1
  Ru4+  Ru164  1  0.25052230  0.70681410  0.24838883  1
  Ru4+  Ru165  1  0.24892177  0.06311035  0.04187446  1
  Ru4+  Ru166  1  0.74963727  0.26873514  0.51626625  1
  Ru4+  Ru167  1  0.24886702  0.08765590  0.51458543  1
  Ru4+  Ru168  1  0.25064350  0.59223671  0.76599812  1
  Ru4+  Ru169  1  0.74903902  0.08198696  -0.00175288  1
  Ru4+  Ru170  1  0.75023999  0.90627713  0.74656296  1
  Ru4+  Ru171  1  0.24934796  0.41033745  0.77063860  1
  Ru4+  Ru172  1  0.25007714  0.31096092  -0.00606759  1
  Ru4+  Ru173  1  0.25013782  0.23939163  0.22715320  1
  Ru4+  Ru174  1  0.75164118  0.76627593  0.74688970  1
  Ru4+  Ru175  1  0.75088791  0.94254118  0.02141623  1
  Ru4+  Ru176  1  0.25010888  0.09236001  0.73106507  1
  Ru4+  Ru177  1  0.74945222  0.24603814  -0.00731973  1
  Ru4+  Ru178  1  0.25078723  0.61771362  -0.01246500  1
  Ru4+  Ru179  1  0.74929970  0.73994078  0.26468022  1
  O2-  O180  1  0.16606299  0.07873823  0.00382340  1
  O2-  O181  1  0.16499274  0.08316898  0.24808879  1
  O2-  O182  1  0.16568674  0.08247314  0.50128426  1
  O2-  O183  1  0.16403190  0.08445787  0.74861150  1
  O2-  O184  1  0.16269924  0.41202829  0.00221777  1
  O2-  O185  1  0.16742459  0.41326228  0.25113330  1
  O2-  O186  1  0.16780705  0.40941350  0.50086446  1
  O2-  O187  1  0.16363234  0.41329317  0.75435172  1
  O2-  O188  1  0.16367694  0.75072189  -0.00366085  1
  O2-  O189  1  0.16906344  0.74324921  0.24926372  1
  O2-  O190  1  0.17534983  0.74194219  0.49990905  1
  O2-  O191  1  0.16151587  0.74696879  0.75064417  1
  O2-  O192  1  0.66439914  0.08152167  0.00173951  1
  O2-  O193  1  0.65925254  0.08941996  0.25064282  1
  O2-  O194  1  0.66248941  0.07768954  0.49751400  1
  O2-  O195  1  0.66816114  0.08345186  0.74732895  1
  O2-  O196  1  0.66070395  0.41085075  -0.00626980  1
  O2-  O197  1  0.66335348  0.42100338  0.25149935  1
  O2-  O198  1  0.66424670  0.41555464  0.50899587  1
  O2-  O199  1  0.66676128  0.41305856  0.74550467  1
  O2-  O200  1  0.66265153  0.75053538  -0.00958075  1
  O2-  O201  1  0.66522907  0.74925007  0.25339791  1
  O2-  O202  1  0.67411561  0.74780276  0.51465337  1
  O2-  O203  1  0.67212928  0.74838168  0.74320662  1
  O2-  O204  1  0.33540074  0.25133491  -0.00276616  1
  O2-  O205  1  0.33005856  0.24854586  0.24673467  1
  O2-  O206  1  0.33728334  0.25141869  0.49984759  1
  O2-  O207  1  0.33287297  0.25079740  0.74985172  1
  O2-  O208  1  0.33208476  0.58652535  0.00101648  1
  O2-  O209  1  0.33043523  0.58520117  0.25533682  1
  O2-  O210  1  0.33126922  0.58923628  0.49989339  1
  O2-  O211  1  0.33901779  0.58289170  0.75248041  1
  O2-  O212  1  0.33558876  0.91914983  0.00605902  1
  O2-  O213  1  0.33406560  0.91558677  0.24668104  1
  O2-  O214  1  0.33522702  0.91882038  0.50432434  1
  O2-  O215  1  0.32962637  0.91748914  0.74797950  1
  O2-  O216  1  0.83171151  0.25239806  0.00195074  1
  O2-  O217  1  0.83154484  0.25227960  0.25089546  1
  O2-  O218  1  0.83076493  0.25081850  0.50185721  1
  O2-  O219  1  0.83158718  0.24533316  0.74683570  1
  O2-  O220  1  0.83511107  0.58277244  -0.00036615  1
  O2-  O221  1  0.83516784  0.58326427  0.25555365  1
  O2-  O222  1  0.83191676  0.58533948  0.50705585  1
  O2-  O223  1  0.82870431  0.58533836  0.73803227  1
  O2-  O224  1  0.83445859  0.92098604  0.00132819  1
  O2-  O225  1  0.83626880  0.91919892  0.24911514  1
  O2-  O226  1  0.83115941  0.91755878  0.49783461  1
  O2-  O227  1  0.82837359  0.91172134  0.74799548  1
  O2-  O228  1  0.16781425  0.25297763  -0.00271971  1
  O2-  O229  1  0.17066526  0.25260810  0.24943642  1
  O2-  O230  1  0.16632177  0.25303383  0.49877493  1
  O2-  O231  1  0.17151940  0.25107554  0.75143980  1
  O2-  O232  1  0.17153873  0.58506095  0.00016586  1
  O2-  O233  1  0.16677059  0.58189461  0.25796824  1
  O2-  O234  1  0.16859142  0.59083785  0.50146964  1
  O2-  O235  1  0.16722430  0.58750530  0.75474846  1
  O2-  O236  1  0.16616727  0.91535858  0.00701753  1
  O2-  O237  1  0.16799628  0.91955340  0.24369412  1
  O2-  O238  1  0.16532251  0.92074804  0.50365105  1
  O2-  O239  1  0.16898705  0.91664602  0.74880980  1
  O2-  O240  1  0.66388447  0.25419996  -0.00216832  1
  O2-  O241  1  0.67092067  0.24715428  0.25025310  1
  O2-  O242  1  0.66609591  0.25341614  0.50535250  1
  O2-  O243  1  0.66520329  0.25471614  0.75103487  1
  O2-  O244  1  0.67063997  0.58562504  0.00132651  1
  O2-  O245  1  0.67463941  0.58053934  0.26161407  1
  O2-  O246  1  0.66375192  0.58444566  0.50885194  1
  O2-  O247  1  0.66832404  0.58612039  0.74022189  1
  O2-  O248  1  0.66900162  0.92192765  -0.00163009  1
  O2-  O249  1  0.66509019  0.92269100  0.24911465  1
  O2-  O250  1  0.66662861  0.91922107  0.49873369  1
  O2-  O251  1  0.67002187  0.91978065  0.74951242  1
  O2-  O252  1  0.32981938  0.07887698  0.00767579  1
  O2-  O253  1  0.33458956  0.08689417  0.24577325  1
  O2-  O254  1  0.32951218  0.08293908  0.50368688  1
  O2-  O255  1  0.33333298  0.08547371  0.74567705  1
  O2-  O256  1  0.33154589  0.41135316  0.00169466  1
  O2-  O257  1  0.33616852  0.41085643  0.24765596  1
  O2-  O258  1  0.33119750  0.41066958  0.50227286  1
  O2-  O259  1  0.33254169  0.41113972  0.75424150  1
  O2-  O260  1  0.34107049  0.74617808  -0.00014103  1
  O2-  O261  1  0.33513723  0.74291487  0.25248667  1
  O2-  O262  1  0.33106067  0.74116709  0.49889473  1
  O2-  O263  1  0.33645129  0.74808380  0.75224228  1
  O2-  O264  1  0.83050285  0.08420497  0.00694001  1
  O2-  O265  1  0.83726223  0.08510416  0.24995599  1
  O2-  O266  1  0.83549887  0.08413029  0.49502706  1
  O2-  O267  1  0.83034003  0.08904164  0.75002989  1
  O2-  O268  1  0.84226717  0.40966137  0.00057052  1
  O2-  O269  1  0.83079098  0.41549585  0.24970363  1
  O2-  O270  1  0.83486228  0.41561668  0.50494399  1
  O2-  O271  1  0.82819698  0.41559972  0.74035711  1
  O2-  O272  1  0.83532546  0.74740080  -0.00161444  1
  O2-  O273  1  0.82932127  0.74696455  0.25644234  1
  O2-  O274  1  0.83200530  0.74603634  0.51077155  1
  O2-  O275  1  0.83206431  0.75227384  0.74435101  1
  O2-  O276  1  0.54736498  0.23719224  0.98068134  1
  O2-  O277  1  0.54696838  0.25025983  0.74806941  1
  O2-  O278  1  0.54303153  0.77184493  0.98467848  1
  O2-  O279  1  0.97247115  0.12189048  0.49677868  1
  O2-  O280  1  0.94836158  0.09038986  0.26452790  1
  O2-  O281  1  0.04846789  0.23330371  0.50728131  1
  O2-  O282  1  0.04870323  0.09551435  0.99157693  1
  O2-  O283  1  0.95341974  0.76489344  0.50834233  1
  O2-  O284  1  0.95642260  0.74671979  0.68551656  1
  O2-  O285  1  0.05327485  0.24397160  0.24204476  1
  O2-  O286  1  0.05141175  0.57120941  0.50480759  1
  O2-  O287  1  0.55243127  0.74783089  0.50348119  1
  O2-  O288  1  0.52623395  0.20590934  0.24399256  1
  O2-  O289  1  0.95945657  0.09787615  0.77765400  1
  O2-  O290  1  0.45605644  0.13085015  0.52293938  1
  O2-  O291  1  0.94626657  0.56974976  0.52371086  1
  O2-  O292  1  0.45323774  0.42450167  0.25953137  1
  O2-  O293  1  0.55002668  0.09675469  0.47535881  1
  O2-  O294  1  0.95352743  0.57356105  0.98121765  1
  O2-  O295  1  0.95358878  0.22483368  0.20253348  1
  O2-  O296  1  0.98674719  0.87033906  0.77150975  1
  O2-  O297  1  0.54313450  0.42090400  0.00792348  1
  O2-  O298  1  0.94525338  0.75587226  0.98969779  1
  O2-  O299  1  0.45075821  0.11837991  0.20282181  1
  O2-  O300  1  0.04603586  0.90771495  0.50022642  1
  O2-  O301  1  0.45497618  0.90792486  0.23931913  1
  O2-  O302  1  0.04590596  0.41686784  0.47691525  1
  O2-  O303  1  0.96548576  0.22619972  0.75362097  1
  O2-  O304  1  0.95409315  0.22570586  0.02464099  1
  O2-  O305  1  0.44277936  0.90855686  0.70775958  1
  O2-  O306  1  0.55700245  0.07878864  0.27013410  1
  O2-  O307  1  0.53950466  0.55920583  0.04429575  1
  O2-  O308  1  0.04450341  0.42601585  0.99388156  1
  O2-  O309  1  0.52730093  0.53681935  0.24836670  1
  O2-  O310  1  0.45856059  0.76050182  0.24412877  1
  O2-  O311  1  0.45432308  0.75730860  0.74738024  1
  O2-  O312  1  0.54347015  0.90952253  0.49665201  1
  O2-  O313  1  0.95490810  0.56479575  0.25295357  1
  O2-  O314  1  0.44950933  0.56860951  0.97454879  1
  O2-  O315  1  0.95695772  0.12209814  0.46615315  1
  O2-  O316  1  0.04916275  0.56986733  0.51409031  1
  O2-  O317  1  0.52914867  0.52683629  0.26175613  1
  O2-  O318  1  0.03214791  0.80486210  -0.01335000  1
  O2-  O319  1  0.96198970  0.78331828  0.27289521  1
  O2-  O320  1  0.05363986  0.08717497  0.23275809  1
  O2-  O321  1  0.54527948  0.55913818  0.74311092  1
  O2-  O322  1  0.05756044  0.41136628  0.22010916  1
  O2-  O323  1  0.05500009  0.24977649  0.01861732  1
  O2-  O324  1  0.91351178  0.73201677  0.18373346  1
  O2-  O325  1  0.42891100  0.03265904  0.44448516  1
  O2-  O326  1  0.93850713  0.41490545  0.77098799  1
  O2-  O327  1  0.93362276  0.06701149  0.70489853  1
  O2-  O328  1  0.43071860  0.26865170  0.28098740  1
  O2-  O329  1  0.56527279  0.91827482  0.72985561  1
  O2-  O330  1  0.90879212  0.92686470  0.81900340  1
  O2-  O331  1  0.92690398  0.01348859  0.54801805  1
  O2-  O332  1  0.56157900  0.41802376  0.03481254  1
  O2-  O333  1  0.57989847  0.60497111  0.93657111  1
  O2-  O334  1  0.44668562  0.91584012  0.71053853  1
  O2-  O335  1  0.92763355  0.26722591  0.32070275  1
  O2-  O336  1  0.06558490  0.25889474  0.80328002  1
  O2-  O337  1  0.44225526  0.05962562  0.07013009  1
  O2-  O338  1  0.55881502  0.74968889  0.50560501  1
  O2-  O339  1  0.43491441  0.40608336  0.46952180  1
  O2-  O340  1  0.06241644  0.74976218  0.26646276  1
  O2-  O341  1  0.92449206  0.91528791  0.65830290  1
  O2-  O342  1  0.92171112  0.27329548  0.78200374  1
  O2-  O343  1  0.57011324  0.63828585  0.33873198  1
  O2-  O344  1  0.92596058  0.73601915  0.82138868  1
  O2-  O345  1  0.93870697  0.26862711  0.46949657  1
  O2-  O346  1  0.06986783  0.93232358  0.76711831  1
  O2-  O347  1  0.43071910  0.09716671  0.93055521  1
  O2-  O348  1  0.06293227  0.92535771  0.26248638  1
  O2-  O349  1  0.44085068  0.40584390  0.82115153  1
  O2-  O350  1  0.06314934  0.58686170  0.97614940  1
  O2-  O351  1  0.92528090  0.26676405  0.95557583  1
  O2-  O352  1  0.58604332  0.29764294  0.27531683  1
  O2-  O353  1  0.05826392  0.59723718  0.71365262  1
  O2-  O354  1  0.06408974  0.25414890  0.71081146  1
  O2-  O355  1  0.93171131  0.06871353  0.98705884  1
  O2-  O356  1  0.93889867  0.41139417  0.28800006  1
  O2-  O357  1  0.43964435  0.40446374  0.67216542  1
  O2-  O358  1  0.04906784  0.42326229  0.22975552  1
  O2-  O359  1  0.59453960  0.58887890  0.16696408  1
  O2-  O360  1  0.07565343  0.71025519  0.05410613  1
  O2-  O361  1  0.43235883  0.59063676  0.21834514  1
  O2-  O362  1  0.41066381  0.89533773  0.86016503  1
  O2-  O363  1  0.06898553  0.93464820  0.98608595  1
  O2-  O364  1  0.43282344  0.04522306  0.30667847  1
  O2-  O365  1  0.44016051  0.40276818  0.98138008  1
  O2-  O366  1  0.56573744  0.74509440  0.77337435  1
  O2-  O367  1  0.06191439  0.59061007  0.21007637  1
  O2-  O368  1  0.94011799  0.58415996  0.77506824  1
  O2-  O369  1  0.06395120  0.74144571  0.47899453  1
  O2-  O370  1  0.55828051  0.93588549  0.03700688  1
  O2-  O371  1  0.43712420  0.59175356  0.52781998  1
  O2-  O372  1  0.24914390  -0.00081309  0.93529210  1
  O2-  O373  1  0.25040910  0.66031982  0.65087093  1
  O2-  O374  1  0.24901223  -0.00299996  0.42807776  1
  O2-  O375  1  0.24902268  0.01108541  0.63787423  1
  O2-  O376  1  0.25059847  0.65868551  0.13710621  1
  O2-  O377  1  0.25005266  0.33833782  0.65660271  1
  O2-  O378  1  0.75065903  0.66015695  0.17386445  1
  O2-  O379  1  0.25092975  0.67336847  0.86016578  1
  O2-  O380  1  0.24869700  0.00371794  0.33528507  1
  O2-  O381  1  0.24962769  0.31776274  0.85805799  1
  O2-  O382  1  0.75037264  0.00202520  0.83800802  1
  O2-  O383  1  0.74932924  0.34043095  0.17679654  1
  O2-  O384  1  0.74928036  0.32876670  0.39447749  1
  O2-  O385  1  0.74909515  0.32110747  0.08377679  1
  O2-  O386  1  0.24950913  0.33026597  0.39344732  1
  O2-  O387  1  0.75245220  0.68397058  0.08284723  1
  O2-  O388  1  0.75010588  -0.00163235  0.14303835  1
  O2-  O389  1  0.74772098  -0.00653951  0.61190504  1
  O2-  O390  1  0.24888833  0.00687936  0.80244078  1
  O2-  O391  1  0.25001395  0.33932613  0.11873347  1
  O2-  O392  1  0.75239858  0.66680488  0.37450716  1
  O2-  O393  1  0.24878299  0.00012589  0.14773712  1
  O2-  O394  1  0.74810671  0.00392221  0.35277006  1
  O2-  O395  1  0.75036487  0.67334825  0.89069946  1
  O2-  O396  1  0.24590414  0.87512584  0.34598707  1
  O2-  O397  1  0.74951536  0.51655044  0.91245276  1
  O2-  O398  1  0.75077645  0.51673437  0.15068969  1
  O2-  O399  1  0.25753853  0.83445648  0.67097924  1
  O2-  O400  1  0.25078729  0.84972501  0.91442429  1
  O2-  O401  1  0.25033895  0.50232971  0.86699267  1
  O2-  O402  1  0.25076987  0.50094894  0.27144367  1
  O2-  O403  1  0.24982112  0.16865629  0.11476739  1
  O2-  O404  1  0.74884614  0.16562253  0.90445247  1
  O2-  O405  1  0.25374135  0.80228487  0.30361876  1
  O2-  O406  1  0.24213939  0.83043820  0.59272544  1
  O2-  O407  1  0.25025732  0.50268852  0.35419018  1
  O2-  O408  1  0.25191915  0.80228078  0.99280921  1
  O2-  O409  1  0.25063509  0.50005458  0.70527188  1
  O2-  O410  1  0.24967239  0.49711069  0.61750702  1
  O2-  O411  1  0.74913809  0.83784643  0.41046181  1
  O2-  O412  1  0.74923402  0.84463892  0.07602048  1
  O2-  O413  1  0.75004812  0.83077013  0.19240583  1
  O2-  O414  1  0.74908225  0.16468892  0.06933321  1
  O2-  O415  1  0.75011373  0.83873737  0.32334651  1
  O2-  O416  1  0.75000659  0.48970504  0.82996217  1
  O2-  O417  1  0.24970730  0.16119711  0.60190507  1
  O2-  O418  1  0.75114934  0.16404609  0.18465078  1
  O2-  O419  1  0.74895578  0.17779194  0.61111667  1
  O2-  O420  1  0.55307360  -0.00083144  0.87647056  1
  O2-  O421  1  0.03454662  0.01661046  0.86414192  1
  O2-  O422  1  0.95313344  -0.02109804  0.37738857  1
  O2-  O423  1  0.97047770  0.34942327  0.11625845  1
  O2-  O424  1  0.52630678  0.66435390  0.62922850  1
  O2-  O425  1  0.54597599  0.01842458  0.62339681  1
  O2-  O426  1  0.02951207  0.67298010  0.86950070  1
  O2-  O427  1  0.04370676  0.36147897  0.62136215  1
  O2-  O428  1  0.04644613  0.01801484  0.38984595  1
  O2-  O429  1  0.94971551  0.66735169  0.38149352  1
  O2-  O430  1  0.99095854  0.34344505  0.87524728  1
  O2-  O431  1  0.54157279  0.69760683  0.12178795  1
  O2-  O432  1  0.95195245  0.33408988  0.62554413  1
  O2-  O433  1  0.97665899  -0.00081967  0.88192899  1
  O2-  O434  1  0.52024478  0.33126644  0.13372778  1
  O2-  O435  1  0.46867952  0.67062194  0.37812000  1
  O2-  O436  1  0.04097025  0.64437456  0.36371140  1
  O2-  O437  1  0.03038012  -0.00187350  0.62728859  1
  O2-  O438  1  0.98274781  0.65562719  0.11703849  1
  O2-  O439  1  0.52289086  0.34192316  0.38352906  1
  O2-  O440  1  0.44917973  0.68080955  0.09248026  1
  O2-  O441  1  0.50448823  0.66965199  0.87180694  1
  O2-  O442  1  0.45216775  0.02085913  0.61616515  1
  O2-  O443  1  0.46640792  -0.00154829  0.86452396  1
