# generated using pymatgen
data_La7(Ru4O11)2
_symmetry_space_group_name_H-M   'P 1'
_cell_length_a   23.99219939
_cell_length_b   16.83194349
_cell_length_c   15.42713982
_cell_angle_alpha   89.99962320
_cell_angle_beta   89.99942679
_cell_angle_gamma   90.00181799
_symmetry_Int_Tables_number   1
_chemical_formula_structural   La7(Ru4O11)2
_chemical_formula_sum   'La84 Ru96 O264'
_cell_volume   6230.02431562
_cell_formula_units_Z   12
loop_
 _symmetry_equiv_pos_site_id
 _symmetry_equiv_pos_as_xyz
  1  'x, y, z'
loop_
 _atom_type_symbol
 _atom_type_oxidation_number
  La3+  3.0
  Ru4+  4.0
  O2-  -2.0
loop_
 _atom_site_type_symbol
 _atom_site_label
 _atom_site_symmetry_multiplicity
 _atom_site_fract_x
 _atom_site_fract_y
 _atom_site_fract_z
 _atom_site_occupancy
  La3+  La0  1  0.14059790  0.00003597  0.12741089  1
  La3+  La1  1  0.14163793  0.00080082  0.37420283  1
  La3+  La2  1  0.13542135  0.00121165  0.62178257  1
  La3+  La3  1  0.14408836  0.00395216  0.87640869  1
  La3+  La4  1  0.14041753  0.33377760  0.12716599  1
  La3+  La5  1  0.13765799  0.33592614  0.37430024  1
  La3+  La6  1  0.14278757  0.33556394  0.62537474  1
  La3+  La7  1  0.13826853  0.33201976  0.87322992  1
  La3+  La8  1  0.13728038  0.66886242  0.12276327  1
  La3+  La9  1  0.13991251  0.66393105  0.37257935  1
  La3+  La10  1  0.13991332  0.66425975  0.62499402  1
  La3+  La11  1  0.14036701  0.66597511  0.87633156  1
  La3+  La12  1  0.64165749  -0.00083721  0.12141027  1
  La3+  La13  1  0.63987050  -0.00150914  0.37579929  1
  La3+  La14  1  0.63058832  -0.00165737  0.63483704  1
  La3+  La15  1  0.63675582  -0.00312691  0.87624880  1
  La3+  La16  1  0.63302557  0.32472158  0.11550390  1
  La3+  La17  1  0.63774859  0.33383774  0.37191631  1
  La3+  La18  1  0.63404954  0.33293355  0.62601840  1
  La3+  La19  1  0.62681874  0.32090791  0.88679446  1
  La3+  La20  1  0.63802761  0.66348294  0.12313552  1
  La3+  La21  1  0.63992536  0.66424247  0.37474691  1
  La3+  La22  1  0.64241718  0.67066774  0.63034566  1
  La3+  La23  1  0.63289816  0.66307354  0.87756642  1
  La3+  La24  1  0.35756738  -0.00165636  0.13119197  1
  La3+  La25  1  0.35601466  0.00151123  0.37059460  1
  La3+  La26  1  0.36232147  0.00438261  0.62476268  1
  La3+  La27  1  0.35607967  0.00273868  0.87579163  1
  La3+  La28  1  0.35798779  0.33491754  0.12591332  1
  La3+  La29  1  0.36291040  0.33361463  0.37452477  1
  La3+  La30  1  0.35826433  0.33650682  0.62525467  1
  La3+  La31  1  0.36203478  0.33491518  0.87109370  1
  La3+  La32  1  0.36314781  0.66902627  0.12203293  1
  La3+  La33  1  0.36504876  0.66714490  0.37722829  1
  La3+  La34  1  0.36203544  0.66656292  0.62203871  1
  La3+  La35  1  0.36042487  0.66713012  0.87862623  1
  La3+  La36  1  0.85947968  -0.00379435  0.12506538  1
  La3+  La37  1  0.86261322  0.00244485  0.37119652  1
  La3+  La38  1  0.86350798  -0.00024677  0.63158629  1
  La3+  La39  1  0.86350067  -0.00390999  0.88219121  1
  La3+  La40  1  0.85891120  0.33249425  0.12866149  1
  La3+  La41  1  0.85856241  0.33096283  0.37124889  1
  La3+  La42  1  0.86519085  0.33426113  0.62447267  1
  La3+  La43  1  0.86000820  0.33292166  0.87843763  1
  La3+  La44  1  0.86136723  0.66399724  0.12721798  1
  La3+  La45  1  0.86019187  0.66464511  0.37261980  1
  La3+  La46  1  0.86540516  0.66478354  0.62466036  1
  La3+  La47  1  0.86095097  0.66518331  0.87645787  1
  La3+  La48  1  0.49354172  0.83430532  0.35792175  1
  La3+  La49  1  0.00534814  0.50677228  0.12218685  1
  La3+  La50  1  0.50639114  0.17383836  0.86883328  1
  La3+  La51  1  0.49643443  0.49596824  0.88229095  1
  La3+  La52  1  0.49842487  0.17343756  0.11337278  1
  La3+  La53  1  0.50130140  0.17980392  0.09860906  1
  La3+  La54  1  0.50344638  0.50332361  0.13023171  1
  La3+  La55  1  -0.00483550  0.83268050  0.39179622  1
  La3+  La56  1  0.49486967  0.50742163  0.11230191  1
  La3+  La57  1  -0.00436367  0.50121160  0.36483576  1
  La3+  La58  1  0.00441080  0.83573236  0.88349330  1
  La3+  La59  1  0.49938539  0.16497103  0.37960805  1
  La3+  La60  1  -0.00350548  0.83397731  0.86475291  1
  La3+  La61  1  0.49824184  0.49560310  0.38082590  1
  La3+  La62  1  0.50133576  0.83403885  0.85859464  1
  La3+  La63  1  0.49814306  0.16376797  0.62447847  1
  La3+  La64  1  0.49892069  0.83421015  0.11869383  1
  La3+  La65  1  0.00408879  0.50475475  0.10541707  1
  La3+  La66  1  0.00106415  0.82978127  0.37119718  1
  La3+  La67  1  -0.00038511  0.83267079  0.13087194  1
  La3+  La68  1  0.50435349  0.83440514  0.87469967  1
  La3+  La69  1  0.00078511  0.16744210  0.11855445  1
  La3+  La70  1  0.50584131  0.83094254  0.61880324  1
  La3+  La71  1  -0.00496579  0.16224271  0.36461754  1
  La3+  La72  1  0.25016798  0.49907200  0.46693467  1
  La3+  La73  1  0.75074426  0.17104400  0.79223380  1
  La3+  La74  1  0.25010207  0.50261647  0.73055010  1
  La3+  La75  1  0.74951323  0.22392860  0.51774457  1
  La3+  La76  1  0.25017213  0.54910445  -0.02365228  1
  La3+  La77  1  0.75044983  0.81973414  0.48900536  1
  La3+  La78  1  0.74936254  0.46552410  0.77815256  1
  La3+  La79  1  0.25003038  0.86819631  0.49776555  1
  La3+  La80  1  0.75068245  0.44334911  0.52281627  1
  La3+  La81  1  0.24991016  0.16616811  0.00787372  1
  La3+  La82  1  0.24969275  0.12752511  0.21632475  1
  La3+  La83  1  0.75064927  0.16388695  0.01048725  1
  Ru4+  Ru84  1  -0.00203907  0.01359817  0.00177687  1
  Ru4+  Ru85  1  -0.00748582  -0.00043185  0.24708441  1
  Ru4+  Ru86  1  -0.00227494  0.00789931  0.49091603  1
  Ru4+  Ru87  1  -0.00117897  0.01090742  0.75434032  1
  Ru4+  Ru88  1  -0.00664732  0.33916911  -0.00893497  1
  Ru4+  Ru89  1  -0.00177086  0.33402119  0.25487183  1
  Ru4+  Ru90  1  -0.00185628  0.32935214  0.51048619  1
  Ru4+  Ru91  1  -0.00484378  0.33551626  0.75203745  1
  Ru4+  Ru92  1  -0.00250511  0.67052821  0.00201452  1
  Ru4+  Ru93  1  0.00092617  0.66548319  0.24198650  1
  Ru4+  Ru94  1  0.00319879  0.66789403  0.50169956  1
  Ru4+  Ru95  1  0.00283191  0.66099073  0.76335149  1
  Ru4+  Ru96  1  0.50521699  0.00256664  -0.00642551  1
  Ru4+  Ru97  1  0.50267633  -0.00263456  0.25887377  1
  Ru4+  Ru98  1  0.49856738  0.00237095  0.49853125  1
  Ru4+  Ru99  1  0.49348978  0.00348729  0.74596586  1
  Ru4+  Ru100  1  0.49791301  0.32490000  -0.00169731  1
  Ru4+  Ru101  1  0.49950603  0.32633284  0.25003687  1
  Ru4+  Ru102  1  0.50072302  0.33065026  0.49897840  1
  Ru4+  Ru103  1  0.50035234  0.33418507  0.75529015  1
  Ru4+  Ru104  1  0.50098225  0.67873797  -0.00060025  1
  Ru4+  Ru105  1  0.49849568  0.66938913  0.24336966  1
  Ru4+  Ru106  1  0.50092370  0.66236280  0.49394475  1
  Ru4+  Ru107  1  0.50081041  0.66652620  0.75449042  1
  Ru4+  Ru108  1  0.11132235  0.16554993  0.00021897  1
  Ru4+  Ru109  1  0.11342716  0.17405881  0.24908348  1
  Ru4+  Ru110  1  0.11458766  0.16320276  0.50219433  1
  Ru4+  Ru111  1  0.11114808  0.16139047  0.74812373  1
  Ru4+  Ru112  1  0.11544099  0.48991312  -0.00255428  1
  Ru4+  Ru113  1  0.11589204  0.49512151  0.25212027  1
  Ru4+  Ru114  1  0.11131953  0.50184972  0.50073878  1
  Ru4+  Ru115  1  0.11011683  0.50289709  0.75129750  1
  Ru4+  Ru116  1  0.11355542  0.83110019  0.00095134  1
  Ru4+  Ru117  1  0.11650550  0.83395976  0.24788062  1
  Ru4+  Ru118  1  0.11233646  0.82514623  0.50356120  1
  Ru4+  Ru119  1  0.11353964  0.83523887  0.75004551  1
  Ru4+  Ru120  1  0.61169035  0.16458572  -0.00571396  1
  Ru4+  Ru121  1  0.61353013  0.16832330  0.25135261  1
  Ru4+  Ru122  1  0.60767809  0.16822346  0.49849563  1
  Ru4+  Ru123  1  0.61966650  0.16766055  0.75151714  1
  Ru4+  Ru124  1  0.61750294  0.49570721  -0.00020523  1
  Ru4+  Ru125  1  0.61848136  0.49895800  0.25192499  1
  Ru4+  Ru126  1  0.61116813  0.49540636  0.49859059  1
  Ru4+  Ru127  1  0.61034580  0.50112073  0.74300410  1
  Ru4+  Ru128  1  0.61669341  0.83637312  0.00323983  1
  Ru4+  Ru129  1  0.61186059  0.83016846  0.24905497  1
  Ru4+  Ru130  1  0.60848859  0.83167951  0.50011959  1
  Ru4+  Ru131  1  0.61854281  0.83039740  0.74924858  1
  Ru4+  Ru132  1  0.38876213  0.16536231  -0.00031820  1
  Ru4+  Ru133  1  0.38518379  0.17345693  0.25181506  1
  Ru4+  Ru134  1  0.38762587  0.16428951  0.50044292  1
  Ru4+  Ru135  1  0.38443440  0.16601085  0.74948456  1
  Ru4+  Ru136  1  0.38463873  0.49370699  -0.00054226  1
  Ru4+  Ru137  1  0.38407586  0.49884086  0.25163688  1
  Ru4+  Ru138  1  0.38860392  0.49790683  0.49914940  1
  Ru4+  Ru139  1  0.38456799  0.50365163  0.74934003  1
  Ru4+  Ru140  1  0.38366094  0.82988591  0.00107586  1
  Ru4+  Ru141  1  0.38546514  0.83576427  0.25127072  1
  Ru4+  Ru142  1  0.38692520  0.84105544  0.50076306  1
  Ru4+  Ru143  1  0.38455017  0.83316648  0.75134399  1
  Ru4+  Ru144  1  0.89154531  0.15883813  0.00076578  1
  Ru4+  Ru145  1  0.88510625  0.16971834  0.25112431  1
  Ru4+  Ru146  1  0.89204365  0.16582851  0.49946951  1
  Ru4+  Ru147  1  0.89245753  0.16272663  0.74822624  1
  Ru4+  Ru148  1  0.88782006  0.49320383  -0.00145881  1
  Ru4+  Ru149  1  0.88497041  0.49572090  0.25240797  1
  Ru4+  Ru150  1  0.89162364  0.49969865  0.50357153  1
  Ru4+  Ru151  1  0.89372295  0.49836316  0.75122021  1
  Ru4+  Ru152  1  0.88257783  0.83149948  0.00221530  1
  Ru4+  Ru153  1  0.88517301  0.83225392  0.24897972  1
  Ru4+  Ru154  1  0.88934746  0.83321966  0.50020281  1
  Ru4+  Ru155  1  0.88508169  0.83596402  0.74956791  1
  Ru4+  Ru156  1  0.25019182  0.24976016  0.50962898  1
  Ru4+  Ru157  1  0.75025146  0.57369506  0.47776018  1
  Ru4+  Ru158  1  0.24960699  0.91724904  0.74692906  1
  Ru4+  Ru159  1  0.75024377  0.57723582  0.01444369  1
  Ru4+  Ru160  1  0.75084725  0.60703121  0.75251872  1
  Ru4+  Ru161  1  0.74933652  0.09163708  0.49009557  1
  Ru4+  Ru162  1  0.75042530  0.02870391  0.78148497  1
  Ru4+  Ru163  1  0.25053698  0.71918470  0.49507449  1
  Ru4+  Ru164  1  0.74969931  0.74844195  -0.00219453  1
  Ru4+  Ru165  1  0.25010922  0.39685061  0.00046126  1
  Ru4+  Ru166  1  0.24946981  0.23262938  0.75354041  1
  Ru4+  Ru167  1  0.25004032  0.58747690  0.25047931  1
  Ru4+  Ru168  1  0.74962199  0.74448940  0.25603961  1
  Ru4+  Ru169  1  0.74949671  0.91212735  0.24490933  1
  Ru4+  Ru170  1  0.25051280  0.74972610  0.24863154  1
  Ru4+  Ru171  1  0.75019986  0.29531718  0.71885808  1
  Ru4+  Ru172  1  0.75013155  0.69397940  0.52910622  1
  Ru4+  Ru173  1  0.75001946  0.94744645  0.50849828  1
  Ru4+  Ru174  1  0.24974763  0.27372225  0.25837613  1
  Ru4+  Ru175  1  0.74988886  0.42400396  0.01460465  1
  Ru4+  Ru176  1  0.24970019  0.91151479  0.00131113  1
  Ru4+  Ru177  1  0.75125657  0.75944733  0.74875315  1
  Ru4+  Ru178  1  0.24985614  0.75049138  0.74549446  1
  Ru4+  Ru179  1  0.74990644  0.09907323  0.24384589  1
  O2-  O180  1  0.16805542  0.08140169  0.00027019  1
  O2-  O181  1  0.16278550  0.08051707  0.25112018  1
  O2-  O182  1  0.16366372  0.08190194  0.50432154  1
  O2-  O183  1  0.16420635  0.08069164  0.74798909  1
  O2-  O184  1  0.16879752  0.41014293  -0.00247398  1
  O2-  O185  1  0.16850852  0.41319721  0.25100088  1
  O2-  O186  1  0.16928880  0.41286054  0.49377296  1
  O2-  O187  1  0.16437288  0.41271549  0.75109732  1
  O2-  O188  1  0.16336327  0.74734569  0.00158511  1
  O2-  O189  1  0.16925227  0.74662528  0.25048076  1
  O2-  O190  1  0.17080495  0.74691554  0.50155338  1
  O2-  O191  1  0.16666890  0.74629912  0.74835720  1
  O2-  O192  1  0.67016626  0.08299573  0.00059836  1
  O2-  O193  1  0.66822670  0.08246115  0.24907698  1
  O2-  O194  1  0.66464847  0.08062820  0.50110026  1
  O2-  O195  1  0.66886487  0.07852492  0.75024534  1
  O2-  O196  1  0.66642362  0.41152230  0.00176704  1
  O2-  O197  1  0.66429088  0.41218354  0.25104590  1
  O2-  O198  1  0.66178186  0.40900250  0.49857049  1
  O2-  O199  1  0.66113575  0.41150757  0.74831025  1
  O2-  O200  1  0.66773288  0.74509462  0.00026966  1
  O2-  O201  1  0.66607406  0.74612154  0.25118254  1
  O2-  O202  1  0.66870333  0.74528304  0.49375223  1
  O2-  O203  1  0.67022880  0.74789098  0.75753409  1
  O2-  O204  1  0.33594854  0.25221937  -0.00155041  1
  O2-  O205  1  0.32996323  0.25338454  0.24985149  1
  O2-  O206  1  0.33477749  0.25439826  0.50040280  1
  O2-  O207  1  0.33259189  0.25452240  0.75243791  1
  O2-  O208  1  0.33862582  0.59013550  0.00363532  1
  O2-  O209  1  0.33337714  0.58707763  0.25193481  1
  O2-  O210  1  0.33279672  0.58738687  0.49639016  1
  O2-  O211  1  0.33418946  0.58798323  0.74736084  1
  O2-  O212  1  0.33498024  0.92080049  0.00031747  1
  O2-  O213  1  0.33360380  0.91513303  0.25290781  1
  O2-  O214  1  0.33555242  0.92395173  0.50226046  1
  O2-  O215  1  0.33296693  0.92019081  0.74666014  1
  O2-  O216  1  0.83477793  0.24918162  0.00266289  1
  O2-  O217  1  0.83249658  0.25172281  0.24952204  1
  O2-  O218  1  0.83956841  0.25696310  0.50017087  1
  O2-  O219  1  0.83138150  0.25310010  0.74824891  1
  O2-  O220  1  0.83404284  0.58520967  0.00127106  1
  O2-  O221  1  0.83605395  0.58498701  0.24980326  1
  O2-  O222  1  0.83452612  0.58445753  0.50026619  1
  O2-  O223  1  0.83571650  0.58677030  0.75053067  1
  O2-  O224  1  0.83357775  0.91673391  -0.00107075  1
  O2-  O225  1  0.83234947  0.91783661  0.25206475  1
  O2-  O226  1  0.83577318  0.92358648  0.50163345  1
  O2-  O227  1  0.83290422  0.91849080  0.75067546  1
  O2-  O228  1  0.16363129  0.25326971  -0.00239169  1
  O2-  O229  1  0.16910344  0.25303735  0.24937422  1
  O2-  O230  1  0.16926230  0.25371792  0.49847811  1
  O2-  O231  1  0.16636075  0.25193393  0.75396056  1
  O2-  O232  1  0.16112464  0.58979083  0.00281115  1
  O2-  O233  1  0.16629859  0.58633014  0.24814538  1
  O2-  O234  1  0.16486472  0.58483036  0.49842241  1
  O2-  O235  1  0.16828973  0.58708830  0.74647706  1
  O2-  O236  1  0.16417526  0.92135020  0.00026269  1
  O2-  O237  1  0.16426130  0.91775907  0.25121380  1
  O2-  O238  1  0.16335110  0.91995815  0.50483994  1
  O2-  O239  1  0.16533204  0.92021817  0.74765367  1
  O2-  O240  1  0.66937447  0.25030776  -0.00076715  1
  O2-  O241  1  0.66332022  0.25269613  0.25074805  1
  O2-  O242  1  0.65807919  0.25772028  0.49759713  1
  O2-  O243  1  0.66706630  0.25706156  0.75073645  1
  O2-  O244  1  0.66775173  0.58416052  0.00124467  1
  O2-  O245  1  0.66513804  0.58790453  0.25091881  1
  O2-  O246  1  0.66824681  0.58295984  0.49777961  1
  O2-  O247  1  0.66886574  0.58518244  0.75650412  1
  O2-  O248  1  0.66771183  0.91782673  0.00174969  1
  O2-  O249  1  0.66567799  0.91901323  0.25018145  1
  O2-  O250  1  0.66393434  0.92148898  0.50431248  1
  O2-  O251  1  0.66535765  0.91869329  0.75095584  1
  O2-  O252  1  0.33000977  0.08334054  -0.00195096  1
  O2-  O253  1  0.33573258  0.08125971  0.25103010  1
  O2-  O254  1  0.33667408  0.08080614  0.50426257  1
  O2-  O255  1  0.33423795  0.07952079  0.74774331  1
  O2-  O256  1  0.33211458  0.41068010  -0.00171559  1
  O2-  O257  1  0.33402223  0.41335592  0.25261880  1
  O2-  O258  1  0.33473287  0.41326288  0.49757383  1
  O2-  O259  1  0.33328496  0.41128977  0.74907411  1
  O2-  O260  1  0.33312449  0.74789077  0.00248795  1
  O2-  O261  1  0.33259498  0.74617235  0.25095915  1
  O2-  O262  1  0.33238502  0.74616043  0.49737306  1
  O2-  O263  1  0.33239113  0.74705509  0.74747282  1
  O2-  O264  1  0.82770298  0.08561764  -0.00167158  1
  O2-  O265  1  0.83188042  0.08209009  0.25068406  1
  O2-  O266  1  0.83533769  0.08159021  0.50079196  1
  O2-  O267  1  0.83226935  0.08082883  0.75272648  1
  O2-  O268  1  0.83074046  0.41445374  0.00482502  1
  O2-  O269  1  0.83151956  0.41430519  0.24812183  1
  O2-  O270  1  0.83946467  0.41093017  0.49686566  1
  O2-  O271  1  0.83753225  0.41208670  0.74713348  1
  O2-  O272  1  0.83265436  0.74494632  -0.00084521  1
  O2-  O273  1  0.83184141  0.74502337  0.25088527  1
  O2-  O274  1  0.83353654  0.74329304  0.50250010  1
  O2-  O275  1  0.83458916  0.74666754  0.75019733  1
  O2-  O276  1  0.94783770  0.56763042  0.01094000  1
  O2-  O277  1  0.53773028  0.78337197  0.45626732  1
  O2-  O278  1  0.05018612  0.56591240  0.25616133  1
  O2-  O279  1  0.45474333  0.89897127  0.98497571  1
  O2-  O280  1  0.46185601  0.11345929  0.96533390  1
  O2-  O281  1  0.04632808  0.22633861  0.46689418  1
  O2-  O282  1  0.55070416  0.23869377  0.72894408  1
  O2-  O283  1  0.53942360  0.57013360  0.79575025  1
  O2-  O284  1  0.05106867  0.57718380  0.01120927  1
  O2-  O285  1  0.04644315  0.90417543  0.25379225  1
  O2-  O286  1  0.54204836  0.89965404  0.73828592  1
  O2-  O287  1  0.54848621  0.09253851  0.73264417  1
  O2-  O288  1  0.44950325  0.56619552  0.98722639  1
  O2-  O289  1  0.45394954  0.42900103  0.24189355  1
  O2-  O290  1  0.54894140  0.23686760  0.99029822  1
  O2-  O291  1  0.54608349  0.42842682  0.00555970  1
  O2-  O292  1  0.54949415  0.42808347  0.76603292  1
  O2-  O293  1  0.03026695  0.77297999  0.54916820  1
  O2-  O294  1  0.96784638  0.21870674  0.75631988  1
  O2-  O295  1  0.45012042  0.10497298  0.23284190  1
  O2-  O296  1  0.54854614  0.56600037  0.98767534  1
  O2-  O297  1  0.54356545  0.12106773  0.21488388  1
  O2-  O298  1  0.04491427  0.09259962  0.22937142  1
  O2-  O299  1  0.44798212  0.43450267  0.76761032  1
  O2-  O300  1  0.04593129  0.76527622  0.75532145  1
  O2-  O301  1  0.04448894  0.55122437  0.98582290  1
  O2-  O302  1  0.03998227  0.44179756  0.46924253  1
  O2-  O303  1  0.04781093  0.09476942  0.73746902  1
  O2-  O304  1  0.53612641  0.54914359  0.50839582  1
  O2-  O305  1  0.44712805  0.56765761  0.48694456  1
  O2-  O306  1  0.54776889  0.24488939  0.76737410  1
  O2-  O307  1  0.95382028  0.90825939  0.98104288  1
  O2-  O308  1  0.54511542  0.89493771  0.24032699  1
  O2-  O309  1  0.44788906  0.76741936  0.51382308  1
  O2-  O310  1  0.96299791  0.43666511  0.21404190  1
  O2-  O311  1  0.55019005  0.57023099  0.24790544  1
  O2-  O312  1  0.05395601  0.90342216  0.48645276  1
  O2-  O313  1  0.94998932  0.57176033  0.24086957  1
  O2-  O314  1  0.05202170  0.09807676  0.26671844  1
  O2-  O315  1  0.04300240  0.91314701  0.52043308  1
  O2-  O316  1  0.95413752  0.43504604  0.75884235  1
  O2-  O317  1  0.55467018  0.09973453  0.76977913  1
  O2-  O318  1  0.97254103  0.13592796  -0.01341206  1
  O2-  O319  1  0.45006374  0.56993123  0.26376939  1
  O2-  O320  1  0.44933220  0.09791502  0.73802211  1
  O2-  O321  1  0.95025378  0.23930029  0.48668069  1
  O2-  O322  1  0.95290386  0.76418839  0.99002945  1
  O2-  O323  1  0.95220926  0.89817854  0.01845710  1
  O2-  O324  1  0.93536980  0.91987094  0.22408380  1
  O2-  O325  1  0.56873382  0.05054572  0.31459252  1
  O2-  O326  1  0.43707768  0.92680443  0.78368032  1
  O2-  O327  1  0.58178556  0.58474347  0.66938411  1
  O2-  O328  1  0.56188959  0.59406697  0.97471996  1
  O2-  O329  1  0.43789315  0.73561331  0.52360607  1
  O2-  O330  1  0.56300977  0.74850304  0.72541992  1
  O2-  O331  1  0.93619361  0.08123183  0.22314264  1
  O2-  O332  1  0.06070674  0.26359761  0.21397074  1
  O2-  O333  1  0.56962207  0.08399737  0.92890118  1
  O2-  O334  1  0.93732876  0.73909471  0.28265591  1
  O2-  O335  1  0.06208824  0.40375749  0.28715258  1
  O2-  O336  1  0.43992675  0.40373030  0.78422420  1
  O2-  O337  1  0.56347839  0.92100530  0.97320619  1
  O2-  O338  1  0.56252663  0.91746925  0.72634232  1
  O2-  O339  1  0.56376980  0.40162571  0.46544310  1
  O2-  O340  1  0.42023366  0.06437923  0.05868114  1
  O2-  O341  1  0.43674547  0.74132569  0.78349660  1
  O2-  O342  1  0.93867030  0.39844331  0.07447653  1
  O2-  O343  1  0.06450461  0.07116374  0.03353209  1
  O2-  O344  1  0.56209223  0.57531567  0.81159122  1
  O2-  O345  1  0.07839547  0.72790307  0.44910560  1
  O2-  O346  1  0.07035083  0.40304947  0.54312773  1
  O2-  O347  1  0.43752330  0.74746541  0.22627916  1
  O2-  O348  1  0.56861738  0.08500319  0.06636832  1
  O2-  O349  1  0.93352312  0.07118352  0.71498356  1
  O2-  O350  1  0.07148752  0.26339727  0.54067892  1
  O2-  O351  1  0.43766616  0.74229209  0.96404008  1
  O2-  O352  1  0.57714775  0.60654006  0.52254050  1
  O2-  O353  1  0.56056015  0.25384401  0.97886799  1
  O2-  O354  1  0.91707932  0.04586330  0.03279590  1
  O2-  O355  1  0.56480759  0.74898213  0.97409031  1
  O2-  O356  1  0.93952136  0.59578686  0.53272189  1
  O2-  O357  1  0.92240728  0.27367069  0.77852342  1
  O2-  O358  1  0.43512796  0.25842932  0.27911031  1
  O2-  O359  1  0.94099556  0.25345328  0.27978156  1
  O2-  O360  1  0.93064180  0.41830664  0.93393988  1
  O2-  O361  1  0.93815932  0.92358485  0.77474131  1
  O2-  O362  1  0.43934438  0.07486177  0.21965528  1
  O2-  O363  1  0.06428024  0.59025805  0.76925880  1
  O2-  O364  1  0.43636333  0.93055995  0.28350807  1
  O2-  O365  1  0.93445405  0.73776827  0.46546655  1
  O2-  O366  1  0.93924203  0.40134540  0.53092579  1
  O2-  O367  1  0.44143928  0.59487403  0.96709650  1
  O2-  O368  1  0.93016705  0.39408902  0.32265178  1
  O2-  O369  1  0.58031212  0.74334196  0.55999806  1
  O2-  O370  1  0.06378997  0.74535808  0.22959791  1
  O2-  O371  1  0.56793916  0.25929846  0.04013174  1
  O2-  O372  1  0.75101144  0.00865640  0.41190864  1
  O2-  O373  1  0.25034623  0.00092515  0.32982836  1
  O2-  O374  1  0.74956778  0.33060182  0.94503920  1
  O2-  O375  1  0.74904390  0.00500245  0.30215531  1
  O2-  O376  1  0.74942684  0.33359877  0.60170623  1
  O2-  O377  1  0.74946790  0.00394052  0.15550800  1
  O2-  O378  1  0.25034517  -0.00364884  0.42154413  1
  O2-  O379  1  0.74961800  0.67141459  0.38844792  1
  O2-  O380  1  0.25023325  0.66887602  0.34926810  1
  O2-  O381  1  0.24945740  -0.00219340  0.16937809  1
  O2-  O382  1  0.25062458  0.32846490  0.59698198  1
  O2-  O383  1  0.74972711  0.02721556  0.59932619  1
  O2-  O384  1  0.74954926  0.33709597  0.82721625  1
  O2-  O385  1  0.74969326  0.66466636  0.90384737  1
  O2-  O386  1  0.75188465  0.67585175  0.65081783  1
  O2-  O387  1  0.24994528  0.66791475  0.60364653  1
  O2-  O388  1  0.25002977  0.00123357  0.82760652  1
  O2-  O389  1  0.24924824  0.32463382  0.10186391  1
  O2-  O390  1  0.24977238  0.00286749  0.92138937  1
  O2-  O391  1  0.24950176  0.00707599  0.07752045  1
  O2-  O392  1  0.25057528  0.67387713  0.91829730  1
  O2-  O393  1  0.75024160  -0.02339505  0.67341968  1
  O2-  O394  1  0.75018023  0.00813087  0.89788450  1
  O2-  O395  1  0.25045432  0.66067685  0.82765197  1
  O2-  O396  1  0.74995700  0.83358973  0.34413766  1
  O2-  O397  1  0.74971686  0.82422145  0.17701765  1
  O2-  O398  1  0.75022890  0.82784475  0.65854737  1
  O2-  O399  1  0.24978758  0.83489259  0.17036498  1
  O2-  O400  1  0.74986621  0.50108206  0.12062960  1
  O2-  O401  1  0.75018287  0.51870622  0.64262826  1
  O2-  O402  1  0.25025934  0.82858165  0.91928771  1
  O2-  O403  1  0.24992565  0.48940934  0.10242220  1
  O2-  O404  1  0.24982327  0.17940377  0.87037433  1
  O2-  O405  1  0.25000805  0.47771633  0.86483998  1
  O2-  O406  1  0.74986311  0.16888392  0.15364276  1
  O2-  O407  1  0.74991102  0.50473304  0.38519908  1
  O2-  O408  1  0.24994670  0.83555704  0.65341908  1
  O2-  O409  1  0.24997874  0.82722988  0.08285467  1
  O2-  O410  1  0.24993923  0.83355174  0.82966324  1
  O2-  O411  1  0.25020771  0.49348865  0.19027176  1
  O2-  O412  1  0.75019386  0.50240449  0.91607815  1
  O2-  O413  1  0.74972528  0.16638758  0.64853000  1
  O2-  O414  1  0.25002844  0.17885246  0.34661195  1
  O2-  O415  1  0.24999000  0.49982059  0.59698228  1
  O2-  O416  1  0.75022053  0.83603050  0.05407616  1
  O2-  O417  1  0.74988396  0.15537922  0.37861150  1
  O2-  O418  1  0.25002640  0.16355677  0.43656407  1
  O2-  O419  1  0.25005637  0.17302792  0.66277475  1
  O2-  O420  1  0.01930976  0.65825510  0.36716556  1
  O2-  O421  1  0.02032658  0.33374742  0.64341747  1
  O2-  O422  1  0.51612039  0.67313227  0.62101915  1
  O2-  O423  1  0.95325710  0.66520241  0.86514493  1
  O2-  O424  1  0.95358158  0.67264792  0.12456583  1
  O2-  O425  1  0.54647012  0.67259028  0.12818741  1
  O2-  O426  1  0.47409460  0.67057398  0.37201552  1
  O2-  O427  1  0.51867103  -0.01045273  0.86479391  1
  O2-  O428  1  0.53072479  -0.01395376  0.12769424  1
  O2-  O429  1  0.04278674  0.67835248  0.89132633  1
  O2-  O430  1  0.98838714  0.32220891  0.87866070  1
  O2-  O431  1  0.52434101  0.00151640  0.61672163  1
  O2-  O432  1  0.98801884  -0.00695114  0.12301507  1
  O2-  O433  1  0.54459454  0.34350466  0.14979137  1
  O2-  O434  1  0.45312416  0.32828715  0.11616445  1
  O2-  O435  1  0.45954594  0.65935411  0.64281718  1
  O2-  O436  1  0.97910812  0.00766081  0.87971506  1
  O2-  O437  1  0.04527864  0.00323908  0.38358283  1
  O2-  O438  1  0.47259002  -0.02111713  0.12737061  1
  O2-  O439  1  0.04203805  0.66618209  0.11749139  1
  O2-  O440  1  0.51762457  0.68374092  0.87374638  1
  O2-  O441  1  0.95425206  0.00123445  0.37897961  1
  O2-  O442  1  0.47528795  0.33841868  0.37982069  1
  O2-  O443  1  0.45747047  0.65553541  0.11173933  1
