# generated using pymatgen
data_La7(Ru4O11)2
_symmetry_space_group_name_H-M   'P 1'
_cell_length_a   23.98972510
_cell_length_b   16.82959613
_cell_length_c   15.42653022
_cell_angle_alpha   90.00076924
_cell_angle_beta   90.00042563
_cell_angle_gamma   89.99930462
_symmetry_Int_Tables_number   1
_chemical_formula_structural   La7(Ru4O11)2
_chemical_formula_sum   'La84 Ru96 O264'
_cell_volume   6228.26696557
_cell_formula_units_Z   12
loop_
 _symmetry_equiv_pos_site_id
 _symmetry_equiv_pos_as_xyz
  1  'x, y, z'
loop_
 _atom_type_symbol
 _atom_type_oxidation_number
  La3+  3.0
  Ru4+  4.0
  O2-  -2.0
loop_
 _atom_site_type_symbol
 _atom_site_label
 _atom_site_symmetry_multiplicity
 _atom_site_fract_x
 _atom_site_fract_y
 _atom_site_fract_z
 _atom_site_occupancy
  La3+  La0  1  0.13829413  -0.00044667  0.12544152  1
  La3+  La1  1  0.13900579  -0.00131089  0.37379309  1
  La3+  La2  1  0.14006055  0.00038095  0.62490798  1
  La3+  La3  1  0.14120800  0.00022451  0.87661083  1
  La3+  La4  1  0.13788438  0.33227302  0.12670386  1
  La3+  La5  1  0.13991798  0.33440933  0.37450031  1
  La3+  La6  1  0.14048396  0.33376315  0.62335126  1
  La3+  La7  1  0.13912655  0.33205117  0.87573439  1
  La3+  La8  1  0.14127016  0.66788681  0.12412469  1
  La3+  La9  1  0.13867184  0.66765357  0.37288787  1
  La3+  La10  1  0.13753919  0.66676943  0.62553890  1
  La3+  La11  1  0.13951784  0.66692848  0.87727942  1
  La3+  La12  1  0.63646087  -0.00050566  0.12326309  1
  La3+  La13  1  0.63879167  0.00091783  0.37717041  1
  La3+  La14  1  0.63800595  0.00146915  0.62514297  1
  La3+  La15  1  0.64001728  -0.00056074  0.87525079  1
  La3+  La16  1  0.63700911  0.33438627  0.12768762  1
  La3+  La17  1  0.63906917  0.33368986  0.37433185  1
  La3+  La18  1  0.63836120  0.33292414  0.62180046  1
  La3+  La19  1  0.63841828  0.33310079  0.87716531  1
  La3+  La20  1  0.63677203  0.66565112  0.12439333  1
  La3+  La21  1  0.63588662  0.66659740  0.37533787  1
  La3+  La22  1  0.63787866  0.66628458  0.62594510  1
  La3+  La23  1  0.63675539  0.66709565  0.87525058  1
  La3+  La24  1  0.36125223  -0.00173022  0.12324751  1
  La3+  La25  1  0.35927145  -0.00087876  0.37448374  1
  La3+  La26  1  0.36027305  0.00042180  0.62638797  1
  La3+  La27  1  0.35876257  -0.00061484  0.87581922  1
  La3+  La28  1  0.36085759  0.33385993  0.12495948  1
  La3+  La29  1  0.35949934  0.33460702  0.37598932  1
  La3+  La30  1  0.36033084  0.33379503  0.62360298  1
  La3+  La31  1  0.35997570  0.33219779  0.87717576  1
  La3+  La32  1  0.35995582  0.66811289  0.12420778  1
  La3+  La33  1  0.36152825  0.66680353  0.37336020  1
  La3+  La34  1  0.36008745  0.66622524  0.62539946  1
  La3+  La35  1  0.36216537  0.66756528  0.87711341  1
  La3+  La36  1  0.86554387  0.00217443  0.11983118  1
  La3+  La37  1  0.86118429  0.00004519  0.37675880  1
  La3+  La38  1  0.86171814  0.00040720  0.62589927  1
  La3+  La39  1  0.86410416  0.00204037  0.87789237  1
  La3+  La40  1  0.86101944  0.33279670  0.12773354  1
  La3+  La41  1  0.86029294  0.33178484  0.37262407  1
  La3+  La42  1  0.86092400  0.33375242  0.62422186  1
  La3+  La43  1  0.86235245  0.33310965  0.87709949  1
  La3+  La44  1  0.86274051  0.66684046  0.12431704  1
  La3+  La45  1  0.86198534  0.66696386  0.37465817  1
  La3+  La46  1  0.86215959  0.66773230  0.62559055  1
  La3+  La47  1  0.86214222  0.66643360  0.87670447  1
  La3+  La48  1  0.50042526  0.16688203  0.11820748  1
  La3+  La49  1  -0.00210947  0.50397060  0.11391350  1
  La3+  La50  1  -0.00126741  0.83479407  0.61565490  1
  La3+  La51  1  0.49953534  0.83514333  0.86654938  1
  La3+  La52  1  0.50386111  0.50329430  0.38492202  1
  La3+  La53  1  0.00310307  0.49674809  0.13328113  1
  La3+  La54  1  -0.00035838  0.16736077  0.11766178  1
  La3+  La55  1  0.00132995  0.50025032  0.36120016  1
  La3+  La56  1  -0.00065662  0.49967058  0.88475936  1
  La3+  La57  1  0.49994203  0.16872777  0.88416772  1
  La3+  La58  1  0.00014759  0.16734319  0.61569591  1
  La3+  La59  1  0.50095021  0.50039840  0.63504832  1
  La3+  La60  1  0.00207697  0.16808356  0.36327557  1
  La3+  La61  1  0.49600325  0.50088516  0.36618074  1
  La3+  La62  1  -0.00085040  0.49911735  0.64613615  1
  La3+  La63  1  -0.00166428  0.50088489  0.38324486  1
  La3+  La64  1  -0.00089345  0.49739395  0.62398726  1
  La3+  La65  1  0.50196341  0.16170810  0.62868122  1
  La3+  La66  1  0.00091754  0.83201750  0.36610479  1
  La3+  La67  1  0.50052373  0.16767187  0.38486862  1
  La3+  La68  1  -0.00230606  0.16337994  0.88824612  1
  La3+  La69  1  0.50173387  0.83544525  0.37361308  1
  La3+  La70  1  0.50079096  0.16634258  0.86742231  1
  La3+  La71  1  -0.00005372  0.16787787  0.63335424  1
  La3+  La72  1  0.74993852  0.46699691  0.00265262  1
  La3+  La73  1  0.25018899  0.53060558  0.00090845  1
  La3+  La74  1  0.24981055  0.13212431  0.22700281  1
  La3+  La75  1  0.25044767  0.19884278  0.50265758  1
  La3+  La76  1  0.24981422  0.83519320  0.27981853  1
  La3+  La77  1  0.74982167  0.16733576  0.49877406  1
  La3+  La78  1  0.75068381  0.50234774  0.73343111  1
  La3+  La79  1  0.25018276  0.86401089  0.72643190  1
  La3+  La80  1  0.74986622  0.83756475  0.28504702  1
  La3+  La81  1  0.75006908  0.86837511  0.52987735  1
  La3+  La82  1  0.75014862  0.45639641  0.49283676  1
  La3+  La83  1  0.74997754  0.19738381  -0.03191529  1
  Ru4+  Ru84  1  0.00077760  -0.00154560  0.00288537  1
  Ru4+  Ru85  1  0.00081860  -0.00150031  0.24803071  1
  Ru4+  Ru86  1  -0.00139208  -0.00247534  0.50006095  1
  Ru4+  Ru87  1  -0.00150428  -0.00059471  0.75279852  1
  Ru4+  Ru88  1  -0.00131836  0.33068963  -0.00129766  1
  Ru4+  Ru89  1  -0.00350439  0.33377256  0.24964056  1
  Ru4+  Ru90  1  0.00190372  0.33232857  0.50129957  1
  Ru4+  Ru91  1  -0.00005043  0.33250048  0.75044615  1
  Ru4+  Ru92  1  -0.00032158  0.66801120  0.00128588  1
  Ru4+  Ru93  1  0.00292936  0.67087510  0.25057508  1
  Ru4+  Ru94  1  -0.00123588  0.67352842  0.50047041  1
  Ru4+  Ru95  1  -0.00069425  0.66338277  0.74508616  1
  Ru4+  Ru96  1  0.50094354  -0.00349361  0.00104172  1
  Ru4+  Ru97  1  0.50043198  0.00139351  0.24892827  1
  Ru4+  Ru98  1  0.50135185  0.00239783  0.50340374  1
  Ru4+  Ru99  1  0.49858512  -0.00277696  0.74927352  1
  Ru4+  Ru100  1  0.49899931  0.33533339  0.00008734  1
  Ru4+  Ru101  1  0.49861046  0.32690554  0.24879802  1
  Ru4+  Ru102  1  0.50134769  0.33126270  0.49993154  1
  Ru4+  Ru103  1  0.50047482  0.33769421  0.75203796  1
  Ru4+  Ru104  1  0.49962693  0.66456965  0.00132899  1
  Ru4+  Ru105  1  0.49849698  0.67022926  0.24778991  1
  Ru4+  Ru106  1  0.50233698  0.66432490  0.49849863  1
  Ru4+  Ru107  1  0.50125027  0.67038779  0.75182256  1
  Ru4+  Ru108  1  0.11522659  0.16630838  -0.00047679  1
  Ru4+  Ru109  1  0.11392161  0.16197226  0.25072249  1
  Ru4+  Ru110  1  0.11339336  0.16773351  0.49968611  1
  Ru4+  Ru111  1  0.11333500  0.16622009  0.74917654  1
  Ru4+  Ru112  1  0.11259489  0.50227894  -0.00030674  1
  Ru4+  Ru113  1  0.11528850  0.49921315  0.25016368  1
  Ru4+  Ru114  1  0.11663500  0.49882941  0.49930607  1
  Ru4+  Ru115  1  0.11274324  0.49950214  0.75041770  1
  Ru4+  Ru116  1  0.11554127  0.83369416  0.00026235  1
  Ru4+  Ru117  1  0.11131657  0.83335016  0.24986407  1
  Ru4+  Ru118  1  0.11358738  0.83454935  0.49998989  1
  Ru4+  Ru119  1  0.11247875  0.83464917  0.74999667  1
  Ru4+  Ru120  1  0.61061642  0.16733892  -0.00010296  1
  Ru4+  Ru121  1  0.61283413  0.16794547  0.24995352  1
  Ru4+  Ru122  1  0.61202138  0.16682935  0.50015504  1
  Ru4+  Ru123  1  0.61464230  0.16329717  0.74869834  1
  Ru4+  Ru124  1  0.61123846  0.50080839  0.00086922  1
  Ru4+  Ru125  1  0.61598277  0.50086477  0.24876907  1
  Ru4+  Ru126  1  0.61195354  0.49871434  0.50048048  1
  Ru4+  Ru127  1  0.61080997  0.50021298  0.74908133  1
  Ru4+  Ru128  1  0.61354012  0.83545541  -0.00093339  1
  Ru4+  Ru129  1  0.61016976  0.83366288  0.25020778  1
  Ru4+  Ru130  1  0.61161067  0.83411124  0.50021329  1
  Ru4+  Ru131  1  0.61207214  0.83384028  0.75034939  1
  Ru4+  Ru132  1  0.38431609  0.16793809  0.00109008  1
  Ru4+  Ru133  1  0.38873573  0.16521648  0.25001632  1
  Ru4+  Ru134  1  0.38894531  0.16667509  0.50030783  1
  Ru4+  Ru135  1  0.38474822  0.16472050  0.75023635  1
  Ru4+  Ru136  1  0.39029815  0.49934424  0.00046877  1
  Ru4+  Ru137  1  0.38459750  0.49898338  0.24876957  1
  Ru4+  Ru138  1  0.38546740  0.50014587  0.50100440  1
  Ru4+  Ru139  1  0.38567578  0.49970727  0.75079482  1
  Ru4+  Ru140  1  0.38576727  0.83484827  0.00062684  1
  Ru4+  Ru141  1  0.38844200  0.83161232  0.24918372  1
  Ru4+  Ru142  1  0.38274111  0.83573155  0.50052408  1
  Ru4+  Ru143  1  0.38906198  0.83473626  0.75040505  1
  Ru4+  Ru144  1  0.88935181  0.16686886  0.00058486  1
  Ru4+  Ru145  1  0.88760643  0.17009800  0.24931395  1
  Ru4+  Ru146  1  0.88653824  0.16614847  0.50055753  1
  Ru4+  Ru147  1  0.88772162  0.16453383  0.75068867  1
  Ru4+  Ru148  1  0.88817669  0.49920555  -0.00152191  1
  Ru4+  Ru149  1  0.88438581  0.49724188  0.25013130  1
  Ru4+  Ru150  1  0.88579600  0.50044242  0.50000322  1
  Ru4+  Ru151  1  0.88986081  0.50005671  0.75068199  1
  Ru4+  Ru152  1  0.88866338  0.83705806  0.00070425  1
  Ru4+  Ru153  1  0.88994293  0.83405862  0.25015759  1
  Ru4+  Ru154  1  0.88944907  0.83401454  0.50034895  1
  Ru4+  Ru155  1  0.88814251  0.83564067  0.75155780  1
  Ru4+  Ru156  1  0.75029745  0.24352380  0.75415990  1
  Ru4+  Ru157  1  0.25011175  0.26658370  0.24896596  1
  Ru4+  Ru158  1  0.24983761  0.74779796  0.50016639  1
  Ru4+  Ru159  1  0.74999637  0.37952905  0.74539691  1
  Ru4+  Ru160  1  0.75015709  0.95470782  0.22203945  1
  Ru4+  Ru161  1  0.75004468  0.57273007  0.25056207  1
  Ru4+  Ru162  1  0.24990166  0.72629173  0.75504697  1
  Ru4+  Ru163  1  0.74986551  0.59746631  0.49301222  1
  Ru4+  Ru164  1  0.74988473  0.71306918  0.24348284  1
  Ru4+  Ru165  1  0.24984087  0.58232540  0.24825207  1
  Ru4+  Ru166  1  0.24956534  0.58023418  0.74872422  1
  Ru4+  Ru167  1  0.75001802  0.08414328  0.24554730  1
  Ru4+  Ru168  1  0.74989900  0.91330191  0.75022216  1
  Ru4+  Ru169  1  0.74944327  0.06108308  0.00494567  1
  Ru4+  Ru170  1  0.25001398  0.58522923  0.49847974  1
  Ru4+  Ru171  1  0.74995288  0.62821017  0.72983099  1
  Ru4+  Ru172  1  0.74996231  0.73559083  0.49342872  1
  Ru4+  Ru173  1  0.25018755  0.24619266  0.75236915  1
  Ru4+  Ru174  1  0.75011334  0.76295867  0.74576321  1
  Ru4+  Ru175  1  0.75002038  0.60111716  0.01551515  1
  Ru4+  Ru176  1  0.25008592  0.42017766  0.75096664  1
  Ru4+  Ru177  1  0.25001616  0.39160383  0.00335787  1
  Ru4+  Ru178  1  0.74993230  0.75527073  0.00091207  1
  Ru4+  Ru179  1  0.25053962  0.06100840  0.48835871  1
  O2-  O180  1  0.16657662  0.08177415  0.00119851  1
  O2-  O181  1  0.16535946  0.08036087  0.24975558  1
  O2-  O182  1  0.16816967  0.08074703  0.50012472  1
  O2-  O183  1  0.16645705  0.08157173  0.74997485  1
  O2-  O184  1  0.16669302  0.41308390  0.00014886  1
  O2-  O185  1  0.16734691  0.41506418  0.24941852  1
  O2-  O186  1  0.16613737  0.41541228  0.50066945  1
  O2-  O187  1  0.16708401  0.41403754  0.75023691  1
  O2-  O188  1  0.16489857  0.74940370  -0.00135260  1
  O2-  O189  1  0.16884875  0.74821581  0.25027024  1
  O2-  O190  1  0.16848281  0.74824174  0.50034128  1
  O2-  O191  1  0.16801668  0.74571492  0.74905906  1
  O2-  O192  1  0.66677599  0.07931009  0.00053891  1
  O2-  O193  1  0.66640441  0.08029944  0.24998508  1
  O2-  O194  1  0.66719759  0.08047036  0.50059845  1
  O2-  O195  1  0.66714333  0.08137059  0.74976549  1
  O2-  O196  1  0.66486069  0.41295398  0.00001102  1
  O2-  O197  1  0.66654983  0.41492687  0.24898487  1
  O2-  O198  1  0.66558476  0.41219733  0.50137690  1
  O2-  O199  1  0.66485722  0.41210893  0.75092544  1
  O2-  O200  1  0.66645571  0.74730388  0.00012328  1
  O2-  O201  1  0.66559747  0.74551501  0.24995803  1
  O2-  O202  1  0.66752386  0.74622137  0.49913930  1
  O2-  O203  1  0.66758759  0.74692972  0.75011512  1
  O2-  O204  1  0.33395594  0.25107159  0.00100069  1
  O2-  O205  1  0.33358409  0.25371576  0.24971595  1
  O2-  O206  1  0.33479298  0.25319513  0.50000993  1
  O2-  O207  1  0.33182497  0.25251435  0.74920066  1
  O2-  O208  1  0.33431219  0.58559289  -0.00195002  1
  O2-  O209  1  0.33222955  0.58548119  0.24986185  1
  O2-  O210  1  0.33216562  0.58632350  0.50034615  1
  O2-  O211  1  0.33238495  0.58492631  0.75019410  1
  O2-  O212  1  0.33260645  0.91770180  0.00031613  1
  O2-  O213  1  0.33343393  0.91850538  0.24976652  1
  O2-  O214  1  0.33175278  0.91832391  0.49884492  1
  O2-  O215  1  0.33356875  0.91959722  0.75029357  1
  O2-  O216  1  0.83513865  0.25315963  0.00116290  1
  O2-  O217  1  0.83241187  0.25202619  0.24830211  1
  O2-  O218  1  0.83149923  0.25253683  0.50041911  1
  O2-  O219  1  0.83336649  0.25336514  0.74993534  1
  O2-  O220  1  0.83250246  0.58741341  0.00122786  1
  O2-  O221  1  0.83278529  0.58680084  0.24979066  1
  O2-  O222  1  0.83270033  0.58733289  0.49960490  1
  O2-  O223  1  0.83406876  0.58878603  0.74975664  1
  O2-  O224  1  0.83349845  0.91894593  0.00052314  1
  O2-  O225  1  0.83420097  0.92083719  0.24976831  1
  O2-  O226  1  0.83404940  0.92091072  0.50043755  1
  O2-  O227  1  0.83194765  0.91920710  0.74876904  1
  O2-  O228  1  0.16637765  0.25213571  0.00079726  1
  O2-  O229  1  0.16699271  0.25376829  0.24974836  1
  O2-  O230  1  0.16573685  0.25362564  0.50041453  1
  O2-  O231  1  0.16714560  0.25285733  0.74975842  1
  O2-  O232  1  0.16745097  0.58560477  -0.00160806  1
  O2-  O233  1  0.16864643  0.58599918  0.24950798  1
  O2-  O234  1  0.16871055  0.58629711  0.50132793  1
  O2-  O235  1  0.16909978  0.58664512  0.74964826  1
  O2-  O236  1  0.16740676  0.91761376  0.00002994  1
  O2-  O237  1  0.16817575  0.91839704  0.24850876  1
  O2-  O238  1  0.16662472  0.91805989  0.49994788  1
  O2-  O239  1  0.16468604  0.91963464  0.75097017  1
  O2-  O240  1  0.66569059  0.25474006  0.00101216  1
  O2-  O241  1  0.66651340  0.25186775  0.24891443  1
  O2-  O242  1  0.66796986  0.25284478  0.50095658  1
  O2-  O243  1  0.66726008  0.25301983  0.75112038  1
  O2-  O244  1  0.66740602  0.58754908  -0.00027712  1
  O2-  O245  1  0.66693928  0.58546856  0.25000446  1
  O2-  O246  1  0.66644595  0.58709299  0.49989044  1
  O2-  O247  1  0.66656101  0.58832274  0.75119012  1
  O2-  O248  1  0.66732907  0.91839098  0.00100900  1
  O2-  O249  1  0.66548920  0.92075409  0.24974670  1
  O2-  O250  1  0.66535825  0.91968945  0.50033305  1
  O2-  O251  1  0.66768168  0.91897807  0.74931992  1
  O2-  O252  1  0.33198673  0.08197411  0.00070978  1
  O2-  O253  1  0.33475224  0.08044206  0.24911904  1
  O2-  O254  1  0.33210848  0.07989545  0.49906710  1
  O2-  O255  1  0.33366777  0.08246818  0.75031121  1
  O2-  O256  1  0.33298759  0.41356217  0.00097799  1
  O2-  O257  1  0.33272411  0.41534609  0.24947635  1
  O2-  O258  1  0.33363256  0.41488879  0.50032969  1
  O2-  O259  1  0.33191332  0.41504962  0.74961312  1
  O2-  O260  1  0.33509022  0.74880117  -0.00136809  1
  O2-  O261  1  0.33087903  0.74696806  0.25139585  1
  O2-  O262  1  0.33100154  0.74863600  0.49983714  1
  O2-  O263  1  0.33312264  0.74580974  0.74981039  1
  O2-  O264  1  0.83173786  0.07892699  0.00003157  1
  O2-  O265  1  0.83346534  0.08006523  0.24964101  1
  O2-  O266  1  0.83314317  0.07961955  0.50148511  1
  O2-  O267  1  0.83383153  0.08012229  0.74927428  1
  O2-  O268  1  0.83343251  0.41278966  0.00181751  1
  O2-  O269  1  0.83252832  0.41465377  0.24881479  1
  O2-  O270  1  0.83544562  0.41206258  0.50102666  1
  O2-  O271  1  0.83445165  0.41172490  0.75068661  1
  O2-  O272  1  0.83298587  0.74756284  0.00034090  1
  O2-  O273  1  0.83434363  0.74576459  0.24953334  1
  O2-  O274  1  0.83330075  0.74577764  0.49971561  1
  O2-  O275  1  0.83151606  0.74804331  0.74851365  1
  O2-  O276  1  0.95254108  0.76154621  0.26417588  1
  O2-  O277  1  0.95032272  0.09647398  0.98464440  1
  O2-  O278  1  0.94990416  0.23679183  0.45964904  1
  O2-  O279  1  0.04811004  0.09686019  0.01348322  1
  O2-  O280  1  0.45769543  0.77057584  0.49647516  1
  O2-  O281  1  0.54217273  0.22630195  0.77884796  1
  O2-  O282  1  0.04286230  0.11030092  0.51184897  1
  O2-  O283  1  0.96364089  0.77822738  0.75669468  1
  O2-  O284  1  0.45041579  0.91270807  0.46013517  1
  O2-  O285  1  0.04621714  0.43269918  0.01162222  1
  O2-  O286  1  0.54682683  0.76506946  0.26106709  1
  O2-  O287  1  0.04384848  0.09988832  0.76210347  1
  O2-  O288  1  0.94332861  0.91757982  0.77251435  1
  O2-  O289  1  0.04146314  0.56017171  0.52626336  1
  O2-  O290  1  0.45776970  0.77066985  0.49656910  1
  O2-  O291  1  0.04606320  0.76430359  0.51343405  1
  O2-  O292  1  0.95024653  0.90083145  0.01426810  1
  O2-  O293  1  0.95330236  0.56966116  0.23627889  1
  O2-  O294  1  0.95259811  0.09513187  0.51652184  1
  O2-  O295  1  0.04798186  0.23630868  0.48912754  1
  O2-  O296  1  0.04840089  0.23300357  0.23293305  1
  O2-  O297  1  0.04423336  0.90439840  0.48621368  1
  O2-  O298  1  0.54755113  0.23294307  0.26319007  1
  O2-  O299  1  0.45969440  0.10892686  0.97543461  1
  O2-  O300  1  0.95613137  0.10413302  0.01055527  1
  O2-  O301  1  0.55442420  0.76181871  0.46097579  1
  O2-  O302  1  0.04535574  0.23668212  0.98649904  1
  O2-  O303  1  0.45422610  0.09860661  0.76395771  1
  O2-  O304  1  0.95479803  0.09415620  0.26174400  1
  O2-  O305  1  0.54700211  0.57143706  0.26091875  1
  O2-  O306  1  0.45390108  0.43040050  0.48836125  1
  O2-  O307  1  0.45940381  0.56540320  0.77681650  1
  O2-  O308  1  0.95160250  0.42995767  0.51226579  1
  O2-  O309  1  0.03689394  0.10370293  0.48572756  1
  O2-  O310  1  0.45148444  0.76488115  0.76369640  1
  O2-  O311  1  0.54768315  0.42871529  0.26780807  1
  O2-  O312  1  0.45296048  0.23400513  0.26464639  1
  O2-  O313  1  0.45361888  0.43246714  0.01541966  1
  O2-  O314  1  0.54781276  0.76397383  0.76468078  1
  O2-  O315  1  0.05126628  0.76398224  0.71156101  1
  O2-  O316  1  0.45727864  0.22677236  0.72056655  1
  O2-  O317  1  0.03855555  0.88531339  0.00644705  1
  O2-  O318  1  0.05424334  0.91516387  0.27148649  1
  O2-  O319  1  0.04840321  0.42828246  0.48761905  1
  O2-  O320  1  0.95125664  0.90450363  0.26451443  1
  O2-  O321  1  0.94672831  0.24602681  0.27254360  1
  O2-  O322  1  0.54532727  0.43294999  0.22904433  1
  O2-  O323  1  0.46671043  0.44335978  0.75644733  1
  O2-  O324  1  0.43032660  0.06133826  0.05122323  1
  O2-  O325  1  0.93499232  0.40637141  0.97233776  1
  O2-  O326  1  0.93539792  0.59838917  0.43911170  1
  O2-  O327  1  0.42724559  0.93320580  0.56619809  1
  O2-  O328  1  0.94238469  0.25111318  0.26916431  1
  O2-  O329  1  0.92615860  0.26701586  0.57058302  1
  O2-  O330  1  0.94676776  0.91880368  0.77207558  1
  O2-  O331  1  0.43470342  0.73998637  0.22227703  1
  O2-  O332  1  0.07505132  0.60459832  0.45455592  1
  O2-  O333  1  0.05820411  0.92034260  0.27697117  1
  O2-  O334  1  0.06580580  0.74014347  0.27943679  1
  O2-  O335  1  0.42732743  0.26617114  0.79551587  1
  O2-  O336  1  0.42402063  0.39250573  0.78469128  1
  O2-  O337  1  0.94370349  0.24551712  0.45443301  1
  O2-  O338  1  0.56385524  0.06899360  0.71772771  1
  O2-  O339  1  0.93492536  0.40662852  0.27819341  1
  O2-  O340  1  0.43183324  0.60551867  0.70480926  1
  O2-  O341  1  0.56427395  0.25887283  0.47264215  1
  O2-  O342  1  0.93470421  0.59855238  0.56089591  1
  O2-  O343  1  0.56309129  0.06947698  0.53158405  1
  O2-  O344  1  0.93245554  0.06497288  0.03305863  1
  O2-  O345  1  0.06432000  0.40539646  0.27780011  1
  O2-  O346  1  0.43535711  0.07464520  0.52718209  1
  O2-  O347  1  0.07468572  0.94276630  0.03468548  1
  O2-  O348  1  0.56341283  0.59707572  0.71656954  1
  O2-  O349  1  0.06498169  0.59273333  0.21997055  1
  O2-  O350  1  0.56399716  0.59851504  0.03102860  1
  O2-  O351  1  0.43472756  0.92743852  0.77935349  1
  O2-  O352  1  0.06951481  0.06029814  0.44237846  1
  O2-  O353  1  0.42514579  0.71905013  0.54739311  1
  O2-  O354  1  0.57008884  0.72518220  0.57511266  1
  O2-  O355  1  0.05691450  0.75418640  0.70601845  1
  O2-  O356  1  0.43547495  0.59656450  0.28308077  1
  O2-  O357  1  0.43614821  0.92656810  0.03196506  1
  O2-  O358  1  0.06471522  0.59572734  0.72238359  1
  O2-  O359  1  0.06979010  0.05696249  0.56086444  1
  O2-  O360  1  0.57092055  0.27687523  0.69818520  1
  O2-  O361  1  0.06312830  0.26001265  0.22046060  1
  O2-  O362  1  0.92358370  0.72393927  0.78418655  1
  O2-  O363  1  0.43491348  0.40149297  0.30571827  1
  O2-  O364  1  0.43682050  0.40262181  0.19451892  1
  O2-  O365  1  0.93397149  0.59296231  0.97168687  1
  O2-  O366  1  0.55777214  0.75213715  0.45567097  1
  O2-  O367  1  0.56554552  0.40649888  0.47237480  1
  O2-  O368  1  0.56332060  0.93095078  0.96734288  1
  O2-  O369  1  0.06562850  0.59417621  0.02930756  1
  O2-  O370  1  0.07468097  0.73372028  0.81551368  1
  O2-  O371  1  0.44433809  0.91863656  0.45397723  1
  O2-  O372  1  0.24998999  0.33108481  0.42296302  1
  O2-  O373  1  0.25006583  0.33598528  0.15180493  1
  O2-  O374  1  0.74999950  0.68034015  0.83402379  1
  O2-  O375  1  0.74995008  0.00570187  0.33740359  1
  O2-  O376  1  0.74980923  0.32533213  0.64198713  1
  O2-  O377  1  0.74988445  0.33535711  0.93399504  1
  O2-  O378  1  0.75015470  -0.00099987  0.90499698  1
  O2-  O379  1  0.75013596  0.66989335  0.92246536  1
  O2-  O380  1  0.24994825  -0.00002857  0.90554033  1
  O2-  O381  1  0.75011838  0.66696453  0.60121733  1
  O2-  O382  1  0.75012103  0.65750004  0.14202802  1
  O2-  O383  1  0.25025698  0.00002732  0.34655780  1
  O2-  O384  1  0.75012297  0.33309386  0.33113736  1
  O2-  O385  1  0.24990276  0.00137904  0.67259832  1
  O2-  O386  1  0.75002552  -0.00049941  0.42873435  1
  O2-  O387  1  0.24993478  0.33245792  0.90354129  1
  O2-  O388  1  0.74997005  0.33228298  0.42009711  1
  O2-  O389  1  0.24978110  -0.00755483  0.58283588  1
  O2-  O390  1  0.25001171  0.34226410  0.33479352  1
  O2-  O391  1  0.24989767  0.33375291  0.67110659  1
  O2-  O392  1  0.25005810  0.33197730  0.57816596  1
  O2-  O393  1  0.75007671  0.66147736  0.35191669  1
  O2-  O394  1  0.24983584  0.66119254  0.09879495  1
  O2-  O395  1  0.74999853  0.32105933  0.84481042  1
  O2-  O396  1  0.74995977  0.17303723  0.17874249  1
  O2-  O397  1  0.75010500  0.16545631  0.38398302  1
  O2-  O398  1  0.24998229  0.50073657  0.84273473  1
  O2-  O399  1  0.74990719  0.16005645  0.09470442  1
  O2-  O400  1  0.24999871  0.83369729  0.06956678  1
  O2-  O401  1  0.75002065  0.50188907  0.15932817  1
  O2-  O402  1  0.75006379  0.51075461  0.37489168  1
  O2-  O403  1  0.74988817  0.16546766  0.83735554  1
  O2-  O404  1  0.24998702  0.16713782  0.91643502  1
  O2-  O405  1  0.25002658  0.16608350  0.83208292  1
  O2-  O406  1  0.74991758  0.50757897  0.60851511  1
  O2-  O407  1  0.24998607  0.49998235  0.41844488  1
  O2-  O408  1  0.75002421  0.83909030  0.06797111  1
  O2-  O409  1  0.74999275  0.82743395  0.40737177  1
  O2-  O410  1  0.74993113  0.16710752  0.61481171  1
  O2-  O411  1  0.24996492  0.82719123  0.85758851  1
  O2-  O412  1  0.25010312  0.17067753  0.35983232  1
  O2-  O413  1  0.74990683  0.83336699  0.84236909  1
  O2-  O414  1  0.74989140  0.15574365  0.69274360  1
  O2-  O415  1  0.74992585  0.50011475  0.86512793  1
  O2-  O416  1  0.75006010  0.83356437  0.15471254  1
  O2-  O417  1  0.75000604  0.17545441  0.30703151  1
  O2-  O418  1  0.25008779  0.50022766  0.33079226  1
  O2-  O419  1  0.25001876  0.83354041  0.15136358  1
  O2-  O420  1  0.97148800  0.34022840  0.37508496  1
  O2-  O421  1  0.96409295  0.32915392  0.87142654  1
  O2-  O422  1  0.97197841  0.66507562  0.87712120  1
  O2-  O423  1  0.03244331  0.33016726  0.37887026  1
  O2-  O424  1  0.02272621  0.66707127  0.37300278  1
  O2-  O425  1  0.02545446  0.33676989  0.12190240  1
  O2-  O426  1  0.02947297  0.67274162  0.12485177  1
  O2-  O427  1  0.47248453  0.66797060  0.88074253  1
  O2-  O428  1  0.52781623  0.33031120  0.12239959  1
  O2-  O429  1  0.47432814  0.66428314  0.11901657  1
  O2-  O430  1  0.52568296  0.65995032  0.37098467  1
  O2-  O431  1  0.52838260  0.00099025  0.12527355  1
  O2-  O432  1  0.52355575  0.33303869  0.37074089  1
  O2-  O433  1  0.47241461  0.33417728  0.62305969  1
  O2-  O434  1  0.47513876  0.00154979  0.87843600  1
  O2-  O435  1  0.02295598  0.66412487  0.61919415  1
  O2-  O436  1  0.97659020  0.33808342  0.63364854  1
  O2-  O437  1  0.47764363  0.33148855  0.88411494  1
  O2-  O438  1  0.02530469  0.00321649  0.13048774  1
  O2-  O439  1  0.03782625  0.33462118  0.87212082  1
  O2-  O440  1  0.96609254  0.66694712  0.12341786  1
  O2-  O441  1  0.47718540  0.00200633  0.63481161  1
  O2-  O442  1  0.02791240  -0.00023186  0.87668994  1
  O2-  O443  1  0.02953450  0.65994344  0.88281248  1
