# generated using pymatgen
data_La7(Ru4O11)2
_symmetry_space_group_name_H-M   'P 1'
_cell_length_a   23.98969437
_cell_length_b   16.82923764
_cell_length_c   15.42621936
_cell_angle_alpha   89.99993250
_cell_angle_beta   90.00005700
_cell_angle_gamma   90.00006923
_symmetry_Int_Tables_number   1
_chemical_formula_structural   La7(Ru4O11)2
_chemical_formula_sum   'La84 Ru96 O264'
_cell_volume   6228.00081914
_cell_formula_units_Z   12
loop_
 _symmetry_equiv_pos_site_id
 _symmetry_equiv_pos_as_xyz
  1  'x, y, z'
loop_
 _atom_type_symbol
 _atom_type_oxidation_number
  La3+  3.0
  Ru4+  4.0
  O2-  -2.0
loop_
 _atom_site_type_symbol
 _atom_site_label
 _atom_site_symmetry_multiplicity
 _atom_site_fract_x
 _atom_site_fract_y
 _atom_site_fract_z
 _atom_site_occupancy
  La3+  La0  1  0.13562312  -0.00016740  0.12205822  1
  La3+  La1  1  0.13791637  -0.00147033  0.37373730  1
  La3+  La2  1  0.13880085  0.00024282  0.62636516  1
  La3+  La3  1  0.13710530  0.00180065  0.87760305  1
  La3+  La4  1  0.13808367  0.33316470  0.12459783  1
  La3+  La5  1  0.13748128  0.33321670  0.37547345  1
  La3+  La6  1  0.13842383  0.33178487  0.62551041  1
  La3+  La7  1  0.13843427  0.33164871  0.87443559  1
  La3+  La8  1  0.13757531  0.66796876  0.12456938  1
  La3+  La9  1  0.13922398  0.66833859  0.37445158  1
  La3+  La10  1  0.14027613  0.66726304  0.62444233  1
  La3+  La11  1  0.14094475  0.66709887  0.87703513  1
  La3+  La12  1  0.63771014  -0.00027839  0.12503523  1
  La3+  La13  1  0.63888230  0.00015677  0.37588399  1
  La3+  La14  1  0.64062041  0.00028464  0.62731254  1
  La3+  La15  1  0.63924440  -0.00093346  0.87193230  1
  La3+  La16  1  0.63789872  0.33402163  0.12682169  1
  La3+  La17  1  0.63851108  0.33368184  0.37434903  1
  La3+  La18  1  0.63765916  0.33207376  0.62506383  1
  La3+  La19  1  0.63840484  0.33334993  0.87363417  1
  La3+  La20  1  0.63957971  0.66575270  0.12564133  1
  La3+  La21  1  0.63905849  0.66584280  0.37400815  1
  La3+  La22  1  0.63746500  0.66848218  0.62562658  1
  La3+  La23  1  0.63886811  0.66750549  0.87483157  1
  La3+  La24  1  0.36131258  -0.00135755  0.12407997  1
  La3+  La25  1  0.36278805  -0.00135579  0.37392171  1
  La3+  La26  1  0.36154191  -0.00035576  0.62718158  1
  La3+  La27  1  0.36112957  -0.00045804  0.87569779  1
  La3+  La28  1  0.36343892  0.33448610  0.12353748  1
  La3+  La29  1  0.36112126  0.33357777  0.37669649  1
  La3+  La30  1  0.36126573  0.33231602  0.62563324  1
  La3+  La31  1  0.36128939  0.33174208  0.87554981  1
  La3+  La32  1  0.35926334  0.66848014  0.12228337  1
  La3+  La33  1  0.36134287  0.66886354  0.37506289  1
  La3+  La34  1  0.36063063  0.66832473  0.62412746  1
  La3+  La35  1  0.35890752  0.66759338  0.87722216  1
  La3+  La36  1  0.86326853  -0.00123534  0.12596525  1
  La3+  La37  1  0.85977656  0.00098861  0.37631518  1
  La3+  La38  1  0.85870503  0.00031601  0.62748835  1
  La3+  La39  1  0.86060687  -0.00134976  0.87190105  1
  La3+  La40  1  0.86079369  0.33541208  0.12686409  1
  La3+  La41  1  0.86179110  0.33338931  0.37601960  1
  La3+  La42  1  0.86327267  0.33190176  0.62335369  1
  La3+  La43  1  0.86148675  0.33450090  0.87276015  1
  La3+  La44  1  0.86152354  0.66427497  0.12703924  1
  La3+  La45  1  0.86160303  0.66601451  0.37282460  1
  La3+  La46  1  0.86205510  0.66883854  0.62576597  1
  La3+  La47  1  0.86108378  0.66718640  0.87508217  1
  La3+  La48  1  0.49910995  0.83401967  0.87221966  1
  La3+  La49  1  -0.00021431  0.83330321  0.86555709  1
  La3+  La50  1  0.50047921  0.16605328  0.88472029  1
  La3+  La51  1  0.49760268  0.50213534  0.38129475  1
  La3+  La52  1  -0.00071471  0.49845398  0.61764556  1
  La3+  La53  1  0.50372025  0.50166706  0.13542309  1
  La3+  La54  1  0.50155150  0.16310758  0.38108858  1
  La3+  La55  1  0.50012655  0.49994245  0.61449041  1
  La3+  La56  1  0.00012380  0.83492815  0.61615734  1
  La3+  La57  1  -0.00146260  0.16673753  0.63661736  1
  La3+  La58  1  0.49800413  0.49593545  0.88472335  1
  La3+  La59  1  -0.00008833  0.49989893  0.86755448  1
  La3+  La60  1  0.49904059  0.83746567  0.61879897  1
  La3+  La61  1  0.49920722  0.50103775  0.11389234  1
  La3+  La62  1  0.00065413  0.16532659  0.88492188  1
  La3+  La63  1  0.49948160  0.50014878  0.86294203  1
  La3+  La64  1  -0.00069151  0.50139889  0.36466475  1
  La3+  La65  1  0.00309979  0.16796643  0.61540868  1
  La3+  La66  1  0.00026957  0.50214345  0.38144789  1
  La3+  La67  1  0.00189894  0.82945575  0.36476925  1
  La3+  La68  1  -0.00035428  0.50044359  0.13291382  1
  La3+  La69  1  -0.00048479  0.16834274  0.36617993  1
  La3+  La70  1  0.50307865  0.83166007  0.37011500  1
  La3+  La71  1  0.00245923  0.16784127  0.11952663  1
  La3+  La72  1  0.25000077  0.46367921  0.28956056  1
  La3+  La73  1  0.24975976  0.53345753  0.74578936  1
  La3+  La74  1  0.75003127  0.86605380  0.02044103  1
  La3+  La75  1  0.74999756  0.45236104  0.76042835  1
  La3+  La76  1  0.25031873  0.19399524  -0.00505536  1
  La3+  La77  1  0.25012120  0.54199377  -0.01513748  1
  La3+  La78  1  0.24988999  0.16404591  0.27876894  1
  La3+  La79  1  0.24997696  0.53042962  0.50034050  1
  La3+  La80  1  0.75013078  0.16526988  0.46986020  1
  La3+  La81  1  0.24984650  0.20040354  0.47169072  1
  La3+  La82  1  0.74973466  0.16529181  0.00046242  1
  La3+  La83  1  0.75036564  0.45570326  0.47515620  1
  Ru4+  Ru84  1  0.00117134  -0.00524640  0.00695922  1
  Ru4+  Ru85  1  0.00006669  -0.00118801  0.24608560  1
  Ru4+  Ru86  1  0.00163003  0.00128458  0.49926242  1
  Ru4+  Ru87  1  -0.00030947  -0.00026758  0.74761404  1
  Ru4+  Ru88  1  -0.00008795  0.33376327  -0.00093439  1
  Ru4+  Ru89  1  0.00142421  0.33488766  0.24883925  1
  Ru4+  Ru90  1  0.00344969  0.33870816  0.49879904  1
  Ru4+  Ru91  1  0.00080981  0.33441577  0.75109571  1
  Ru4+  Ru92  1  0.00119552  0.66559694  0.00176585  1
  Ru4+  Ru93  1  -0.00072105  0.67286034  0.24452005  1
  Ru4+  Ru94  1  -0.00063329  0.66771986  0.50387447  1
  Ru4+  Ru95  1  -0.00059106  0.66527901  0.74854645  1
  Ru4+  Ru96  1  0.49947403  -0.00039885  -0.00191184  1
  Ru4+  Ru97  1  0.50020268  0.00227196  0.25213469  1
  Ru4+  Ru98  1  0.50032024  0.00086497  0.49829861  1
  Ru4+  Ru99  1  0.50365142  0.00325479  0.75016878  1
  Ru4+  Ru100  1  0.50237873  0.32618926  0.00059721  1
  Ru4+  Ru101  1  0.50443245  0.32990327  0.24519735  1
  Ru4+  Ru102  1  0.50018967  0.33226875  0.50422990  1
  Ru4+  Ru103  1  0.50080064  0.33153943  0.74845839  1
  Ru4+  Ru104  1  0.49946159  0.67266934  -0.00230434  1
  Ru4+  Ru105  1  0.50261860  0.67245628  0.25442974  1
  Ru4+  Ru106  1  0.50109258  0.66024158  0.50084699  1
  Ru4+  Ru107  1  0.49795103  0.66387574  0.74713214  1
  Ru4+  Ru108  1  0.11267631  0.16719479  0.00017355  1
  Ru4+  Ru109  1  0.11078256  0.16631981  0.24930257  1
  Ru4+  Ru110  1  0.11061010  0.16716399  0.49954589  1
  Ru4+  Ru111  1  0.11429541  0.16664490  0.75093884  1
  Ru4+  Ru112  1  0.11136365  0.50222868  0.00115452  1
  Ru4+  Ru113  1  0.11248311  0.49698406  0.25046864  1
  Ru4+  Ru114  1  0.11103095  0.49858773  0.49943081  1
  Ru4+  Ru115  1  0.11154862  0.50181618  0.74988993  1
  Ru4+  Ru116  1  0.11440452  0.83384458  -0.00013063  1
  Ru4+  Ru117  1  0.11286381  0.83388211  0.24942694  1
  Ru4+  Ru118  1  0.11365579  0.83195397  0.50008249  1
  Ru4+  Ru119  1  0.11342245  0.83455169  0.75021620  1
  Ru4+  Ru120  1  0.61080163  0.16603808  0.00063688  1
  Ru4+  Ru121  1  0.61228653  0.16734118  0.24957693  1
  Ru4+  Ru122  1  0.61202309  0.16554485  0.50041818  1
  Ru4+  Ru123  1  0.61204490  0.16439688  0.74995846  1
  Ru4+  Ru124  1  0.61519498  0.50020575  0.00011526  1
  Ru4+  Ru125  1  0.61497067  0.49958229  0.25068723  1
  Ru4+  Ru126  1  0.61300290  0.50151126  0.49964780  1
  Ru4+  Ru127  1  0.61223598  0.49953900  0.74943351  1
  Ru4+  Ru128  1  0.61076903  0.83276782  0.00017608  1
  Ru4+  Ru129  1  0.61158566  0.83231298  0.24970623  1
  Ru4+  Ru130  1  0.61405383  0.83497248  0.49985812  1
  Ru4+  Ru131  1  0.61784409  0.83670114  0.74918601  1
  Ru4+  Ru132  1  0.38918963  0.16701781  -0.00064416  1
  Ru4+  Ru133  1  0.38823968  0.16432599  0.25055625  1
  Ru4+  Ru134  1  0.38801948  0.16559503  0.50040428  1
  Ru4+  Ru135  1  0.38476643  0.16809559  0.75016706  1
  Ru4+  Ru136  1  0.38418116  0.50412688  -0.00139809  1
  Ru4+  Ru137  1  0.38540524  0.50023454  0.25194520  1
  Ru4+  Ru138  1  0.38890988  0.49986255  0.49967435  1
  Ru4+  Ru139  1  0.38803267  0.49923748  0.74960936  1
  Ru4+  Ru140  1  0.38670797  0.83203991  0.00024978  1
  Ru4+  Ru141  1  0.38452245  0.83226142  0.24843413  1
  Ru4+  Ru142  1  0.38423345  0.83523606  0.49987147  1
  Ru4+  Ru143  1  0.38559827  0.83071033  0.74988480  1
  Ru4+  Ru144  1  0.88713316  0.16781851  -0.00065269  1
  Ru4+  Ru145  1  0.88677573  0.16516553  0.24971027  1
  Ru4+  Ru146  1  0.88481562  0.16407716  0.49898419  1
  Ru4+  Ru147  1  0.88572155  0.16366088  0.75091319  1
  Ru4+  Ru148  1  0.88663686  0.50182821  0.00006523  1
  Ru4+  Ru149  1  0.88535448  0.49876960  0.25009900  1
  Ru4+  Ru150  1  0.88875606  0.49924109  0.49943971  1
  Ru4+  Ru151  1  0.88825224  0.49817393  0.75061503  1
  Ru4+  Ru152  1  0.88888158  0.83562861  -0.00003445  1
  Ru4+  Ru153  1  0.88773187  0.83287028  0.25070367  1
  Ru4+  Ru154  1  0.88612360  0.83247331  0.50043068  1
  Ru4+  Ru155  1  0.88558951  0.83375243  0.75014586  1
  Ru4+  Ru156  1  0.75005809  0.91346209  0.50776962  1
  Ru4+  Ru157  1  0.24983869  0.91190936  0.75039482  1
  Ru4+  Ru158  1  0.24994037  0.39407468  -0.00050278  1
  Ru4+  Ru159  1  0.24974051  0.03710212  0.24648173  1
  Ru4+  Ru160  1  0.74987911  0.75497941  0.50404692  1
  Ru4+  Ru161  1  0.24982665  0.06272436  0.49001466  1
  Ru4+  Ru162  1  0.75019149  0.08939628  0.25035328  1
  Ru4+  Ru163  1  0.75001612  0.73240758  -0.00945185  1
  Ru4+  Ru164  1  0.74988450  0.03802942  0.01623793  1
  Ru4+  Ru165  1  0.75017507  0.60480945  0.50293295  1
  Ru4+  Ru166  1  0.25011886  0.39336333  0.50569127  1
  Ru4+  Ru167  1  0.75007055  0.24909412  0.75179388  1
  Ru4+  Ru168  1  0.24962214  0.75135273  0.75074018  1
  Ru4+  Ru169  1  0.75024646  0.42379905  0.00773103  1
  Ru4+  Ru170  1  0.25013360  0.29234380  0.25328306  1
  Ru4+  Ru171  1  0.24980952  0.60248838  0.25383189  1
  Ru4+  Ru172  1  0.75021151  0.91062554  0.25093997  1
  Ru4+  Ru173  1  0.75000195  0.75416711  0.25102182  1
  Ru4+  Ru174  1  0.75006984  0.60634924  0.75106100  1
  Ru4+  Ru175  1  0.75004434  0.29223587  -0.02089735  1
  Ru4+  Ru176  1  0.25001292  0.90809599  0.49391945  1
  Ru4+  Ru177  1  0.24989484  0.39303393  0.75059203  1
  Ru4+  Ru178  1  0.74990815  0.24544398  0.25144008  1
  Ru4+  Ru179  1  0.25038417  0.05832584  -0.00259470  1
  O2-  O180  1  0.16829127  0.08016405  0.00016330  1
  O2-  O181  1  0.16742907  0.07887986  0.25067361  1
  O2-  O182  1  0.16685392  0.07868033  0.49966169  1
  O2-  O183  1  0.16619579  0.08046499  0.74965997  1
  O2-  O184  1  0.16719177  0.41279125  -0.00017723  1
  O2-  O185  1  0.16630632  0.41363654  0.24999585  1
  O2-  O186  1  0.16709922  0.41336238  0.50002765  1
  O2-  O187  1  0.16688959  0.41304958  0.75002845  1
  O2-  O188  1  0.16521377  0.74917311  0.00045708  1
  O2-  O189  1  0.16635101  0.74818314  0.24999528  1
  O2-  O190  1  0.16676087  0.74791826  0.50061304  1
  O2-  O191  1  0.16836601  0.74736286  0.74983254  1
  O2-  O192  1  0.66668130  0.07895351  -0.00008813  1
  O2-  O193  1  0.66670727  0.08064241  0.25052761  1
  O2-  O194  1  0.66826116  0.08085479  0.49898253  1
  O2-  O195  1  0.66603000  0.08290670  0.75090224  1
  O2-  O196  1  0.66751970  0.41359949  -0.00096198  1
  O2-  O197  1  0.66667903  0.41432579  0.25077932  1
  O2-  O198  1  0.66646273  0.41186045  0.50068890  1
  O2-  O199  1  0.66526932  0.41254891  0.74932440  1
  O2-  O200  1  0.66650602  0.74645586  0.00015897  1
  O2-  O201  1  0.66778048  0.74757503  0.25044783  1
  O2-  O202  1  0.66815419  0.74730490  0.50107286  1
  O2-  O203  1  0.66795911  0.74830871  0.75039989  1
  O2-  O204  1  0.33353978  0.25387757  0.00012947  1
  O2-  O205  1  0.33320280  0.25396236  0.24972371  1
  O2-  O206  1  0.33226077  0.25357788  0.50088063  1
  O2-  O207  1  0.33497039  0.25127131  0.74998488  1
  O2-  O208  1  0.33415674  0.58623789  0.00013542  1
  O2-  O209  1  0.33256330  0.58663318  0.25127070  1
  O2-  O210  1  0.33287042  0.58714728  0.50051484  1
  O2-  O211  1  0.33370457  0.58744687  0.74999609  1
  O2-  O212  1  0.33332730  0.91924450  0.00062770  1
  O2-  O213  1  0.33231789  0.91856188  0.25076669  1
  O2-  O214  1  0.33301187  0.91891986  0.50052538  1
  O2-  O215  1  0.33182641  0.91880354  0.74960786  1
  O2-  O216  1  0.83404072  0.25414679  0.00016911  1
  O2-  O217  1  0.83251876  0.25223009  0.25103319  1
  O2-  O218  1  0.83120583  0.25291381  0.49954301  1
  O2-  O219  1  0.83272192  0.25303878  0.74944942  1
  O2-  O220  1  0.83408820  0.58503173  -0.00022969  1
  O2-  O221  1  0.83195492  0.58579551  0.25050307  1
  O2-  O222  1  0.83207917  0.58760466  0.50134212  1
  O2-  O223  1  0.83253154  0.58706352  0.74931434  1
  O2-  O224  1  0.83319629  0.92035363  -0.00017836  1
  O2-  O225  1  0.83194485  0.91846820  0.24946305  1
  O2-  O226  1  0.83196015  0.91854472  0.49996313  1
  O2-  O227  1  0.83449941  0.91748473  0.75027520  1
  O2-  O228  1  0.16670341  0.25388743  0.00039449  1
  O2-  O229  1  0.16600011  0.25439543  0.25075205  1
  O2-  O230  1  0.16676036  0.25444863  0.50068187  1
  O2-  O231  1  0.16564144  0.25241481  0.74972628  1
  O2-  O232  1  0.16561673  0.58615666  0.00063010  1
  O2-  O233  1  0.16764151  0.58696145  0.24967536  1
  O2-  O234  1  0.16801800  0.58734313  0.50008709  1
  O2-  O235  1  0.16619675  0.58607808  0.74992004  1
  O2-  O236  1  0.16761814  0.91887931  -0.00024624  1
  O2-  O237  1  0.16705089  0.91925399  0.25055669  1
  O2-  O238  1  0.16726938  0.91944148  0.49985059  1
  O2-  O239  1  0.16690559  0.91857218  0.74993854  1
  O2-  O240  1  0.66512680  0.25434118  -0.00061797  1
  O2-  O241  1  0.66818752  0.25254436  0.25118795  1
  O2-  O242  1  0.66783499  0.25345554  0.49943730  1
  O2-  O243  1  0.66720297  0.25260661  0.75026236  1
  O2-  O244  1  0.66629997  0.58533635  -0.00036921  1
  O2-  O245  1  0.66694410  0.58552971  0.25013291  1
  O2-  O246  1  0.66732356  0.58631780  0.50073775  1
  O2-  O247  1  0.66793136  0.58677236  0.75007017  1
  O2-  O248  1  0.66531883  0.92087466  -0.00004246  1
  O2-  O249  1  0.66699215  0.91930571  0.25044683  1
  O2-  O250  1  0.66706130  0.91860544  0.49990676  1
  O2-  O251  1  0.66647858  0.91815807  0.75138348  1
  O2-  O252  1  0.33233278  0.07991369  0.00057779  1
  O2-  O253  1  0.33327007  0.07977333  0.24976303  1
  O2-  O254  1  0.33388943  0.08009261  0.49996197  1
  O2-  O255  1  0.33262032  0.08079493  0.74906930  1
  O2-  O256  1  0.33217059  0.41290768  -0.00011122  1
  O2-  O257  1  0.33226830  0.41337414  0.24892829  1
  O2-  O258  1  0.33180293  0.41313831  0.50098479  1
  O2-  O259  1  0.33327435  0.41344181  0.75043976  1
  O2-  O260  1  0.33418250  0.74918023  -0.00039888  1
  O2-  O261  1  0.33253717  0.74930311  0.25123798  1
  O2-  O262  1  0.33303441  0.74749908  0.50057789  1
  O2-  O263  1  0.33280415  0.74818284  0.74965492  1
  O2-  O264  1  0.83351067  0.07935750  0.00062184  1
  O2-  O265  1  0.83233976  0.08169372  0.25041602  1
  O2-  O266  1  0.83247799  0.08126707  0.49989389  1
  O2-  O267  1  0.83279857  0.08284019  0.75025148  1
  O2-  O268  1  0.83315812  0.41344031  -0.00074674  1
  O2-  O269  1  0.83372047  0.41507986  0.25116694  1
  O2-  O270  1  0.83450181  0.41202426  0.50150187  1
  O2-  O271  1  0.83387217  0.41318752  0.74823227  1
  O2-  O272  1  0.83391770  0.74649111  0.00008081  1
  O2-  O273  1  0.83225777  0.74833306  0.24990379  1
  O2-  O274  1  0.83297324  0.74767478  0.50095375  1
  O2-  O275  1  0.83361577  0.74704990  0.74972020  1
  O2-  O276  1  0.95441354  0.09693388  0.51136123  1
  O2-  O277  1  0.54655419  0.56888241  0.98694649  1
  O2-  O278  1  0.04549939  0.76381308  0.23725914  1
  O2-  O279  1  0.95733058  0.89429999  0.47128140  1
  O2-  O280  1  0.45289197  0.56806480  0.73441958  1
  O2-  O281  1  0.95769887  0.10712183  0.02470406  1
  O2-  O282  1  0.44295499  0.58413949  0.29271998  1
  O2-  O283  1  0.54980810  0.76507361  0.23568771  1
  O2-  O284  1  0.45701313  0.10734052  0.72280854  1
  O2-  O285  1  0.04490236  0.56854903  0.51376690  1
  O2-  O286  1  0.04908360  0.90499002  0.23535577  1
  O2-  O287  1  0.54518551  0.77558762  0.52531131  1
  O2-  O288  1  0.04559127  0.43298612  0.76230215  1
  O2-  O289  1  0.95476776  0.56868932  0.76243297  1
  O2-  O290  1  0.03644637  0.55045310  0.25122746  1
  O2-  O291  1  0.04021437  0.10909289  0.99105405  1
  O2-  O292  1  0.95552398  0.23416162  0.76616344  1
  O2-  O293  1  0.95296841  0.23687180  0.51442322  1
  O2-  O294  1  0.53974609  0.77870359  0.74749997  1
  O2-  O295  1  0.45526429  0.90357273  0.98642648  1
  O2-  O296  1  0.45885073  0.89892897  0.27533223  1
  O2-  O297  1  0.54493145  0.23686489  0.76608496  1
  O2-  O298  1  0.45356915  0.09969956  0.98736992  1
  O2-  O299  1  0.94618187  0.57767382  0.22988546  1
  O2-  O300  1  0.45009794  0.42958933  0.21276862  1
  O2-  O301  1  0.54842986  0.76703104  0.01382081  1
  O2-  O302  1  0.54108319  0.43920053  0.47525471  1
  O2-  O303  1  0.04776060  0.09386116  0.01178368  1
  O2-  O304  1  0.45181550  0.76233017  0.51882209  1
  O2-  O305  1  0.04750856  0.90395806  0.48546619  1
  O2-  O306  1  0.46057481  0.89435686  0.73043321  1
  O2-  O307  1  0.46531069  0.88840148  0.74717093  1
  O2-  O308  1  0.54696747  0.56899071  0.26589999  1
  O2-  O309  1  0.54750534  0.09654388  0.73602930  1
  O2-  O310  1  0.45485683  0.90346670  0.48660240  1
  O2-  O311  1  0.54476345  0.43105080  0.73553337  1
  O2-  O312  1  0.45985241  0.22547441  0.47432385  1
  O2-  O313  1  0.04764561  0.76239091  0.51569769  1
  O2-  O314  1  0.54659468  0.56859911  0.73591529  1
  O2-  O315  1  0.03891309  0.55798595  0.23446050  1
  O2-  O316  1  0.45248787  0.76520317  0.01315831  1
  O2-  O317  1  0.95232339  0.76325876  0.51516511  1
  O2-  O318  1  0.45317581  0.76361024  0.47966962  1
  O2-  O319  1  0.45035668  0.75913334  0.73465296  1
  O2-  O320  1  0.96509982  0.87814709  0.24721165  1
  O2-  O321  1  0.53967306  0.77871735  0.74774504  1
  O2-  O322  1  0.46352938  0.77868159  0.24358138  1
  O2-  O323  1  0.45243723  0.43067267  0.01196399  1
  O2-  O324  1  0.43079895  0.06810409  0.78977493  1
  O2-  O325  1  0.06366251  0.92922192  0.03318386  1
  O2-  O326  1  0.93519912  0.40221989  0.78397201  1
  O2-  O327  1  0.56481441  0.40156191  0.03257117  1
  O2-  O328  1  0.93350652  0.25913363  0.29837523  1
  O2-  O329  1  0.06593371  0.74043692  0.79926309  1
  O2-  O330  1  0.56906349  0.72945542  0.45283378  1
  O2-  O331  1  0.43127332  0.93836602  0.20358724  1
  O2-  O332  1  0.56457097  0.26368983  0.21846888  1
  O2-  O333  1  0.08250350  0.62019489  0.29649236  1
  O2-  O334  1  0.44262256  0.41821151  0.20602649  1
  O2-  O335  1  0.93502678  0.07207720  0.77944758  1
  O2-  O336  1  0.43331290  0.40698826  0.47104660  1
  O2-  O337  1  0.57302979  0.72671886  0.69147288  1
  O2-  O338  1  0.42271457  0.72391472  0.21322768  1
  O2-  O339  1  0.94359338  0.58487702  0.22339346  1
  O2-  O340  1  0.56316184  0.59531016  0.46779359  1
  O2-  O341  1  0.43571233  0.59746789  0.96622748  1
  O2-  O342  1  0.45212218  0.57149066  0.29455934  1
  O2-  O343  1  0.57490102  0.72399615  0.81084793  1
  O2-  O344  1  0.43362086  0.26006330  0.20460959  1
  O2-  O345  1  0.93631353  0.26408168  0.19527158  1
  O2-  O346  1  0.56370896  0.06799823  0.03195964  1
  O2-  O347  1  0.57150949  0.39650810  0.54261664  1
  O2-  O348  1  0.43329983  0.25764450  0.29570259  1
  O2-  O349  1  0.93633197  0.26500370  0.05628092  1
  O2-  O350  1  0.43007197  0.27289464  0.54829860  1
  O2-  O351  1  0.93518142  0.25844148  0.52951057  1
  O2-  O352  1  0.93511347  0.59428637  0.47083268  1
  O2-  O353  1  0.06498958  0.59438347  0.02855937  1
  O2-  O354  1  0.41673926  0.95079226  0.79790579  1
  O2-  O355  1  0.93396492  0.73881526  0.27945428  1
  O2-  O356  1  0.06327068  0.06908526  0.21757259  1
  O2-  O357  1  0.93501683  0.92808483  0.02875710  1
  O2-  O358  1  0.42545876  0.59865084  0.18316189  1
  O2-  O359  1  0.92228686  0.95431079  0.29698826  1
  O2-  O360  1  0.92857396  0.06501949  0.95736958  1
  O2-  O361  1  0.06430877  0.26460996  0.03335022  1
  O2-  O362  1  0.06913810  0.06622753  0.96790462  1
  O2-  O363  1  0.92875364  0.93660638  0.54197042  1
  O2-  O364  1  0.93578379  0.07397002  0.22073764  1
  O2-  O365  1  0.43477433  0.07330432  0.27900755  1
  O2-  O366  1  0.06358495  0.73576566  0.69434690  1
  O2-  O367  1  0.56387259  0.93131388  0.71708420  1
  O2-  O368  1  0.42563633  0.39884049  0.31830827  1
  O2-  O369  1  0.43582680  0.40834624  0.02849404  1
  O2-  O370  1  0.93607186  0.26403256  0.94401674  1
  O2-  O371  1  0.56291366  0.06804949  0.53109990  1
  O2-  O372  1  0.24997219  0.33850816  0.14852138  1
  O2-  O373  1  0.25006306  0.66783712  0.34781721  1
  O2-  O374  1  0.75000766  0.66971243  0.40283804  1
  O2-  O375  1  0.74987736  -0.00026159  0.15666356  1
  O2-  O376  1  0.25011049  0.66533952  0.90221424  1
  O2-  O377  1  0.25012387  0.00155517  0.67588075  1
  O2-  O378  1  0.25022650  -0.00689508  0.58445566  1
  O2-  O379  1  0.75000334  0.00166566  0.42526383  1
  O2-  O380  1  0.75010628  0.00125911  0.82503414  1
  O2-  O381  1  0.75007552  -0.00240367  0.65070957  1
  O2-  O382  1  0.24996510  0.67396036  0.16483895  1
  O2-  O383  1  0.74991090  0.66527317  0.17393854  1
  O2-  O384  1  0.75006227  0.33488876  0.18055172  1
  O2-  O385  1  0.75001267  0.66116098  0.08443544  1
  O2-  O386  1  0.25010838  0.33194567  0.84909690  1
  O2-  O387  1  0.75011019  0.33958121  0.09019307  1
  O2-  O388  1  0.25000675  0.33179164  0.65119186  1
  O2-  O389  1  0.25002828  0.66518020  0.07713476  1
  O2-  O390  1  0.74994090  -0.01104287  0.91091571  1
  O2-  O391  1  0.74990218  0.33315791  0.84297226  1
  O2-  O392  1  0.25010159  0.66619161  0.65715609  1
  O2-  O393  1  0.24986123  0.33053852  0.40114888  1
  O2-  O394  1  0.75008305  0.66289550  0.90170332  1
  O2-  O395  1  0.74988778  0.00009092  0.32677661  1
  O2-  O396  1  0.24995219  0.49085998  0.87097114  1
  O2-  O397  1  0.24989372  0.83317614  0.83254681  1
  O2-  O398  1  0.75002248  0.16754103  0.59587860  1
  O2-  O399  1  0.25005901  0.16626626  0.13822285  1
  O2-  O400  1  0.75009190  0.83302974  0.65138813  1
  O2-  O401  1  0.74996287  0.16650209  0.15825521  1
  O2-  O402  1  0.74993983  0.83228384  0.16088057  1
  O2-  O403  1  0.24993119  0.83784356  0.41394630  1
  O2-  O404  1  0.75004806  0.51217800  0.86154206  1
  O2-  O405  1  0.24999044  0.16675822  0.68147512  1
  O2-  O406  1  0.24991551  0.16488514  0.84597496  1
  O2-  O407  1  0.25013448  0.50740746  0.17430694  1
  O2-  O408  1  0.24997873  0.83354544  0.09034026  1
  O2-  O409  1  0.24997155  0.83368073  0.91811474  1
  O2-  O410  1  0.74992812  0.50748348  0.94138540  1
  O2-  O411  1  0.74994905  0.49703152  0.08795260  1
  O2-  O412  1  0.75001960  0.16476221  0.68322558  1
  O2-  O413  1  0.75007566  0.82851776  0.89177270  1
  O2-  O414  1  0.74997266  0.51402787  0.65939634  1
  O2-  O415  1  0.74987734  0.50735714  0.36990208  1
  O2-  O416  1  0.74995846  0.83378134  0.40912009  1
  O2-  O417  1  0.74981150  0.51007490  0.58259705  1
  O2-  O418  1  0.25004511  0.16440812  0.59800767  1
  O2-  O419  1  0.25004246  0.48951959  0.09454425  1
  O2-  O420  1  0.47466584  0.32995222  0.38286943  1
  O2-  O421  1  0.03808678  0.33312536  0.62388729  1
  O2-  O422  1  0.52556341  0.32943960  0.62820572  1
  O2-  O423  1  0.52516523  0.66330252  0.87913188  1
  O2-  O424  1  0.97028385  0.66568451  0.37358443  1
  O2-  O425  1  0.97068590  -0.00705901  0.87284681  1
  O2-  O426  1  0.47820035  0.32858399  0.12009133  1
  O2-  O427  1  0.96576518  0.33839764  0.38185312  1
  O2-  O428  1  0.96400562  0.33786321  0.62943053  1
  O2-  O429  1  0.03148549  0.66954583  0.38025769  1
  O2-  O430  1  0.97485048  -0.00029702  0.12506851  1
  O2-  O431  1  0.47689724  -0.00003252  0.88088689  1
  O2-  O432  1  0.47458741  -0.00016158  0.37909099  1
  O2-  O433  1  0.02571151  0.66858856  0.12508428  1
  O2-  O434  1  0.03151745  0.66266323  0.88153792  1
  O2-  O435  1  0.47267005  0.66773888  0.11534314  1
  O2-  O436  1  0.03736569  0.33338184  0.37484370  1
  O2-  O437  1  0.53286742  0.66494005  0.12405796  1
  O2-  O438  1  0.96541785  0.66799014  0.87750853  1
  O2-  O439  1  0.02852844  0.33240251  0.87534407  1
  O2-  O440  1  0.97478473  0.00205509  0.63155468  1
  O2-  O441  1  0.53401619  0.33253304  0.37307906  1
  O2-  O442  1  0.03178188  -0.00349577  0.86979153  1
  O2-  O443  1  0.52556460  0.66253446  0.61963414  1
