# generated using pymatgen
data_La7(Ru4O11)2
_symmetry_space_group_name_H-M   'P 1'
_cell_length_a   23.98887430
_cell_length_b   16.82859128
_cell_length_c   15.42508344
_cell_angle_alpha   89.99993352
_cell_angle_beta   90.00001316
_cell_angle_gamma   90.00002490
_symmetry_Int_Tables_number   1
_chemical_formula_structural   La7(Ru4O11)2
_chemical_formula_sum   'La84 Ru96 O264'
_cell_volume   6227.09015609
_cell_formula_units_Z   12
loop_
 _symmetry_equiv_pos_site_id
 _symmetry_equiv_pos_as_xyz
  1  'x, y, z'
loop_
 _atom_type_symbol
 _atom_type_oxidation_number
  La3+  3.0
  Ru4+  4.0
  O2-  -2.0
loop_
 _atom_site_type_symbol
 _atom_site_label
 _atom_site_symmetry_multiplicity
 _atom_site_fract_x
 _atom_site_fract_y
 _atom_site_fract_z
 _atom_site_occupancy
  La3+  La0  1  0.13838707  0.00001458  0.12486418  1
  La3+  La1  1  0.13850886  -0.00020302  0.37446101  1
  La3+  La2  1  0.13855352  -0.00065065  0.62627234  1
  La3+  La3  1  0.13846342  0.00007444  0.87445518  1
  La3+  La4  1  0.13905367  0.33386426  0.12355034  1
  La3+  La5  1  0.13906642  0.33430013  0.37568439  1
  La3+  La6  1  0.13879393  0.33370806  0.62500570  1
  La3+  La7  1  0.13852389  0.33300629  0.87607497  1
  La3+  La8  1  0.13929761  0.66692702  0.12473862  1
  La3+  La9  1  0.13932350  0.66668579  0.37499434  1
  La3+  La10  1  0.13892290  0.66749034  0.62522193  1
  La3+  La11  1  0.13958075  0.66715845  0.87575348  1
  La3+  La12  1  0.63844193  -0.00010218  0.12451299  1
  La3+  La13  1  0.63833547  -0.00109050  0.37465569  1
  La3+  La14  1  0.63792815  -0.00082102  0.62403871  1
  La3+  La15  1  0.63812723  0.00037341  0.87645013  1
  La3+  La16  1  0.63806317  0.33297458  0.12293620  1
  La3+  La17  1  0.63819608  0.33268239  0.37414074  1
  La3+  La18  1  0.63772853  0.33370576  0.62527185  1
  La3+  La19  1  0.63842678  0.33317290  0.87738853  1
  La3+  La20  1  0.63864674  0.66626151  0.12476964  1
  La3+  La21  1  0.63766300  0.66773059  0.37451625  1
  La3+  La22  1  0.63834536  0.66678660  0.62431852  1
  La3+  La23  1  0.63896161  0.66564409  0.87616857  1
  La3+  La24  1  0.36128899  -0.00015523  0.12494987  1
  La3+  La25  1  0.36200025  -0.00030151  0.37557024  1
  La3+  La26  1  0.36149688  -0.00093285  0.62506223  1
  La3+  La27  1  0.36042225  -0.00041377  0.87470118  1
  La3+  La28  1  0.36157550  0.33372017  0.12389764  1
  La3+  La29  1  0.36120634  0.33420672  0.37522259  1
  La3+  La30  1  0.36158297  0.33392819  0.62537667  1
  La3+  La31  1  0.36110661  0.33341264  0.87541900  1
  La3+  La32  1  0.36115497  0.66640213  0.12404975  1
  La3+  La33  1  0.36068611  0.66655121  0.37550984  1
  La3+  La34  1  0.36077189  0.66727943  0.62469855  1
  La3+  La35  1  0.36060509  0.66706751  0.87639523  1
  La3+  La36  1  0.86073895  -0.00052705  0.12413859  1
  La3+  La37  1  0.86213907  -0.00251838  0.37635157  1
  La3+  La38  1  0.86367391  -0.00179241  0.62308759  1
  La3+  La39  1  0.86171724  0.00026103  0.87614688  1
  La3+  La40  1  0.86229920  0.33305657  0.12332605  1
  La3+  La41  1  0.86230179  0.33309120  0.37473364  1
  La3+  La42  1  0.86270260  0.33350897  0.62471481  1
  La3+  La43  1  0.86133819  0.33340475  0.87700359  1
  La3+  La44  1  0.86103924  0.66662555  0.12443538  1
  La3+  La45  1  0.86174067  0.66806677  0.37458533  1
  La3+  La46  1  0.86167945  0.66710250  0.62492790  1
  La3+  La47  1  0.86127628  0.66596168  0.87569341  1
  La3+  La48  1  0.49967096  0.16610015  0.61283406  1
  La3+  La49  1  -0.00091196  0.83475984  0.38716020  1
  La3+  La50  1  0.50003114  0.49992003  0.36467725  1
  La3+  La51  1  -0.00005060  0.16655119  0.36437497  1
  La3+  La52  1  0.00018858  0.83408931  0.36928171  1
  La3+  La53  1  0.00032926  0.83363927  0.11266895  1
  La3+  La54  1  0.00080611  0.49925407  0.61701995  1
  La3+  La55  1  -0.00038688  0.16751936  0.61738721  1
  La3+  La56  1  0.50008979  0.83341017  0.88569553  1
  La3+  La57  1  0.49759114  0.83662449  0.37011796  1
  La3+  La58  1  -0.00015334  0.16678967  0.13471036  1
  La3+  La59  1  0.50091781  0.16779306  0.86549863  1
  La3+  La60  1  -0.00049379  0.83181274  0.13499574  1
  La3+  La61  1  0.49960920  0.16597959  0.63511324  1
  La3+  La62  1  0.49988806  0.16688234  0.36601000  1
  La3+  La63  1  0.49955303  0.16779188  0.13360680  1
  La3+  La64  1  0.50020701  0.83265508  0.38638264  1
  La3+  La65  1  0.00007094  0.16719345  0.38637030  1
  La3+  La66  1  0.49917359  0.83308308  0.63412376  1
  La3+  La67  1  0.00187365  0.16773600  0.11720248  1
  La3+  La68  1  0.50023100  0.50030970  0.86548467  1
  La3+  La69  1  -0.00001505  0.49957608  0.11391406  1
  La3+  La70  1  0.50025029  0.50146351  0.61674760  1
  La3+  La71  1  0.50015239  0.83503470  0.13315084  1
  La3+  La72  1  0.74988046  0.50077252  0.51605099  1
  La3+  La73  1  0.75000039  0.52609913  0.75336361  1
  La3+  La74  1  0.74992269  0.16796655  0.78955704  1
  La3+  La75  1  0.24996505  0.13905903  0.26696926  1
  La3+  La76  1  0.75020960  0.49970923  0.23414567  1
  La3+  La77  1  0.75004086  0.19428366  0.22836895  1
  La3+  La78  1  0.25010006  0.83276893  0.48462197  1
  La3+  La79  1  0.75001043  0.16406753  0.46807191  1
  La3+  La80  1  0.74997124  0.82968596  0.77985076  1
  La3+  La81  1  0.25011298  0.19352905  0.52153613  1
  La3+  La82  1  0.24996882  0.50021254  0.00046154  1
  La3+  La83  1  0.24996273  0.80736095  0.24816001  1
  Ru4+  Ru84  1  0.00144404  -0.00141441  -0.00290339  1
  Ru4+  Ru85  1  -0.00047193  0.00277974  0.25337642  1
  Ru4+  Ru86  1  -0.00051619  -0.00111020  0.50126172  1
  Ru4+  Ru87  1  0.00005647  -0.00083351  0.75082929  1
  Ru4+  Ru88  1  0.00182573  0.33509959  -0.00059202  1
  Ru4+  Ru89  1  -0.00196295  0.33628763  0.24845871  1
  Ru4+  Ru90  1  0.00014937  0.33460674  0.50095429  1
  Ru4+  Ru91  1  -0.00032800  0.33312926  0.75207567  1
  Ru4+  Ru92  1  0.00000223  0.66652005  0.00000469  1
  Ru4+  Ru93  1  -0.00017871  0.66593116  0.24917312  1
  Ru4+  Ru94  1  -0.00011198  0.67062355  0.50296267  1
  Ru4+  Ru95  1  -0.00040546  0.66887035  0.74798521  1
  Ru4+  Ru96  1  0.50121307  -0.00114747  0.00019606  1
  Ru4+  Ru97  1  0.49854956  -0.00118869  0.24916438  1
  Ru4+  Ru98  1  0.50149905  0.00293708  0.50149843  1
  Ru4+  Ru99  1  0.50098459  -0.00178996  0.75051266  1
  Ru4+  Ru100  1  0.50158389  0.33166713  0.00203003  1
  Ru4+  Ru101  1  0.49945451  0.33383249  0.24828181  1
  Ru4+  Ru102  1  0.49913806  0.33047891  0.49710812  1
  Ru4+  Ru103  1  0.49946350  0.33434682  0.75222564  1
  Ru4+  Ru104  1  0.50059615  0.66795683  0.00033493  1
  Ru4+  Ru105  1  0.49750846  0.66579093  0.24780260  1
  Ru4+  Ru106  1  0.50098126  0.66880777  0.49928512  1
  Ru4+  Ru107  1  0.50084884  0.66865454  0.75139435  1
  Ru4+  Ru108  1  0.11298951  0.16762897  -0.00042843  1
  Ru4+  Ru109  1  0.11282855  0.16481959  0.25010606  1
  Ru4+  Ru110  1  0.11249800  0.16783341  0.49973688  1
  Ru4+  Ru111  1  0.11319958  0.16606791  0.74977715  1
  Ru4+  Ru112  1  0.11240968  0.49995394  -0.00012984  1
  Ru4+  Ru113  1  0.11295550  0.49886956  0.25024278  1
  Ru4+  Ru114  1  0.11320978  0.49848848  0.49960843  1
  Ru4+  Ru115  1  0.11367772  0.49836437  0.74987771  1
  Ru4+  Ru116  1  0.11334789  0.83264762  -0.00018521  1
  Ru4+  Ru117  1  0.11321862  0.83144475  0.25001852  1
  Ru4+  Ru118  1  0.11223830  0.83301898  0.50005943  1
  Ru4+  Ru119  1  0.11189487  0.83370365  0.75003513  1
  Ru4+  Ru120  1  0.61460370  0.16526389  0.00042019  1
  Ru4+  Ru121  1  0.61331980  0.16875255  0.25015468  1
  Ru4+  Ru122  1  0.61264759  0.16510342  0.49995527  1
  Ru4+  Ru123  1  0.61220297  0.16563596  0.75012651  1
  Ru4+  Ru124  1  0.61310197  0.49976375  0.00022844  1
  Ru4+  Ru125  1  0.61471581  0.49759187  0.24940947  1
  Ru4+  Ru126  1  0.61268360  0.50167972  0.50021290  1
  Ru4+  Ru127  1  0.61186890  0.50064926  0.75000030  1
  Ru4+  Ru128  1  0.61303734  0.83355335  0.00001579  1
  Ru4+  Ru129  1  0.61496520  0.83406495  0.24958194  1
  Ru4+  Ru130  1  0.61374437  0.83341686  0.50003221  1
  Ru4+  Ru131  1  0.61183276  0.83251797  0.74986621  1
  Ru4+  Ru132  1  0.38600126  0.16909394  0.00032979  1
  Ru4+  Ru133  1  0.38759070  0.16599273  0.25019038  1
  Ru4+  Ru134  1  0.38828275  0.16703493  0.50013292  1
  Ru4+  Ru135  1  0.38593792  0.16773237  0.75029989  1
  Ru4+  Ru136  1  0.38378633  0.50118256  0.00053273  1
  Ru4+  Ru137  1  0.38702369  0.49971026  0.24995843  1
  Ru4+  Ru138  1  0.38455377  0.50084730  0.50034711  1
  Ru4+  Ru139  1  0.38586556  0.49782407  0.75020250  1
  Ru4+  Ru140  1  0.38667588  0.83271528  0.00004421  1
  Ru4+  Ru141  1  0.38680180  0.83417518  0.24959568  1
  Ru4+  Ru142  1  0.38592229  0.83087597  0.50111549  1
  Ru4+  Ru143  1  0.38708284  0.83395921  0.75010864  1
  Ru4+  Ru144  1  0.88391005  0.16617701  -0.00066047  1
  Ru4+  Ru145  1  0.88828559  0.16699772  0.24995004  1
  Ru4+  Ru146  1  0.88801806  0.16704386  0.50014833  1
  Ru4+  Ru147  1  0.88874114  0.16633781  0.75063243  1
  Ru4+  Ru148  1  0.88599614  0.49989044  0.00010715  1
  Ru4+  Ru149  1  0.88815336  0.50085532  0.25032846  1
  Ru4+  Ru150  1  0.88761293  0.49807265  0.49937222  1
  Ru4+  Ru151  1  0.88815029  0.50011142  0.75011435  1
  Ru4+  Ru152  1  0.88701906  0.83404938  0.00010386  1
  Ru4+  Ru153  1  0.88618497  0.83295582  0.25038648  1
  Ru4+  Ru154  1  0.88680760  0.83393794  0.50032020  1
  Ru4+  Ru155  1  0.88813983  0.83255195  0.75017898  1
  Ru4+  Ru156  1  0.75005481  0.06189443  0.25014449  1
  Ru4+  Ru157  1  0.25002566  0.75181757  0.75044394  1
  Ru4+  Ru158  1  0.24995122  0.08836449  -0.00240172  1
  Ru4+  Ru159  1  0.25009449  0.91273270  0.00146982  1
  Ru4+  Ru160  1  0.75006858  0.05976102  0.74280135  1
  Ru4+  Ru161  1  0.74998208  0.94156639  0.74331809  1
  Ru4+  Ru162  1  0.75009810  0.75013525  0.00098761  1
  Ru4+  Ru163  1  0.74999289  0.39852109  0.49548495  1
  Ru4+  Ru164  1  0.24987259  0.42003774  0.49895808  1
  Ru4+  Ru165  1  0.24992001  0.57965537  0.49889426  1
  Ru4+  Ru166  1  0.24985187  0.26979837  0.25267508  1
  Ru4+  Ru167  1  0.25002399  0.93727495  0.24817132  1
  Ru4+  Ru168  1  0.24992153  0.58034204  0.74918914  1
  Ru4+  Ru169  1  0.24998523  0.57817745  0.24958806  1
  Ru4+  Ru170  1  0.75001322  0.05183380  0.49941766  1
  Ru4+  Ru171  1  0.74995429  0.27709567  0.49836246  1
  Ru4+  Ru172  1  0.75025967  0.60310878  0.24474154  1
  Ru4+  Ru173  1  0.75009323  0.71692337  0.74828841  1
  Ru4+  Ru174  1  0.75003223  0.27860631  0.74830211  1
  Ru4+  Ru175  1  0.74996926  0.39879324  0.75311795  1
  Ru4+  Ru176  1  0.25013416  0.06142125  0.49886066  1
  Ru4+  Ru177  1  0.75007031  0.39529581  0.24792288  1
  Ru4+  Ru178  1  0.25005586  0.24771859  0.75129249  1
  Ru4+  Ru179  1  0.75007179  0.60266506  0.50321212  1
  O2-  O180  1  0.16798735  0.08088470  0.00050561  1
  O2-  O181  1  0.16703763  0.07994975  0.24988952  1
  O2-  O182  1  0.16727794  0.07966830  0.50031225  1
  O2-  O183  1  0.16763759  0.08091350  0.74937577  1
  O2-  O184  1  0.16832122  0.41490865  -0.00014035  1
  O2-  O185  1  0.16732933  0.41456526  0.24992507  1
  O2-  O186  1  0.16828256  0.41462145  0.50067732  1
  O2-  O187  1  0.16721977  0.41474145  0.74966633  1
  O2-  O188  1  0.16699796  0.74793366  0.00014812  1
  O2-  O189  1  0.16786523  0.74756258  0.25058290  1
  O2-  O190  1  0.16757880  0.74742457  0.49977172  1
  O2-  O191  1  0.16823204  0.74771130  0.75022968  1
  O2-  O192  1  0.66710922  0.08118863  0.00009131  1
  O2-  O193  1  0.66717803  0.08004783  0.25000496  1
  O2-  O194  1  0.66674398  0.08007111  0.50003993  1
  O2-  O195  1  0.66704198  0.08002398  0.74959162  1
  O2-  O196  1  0.66696045  0.41470576  0.00086589  1
  O2-  O197  1  0.66621964  0.41307433  0.24989431  1
  O2-  O198  1  0.66690521  0.41301059  0.49978795  1
  O2-  O199  1  0.66731389  0.41318128  0.74968015  1
  O2-  O200  1  0.66771127  0.74789666  -0.00040259  1
  O2-  O201  1  0.66789929  0.74747311  0.25038371  1
  O2-  O202  1  0.66694994  0.74774305  0.49989982  1
  O2-  O203  1  0.66679099  0.74667427  0.75010760  1
  O2-  O204  1  0.33259010  0.25129235  0.00002786  1
  O2-  O205  1  0.33278009  0.25314660  0.25047967  1
  O2-  O206  1  0.33261929  0.25348986  0.50008122  1
  O2-  O207  1  0.33167810  0.25222597  0.74942062  1
  O2-  O208  1  0.33194531  0.58544441  0.00033454  1
  O2-  O209  1  0.33237243  0.58595819  0.25015920  1
  O2-  O210  1  0.33176043  0.58505912  0.50002199  1
  O2-  O211  1  0.33189274  0.58581712  0.75014489  1
  O2-  O212  1  0.33199309  0.91928325  -0.00018401  1
  O2-  O213  1  0.33260583  0.91970777  0.25010675  1
  O2-  O214  1  0.33201182  0.91965358  0.49965208  1
  O2-  O215  1  0.33242608  0.91915534  0.74975960  1
  O2-  O216  1  0.83298025  0.25168007  0.00084011  1
  O2-  O217  1  0.83196772  0.25335123  0.25016460  1
  O2-  O218  1  0.83297339  0.25343483  0.49964653  1
  O2-  O219  1  0.83342858  0.25325544  0.74940315  1
  O2-  O220  1  0.83296913  0.58484965  -0.00010633  1
  O2-  O221  1  0.83267807  0.58669682  0.24978154  1
  O2-  O222  1  0.83299046  0.58661658  0.50044728  1
  O2-  O223  1  0.83198681  0.58652272  0.74984179  1
  O2-  O224  1  0.83232203  0.91903655  -0.00019091  1
  O2-  O225  1  0.83274035  0.91909224  0.25034178  1
  O2-  O226  1  0.83169275  0.91929401  0.49967881  1
  O2-  O227  1  0.83377161  0.91994571  0.74943992  1
  O2-  O228  1  0.16754876  0.25152470  0.00039989  1
  O2-  O229  1  0.16755375  0.25361061  0.25018311  1
  O2-  O230  1  0.16768673  0.25277939  0.50054076  1
  O2-  O231  1  0.16812237  0.25254931  0.74947691  1
  O2-  O232  1  0.16775172  0.58544499  0.00012923  1
  O2-  O233  1  0.16754662  0.58579685  0.25011104  1
  O2-  O234  1  0.16830937  0.58549350  0.50018296  1
  O2-  O235  1  0.16840231  0.58601634  0.75058928  1
  O2-  O236  1  0.16754702  0.91924086  0.00007945  1
  O2-  O237  1  0.16734182  0.92012916  0.25029208  1
  O2-  O238  1  0.16798871  0.92020039  0.49988352  1
  O2-  O239  1  0.16735541  0.91894473  0.74941091  1
  O2-  O240  1  0.66726673  0.25188004  0.00111914  1
  O2-  O241  1  0.66724788  0.25326407  0.24963459  1
  O2-  O242  1  0.66704321  0.25375877  0.49970916  1
  O2-  O243  1  0.66673583  0.25342299  0.74940791  1
  O2-  O244  1  0.66667189  0.58511451  -0.00013339  1
  O2-  O245  1  0.66743250  0.58698053  0.25031968  1
  O2-  O246  1  0.66692307  0.58653871  0.49973680  1
  O2-  O247  1  0.66768815  0.58664428  0.74991811  1
  O2-  O248  1  0.66772214  0.91906759  -0.00029353  1
  O2-  O249  1  0.66700511  0.91878894  0.25028412  1
  O2-  O250  1  0.66772267  0.91920159  0.50033882  1
  O2-  O251  1  0.66654745  0.92033237  0.74958742  1
  O2-  O252  1  0.33211208  0.08072181  -0.00008327  1
  O2-  O253  1  0.33290116  0.08035429  0.24990686  1
  O2-  O254  1  0.33237038  0.07958659  0.50000232  1
  O2-  O255  1  0.33188621  0.08081129  0.74949625  1
  O2-  O256  1  0.33168908  0.41509589  -0.00012298  1
  O2-  O257  1  0.33292560  0.41441846  0.25039777  1
  O2-  O258  1  0.33204861  0.41454078  0.50013725  1
  O2-  O259  1  0.33229808  0.41487282  0.74972410  1
  O2-  O260  1  0.33325230  0.74817777  0.00034155  1
  O2-  O261  1  0.33223933  0.74722371  0.25043360  1
  O2-  O262  1  0.33196280  0.74749236  0.49978865  1
  O2-  O263  1  0.33203630  0.74736233  0.74997724  1
  O2-  O264  1  0.83232856  0.08122944  0.00030673  1
  O2-  O265  1  0.83291743  0.07989452  0.25039948  1
  O2-  O266  1  0.83316537  0.07967145  0.49969123  1
  O2-  O267  1  0.83299783  0.08031178  0.74950669  1
  O2-  O268  1  0.83260326  0.41506169  0.00013231  1
  O2-  O269  1  0.83339619  0.41301648  0.24986454  1
  O2-  O270  1  0.83306132  0.41343862  0.50012348  1
  O2-  O271  1  0.83261623  0.41339262  0.74974731  1
  O2-  O272  1  0.83218907  0.74749907  -0.00016024  1
  O2-  O273  1  0.83248103  0.74766473  0.24989894  1
  O2-  O274  1  0.83356089  0.74811208  0.50002055  1
  O2-  O275  1  0.83278975  0.74660013  0.74971039  1
  O2-  O276  1  0.04059046  0.56118172  0.77524074  1
  O2-  O277  1  0.45504364  0.23634026  0.26513471  1
  O2-  O278  1  0.54657680  0.09827203  0.23064416  1
  O2-  O279  1  0.45845571  0.77194186  0.22488190  1
  O2-  O280  1  0.95883514  0.56126966  0.52471414  1
  O2-  O281  1  0.54658970  0.09800954  0.27005694  1
  O2-  O282  1  0.95406796  0.09917936  0.51350893  1
  O2-  O283  1  0.95507342  0.23455208  0.76439188  1
  O2-  O284  1  0.54756287  0.43065452  0.01579513  1
  O2-  O285  1  0.04613015  0.90134326  0.51479508  1
  O2-  O286  1  0.54570657  0.43238234  0.76309237  1
  O2-  O287  1  0.54559013  0.23483388  0.73587507  1
  O2-  O288  1  0.04611080  0.09814180  0.51451118  1
  O2-  O289  1  0.45516741  0.43035851  0.26539048  1
  O2-  O290  1  0.54161986  0.77151665  0.27519499  1
  O2-  O291  1  0.45351263  0.56924645  0.01948463  1
  O2-  O292  1  0.45938980  0.56047918  0.72441436  1
  O2-  O293  1  0.95806903  0.89485969  0.50996921  1
  O2-  O294  1  0.95522889  0.23406782  0.97959601  1
  O2-  O295  1  0.54688901  0.23656603  0.98361015  1
  O2-  O296  1  0.45285647  0.09707234  0.26458372  1
  O2-  O297  1  0.05466921  0.92007153  0.22647177  1
  O2-  O298  1  0.04503287  0.56775784  0.98492851  1
  O2-  O299  1  0.45864483  0.43684435  0.99460984  1
  O2-  O300  1  0.54506489  0.90151312  0.73534429  1
  O2-  O301  1  0.45342255  0.56965312  0.98066517  1
  O2-  O302  1  0.54589631  0.09868349  0.01486940  1
  O2-  O303  1  0.54458231  0.56444434  0.26646252  1
  O2-  O304  1  0.45334582  0.56865204  0.23598029  1
  O2-  O305  1  0.95431676  0.23647317  0.01878304  1
  O2-  O306  1  0.45854510  0.10547814  0.97402135  1
  O2-  O307  1  0.04510282  0.90141138  0.76403992  1
  O2-  O308  1  0.04466466  0.76516944  0.98455799  1
  O2-  O309  1  0.45454363  0.43082063  0.47913631  1
  O2-  O310  1  0.45958343  0.56210785  0.47367665  1
  O2-  O311  1  0.95874994  0.10404294  0.02384609  1
  O2-  O312  1  0.54074107  0.56082247  0.24135965  1
  O2-  O313  1  0.95420399  0.90122142  0.26533683  1
  O2-  O314  1  0.54537994  0.90291223  0.26388897  1
  O2-  O315  1  0.54745784  0.56931577  0.98409986  1
  O2-  O316  1  0.45335561  0.43112234  0.51834610  1
  O2-  O317  1  0.53982925  0.22775494  0.47287156  1
  O2-  O318  1  0.04508247  0.43264615  0.26430005  1
  O2-  O319  1  0.45308497  0.90340776  0.48391537  1
  O2-  O320  1  0.45849062  0.43651434  -0.00532627  1
  O2-  O321  1  0.54355546  0.43914136  0.52502460  1
  O2-  O322  1  0.54485428  0.90047931  0.01414908  1
  O2-  O323  1  0.95322474  0.90259411  0.48344285  1
  O2-  O324  1  0.93610635  0.26431607  0.53319453  1
  O2-  O325  1  0.93626449  0.73552281  0.78238463  1
  O2-  O326  1  0.93007783  0.60270867  0.45875925  1
  O2-  O327  1  0.43166548  0.06316720  0.04295669  1
  O2-  O328  1  0.43587539  0.26339163  0.78245183  1
  O2-  O329  1  0.43590295  0.93142990  0.21794718  1
  O2-  O330  1  0.56994365  0.27020955  0.54171565  1
  O2-  O331  1  0.93589837  0.06808622  0.78191160  1
  O2-  O332  1  0.56252682  0.26231580  0.97059033  1
  O2-  O333  1  0.56982982  0.60615094  0.21027317  1
  O2-  O334  1  0.06477129  0.73659008  0.21939340  1
  O2-  O335  1  0.43581783  0.40304995  0.78268362  1
  O2-  O336  1  0.06431613  0.26229506  0.46945931  1
  O2-  O337  1  0.43141464  0.72745853  0.29336032  1
  O2-  O338  1  0.93597281  0.59721757  0.71693904  1
  O2-  O339  1  0.56496524  0.07028449  0.78035620  1
  O2-  O340  1  0.43588885  0.93028437  0.03206997  1
  O2-  O341  1  0.93576839  0.40218312  0.78174019  1
  O2-  O342  1  0.06352743  0.40264895  0.03302558  1
  O2-  O343  1  0.06547639  0.59546239  0.45496243  1
  O2-  O344  1  0.42699712  0.39095439  0.04022103  1
  O2-  O345  1  0.93519864  0.59670641  0.27973857  1
  O2-  O346  1  0.06881931  0.60148394  0.70980737  1
  O2-  O347  1  0.43027315  0.60304118  0.79139849  1
  O2-  O348  1  0.06507569  0.07024006  0.96972318  1
  O2-  O349  1  0.56424791  0.93166660  0.46719494  1
  O2-  O350  1  0.43576128  0.06870353  0.79879313  1
  O2-  O351  1  0.06452341  0.26287052  0.96956833  1
  O2-  O352  1  0.06589992  0.59564297  0.54543988  1
  O2-  O353  1  0.56884857  0.39516947  0.45535734  1
  O2-  O354  1  0.56510958  0.59650214  0.53045086  1
  O2-  O355  1  0.43468272  0.06984186  0.70344468  1
  O2-  O356  1  0.93268255  0.93371485  0.53085232  1
  O2-  O357  1  0.06490108  0.40428815  0.47013772  1
  O2-  O358  1  0.43025128  0.60206309  0.54114843  1
  O2-  O359  1  0.93524357  0.26293127  0.21956180  1
  O2-  O360  1  0.43546686  0.73755489  0.53025609  1
  O2-  O361  1  0.93603827  0.59798885  0.03268793  1
  O2-  O362  1  0.06588640  0.26230194  0.29656692  1
  O2-  O363  1  0.93515145  0.40382922  0.46998343  1
  O2-  O364  1  0.05565298  0.91101942  0.22869800  1
  O2-  O365  1  0.06498244  0.73730214  0.72058149  1
  O2-  O366  1  0.43814186  0.92795764  0.46678506  1
  O2-  O367  1  0.56876784  0.72974904  0.20630232  1
  O2-  O368  1  0.93545259  0.40380205  0.03044425  1
  O2-  O369  1  0.43522082  0.26205242  0.03030931  1
  O2-  O370  1  0.06475584  0.26464812  0.20090385  1
  O2-  O371  1  0.93148376  0.06177848  0.95672780  1
  O2-  O372  1  0.24984632  0.66532958  0.90427855  1
  O2-  O373  1  0.24998408  0.33333800  0.07996288  1
  O2-  O374  1  0.74993316  0.33436253  0.59868919  1
  O2-  O375  1  0.74995610  0.66850021  0.90686703  1
  O2-  O376  1  0.74999449  0.33238314  0.34382583  1
  O2-  O377  1  0.25000080  0.33686982  0.16668818  1
  O2-  O378  1  0.24996743  0.00097479  0.34443108  1
  O2-  O379  1  0.25003288  0.66607995  0.40771005  1
  O2-  O380  1  0.74990440  0.67089004  0.41793966  1
  O2-  O381  1  0.75000289  0.66792046  0.09208797  1
  O2-  O382  1  0.75006588  0.00004656  0.15620806  1
  O2-  O383  1  0.75009840  -0.00065035  0.34515207  1
  O2-  O384  1  0.25004599  0.66711239  0.65810098  1
  O2-  O385  1  0.25010148  0.00008554  0.90812020  1
  O2-  O386  1  0.75001144  0.66715423  0.59488219  1
  O2-  O387  1  0.25012177  0.33393089  0.40850037  1
  O2-  O388  1  0.25004758  0.33331381  0.91817931  1
  O2-  O389  1  0.74998038  -0.00180484  0.59551817  1
  O2-  O390  1  0.75005419  0.33338673  0.90439310  1
  O2-  O391  1  0.74993771  0.67021876  0.33089130  1
  O2-  O392  1  0.25003882  0.66612360  0.15887675  1
  O2-  O393  1  0.75002451  -0.00014776  0.84926868  1
  O2-  O394  1  0.24997363  0.00005095  0.09251941  1
  O2-  O395  1  0.25004095  0.33375175  0.83052256  1
  O2-  O396  1  0.75005523  0.49998485  0.41073512  1
  O2-  O397  1  0.25001505  0.16807769  0.14050447  1
  O2-  O398  1  0.24995517  0.16505184  0.39345758  1
  O2-  O399  1  0.75002738  0.16624914  0.66423767  1
  O2-  O400  1  0.25003832  0.83249278  0.91754235  1
  O2-  O401  1  0.75003768  0.16654426  0.90835335  1
  O2-  O402  1  0.24997219  0.50143566  0.66031440  1
  O2-  O403  1  0.75001052  0.50083811  0.61984450  1
  O2-  O404  1  0.25000007  0.83309925  0.60679411  1
  O2-  O405  1  0.75001676  0.16439980  0.35392540  1
  O2-  O406  1  0.74997679  0.49975806  0.13165837  1
  O2-  O407  1  0.24999197  0.83472966  0.09004671  1
  O2-  O408  1  0.74995246  0.83363044  0.40996846  1
  O2-  O409  1  0.75001681  0.83288604  0.16614326  1
  O2-  O410  1  0.74996334  0.83380946  0.65309120  1
  O2-  O411  1  0.74996683  0.83338191  0.57330433  1
  O2-  O412  1  0.24995393  0.50141030  0.16028014  1
  O2-  O413  1  0.75002400  0.49954973  0.90737710  1
  O2-  O414  1  0.75002442  0.83354756  0.08334117  1
  O2-  O415  1  0.75001511  0.16650873  0.58778307  1
  O2-  O416  1  0.24999256  0.16500374  0.91176249  1
  O2-  O417  1  0.24997174  0.50226186  0.33960135  1
  O2-  O418  1  0.25003639  0.83394213  0.83188709  1
  O2-  O419  1  0.75004995  0.49993473  0.33920775  1
  O2-  O420  1  0.03198383  0.00167483  0.12208609  1
  O2-  O421  1  0.47417810  0.33265630  0.12881637  1
  O2-  O422  1  0.97308823  0.00129799  0.62869879  1
  O2-  O423  1  0.96967147  0.33178125  0.37253444  1
  O2-  O424  1  0.02461825  0.66846135  0.62282130  1
  O2-  O425  1  0.02698448  -0.00104897  0.87350273  1
  O2-  O426  1  0.52700399  -0.00171443  0.87706181  1
  O2-  O427  1  0.47279673  -0.00155731  0.62293722  1
  O2-  O428  1  0.52754387  -0.00038975  0.12548881  1
  O2-  O429  1  0.53081957  0.33526582  0.62863679  1
  O2-  O430  1  0.47383406  0.66957465  0.87666133  1
  O2-  O431  1  0.02981455  0.66919183  0.37190487  1
  O2-  O432  1  0.02784426  0.33467670  0.37409301  1
  O2-  O433  1  0.52814667  0.66664647  0.37533461  1
  O2-  O434  1  0.02700886  0.33474498  0.87315212  1
  O2-  O435  1  0.52695944  0.33436705  0.87314809  1
  O2-  O436  1  0.47260808  0.66816743  0.12425267  1
  O2-  O437  1  0.53025334  0.66823405  0.62753147  1
  O2-  O438  1  0.02702057  0.66523448  0.12383705  1
  O2-  O439  1  0.46787344  0.33287779  0.62610477  1
  O2-  O440  1  0.97393599  0.33367640  0.12518969  1
  O2-  O441  1  0.96716204  -0.00051883  0.12470214  1
  O2-  O442  1  0.47113791  0.66773999  0.62875968  1
  O2-  O443  1  0.97097748  0.67070734  0.37405281  1
