# generated using pymatgen
data_La7(Ru4O11)2
_symmetry_space_group_name_H-M   'P 1'
_cell_length_a   23.99240572
_cell_length_b   16.83293640
_cell_length_c   15.42810039
_cell_angle_alpha   89.99772636
_cell_angle_beta   90.00172170
_cell_angle_gamma   89.99901908
_symmetry_Int_Tables_number   1
_chemical_formula_structural   La7(Ru4O11)2
_chemical_formula_sum   'La84 Ru96 O264'
_cell_volume   6230.83333843
_cell_formula_units_Z   12
loop_
 _symmetry_equiv_pos_site_id
 _symmetry_equiv_pos_as_xyz
  1  'x, y, z'
loop_
 _atom_type_symbol
 _atom_type_oxidation_number
  La3+  3.0
  Ru4+  4.0
  O2-  -2.0
loop_
 _atom_site_type_symbol
 _atom_site_label
 _atom_site_symmetry_multiplicity
 _atom_site_fract_x
 _atom_site_fract_y
 _atom_site_fract_z
 _atom_site_occupancy
  La3+  La0  1  0.14877380  -0.00022287  0.13111709  1
  La3+  La1  1  0.14204059  -0.00722865  0.36902876  1
  La3+  La2  1  0.12983424  0.00439628  0.62392612  1
  La3+  La3  1  0.13201045  0.00148804  0.87433592  1
  La3+  La4  1  0.13993193  0.33453706  0.12438407  1
  La3+  La5  1  0.14146067  0.33688866  0.37491919  1
  La3+  La6  1  0.14130179  0.33070018  0.63134849  1
  La3+  La7  1  0.14494691  0.33541014  0.87523353  1
  La3+  La8  1  0.14313048  0.67087125  0.12171594  1
  La3+  La9  1  0.13954015  0.67131141  0.37300805  1
  La3+  La10  1  0.13452007  0.66830505  0.62301420  1
  La3+  La11  1  0.13929152  0.66586556  0.87761492  1
  La3+  La12  1  0.64557854  0.00123782  0.12848000  1
  La3+  La13  1  0.63644417  0.00221430  0.37040786  1
  La3+  La14  1  0.63705023  0.00411555  0.62867012  1
  La3+  La15  1  0.64604383  0.00425310  0.87495268  1
  La3+  La16  1  0.63725052  0.33460967  0.12143317  1
  La3+  La17  1  0.63778660  0.33673072  0.37142255  1
  La3+  La18  1  0.63867094  0.33065242  0.62521991  1
  La3+  La19  1  0.64411098  0.33349756  0.87834453  1
  La3+  La20  1  0.64104273  0.66103194  0.12329436  1
  La3+  La21  1  0.64009542  0.67085291  0.37192556  1
  La3+  La22  1  0.63741503  0.66625281  0.62684298  1
  La3+  La23  1  0.64223710  0.66403170  0.87318504  1
  La3+  La24  1  0.35574417  -0.00371676  0.12976841  1
  La3+  La25  1  0.36164921  -0.00565988  0.36631297  1
  La3+  La26  1  0.36340037  0.00020738  0.62477558  1
  La3+  La27  1  0.36785728  -0.00376700  0.87849994  1
  La3+  La28  1  0.36200417  0.33303632  0.12241212  1
  La3+  La29  1  0.36375334  0.33488153  0.37480973  1
  La3+  La30  1  0.36010800  0.33298204  0.62789290  1
  La3+  La31  1  0.35896693  0.33125097  0.87633676  1
  La3+  La32  1  0.36684811  0.67296729  0.11525441  1
  La3+  La33  1  0.35921802  0.66791737  0.37056574  1
  La3+  La34  1  0.35896647  0.67079649  0.63064105  1
  La3+  La35  1  0.36813897  0.67998298  0.88937439  1
  La3+  La36  1  0.85236229  0.00132636  0.12407236  1
  La3+  La37  1  0.86598419  0.00458131  0.37514439  1
  La3+  La38  1  0.86607731  0.00051986  0.62106195  1
  La3+  La39  1  0.85500551  0.00380837  0.87731994  1
  La3+  La40  1  0.85973089  0.33533734  0.12430643  1
  La3+  La41  1  0.86003926  0.33494897  0.37162060  1
  La3+  La42  1  0.86037990  0.33088906  0.62570194  1
  La3+  La43  1  0.85657717  0.33244564  0.87950149  1
  La3+  La44  1  0.85795728  0.66335550  0.12078192  1
  La3+  La45  1  0.86917581  0.66995836  0.37696526  1
  La3+  La46  1  0.86253559  0.66838541  0.62404653  1
  La3+  La47  1  0.85481406  0.65950012  0.87193596  1
  La3+  La48  1  -0.00316718  0.82880629  0.86445048  1
  La3+  La49  1  0.00346545  0.49715662  0.12914813  1
  La3+  La50  1  0.00179269  0.83773926  0.38527254  1
  La3+  La51  1  -0.00533848  0.49799453  0.11118459  1
  La3+  La52  1  0.50990261  0.49426758  0.36409104  1
  La3+  La53  1  0.49523878  0.47832826  0.61959570  1
  La3+  La54  1  0.00378141  0.82363120  0.61319549  1
  La3+  La55  1  0.00810118  0.84951174  0.12752992  1
  La3+  La56  1  0.49913544  0.50072810  0.87830721  1
  La3+  La57  1  0.00336324  0.16091009  0.38268102  1
  La3+  La58  1  -0.00904838  0.15796133  0.11239543  1
  La3+  La59  1  0.49270618  0.83270772  0.10652799  1
  La3+  La60  1  0.48931282  0.83265697  0.12295018  1
  La3+  La61  1  0.49433687  0.16405895  0.12970329  1
  La3+  La62  1  -0.00851162  0.16703033  0.63091956  1
  La3+  La63  1  0.50037613  0.16408318  0.62420269  1
  La3+  La64  1  0.49957318  0.17373924  0.38118720  1
  La3+  La65  1  0.00275419  0.50309364  0.62238567  1
  La3+  La66  1  0.49042726  0.83765357  0.86724919  1
  La3+  La67  1  0.49857483  0.50367675  0.13646751  1
  La3+  La68  1  -0.00326549  0.50215520  0.37427839  1
  La3+  La69  1  0.49877755  0.17825666  0.88329789  1
  La3+  La70  1  0.00227247  0.84569618  0.14766029  1
  La3+  La71  1  0.49932532  0.82833613  0.87790865  1
  La3+  La72  1  0.24980203  0.16660385  0.57050062  1
  La3+  La73  1  0.74975137  0.89802460  0.46653649  1
  La3+  La74  1  0.74957674  0.88098892  0.22146627  1
  La3+  La75  1  0.25003493  0.44727798  0.75282747  1
  La3+  La76  1  0.74875786  0.20016301  0.47779099  1
  La3+  La77  1  0.25087505  0.17833706  -0.02726460  1
  La3+  La78  1  0.74955924  0.89860526  0.77355849  1
  La3+  La79  1  0.25123202  0.87125698  0.51970590  1
  La3+  La80  1  0.75071356  0.49383821  0.54198344  1
  La3+  La81  1  0.24888059  0.88580308  0.76713113  1
  La3+  La82  1  0.74954132  0.49811364  -0.03191610  1
  La3+  La83  1  0.75072660  0.16308569  -0.00637590  1
  Ru4+  Ru84  1  -0.00257947  0.00359833  -0.00394332  1
  Ru4+  Ru85  1  0.00096039  0.00507651  0.25384882  1
  Ru4+  Ru86  1  0.00751812  0.00310010  0.51077053  1
  Ru4+  Ru87  1  -0.00459811  -0.00182988  0.75072833  1
  Ru4+  Ru88  1  -0.00147764  0.33183687  0.00301312  1
  Ru4+  Ru89  1  0.00588144  0.32251872  0.24016091  1
  Ru4+  Ru90  1  0.00288474  0.33210292  0.51327527  1
  Ru4+  Ru91  1  0.00169373  0.33124006  0.74454820  1
  Ru4+  Ru92  1  -0.00551020  0.66835216  -0.01227259  1
  Ru4+  Ru93  1  -0.00107902  0.66703633  0.24950082  1
  Ru4+  Ru94  1  -0.00234082  0.65210811  0.50409620  1
  Ru4+  Ru95  1  0.00238155  0.66347824  0.74935116  1
  Ru4+  Ru96  1  0.50410300  0.01049529  0.00170124  1
  Ru4+  Ru97  1  0.50011662  0.01121862  0.24519072  1
  Ru4+  Ru98  1  0.50046087  -0.01213526  0.51522701  1
  Ru4+  Ru99  1  0.50368529  -0.00318897  0.73565527  1
  Ru4+  Ru100  1  0.50343868  0.33719581  -0.01087571  1
  Ru4+  Ru101  1  0.50286766  0.32912488  0.26419216  1
  Ru4+  Ru102  1  0.49646497  0.33615515  0.49118058  1
  Ru4+  Ru103  1  0.49992537  0.33300621  0.75803038  1
  Ru4+  Ru104  1  0.50143942  0.66664731  0.00024878  1
  Ru4+  Ru105  1  0.50076357  0.66270824  0.24510133  1
  Ru4+  Ru106  1  0.49874331  0.64778593  0.49889609  1
  Ru4+  Ru107  1  0.50272973  0.65527310  0.75310772  1
  Ru4+  Ru108  1  0.11200942  0.16355442  -0.00559994  1
  Ru4+  Ru109  1  0.11234505  0.17217527  0.25339399  1
  Ru4+  Ru110  1  0.11172064  0.16420040  0.49032087  1
  Ru4+  Ru111  1  0.11195127  0.16833976  0.75447586  1
  Ru4+  Ru112  1  0.11434595  0.50160735  -0.00296488  1
  Ru4+  Ru113  1  0.11488499  0.49785559  0.25185387  1
  Ru4+  Ru114  1  0.11078789  0.49841703  0.50035327  1
  Ru4+  Ru115  1  0.10724474  0.50311823  0.75148707  1
  Ru4+  Ru116  1  0.11452670  0.82725913  -0.00311004  1
  Ru4+  Ru117  1  0.11742084  0.82961799  0.25017059  1
  Ru4+  Ru118  1  0.11628228  0.83881283  0.49817710  1
  Ru4+  Ru119  1  0.10980179  0.83177962  0.75250984  1
  Ru4+  Ru120  1  0.61015310  0.17195273  -0.00243967  1
  Ru4+  Ru121  1  0.61425923  0.16342753  0.24992191  1
  Ru4+  Ru122  1  0.60697253  0.16622292  0.49987078  1
  Ru4+  Ru123  1  0.61338856  0.16417363  0.75084871  1
  Ru4+  Ru124  1  0.60785634  0.49817805  0.00133634  1
  Ru4+  Ru125  1  0.61484202  0.49613738  0.24832395  1
  Ru4+  Ru126  1  0.60745002  0.50346529  0.49917409  1
  Ru4+  Ru127  1  0.61212708  0.50262577  0.75087051  1
  Ru4+  Ru128  1  0.61443570  0.83328474  0.00139979  1
  Ru4+  Ru129  1  0.61070071  0.82529865  0.25137076  1
  Ru4+  Ru130  1  0.60690243  0.83460841  0.49899055  1
  Ru4+  Ru131  1  0.60430960  0.83653099  0.74536988  1
  Ru4+  Ru132  1  0.38644733  0.16024599  0.00385859  1
  Ru4+  Ru133  1  0.38603093  0.16408111  0.25157370  1
  Ru4+  Ru134  1  0.38752235  0.16667025  0.49856465  1
  Ru4+  Ru135  1  0.38796492  0.16338330  0.75424985  1
  Ru4+  Ru136  1  0.38569588  0.50513019  -0.00000310  1
  Ru4+  Ru137  1  0.38490626  0.49958088  0.24935678  1
  Ru4+  Ru138  1  0.38921064  0.50360242  0.50063505  1
  Ru4+  Ru139  1  0.39217202  0.50690422  0.75598132  1
  Ru4+  Ru140  1  0.38172434  0.82659703  -0.00126018  1
  Ru4+  Ru141  1  0.38418142  0.83010084  0.24996244  1
  Ru4+  Ru142  1  0.39184636  0.83202962  0.50250290  1
  Ru4+  Ru143  1  0.38540837  0.83884219  0.74798234  1
  Ru4+  Ru144  1  0.89016854  0.16666638  -0.00099841  1
  Ru4+  Ru145  1  0.88888598  0.16525746  0.25042040  1
  Ru4+  Ru146  1  0.88613029  0.17132829  0.50026211  1
  Ru4+  Ru147  1  0.89084303  0.15603026  0.75414145  1
  Ru4+  Ru148  1  0.89060599  0.50002977  0.00120769  1
  Ru4+  Ru149  1  0.88458234  0.50017811  0.25098364  1
  Ru4+  Ru150  1  0.89169805  0.50386905  0.50006353  1
  Ru4+  Ru151  1  0.88715852  0.50133754  0.74850488  1
  Ru4+  Ru152  1  0.88741682  0.83142446  -0.00277133  1
  Ru4+  Ru153  1  0.88852139  0.83706163  0.25138877  1
  Ru4+  Ru154  1  0.88346741  0.83275041  0.50101608  1
  Ru4+  Ru155  1  0.89196544  0.83794453  0.75213492  1
  Ru4+  Ru156  1  0.74988484  0.60998019  0.46535104  1
  Ru4+  Ru157  1  0.24970833  0.58406538  0.25888405  1
  Ru4+  Ru158  1  0.25008448  0.31545127  0.02426418  1
  Ru4+  Ru159  1  0.25078396  0.73798704  0.74874082  1
  Ru4+  Ru160  1  0.75064408  0.73306983  0.25248793  1
  Ru4+  Ru161  1  0.75024501  0.23918048  0.73599510  1
  Ru4+  Ru162  1  0.25053921  0.24075754  0.23312288  1
  Ru4+  Ru163  1  0.24927266  0.88789533  0.01331366  1
  Ru4+  Ru164  1  0.74905250  0.06494109  0.52025520  1
  Ru4+  Ru165  1  0.74993730  0.36286736  0.48992815  1
  Ru4+  Ru166  1  0.25009805  0.05509616  0.45973436  1
  Ru4+  Ru167  1  0.75023336  0.72860528  0.74545148  1
  Ru4+  Ru168  1  0.75004882  0.57677860  0.25960906  1
  Ru4+  Ru169  1  0.74882369  0.74276389  0.49300557  1
  Ru4+  Ru170  1  0.25025664  0.28746683  0.48436016  1
  Ru4+  Ru171  1  0.74974300  0.75021352  0.00912767  1
  Ru4+  Ru172  1  0.74985795  0.42100038  0.74558866  1
  Ru4+  Ru173  1  0.24949173  0.09292028  0.75381347  1
  Ru4+  Ru174  1  0.74999131  0.24514389  0.25612133  1
  Ru4+  Ru175  1  0.25026637  0.72327505  0.48965743  1
  Ru4+  Ru176  1  0.25027624  0.59096554  0.77192012  1
  Ru4+  Ru177  1  0.24974556  0.42197108  0.50679297  1
  Ru4+  Ru178  1  0.25029822  0.03287953  -0.02268162  1
  Ru4+  Ru179  1  0.24973609  0.58215643  0.49553318  1
  O2-  O180  1  0.16832701  0.07777208  -0.00077073  1
  O2-  O181  1  0.16004290  0.08574247  0.24841253  1
  O2-  O182  1  0.17053125  0.08065062  0.50447209  1
  O2-  O183  1  0.16613496  0.08541845  0.75131203  1
  O2-  O184  1  0.16591992  0.41549058  0.00478016  1
  O2-  O185  1  0.16678061  0.41634631  0.25009501  1
  O2-  O186  1  0.16451480  0.41582863  0.50186054  1
  O2-  O187  1  0.15902794  0.41236289  0.74866425  1
  O2-  O188  1  0.16798753  0.74688733  0.00424618  1
  O2-  O189  1  0.16720996  0.74419504  0.24661407  1
  O2-  O190  1  0.16722535  0.74563535  0.50026005  1
  O2-  O191  1  0.16785139  0.74799100  0.74938424  1
  O2-  O192  1  0.66646054  0.08372096  0.00449139  1
  O2-  O193  1  0.66637648  0.08255940  0.25392268  1
  O2-  O194  1  0.66660481  0.07936575  0.49840361  1
  O2-  O195  1  0.66685136  0.08428368  0.74705085  1
  O2-  O196  1  0.66345032  0.41500220  0.00398718  1
  O2-  O197  1  0.66729182  0.41355248  0.24798125  1
  O2-  O198  1  0.66517915  0.41205963  0.50122829  1
  O2-  O199  1  0.66574922  0.41336707  0.74699908  1
  O2-  O200  1  0.66546545  0.74557938  0.00403208  1
  O2-  O201  1  0.66688829  0.74843241  0.24593223  1
  O2-  O202  1  0.66349624  0.74971825  0.49964706  1
  O2-  O203  1  0.66563827  0.74767114  0.74960473  1
  O2-  O204  1  0.33362874  0.25590489  0.00230601  1
  O2-  O205  1  0.33354390  0.25430935  0.24912178  1
  O2-  O206  1  0.32920900  0.25392187  0.50183446  1
  O2-  O207  1  0.33520367  0.24812222  0.74684357  1
  O2-  O208  1  0.33287356  0.58613127  0.00594284  1
  O2-  O209  1  0.32923357  0.58452067  0.24712060  1
  O2-  O210  1  0.33335743  0.58605765  0.49667991  1
  O2-  O211  1  0.33188065  0.58411344  0.74866889  1
  O2-  O212  1  0.33250977  0.91674025  0.00083314  1
  O2-  O213  1  0.33739757  0.91774647  0.24963924  1
  O2-  O214  1  0.33981567  0.92238948  0.49561613  1
  O2-  O215  1  0.34049769  0.92791977  0.74936605  1
  O2-  O216  1  0.83094055  0.25007318  0.00400852  1
  O2-  O217  1  0.83220698  0.25249591  0.24872743  1
  O2-  O218  1  0.83675784  0.25724113  0.49785307  1
  O2-  O219  1  0.83505813  0.24919771  0.74999297  1
  O2-  O220  1  0.83483812  0.58542752  0.00212619  1
  O2-  O221  1  0.83463502  0.58767971  0.25286731  1
  O2-  O222  1  0.83536048  0.58828934  0.49681711  1
  O2-  O223  1  0.83888981  0.58385323  0.74475584  1
  O2-  O224  1  0.83494026  0.91330206  0.00073326  1
  O2-  O225  1  0.83536329  0.92236897  0.25533176  1
  O2-  O226  1  0.84060949  0.92370679  0.49954862  1
  O2-  O227  1  0.83754895  0.92324888  0.74170328  1
  O2-  O228  1  0.17071065  0.25503696  0.00441082  1
  O2-  O229  1  0.16916451  0.25263733  0.24833120  1
  O2-  O230  1  0.16926652  0.25291231  0.50238481  1
  O2-  O231  1  0.16926788  0.24733997  0.74689471  1
  O2-  O232  1  0.16483015  0.58661241  0.00476637  1
  O2-  O233  1  0.16839987  0.58543207  0.24690018  1
  O2-  O234  1  0.16787469  0.58719478  0.49871486  1
  O2-  O235  1  0.16791849  0.58500600  0.74773397  1
  O2-  O236  1  0.16630442  0.91748691  -0.00036302  1
  O2-  O237  1  0.16569984  0.91619192  0.24557131  1
  O2-  O238  1  0.16492548  0.92350412  0.50030860  1
  O2-  O239  1  0.15753215  0.92471710  0.74960528  1
  O2-  O240  1  0.67235222  0.24918844  0.00933747  1
  O2-  O241  1  0.66701312  0.25448085  0.24762935  1
  O2-  O242  1  0.65973794  0.25585743  0.50102192  1
  O2-  O243  1  0.66957097  0.25038468  0.74470813  1
  O2-  O244  1  0.66373138  0.58658293  0.00057307  1
  O2-  O245  1  0.66468755  0.58651291  0.24931608  1
  O2-  O246  1  0.66780215  0.58779050  0.50104112  1
  O2-  O247  1  0.66111507  0.58535184  0.74880105  1
  O2-  O248  1  0.66303244  0.91729460  0.00317275  1
  O2-  O249  1  0.66107691  0.92168399  0.25627909  1
  O2-  O250  1  0.65851375  0.92337041  0.50346550  1
  O2-  O251  1  0.65901271  0.92267639  0.74324421  1
  O2-  O252  1  0.33331604  0.07602607  -0.00209040  1
  O2-  O253  1  0.33776287  0.08146055  0.24932123  1
  O2-  O254  1  0.33353504  0.08000068  0.49854828  1
  O2-  O255  1  0.33272926  0.08149727  0.75206514  1
  O2-  O256  1  0.33851186  0.41458002  0.00540502  1
  O2-  O257  1  0.33560003  0.41506113  0.25124847  1
  O2-  O258  1  0.33301651  0.41743379  0.49941142  1
  O2-  O259  1  0.34311966  0.41316004  0.75060859  1
  O2-  O260  1  0.32721647  0.74619020  0.00700807  1
  O2-  O261  1  0.33798076  0.74478386  0.24723314  1
  O2-  O262  1  0.33429506  0.74626212  0.49797984  1
  O2-  O263  1  0.33410298  0.74877714  0.75333150  1
  O2-  O264  1  0.83290516  0.08402897  0.00455625  1
  O2-  O265  1  0.83681939  0.08175291  0.25289548  1
  O2-  O266  1  0.83208902  0.08260334  0.49921223  1
  O2-  O267  1  0.83308216  0.08527436  0.75067934  1
  O2-  O268  1  0.83587177  0.41425986  0.00145035  1
  O2-  O269  1  0.83510843  0.41159554  0.25180441  1
  O2-  O270  1  0.83487657  0.41058119  0.49891265  1
  O2-  O271  1  0.83520099  0.41287206  0.75002515  1
  O2-  O272  1  0.82984220  0.74797410  0.00755008  1
  O2-  O273  1  0.83519547  0.74546040  0.24883114  1
  O2-  O274  1  0.83340309  0.74699678  0.49584848  1
  O2-  O275  1  0.83581722  0.74789048  0.74870793  1
  O2-  O276  1  0.05222824  0.09795721  0.54488106  1
  O2-  O277  1  0.04606408  0.43193798  0.00818251  1
  O2-  O278  1  0.04698969  0.57275046  0.26106994  1
  O2-  O279  1  0.95678842  0.89457256  0.69903476  1
  O2-  O280  1  0.94897502  0.76395681  0.48897251  1
  O2-  O281  1  0.54467040  0.89305560  0.26376717  1
  O2-  O282  1  0.95667886  0.43287639  0.50894879  1
  O2-  O283  1  0.44977053  0.89802950  0.50488386  1
  O2-  O284  1  0.45429332  0.55574249  0.44831196  1
  O2-  O285  1  0.94787066  0.23575997  0.98677164  1
  O2-  O286  1  0.46517691  0.55463835  0.71843077  1
  O2-  O287  1  0.44787576  0.23534708  0.01131315  1
  O2-  O288  1  0.95195073  0.24088716  0.48231583  1
  O2-  O289  1  0.04318519  0.57485645  0.98911531  1
  O2-  O290  1  0.94493146  0.24823318  0.24121416  1
  O2-  O291  1  0.04296093  0.20760969  0.20867451  1
  O2-  O292  1  0.95430630  0.75860537  0.73670193  1
  O2-  O293  1  0.45424252  0.43082298  0.24769767  1
  O2-  O294  1  0.45707536  0.09667599  0.50683129  1
  O2-  O295  1  0.54975607  0.42475385  0.50230840  1
  O2-  O296  1  0.45157576  0.76278841  0.76056993  1
  O2-  O297  1  0.04973115  0.90831587  0.77288834  1
  O2-  O298  1  0.95380803  0.09753215  0.25706023  1
  O2-  O299  1  0.54818070  0.43032394  0.73960012  1
  O2-  O300  1  0.02867152  0.21450210  0.75527895  1
  O2-  O301  1  0.54598658  0.42788127  0.49520769  1
  O2-  O302  1  0.96059324  0.12822754  0.79111732  1
  O2-  O303  1  0.54913989  0.90475029  0.48210618  1
  O2-  O304  1  0.45360527  0.76523608  0.99297850  1
  O2-  O305  1  0.95440936  0.76654315  0.26127860  1
  O2-  O306  1  0.54726019  0.57434737  0.56017039  1
  O2-  O307  1  0.55064584  0.24391213  0.05311415  1
  O2-  O308  1  0.54503064  0.90091799  0.98701848  1
  O2-  O309  1  0.45020508  0.23351859  0.25775110  1
  O2-  O310  1  0.55031524  0.23300791  0.25455816  1
  O2-  O311  1  0.96452214  0.77435502  0.03932013  1
  O2-  O312  1  0.04853949  0.42734536  0.26678673  1
  O2-  O313  1  0.44857013  0.90541585  0.99283204  1
  O2-  O314  1  0.04644337  0.89991369  0.98511768  1
  O2-  O315  1  0.94769551  0.10058946  0.50873417  1
  O2-  O316  1  0.95190746  0.42899887  0.24518961  1
  O2-  O317  1  0.44944163  0.90007762  0.25921135  1
  O2-  O318  1  0.53340529  0.87933551  0.70445969  1
  O2-  O319  1  0.54084827  0.90300453  0.22652410  1
  O2-  O320  1  0.04908961  0.76839737  0.50292363  1
  O2-  O321  1  0.03936657  0.21571577  0.98966772  1
  O2-  O322  1  0.94829977  0.90160399  0.50674675  1
  O2-  O323  1  0.95183850  0.09483408  0.24821499  1
  O2-  O324  1  0.44095497  0.58869288  0.97148113  1
  O2-  O325  1  0.06006336  0.91804409  0.26983903  1
  O2-  O326  1  0.44202811  0.93190387  0.27308694  1
  O2-  O327  1  0.06525199  0.07077973  0.73040599  1
  O2-  O328  1  0.06026426  0.74274904  0.52436447  1
  O2-  O329  1  0.05984236  0.58466304  0.51931057  1
  O2-  O330  1  0.56250264  0.25378426  0.76593668  1
  O2-  O331  1  0.55785089  0.08290437  0.78618553  1
  O2-  O332  1  0.42770552  0.60812866  0.81663890  1
  O2-  O333  1  0.58241999  0.24426084  0.91618625  1
  O2-  O334  1  0.43447742  0.59023580  0.22786926  1
  O2-  O335  1  0.56096709  0.07708718  0.22761821  1
  O2-  O336  1  0.93825674  0.92639167  0.28682110  1
  O2-  O337  1  0.93951513  0.73223254  0.47797143  1
  O2-  O338  1  0.93478881  0.92293730  0.02781919  1
  O2-  O339  1  0.56404518  0.40645029  0.26701994  1
  O2-  O340  1  0.56777243  0.93848882  0.82116389  1
  O2-  O341  1  0.94061001  0.07145201  0.52916429  1
  O2-  O342  1  0.44098198  0.24979717  0.77456540  1
  O2-  O343  1  0.06557996  0.06687568  0.97060303  1
  O2-  O344  1  0.43962350  0.26319641  0.03299591  1
  O2-  O345  1  0.06185429  0.58852115  0.78301715  1
  O2-  O346  1  0.43318771  0.74070640  0.04111708  1
  O2-  O347  1  0.06348337  0.73626097  0.96710636  1
  O2-  O348  1  0.44143239  0.74967844  0.98008726  1
  O2-  O349  1  0.43957500  0.74733002  0.79114697  1
  O2-  O350  1  0.06334978  0.74063676  0.28791305  1
  O2-  O351  1  0.43114255  0.40762502  0.52986538  1
  O2-  O352  1  0.43112462  0.09538681  0.68154627  1
  O2-  O353  1  0.08300699  0.08822173  0.40254739  1
  O2-  O354  1  0.56469487  0.61914535  0.42676222  1
  O2-  O355  1  0.43713354  0.25131720  0.47374472  1
  O2-  O356  1  0.91654777  0.72683892  0.94383742  1
  O2-  O357  1  0.93313401  0.05694202  0.68809755  1
  O2-  O358  1  0.55323354  0.26139984  0.05880184  1
  O2-  O359  1  0.43317987  0.62369267  0.56650803  1
  O2-  O360  1  0.56253550  0.72783433  0.71939270  1
  O2-  O361  1  0.06916198  0.28236228  0.31361845  1
  O2-  O362  1  0.06184501  0.26229789  0.47092328  1
  O2-  O363  1  0.94361571  0.93024747  0.52922943  1
  O2-  O364  1  0.06264476  0.92207226  0.47354970  1
  O2-  O365  1  0.44096453  0.92434262  0.96167659  1
  O2-  O366  1  0.06389817  0.74162656  0.78756065  1
  O2-  O367  1  0.07858197  0.27496948  0.96968085  1
  O2-  O368  1  0.05817216  0.09051864  0.54858129  1
  O2-  O369  1  0.92410137  0.93394774  0.81298529  1
  O2-  O370  1  0.43997562  0.07356392  0.83127485  1
  O2-  O371  1  0.08044390  0.28238131  0.78023713  1
  O2-  O372  1  0.74969644  0.64891686  0.81830347  1
  O2-  O373  1  0.24993148  0.66140586  0.35005985  1
  O2-  O374  1  0.74855082  0.33392936  0.61874986  1
  O2-  O375  1  0.74889348  0.66793184  0.60278762  1
  O2-  O376  1  0.25214091  -0.00053898  0.35673000  1
  O2-  O377  1  0.75089183  0.65960061  0.35271186  1
  O2-  O378  1  0.25130939  0.33624389  0.63214069  1
  O2-  O379  1  0.74940462  -0.00663944  0.14839993  1
  O2-  O380  1  0.25035978  0.00413234  0.17724028  1
  O2-  O381  1  0.74960138  0.00440009  0.92372706  1
  O2-  O382  1  0.25011903  0.33119229  0.89754723  1
  O2-  O383  1  0.24979955  0.67229974  0.85781589  1
  O2-  O384  1  0.25069102  -0.01730233  0.08815955  1
  O2-  O385  1  0.75052080  0.33286899  0.93623311  1
  O2-  O386  1  0.25149796  0.33282038  0.15065935  1
  O2-  O387  1  0.75013165  0.66004686  0.14552593  1
  O2-  O388  1  0.25036849  0.66137870  0.64528285  1
  O2-  O389  1  0.74979200  0.01867303  0.83098352  1
  O2-  O390  1  0.25129057  0.00015537  0.56440717  1
  O2-  O391  1  0.75140877  0.32647816  0.81264404  1
  O2-  O392  1  0.24954110  0.00095392  0.69666701  1
  O2-  O393  1  0.74934033  0.01070379  0.39313927  1
  O2-  O394  1  0.74955834  0.66043928  0.94875153  1
  O2-  O395  1  0.75069031  0.32265198  0.37261806  1
  O2-  O396  1  0.25003352  0.50543545  0.59566486  1
  O2-  O397  1  0.75029163  0.48970033  0.19185172  1
  O2-  O398  1  0.74963544  0.80613505  0.36278885  1
  O2-  O399  1  0.24993682  0.16809504  0.83172581  1
  O2-  O400  1  0.75004351  0.50099700  0.10518203  1
  O2-  O401  1  0.25026737  0.16119851  0.31384791  1
  O2-  O402  1  0.74972290  0.80192374  0.86947619  1
  O2-  O403  1  0.24991000  0.16524000  0.40473332  1
  O2-  O404  1  0.74996587  0.82369341  0.57821028  1
  O2-  O405  1  0.25020483  0.17980040  0.12785537  1
  O2-  O406  1  0.25048815  0.80890623  0.64524270  1
  O2-  O407  1  0.25034464  0.83371394  0.31060453  1
  O2-  O408  1  0.24974788  0.84247140  0.12396848  1
  O2-  O409  1  0.24952265  0.51427602  0.87445390  1
  O2-  O410  1  0.25000578  0.81522094  0.39203174  1
  O2-  O411  1  0.74984195  0.51476538  0.37733527  1
  O2-  O412  1  0.74907833  0.84434588  0.95340440  1
  O2-  O413  1  0.24979950  0.50009423  0.40676752  1
  O2-  O414  1  0.75018032  0.49538852  0.83161299  1
  O2-  O415  1  0.74980054  0.16612247  0.32967394  1
  O2-  O416  1  0.24968911  0.83251432  0.89779703  1
  O2-  O417  1  0.75002144  0.15558836  0.61916553  1
  O2-  O418  1  0.74982619  0.81258528  0.66667367  1
  O2-  O419  1  0.74995464  0.50506129  0.67518660  1
  O2-  O420  1  0.98065539  0.00684487  0.88344863  1
  O2-  O421  1  0.95284681  0.65526677  0.61615876  1
  O2-  O422  1  0.97559155  0.64919868  0.37681461  1
  O2-  O423  1  0.45108154  0.34514336  0.89461219  1
  O2-  O424  1  0.53220837  0.66176301  0.87963862  1
  O2-  O425  1  0.47888853  0.32240875  0.63078500  1
  O2-  O426  1  0.04502394  0.33603250  0.12008441  1
  O2-  O427  1  0.54075699  0.36284041  0.87580004  1
  O2-  O428  1  0.45792733  0.35130736  0.37360459  1
  O2-  O429  1  0.02245330  0.35050246  0.87487098  1
  O2-  O430  1  0.48405271  0.66330312  0.12309923  1
  O2-  O431  1  0.02420846  -0.02582012  0.63057111  1
  O2-  O432  1  0.00923379  0.00195789  0.37573334  1
  O2-  O433  1  0.45973889  -0.01866700  0.62450935  1
  O2-  O434  1  0.96515355  0.33587315  0.87020843  1
  O2-  O435  1  0.95279190  0.34159485  0.11362553  1
  O2-  O436  1  0.52479237  -0.00483357  0.11623719  1
  O2-  O437  1  0.98132484  -0.00039201  0.12544798  1
  O2-  O438  1  0.04668041  0.34054948  0.62660280  1
  O2-  O439  1  0.54395678  0.31061162  0.38633640  1
  O2-  O440  1  0.54796376  0.01775808  0.61923150  1
  O2-  O441  1  0.97765283  0.65484927  0.86399815  1
  O2-  O442  1  0.95296586  0.33167357  0.63653002  1
  O2-  O443  1  0.04159563  0.66778675  0.64225977  1
