# generated using pymatgen
data_La7(Ru4O11)2
_symmetry_space_group_name_H-M   'P 1'
_cell_length_a   23.98976874
_cell_length_b   16.82929291
_cell_length_c   15.42680287
_cell_angle_alpha   89.99925997
_cell_angle_beta   90.00006637
_cell_angle_gamma   90.00066000
_symmetry_Int_Tables_number   1
_chemical_formula_structural   La7(Ru4O11)2
_chemical_formula_sum   'La84 Ru96 O264'
_cell_volume   6228.27615769
_cell_formula_units_Z   12
loop_
 _symmetry_equiv_pos_site_id
 _symmetry_equiv_pos_as_xyz
  1  'x, y, z'
loop_
 _atom_type_symbol
 _atom_type_oxidation_number
  La3+  3.0
  Ru4+  4.0
  O2-  -2.0
loop_
 _atom_site_type_symbol
 _atom_site_label
 _atom_site_symmetry_multiplicity
 _atom_site_fract_x
 _atom_site_fract_y
 _atom_site_fract_z
 _atom_site_occupancy
  La3+  La0  1  0.14034569  0.00153764  0.12295142  1
  La3+  La1  1  0.13811760  0.00095848  0.37646306  1
  La3+  La2  1  0.13810314  -0.00176211  0.62594194  1
  La3+  La3  1  0.14017161  -0.00016749  0.87492895  1
  La3+  La4  1  0.13940932  0.33305146  0.12331865  1
  La3+  La5  1  0.14106389  0.33262653  0.37435371  1
  La3+  La6  1  0.14037766  0.33457993  0.62602769  1
  La3+  La7  1  0.13623765  0.33350597  0.87649094  1
  La3+  La8  1  0.13821401  0.66646496  0.12607996  1
  La3+  La9  1  0.13941036  0.66606933  0.37631667  1
  La3+  La10  1  0.13833651  0.66586800  0.62679594  1
  La3+  La11  1  0.13796206  0.66533955  0.87283185  1
  La3+  La12  1  0.63960093  0.00049928  0.12623818  1
  La3+  La13  1  0.63851416  0.00087154  0.37269630  1
  La3+  La14  1  0.63887954  0.00144086  0.62592056  1
  La3+  La15  1  0.64088812  -0.00084272  0.87527433  1
  La3+  La16  1  0.64197364  0.33217703  0.12366148  1
  La3+  La17  1  0.64071069  0.33203989  0.37327879  1
  La3+  La18  1  0.64066237  0.33155596  0.62698951  1
  La3+  La19  1  0.64153843  0.33343604  0.87578830  1
  La3+  La20  1  0.63788403  0.66711958  0.12142992  1
  La3+  La21  1  0.63607052  0.66678101  0.37458621  1
  La3+  La22  1  0.63738419  0.66621880  0.62709174  1
  La3+  La23  1  0.63859790  0.66737799  0.87530499  1
  La3+  La24  1  0.35940478  0.00070285  0.12271122  1
  La3+  La25  1  0.36247160  0.00107943  0.37472222  1
  La3+  La26  1  0.36154455  -0.00017568  0.62642812  1
  La3+  La27  1  0.35890563  -0.00139647  0.87467857  1
  La3+  La28  1  0.35993704  0.33170674  0.12666879  1
  La3+  La29  1  0.36002542  0.33247812  0.37450746  1
  La3+  La30  1  0.35775924  0.33491381  0.62674807  1
  La3+  La31  1  0.36066312  0.33554659  0.87402105  1
  La3+  La32  1  0.36137846  0.66680379  0.12612607  1
  La3+  La33  1  0.36154415  0.66608463  0.37570680  1
  La3+  La34  1  0.36072878  0.66576943  0.62612849  1
  La3+  La35  1  0.36130369  0.66560137  0.87253915  1
  La3+  La36  1  0.85887051  -0.00089638  0.12455766  1
  La3+  La37  1  0.86068724  0.00130688  0.37291781  1
  La3+  La38  1  0.86160850  0.00147100  0.62587807  1
  La3+  La39  1  0.85940205  -0.00091438  0.87573588  1
  La3+  La40  1  0.85785107  0.33371442  0.12267150  1
  La3+  La41  1  0.85833431  0.33143560  0.37369817  1
  La3+  La42  1  0.86106158  0.33145238  0.62821546  1
  La3+  La43  1  0.85800680  0.33426454  0.87675723  1
  La3+  La44  1  0.86289260  0.66708982  0.12269288  1
  La3+  La45  1  0.86347925  0.66691821  0.37368328  1
  La3+  La46  1  0.86277280  0.66526849  0.62641985  1
  La3+  La47  1  0.86333477  0.66608863  0.87513144  1
  La3+  La48  1  -0.00025328  0.16601012  0.10935376  1
  La3+  La49  1  0.00461728  0.83853299  0.37676202  1
  La3+  La50  1  0.50003402  0.16543139  0.87160127  1
  La3+  La51  1  0.50051804  0.83301768  0.61587804  1
  La3+  La52  1  0.00505384  0.16775129  0.13034303  1
  La3+  La53  1  0.50019434  0.83250088  0.38588776  1
  La3+  La54  1  -0.00427705  0.16648298  0.38502604  1
  La3+  La55  1  -0.00092328  0.50455800  0.36365751  1
  La3+  La56  1  -0.00197922  0.82900370  0.87707957  1
  La3+  La57  1  0.49987120  0.49968453  0.61446367  1
  La3+  La58  1  -0.00059395  0.49419644  0.38270535  1
  La3+  La59  1  0.49946079  0.16634079  0.36503514  1
  La3+  La60  1  0.50226305  0.50111813  0.13799243  1
  La3+  La61  1  0.50151197  0.50190124  0.86351151  1
  La3+  La62  1  0.50016182  0.16346366  0.38171754  1
  La3+  La63  1  0.50035998  0.16901851  0.87693692  1
  La3+  La64  1  0.49875710  0.83293709  0.63710407  1
  La3+  La65  1  -0.00145776  0.83281805  0.11255367  1
  La3+  La66  1  0.00397229  0.16765443  0.36725612  1
  La3+  La67  1  0.00061468  0.16876077  0.86314547  1
  La3+  La68  1  0.49673772  0.49412482  0.11822191  1
  La3+  La69  1  0.49985110  0.83351089  0.11320856  1
  La3+  La70  1  0.00150114  0.16319658  0.63075770  1
  La3+  La71  1  0.50092954  0.83336059  0.13556377  1
  La3+  La72  1  0.75003718  0.46667793  0.24869466  1
  La3+  La73  1  0.24987348  0.86869917  0.54089051  1
  La3+  La74  1  0.25002891  0.45217998  -0.01525868  1
  La3+  La75  1  0.75037155  0.49450200  0.05134960  1
  La3+  La76  1  0.74973042  0.83938829  0.55850492  1
  La3+  La77  1  0.24997647  0.87155433  -0.01014633  1
  La3+  La78  1  0.74997578  0.48308715  0.43356746  1
  La3+  La79  1  0.74996553  0.16965718  0.72099438  1
  La3+  La80  1  0.74980031  0.16766759  0.25011279  1
  La3+  La81  1  0.25035175  0.78595135  0.23452504  1
  La3+  La82  1  0.75022120  0.49647588  0.74946762  1
  La3+  La83  1  0.25016533  0.49817611  0.49916329  1
  Ru4+  Ru84  1  -0.00065069  0.00185387  -0.00111810  1
  Ru4+  Ru85  1  0.00386439  -0.00331623  0.25007515  1
  Ru4+  Ru86  1  -0.00087170  -0.00197553  0.50116433  1
  Ru4+  Ru87  1  0.00129604  -0.00171157  0.75276510  1
  Ru4+  Ru88  1  0.00083725  0.34095228  -0.00330048  1
  Ru4+  Ru89  1  0.00020814  0.33488034  0.25391435  1
  Ru4+  Ru90  1  -0.00022479  0.33468761  0.50466718  1
  Ru4+  Ru91  1  -0.00165150  0.33503622  0.74872175  1
  Ru4+  Ru92  1  -0.00234031  0.65884675  -0.00074812  1
  Ru4+  Ru93  1  -0.00154810  0.66590922  0.24594732  1
  Ru4+  Ru94  1  0.00432656  0.65914341  0.50704603  1
  Ru4+  Ru95  1  -0.00119110  0.66514478  0.74628362  1
  Ru4+  Ru96  1  0.50356299  -0.01042519  -0.00074716  1
  Ru4+  Ru97  1  0.50092836  0.00036048  0.24789511  1
  Ru4+  Ru98  1  0.49957822  0.00041950  0.50150980  1
  Ru4+  Ru99  1  0.49868290  -0.00139522  0.75306013  1
  Ru4+  Ru100  1  0.50004392  0.33205288  0.00111695  1
  Ru4+  Ru101  1  0.50004510  0.33176056  0.25079064  1
  Ru4+  Ru102  1  0.50128108  0.33370445  0.49643737  1
  Ru4+  Ru103  1  0.50271004  0.33828961  0.75233035  1
  Ru4+  Ru104  1  0.49809516  0.66985339  -0.00046992  1
  Ru4+  Ru105  1  0.50238720  0.66975672  0.25092219  1
  Ru4+  Ru106  1  0.50292288  0.66039878  0.50164078  1
  Ru4+  Ru107  1  0.49948084  0.66705135  0.74727615  1
  Ru4+  Ru108  1  0.11501611  0.16369120  -0.00041679  1
  Ru4+  Ru109  1  0.11264699  0.16818361  0.25029989  1
  Ru4+  Ru110  1  0.11366567  0.16694712  0.50023722  1
  Ru4+  Ru111  1  0.11348283  0.16719923  0.74998065  1
  Ru4+  Ru112  1  0.10786129  0.49917043  0.00040918  1
  Ru4+  Ru113  1  0.11263665  0.50133425  0.24979820  1
  Ru4+  Ru114  1  0.11216249  0.49951345  0.50121146  1
  Ru4+  Ru115  1  0.11460791  0.50206560  0.74954908  1
  Ru4+  Ru116  1  0.11260814  0.83180138  0.00023753  1
  Ru4+  Ru117  1  0.11321051  0.83185728  0.25049570  1
  Ru4+  Ru118  1  0.11150419  0.83410316  0.50101275  1
  Ru4+  Ru119  1  0.11151424  0.83450664  0.75019974  1
  Ru4+  Ru120  1  0.61481810  0.16770110  -0.00007246  1
  Ru4+  Ru121  1  0.61277324  0.16648038  0.24958432  1
  Ru4+  Ru122  1  0.61380956  0.16835663  0.50048509  1
  Ru4+  Ru123  1  0.61222669  0.16825290  0.74971609  1
  Ru4+  Ru124  1  0.61386273  0.49706591  -0.00276134  1
  Ru4+  Ru125  1  0.61249973  0.49867400  0.25115438  1
  Ru4+  Ru126  1  0.61021535  0.50070625  0.49924228  1
  Ru4+  Ru127  1  0.61114832  0.50055168  0.75080274  1
  Ru4+  Ru128  1  0.61493059  0.83337003  0.00034613  1
  Ru4+  Ru129  1  0.61129170  0.83344886  0.24973589  1
  Ru4+  Ru130  1  0.61088328  0.83368335  0.49819748  1
  Ru4+  Ru131  1  0.61166001  0.83388824  0.75014821  1
  Ru4+  Ru132  1  0.38500827  0.16369672  0.00202876  1
  Ru4+  Ru133  1  0.38671397  0.16893314  0.24927056  1
  Ru4+  Ru134  1  0.38699434  0.16613181  0.50196359  1
  Ru4+  Ru135  1  0.38370480  0.16288141  0.74963521  1
  Ru4+  Ru136  1  0.38704990  0.49937032  -0.00050832  1
  Ru4+  Ru137  1  0.38577987  0.49783343  0.25054670  1
  Ru4+  Ru138  1  0.38719508  0.50170348  0.49963181  1
  Ru4+  Ru139  1  0.38544071  0.50003563  0.74939191  1
  Ru4+  Ru140  1  0.38947205  0.83311831  -0.00048536  1
  Ru4+  Ru141  1  0.38798504  0.83273503  0.25063728  1
  Ru4+  Ru142  1  0.38716765  0.83784306  0.49936196  1
  Ru4+  Ru143  1  0.38729705  0.83561141  0.75053038  1
  Ru4+  Ru144  1  0.88443584  0.16653191  -0.00044648  1
  Ru4+  Ru145  1  0.88357251  0.16926063  0.24980941  1
  Ru4+  Ru146  1  0.88681158  0.16806366  0.50056446  1
  Ru4+  Ru147  1  0.88771087  0.16733064  0.75081447  1
  Ru4+  Ru148  1  0.89119623  0.49851727  0.00078140  1
  Ru4+  Ru149  1  0.88951718  0.50088081  0.24812651  1
  Ru4+  Ru150  1  0.88856980  0.49828701  0.49984175  1
  Ru4+  Ru151  1  0.89177330  0.50103323  0.74998869  1
  Ru4+  Ru152  1  0.88502621  0.83401240  -0.00037550  1
  Ru4+  Ru153  1  0.88804407  0.83258959  0.25054441  1
  Ru4+  Ru154  1  0.88471227  0.83809384  0.50080015  1
  Ru4+  Ru155  1  0.88665342  0.83365259  0.74888960  1
  Ru4+  Ru156  1  0.24998928  0.73565009  0.01122254  1
  Ru4+  Ru157  1  0.74998978  0.60883296  0.25042597  1
  Ru4+  Ru158  1  0.25015114  0.58697938  0.25727545  1
  Ru4+  Ru159  1  0.74987550  0.36698656  0.51025736  1
  Ru4+  Ru160  1  0.24999145  0.93704000  0.26045036  1
  Ru4+  Ru161  1  0.24989564  0.59526939  0.00887826  1
  Ru4+  Ru162  1  0.75008909  0.91416333  0.75366496  1
  Ru4+  Ru163  1  0.25006427  0.08677693  0.49968472  1
  Ru4+  Ru164  1  0.24973659  0.24829461  0.00083778  1
  Ru4+  Ru165  1  0.74982395  0.95716731  0.47954677  1
  Ru4+  Ru166  1  0.75004440  0.08660987  0.00472522  1
  Ru4+  Ru167  1  0.25033663  0.24813804  0.49664769  1
  Ru4+  Ru168  1  0.74993549  0.60327880  0.49356854  1
  Ru4+  Ru169  1  0.24999454  0.72661037  0.50386414  1
  Ru4+  Ru170  1  0.74970471  0.91944968  0.24031386  1
  Ru4+  Ru171  1  0.24971978  0.08701362  0.74902772  1
  Ru4+  Ru172  1  0.75018379  0.75750392  0.75325274  1
  Ru4+  Ru173  1  0.25005447  0.24609269  0.74856008  1
  Ru4+  Ru174  1  0.25003037  0.75367320  0.74471517  1
  Ru4+  Ru175  1  0.74960076  0.73200278  0.47048455  1
  Ru4+  Ru176  1  0.74960030  0.75105494  0.24024090  1
  Ru4+  Ru177  1  0.75011938  0.09418071  0.49642707  1
  Ru4+  Ru178  1  0.24995801  0.08651186  0.25280697  1
  Ru4+  Ru179  1  0.25008283  0.41308631  0.25699851  1
  O2-  O180  1  0.16557861  0.08268276  0.00075011  1
  O2-  O181  1  0.16847614  0.08029123  0.25095732  1
  O2-  O182  1  0.16736996  0.07998100  0.50032163  1
  O2-  O183  1  0.16743201  0.08116811  0.74929686  1
  O2-  O184  1  0.16471937  0.41235955  -0.00059216  1
  O2-  O185  1  0.16841224  0.41305617  0.25060644  1
  O2-  O186  1  0.16774907  0.41479770  0.50067772  1
  O2-  O187  1  0.16563432  0.41486250  0.75001497  1
  O2-  O188  1  0.16690182  0.74673473  0.00079463  1
  O2-  O189  1  0.16477040  0.74574670  0.25003973  1
  O2-  O190  1  0.16734814  0.74672944  0.49971475  1
  O2-  O191  1  0.16673252  0.74770028  0.75039137  1
  O2-  O192  1  0.66702662  0.08055739  0.00027334  1
  O2-  O193  1  0.66715172  0.08029166  0.25043525  1
  O2-  O194  1  0.66709678  0.08051630  0.49994169  1
  O2-  O195  1  0.66688665  0.07987678  0.74869010  1
  O2-  O196  1  0.66795219  0.41669185  0.00048724  1
  O2-  O197  1  0.66666668  0.41469914  0.24978128  1
  O2-  O198  1  0.66633321  0.41275076  0.50056645  1
  O2-  O199  1  0.66546452  0.41495934  0.74955423  1
  O2-  O200  1  0.66743925  0.74761402  -0.00056416  1
  O2-  O201  1  0.66822196  0.74647357  0.24951116  1
  O2-  O202  1  0.66656255  0.74586006  0.50100541  1
  O2-  O203  1  0.66755178  0.74723172  0.74927245  1
  O2-  O204  1  0.33307116  0.25175779  -0.00031498  1
  O2-  O205  1  0.33227587  0.25092518  0.25044949  1
  O2-  O206  1  0.33204191  0.25156570  0.49915112  1
  O2-  O207  1  0.33103927  0.25189205  0.75083811  1
  O2-  O208  1  0.33366301  0.58656135  0.00014723  1
  O2-  O209  1  0.33201008  0.58614073  0.25172509  1
  O2-  O210  1  0.33215828  0.58572548  0.50039213  1
  O2-  O211  1  0.33377196  0.58421842  0.75026446  1
  O2-  O212  1  0.33514566  0.91998075  0.00013890  1
  O2-  O213  1  0.33305390  0.91963898  0.25100948  1
  O2-  O214  1  0.33361623  0.92171630  0.49957702  1
  O2-  O215  1  0.33204816  0.91888560  0.74820829  1
  O2-  O216  1  0.83285958  0.25021530  -0.00073422  1
  O2-  O217  1  0.83375112  0.25319002  0.25038280  1
  O2-  O218  1  0.83431146  0.25271716  0.49916914  1
  O2-  O219  1  0.83191438  0.25191586  0.74955327  1
  O2-  O220  1  0.83138050  0.58610927  0.00031422  1
  O2-  O221  1  0.83181724  0.58654615  0.25099526  1
  O2-  O222  1  0.83398787  0.58786522  0.49890748  1
  O2-  O223  1  0.83194094  0.58503584  0.75087795  1
  O2-  O224  1  0.83289054  0.91921467  0.00009965  1
  O2-  O225  1  0.83294002  0.91947416  0.25020151  1
  O2-  O226  1  0.83369078  0.92153509  0.49917219  1
  O2-  O227  1  0.83352641  0.91816811  0.74914722  1
  O2-  O228  1  0.16866844  0.25310839  0.00012312  1
  O2-  O229  1  0.16695715  0.25312874  0.25055258  1
  O2-  O230  1  0.16644378  0.25239448  0.50031399  1
  O2-  O231  1  0.16681750  0.25222532  0.74990147  1
  O2-  O232  1  0.16612051  0.58689504  0.00049208  1
  O2-  O233  1  0.16738777  0.58580348  0.25010941  1
  O2-  O234  1  0.16837796  0.58504112  0.50050192  1
  O2-  O235  1  0.16664854  0.58368370  0.75049470  1
  O2-  O236  1  0.16558740  0.92010105  -0.00008329  1
  O2-  O237  1  0.16720949  0.91964965  0.25013904  1
  O2-  O238  1  0.16694268  0.92075128  0.49880669  1
  O2-  O239  1  0.16734871  0.91841385  0.74906524  1
  O2-  O240  1  0.66686939  0.25049866  -0.00047239  1
  O2-  O241  1  0.66551943  0.25278257  0.25011248  1
  O2-  O242  1  0.66617667  0.25199856  0.50005638  1
  O2-  O243  1  0.66671556  0.25164228  0.74956244  1
  O2-  O244  1  0.66974929  0.58565658  0.00192100  1
  O2-  O245  1  0.66763888  0.58657522  0.24968344  1
  O2-  O246  1  0.66699846  0.58774729  0.50052813  1
  O2-  O247  1  0.66825762  0.58678993  0.74966910  1
  O2-  O248  1  0.66552722  0.91916365  -0.00108413  1
  O2-  O249  1  0.66734249  0.91954201  0.25009500  1
  O2-  O250  1  0.66696460  0.92112866  0.50072793  1
  O2-  O251  1  0.66714382  0.91898294  0.74833951  1
  O2-  O252  1  0.33189455  0.08298473  -0.00023909  1
  O2-  O253  1  0.33127283  0.08157366  0.25110591  1
  O2-  O254  1  0.33301283  0.08032493  0.49981201  1
  O2-  O255  1  0.33269230  0.08039987  0.74871162  1
  O2-  O256  1  0.33494060  0.41256409  -0.00048883  1
  O2-  O257  1  0.33150565  0.41523721  0.25071018  1
  O2-  O258  1  0.33089047  0.41552977  0.49964117  1
  O2-  O259  1  0.33225617  0.41568134  0.75076772  1
  O2-  O260  1  0.33360032  0.74658429  0.00039028  1
  O2-  O261  1  0.33576952  0.74495203  0.25134688  1
  O2-  O262  1  0.33217838  0.74507287  0.49992940  1
  O2-  O263  1  0.33351956  0.74776828  0.75016234  1
  O2-  O264  1  0.83257181  0.08034199  0.00047974  1
  O2-  O265  1  0.83377425  0.07921219  0.25057193  1
  O2-  O266  1  0.83195218  0.07985805  0.49898018  1
  O2-  O267  1  0.83365276  0.08060645  0.74862490  1
  O2-  O268  1  0.83176734  0.41680189  0.00010736  1
  O2-  O269  1  0.83401806  0.41418918  0.25043656  1
  O2-  O270  1  0.83337025  0.41274351  0.50030329  1
  O2-  O271  1  0.83425997  0.41538004  0.74987587  1
  O2-  O272  1  0.83442828  0.74773558  -0.00011531  1
  O2-  O273  1  0.83243500  0.74724179  0.24995449  1
  O2-  O274  1  0.83288018  0.74676133  0.49894843  1
  O2-  O275  1  0.83124684  0.74803864  0.75082421  1
  O2-  O276  1  0.05918877  0.24918053  0.97676693  1
  O2-  O277  1  0.95386711  0.43209836  0.73716422  1
  O2-  O278  1  0.94042277  0.24402383  0.70991645  1
  O2-  O279  1  0.45226386  0.09321565  0.51588943  1
  O2-  O280  1  0.04010926  0.89041681  0.97343117  1
  O2-  O281  1  0.04843258  0.42982735  0.26306344  1
  O2-  O282  1  0.95848321  0.22516403  0.96879894  1
  O2-  O283  1  0.05020585  0.76492482  0.73610408  1
  O2-  O284  1  0.95312379  0.90710846  0.48464985  1
  O2-  O285  1  0.04572794  0.09639178  0.76115612  1
  O2-  O286  1  0.95407827  0.09560926  0.25057596  1
  O2-  O287  1  0.53579745  0.55240478  1.00314778  1
  O2-  O288  1  0.46186909  0.44193090  0.96652848  1
  O2-  O289  1  0.95109145  0.57017443  0.48601618  1
  O2-  O290  1  0.46373385  0.21452649  0.74617633  1
  O2-  O291  1  0.54531874  0.76700758  0.76317894  1
  O2-  O292  1  0.54526596  0.09462457  0.76402630  1
  O2-  O293  1  0.96154161  0.78397825  0.74428866  1
  O2-  O294  1  0.04170232  0.89507143  0.22171853  1
  O2-  O295  1  0.04528278  0.43038347  0.51555371  1
  O2-  O296  1  0.55078609  0.23791327  0.73726237  1
  O2-  O297  1  0.95980042  0.77018435  0.48758723  1
  O2-  O298  1  0.03728909  0.77213477  0.21729632  1
  O2-  O299  1  0.04841848  0.23759261  0.73613277  1
  O2-  O300  1  0.44974690  0.57221891  0.98361215  1
  O2-  O301  1  0.55614648  0.08865761  0.23036022  1
  O2-  O302  1  0.95195926  0.43325490  0.23630146  1
  O2-  O303  1  0.95377879  0.23932960  0.23774414  1
  O2-  O304  1  0.05100378  0.56760114  0.98472648  1
  O2-  O305  1  0.04618444  0.09689049  0.48885661  1
  O2-  O306  1  0.45511691  0.76448204  0.26480481  1
  O2-  O307  1  0.45537490  0.90166845  0.26360860  1
  O2-  O308  1  0.95151682  0.56666363  1.00513579  1
  O2-  O309  1  0.04557386  0.23794835  0.48688584  1
  O2-  O310  1  0.95199851  0.89954320  0.26603890  1
  O2-  O311  1  0.96045406  0.77100066  0.50390166  1
  O2-  O312  1  0.46370208  0.21458150  0.74642587  1
  O2-  O313  1  0.04826861  0.57142025  0.48611721  1
  O2-  O314  1  0.48274260  0.09717776  -0.00662589  1
  O2-  O315  1  0.54305229  0.55584609  0.01781741  1
  O2-  O316  1  0.46014155  0.55559502  0.28022676  1
  O2-  O317  1  0.54751734  0.09863124  0.48423654  1
  O2-  O318  1  0.45537933  0.89916903  0.98725177  1
  O2-  O319  1  0.46350361  0.21935314  0.50709587  1
  O2-  O320  1  0.95375405  0.09761146  0.24927865  1
  O2-  O321  1  0.95367178  0.57059402  -0.00367003  1
  O2-  O322  1  0.44662448  0.75214819  0.52522985  1
  O2-  O323  1  0.54937592  0.23884252  0.48276390  1
  O2-  O324  1  0.93519512  0.59617312  0.22456138  1
  O2-  O325  1  0.43415299  0.07378061  0.27917501  1
  O2-  O326  1  0.92326883  0.72471483  0.71594659  1
  O2-  O327  1  0.58526438  0.62094382  0.95021622  1
  O2-  O328  1  0.42848714  0.38891665  0.05185009  1
  O2-  O329  1  0.43534281  0.92716169  0.77516711  1
  O2-  O330  1  0.43638471  0.40914700  0.77881923  1
  O2-  O331  1  0.56501890  0.26006190  0.05045186  1
  O2-  O332  1  0.07319916  0.93769577  0.04546452  1
  O2-  O333  1  0.56455359  0.59259814  0.47287772  1
  O2-  O334  1  0.56462745  0.59737308  0.21702882  1
  O2-  O335  1  0.06966238  0.72302797  0.30231345  1
  O2-  O336  1  0.93575868  0.93129592  0.96692831  1
  O2-  O337  1  0.07218633  0.93494158  0.29243871  1
  O2-  O338  1  0.06330795  0.59792263  0.71959622  1
  O2-  O339  1  0.06429572  0.93156831  0.53193711  1
  O2-  O340  1  0.05352267  0.24294098  0.98146235  1
  O2-  O341  1  0.43495823  0.40692846  0.45326954  1
  O2-  O342  1  0.56536630  0.59373687  0.77754955  1
  O2-  O343  1  0.56515644  0.40470835  0.96591500  1
  O2-  O344  1  0.42056338  0.27684390  0.81973902  1
  O2-  O345  1  0.92724776  0.26802016  0.04417505  1
  O2-  O346  1  0.56527412  0.74168172  0.47114443  1
  O2-  O347  1  0.55387199  0.08581125  0.22806628  1
  O2-  O348  1  0.42265254  0.06838018  0.94134464  1
  O2-  O349  1  0.06485412  0.92801746  0.77747631  1
  O2-  O350  1  0.43406190  0.41130076  0.54716396  1
  O2-  O351  1  0.93456848  0.40582607  0.02698244  1
  O2-  O352  1  0.56359241  0.40229951  0.28204245  1
  O2-  O353  1  0.06451143  0.73510842  0.53131065  1
  O2-  O354  1  0.06566583  0.40599696  0.02799041  1
  O2-  O355  1  0.41809853  0.09022506  0.09077488  1
  O2-  O356  1  0.42125773  0.27534317  0.68486486  1
  O2-  O357  1  0.56281623  0.73787812  0.03484339  1
  O2-  O358  1  0.56482600  0.92694779  0.47280419  1
  O2-  O359  1  0.93477442  0.59307204  0.77809863  1
  O2-  O360  1  0.43670155  0.26200321  0.21840476  1
  O2-  O361  1  0.42765434  0.60316255  0.20700639  1
  O2-  O362  1  0.06359578  0.73603229  0.96797216  1
  O2-  O363  1  0.92319619  0.72235434  0.54059051  1
  O2-  O364  1  0.42170873  0.27504582  0.53605442  1
  O2-  O365  1  0.44516494  0.75034172  0.52557040  1
  O2-  O366  1  0.43530496  0.40505229  0.21705903  1
  O2-  O367  1  0.92981543  0.27556782  0.82849842  1
  O2-  O368  1  0.43768074  0.59679330  0.71626139  1
  O2-  O369  1  0.93584025  0.06878981  0.53279112  1
  O2-  O370  1  0.56388982  0.26207694  0.94267455  1
  O2-  O371  1  0.95117551  0.24040315  0.70358682  1
  O2-  O372  1  0.25005520  0.66844785  0.65512794  1
  O2-  O373  1  0.75019908  -0.00081080  0.15612055  1
  O2-  O374  1  0.24983431  -0.00063127  0.07426028  1
  O2-  O375  1  0.75016939  0.33945098  0.34815795  1
  O2-  O376  1  0.25001799  -0.00238027  0.82897616  1
  O2-  O377  1  0.24975811  0.33209949  0.09182029  1
  O2-  O378  1  0.24994503  0.33457717  0.67056683  1
  O2-  O379  1  0.74996123  0.33915040  0.09689420  1
  O2-  O380  1  0.74964843  0.33416014  0.91874826  1
  O2-  O381  1  0.25015811  0.66359638  0.40150929  1
  O2-  O382  1  0.75013710  -0.00322080  0.34423881  1
  O2-  O383  1  0.24980898  0.00657288  0.16707424  1
  O2-  O384  1  0.24975284  0.66551787  0.15647554  1
  O2-  O385  1  0.24995879  0.33569979  0.57939463  1
  O2-  O386  1  0.75017058  0.67029248  0.59211511  1
  O2-  O387  1  0.25024215  0.66714998  0.91485139  1
  O2-  O388  1  0.74999543  0.00358267  0.60144974  1
  O2-  O389  1  0.74980808  0.66316619  0.68426663  1
  O2-  O390  1  0.74995443  -0.00166627  0.84176303  1
  O2-  O391  1  0.25010691  0.66520229  0.82005403  1
  O2-  O392  1  0.24967363  0.33407139  0.40648342  1
  O2-  O393  1  0.24996969  0.00012711  0.91915556  1
  O2-  O394  1  0.74987195  0.33511896  0.65033180  1
  O2-  O395  1  0.74978461  0.33433593  0.83105500  1
  O2-  O396  1  0.24999017  0.16599556  0.92219083  1
  O2-  O397  1  0.25003024  0.83132032  0.66706478  1
  O2-  O398  1  0.25003818  0.50783697  0.87453782  1
  O2-  O399  1  0.25006016  0.49849633  0.18662403  1
  O2-  O400  1  0.24994941  0.83991290  0.12015890  1
  O2-  O401  1  0.74993672  0.16419006  0.58471201  1
  O2-  O402  1  0.74989592  0.83318294  0.84080431  1
  O2-  O403  1  0.25002776  0.82391277  0.42258481  1
  O2-  O404  1  0.75010266  0.49943780  0.86121117  1
  O2-  O405  1  0.75004667  0.16331133  0.38031570  1
  O2-  O406  1  0.74997123  0.83271055  0.10177703  1
  O2-  O407  1  0.24976798  0.84815935  0.34230781  1
  O2-  O408  1  0.75003175  0.83269782  0.31896411  1
  O2-  O409  1  0.24993758  0.16501129  0.40791854  1
  O2-  O410  1  0.74964495  0.50158883  0.93663233  1
  O2-  O411  1  0.75005193  0.16354507  0.12073688  1
  O2-  O412  1  0.75025899  0.50110921  0.63726586  1
  O2-  O413  1  0.24999258  0.16552116  0.59246117  1
  O2-  O414  1  0.75004214  0.50061627  0.56035955  1
  O2-  O415  1  0.74992687  0.83403130  0.40950322  1
  O2-  O416  1  0.75001177  0.16999443  0.93463208  1
  O2-  O417  1  0.25019883  0.51149605  0.09994420  1
  O2-  O418  1  0.74996571  0.16546707  0.84842223  1
  O2-  O419  1  0.25006991  0.16687268  0.83164358  1
  O2-  O420  1  0.97220181  0.33381393  0.13008150  1
  O2-  O421  1  0.97469736  0.67343761  0.12172906  1
  O2-  O422  1  0.02467847  0.00433341  0.88046845  1
  O2-  O423  1  0.47436061  0.32708775  0.37051017  1
  O2-  O424  1  0.52635900  0.33924289  0.13096908  1
  O2-  O425  1  0.52681285  0.67198816  0.87677164  1
  O2-  O426  1  0.47603415  0.33879117  0.62962190  1
  O2-  O427  1  0.47947258  0.00013149  0.87150838  1
  O2-  O428  1  0.46369993  -0.00320368  0.38139123  1
  O2-  O429  1  0.03178037  0.32940530  0.12934693  1
  O2-  O430  1  0.02611623  0.33766462  0.86953350  1
  O2-  O431  1  0.02513533  0.00315239  0.37873003  1
  O2-  O432  1  0.97769057  0.65912793  0.62654669  1
  O2-  O433  1  0.52618323  -0.00724928  0.12085327  1
  O2-  O434  1  0.02421698  0.00626166  0.12768545  1
  O2-  O435  1  0.46752371  0.66766880  0.87338275  1
  O2-  O436  1  0.97497221  0.67398661  0.87558276  1
  O2-  O437  1  0.52926287  0.66823795  0.36522287  1
  O2-  O438  1  0.47389031  0.67197379  0.12106294  1
  O2-  O439  1  0.53461946  0.33604995  0.62405016  1
  O2-  O440  1  0.47739485  0.33253976  0.88151965  1
  O2-  O441  1  0.97436454  0.33742473  0.61668305  1
  O2-  O442  1  0.46736809  0.66793105  0.37682781  1
  O2-  O443  1  0.53597150  0.00136059  0.36766526  1
