# generated using pymatgen
data_La7(Ru4O11)2
_symmetry_space_group_name_H-M   'P 1'
_cell_length_a   23.99399446
_cell_length_b   16.83638344
_cell_length_c   15.43289278
_cell_angle_alpha   89.99905676
_cell_angle_beta   90.00122258
_cell_angle_gamma   90.00166236
_symmetry_Int_Tables_number   1
_chemical_formula_structural   La7(Ru4O11)2
_chemical_formula_sum   'La84 Ru96 O264'
_cell_volume   6234.45796432
_cell_formula_units_Z   12
loop_
 _symmetry_equiv_pos_site_id
 _symmetry_equiv_pos_as_xyz
  1  'x, y, z'
loop_
 _atom_type_symbol
 _atom_type_oxidation_number
  La3+  3.0
  Ru4+  4.0
  O2-  -2.0
loop_
 _atom_site_type_symbol
 _atom_site_label
 _atom_site_symmetry_multiplicity
 _atom_site_fract_x
 _atom_site_fract_y
 _atom_site_fract_z
 _atom_site_occupancy
  La3+  La0  1  0.13168566  0.00117376  0.12863777  1
  La3+  La1  1  0.12876264  -0.00223201  0.38294741  1
  La3+  La2  1  0.14630971  0.00230834  0.62151073  1
  La3+  La3  1  0.13863253  -0.00251646  0.86940565  1
  La3+  La4  1  0.14354566  0.33928674  0.12819030  1
  La3+  La5  1  0.14212935  0.33647387  0.38087815  1
  La3+  La6  1  0.14300098  0.33209526  0.62309098  1
  La3+  La7  1  0.12907341  0.33819426  0.87462325  1
  La3+  La8  1  0.14434446  0.65960500  0.13556314  1
  La3+  La9  1  0.14357671  0.66295379  0.37640206  1
  La3+  La10  1  0.16184520  0.67062273  0.62085446  1
  La3+  La11  1  0.14891228  0.66058396  0.87104157  1
  La3+  La12  1  0.64181919  0.00302396  0.12124165  1
  La3+  La13  1  0.65157643  0.00474160  0.37704323  1
  La3+  La14  1  0.64733942  -0.00092773  0.62540112  1
  La3+  La15  1  0.63941143  -0.00438771  0.88210003  1
  La3+  La16  1  0.64057708  0.32973829  0.12731174  1
  La3+  La17  1  0.64169888  0.32938734  0.37765251  1
  La3+  La18  1  0.64063248  0.33486177  0.62563585  1
  La3+  La19  1  0.63525365  0.33160385  0.86952774  1
  La3+  La20  1  0.64096105  0.66696872  0.12370103  1
  La3+  La21  1  0.64640106  0.66818299  0.37191907  1
  La3+  La22  1  0.64423042  0.67494230  0.62441365  1
  La3+  La23  1  0.63328501  0.66979524  0.86981029  1
  La3+  La24  1  0.36428137  -0.00706935  0.12816092  1
  La3+  La25  1  0.36975973  0.00064913  0.37548461  1
  La3+  La26  1  0.35852146  -0.00755448  0.62865442  1
  La3+  La27  1  0.35859706  -0.00978198  0.87150668  1
  La3+  La28  1  0.35655911  0.33228163  0.12016005  1
  La3+  La29  1  0.35600918  0.34152871  0.37946406  1
  La3+  La30  1  0.35461208  0.33813243  0.62515824  1
  La3+  La31  1  0.37010115  0.33562740  0.87986748  1
  La3+  La32  1  0.35735117  0.66920224  0.12832328  1
  La3+  La33  1  0.34876826  0.66155399  0.37707368  1
  La3+  La34  1  0.34535558  0.67148489  0.62615436  1
  La3+  La35  1  0.36804733  0.66680521  0.87244432  1
  La3+  La36  1  0.85787640  0.00342966  0.12334447  1
  La3+  La37  1  0.85283857  0.00068345  0.37801840  1
  La3+  La38  1  0.85271682  0.00434545  0.62590047  1
  La3+  La39  1  0.84949575  0.00267248  0.88070941  1
  La3+  La40  1  0.85586568  0.32969756  0.12447662  1
  La3+  La41  1  0.86241919  0.33327671  0.37946935  1
  La3+  La42  1  0.86484685  0.33765791  0.62826430  1
  La3+  La43  1  0.86986684  0.34080720  0.86798555  1
  La3+  La44  1  0.86481454  0.66444399  0.12195820  1
  La3+  La45  1  0.85091967  0.67182887  0.37323137  1
  La3+  La46  1  0.84981459  0.67454050  0.62143178  1
  La3+  La47  1  0.86623978  0.66611735  0.87849028  1
  La3+  La48  1  0.00489088  0.84437224  0.60442888  1
  La3+  La49  1  0.49434049  0.83096156  0.09645060  1
  La3+  La50  1  0.49895135  0.48467289  0.88382928  1
  La3+  La51  1  0.50951387  0.51024891  0.38786768  1
  La3+  La52  1  0.50205207  0.50840337  0.40696090  1
  La3+  La53  1  0.50834499  0.17447884  0.62152600  1
  La3+  La54  1  0.51134122  0.17541707  0.37008375  1
  La3+  La55  1  -0.00209717  0.82784231  0.35941624  1
  La3+  La56  1  0.00004850  0.17126965  0.12724744  1
  La3+  La57  1  0.49892583  0.15966761  0.12495077  1
  La3+  La58  1  -0.00423264  0.49640602  0.11154186  1
  La3+  La59  1  0.49389809  0.48002835  0.87028708  1
  La3+  La60  1  -0.01480919  0.83900531  0.86587118  1
  La3+  La61  1  -0.00561693  0.17380604  0.61674759  1
  La3+  La62  1  0.50075237  0.84466948  0.36595057  1
  La3+  La63  1  0.00204844  0.49311348  0.62359617  1
  La3+  La64  1  0.00472888  0.50920994  0.63755349  1
  La3+  La65  1  0.50663583  0.16971177  0.60506231  1
  La3+  La66  1  0.49819000  0.83230342  0.85779511  1
  La3+  La67  1  -0.00551752  0.85187321  0.87551841  1
  La3+  La68  1  -0.00501631  0.15458164  0.37697969  1
  La3+  La69  1  -0.00669119  0.15718547  0.85677714  1
  La3+  La70  1  0.50241209  0.83475047  0.38556426  1
  La3+  La71  1  0.49633152  0.49702557  0.12507858  1
  La3+  La72  1  0.25023315  0.49656288  0.75130117  1
  La3+  La73  1  0.74875817  0.55695567  0.53252480  1
  La3+  La74  1  0.25025373  0.50600835  0.51218639  1
  La3+  La75  1  0.74851386  0.50590417  -0.02367788  1
  La3+  La76  1  0.74866645  0.15822415  0.48552578  1
  La3+  La77  1  0.25253043  0.22654458  0.71725664  1
  La3+  La78  1  0.75014377  0.83058032  0.48325424  1
  La3+  La79  1  0.25159622  0.16858828  0.47475845  1
  La3+  La80  1  0.25255977  0.83301378  -0.08437122  1
  La3+  La81  1  0.75140594  0.79406005  0.22629438  1
  La3+  La82  1  0.25214454  0.17682094  -0.03596055  1
  La3+  La83  1  0.24877642  0.18645975  0.25478060  1
  Ru4+  Ru84  1  -0.00075683  0.00367411  0.00806376  1
  Ru4+  Ru85  1  -0.00075002  -0.00614043  0.24601104  1
  Ru4+  Ru86  1  -0.00512235  -0.00599602  0.50389035  1
  Ru4+  Ru87  1  0.00124461  0.00603243  0.75233525  1
  Ru4+  Ru88  1  -0.00543475  0.33697445  -0.00314464  1
  Ru4+  Ru89  1  -0.00430719  0.33121054  0.24230509  1
  Ru4+  Ru90  1  -0.00730035  0.33574186  0.49364260  1
  Ru4+  Ru91  1  0.00957197  0.32663888  0.75830291  1
  Ru4+  Ru92  1  0.00511411  0.67501541  0.01348378  1
  Ru4+  Ru93  1  0.00092861  0.67061064  0.24164304  1
  Ru4+  Ru94  1  -0.00204328  0.65966332  0.49176782  1
  Ru4+  Ru95  1  0.01134669  0.67096264  0.75247464  1
  Ru4+  Ru96  1  0.49708889  0.00971765  -0.02313915  1
  Ru4+  Ru97  1  0.50104187  -0.00113468  0.24738095  1
  Ru4+  Ru98  1  0.50074218  0.00303132  0.50703155  1
  Ru4+  Ru99  1  0.49980976  0.00136862  0.72764582  1
  Ru4+  Ru100  1  0.50015074  0.31658126  0.00896794  1
  Ru4+  Ru101  1  0.49700961  0.33391003  0.22598094  1
  Ru4+  Ru102  1  0.49884379  0.33107022  0.49891634  1
  Ru4+  Ru103  1  0.50116070  0.32858468  0.74327402  1
  Ru4+  Ru104  1  0.49450024  0.66121947  -0.00350235  1
  Ru4+  Ru105  1  0.50663716  0.67333883  0.22941286  1
  Ru4+  Ru106  1  0.51155640  0.68427555  0.50297049  1
  Ru4+  Ru107  1  0.50406322  0.65421554  0.75242808  1
  Ru4+  Ru108  1  0.10426575  0.17476178  0.00318333  1
  Ru4+  Ru109  1  0.10544352  0.16628758  0.24552751  1
  Ru4+  Ru110  1  0.11753174  0.16618094  0.49935913  1
  Ru4+  Ru111  1  0.10951056  0.17345652  0.74664224  1
  Ru4+  Ru112  1  0.10800446  0.49994306  0.00175385  1
  Ru4+  Ru113  1  0.11221229  0.50661788  0.25487165  1
  Ru4+  Ru114  1  0.10916947  0.49830210  0.49452631  1
  Ru4+  Ru115  1  0.10919201  0.50024772  0.75083050  1
  Ru4+  Ru116  1  0.11190543  0.82327510  0.01561279  1
  Ru4+  Ru117  1  0.11008360  0.82946488  0.24218935  1
  Ru4+  Ru118  1  0.10849409  0.81976813  0.49662469  1
  Ru4+  Ru119  1  0.11060234  0.82875753  0.74801514  1
  Ru4+  Ru120  1  0.60947567  0.16410116  -0.00362908  1
  Ru4+  Ru121  1  0.61518181  0.16278077  0.25015138  1
  Ru4+  Ru122  1  0.60533954  0.16913049  0.50165822  1
  Ru4+  Ru123  1  0.61189021  0.16649892  0.74702586  1
  Ru4+  Ru124  1  0.61243263  0.49514930  -0.00054231  1
  Ru4+  Ru125  1  0.61466936  0.49923669  0.24588650  1
  Ru4+  Ru126  1  0.61040456  0.50252638  0.51010013  1
  Ru4+  Ru127  1  0.61016216  0.50289276  0.74130918  1
  Ru4+  Ru128  1  0.61740023  0.83330574  -0.00100570  1
  Ru4+  Ru129  1  0.61094513  0.83790952  0.24467870  1
  Ru4+  Ru130  1  0.60636062  0.82434494  0.51051910  1
  Ru4+  Ru131  1  0.61446150  0.84079552  0.75211225  1
  Ru4+  Ru132  1  0.39283240  0.16440414  -0.00807708  1
  Ru4+  Ru133  1  0.38765887  0.16604418  0.24320472  1
  Ru4+  Ru134  1  0.38807014  0.16239058  0.50555907  1
  Ru4+  Ru135  1  0.39598552  0.15727598  0.75941651  1
  Ru4+  Ru136  1  0.38468013  0.50754887  0.00086312  1
  Ru4+  Ru137  1  0.38098131  0.48968425  0.24612649  1
  Ru4+  Ru138  1  0.38693085  0.49878074  0.50027126  1
  Ru4+  Ru139  1  0.38904042  0.49940986  0.74815852  1
  Ru4+  Ru140  1  0.38764891  0.83247669  0.00538124  1
  Ru4+  Ru141  1  0.38523391  0.83463933  0.24500328  1
  Ru4+  Ru142  1  0.38274954  0.82558503  0.50528227  1
  Ru4+  Ru143  1  0.38671939  0.82450036  0.75006640  1
  Ru4+  Ru144  1  0.88540954  0.16302297  -0.00064187  1
  Ru4+  Ru145  1  0.88576552  0.16060997  0.25074029  1
  Ru4+  Ru146  1  0.88823334  0.16816444  0.50106204  1
  Ru4+  Ru147  1  0.88565023  0.16389960  0.74586181  1
  Ru4+  Ru148  1  0.89630560  0.49454361  -0.00702976  1
  Ru4+  Ru149  1  0.88919935  0.50129255  0.25049895  1
  Ru4+  Ru150  1  0.90118857  0.51859080  0.48609025  1
  Ru4+  Ru151  1  0.88731496  0.50228337  0.75663012  1
  Ru4+  Ru152  1  0.88329939  0.83311226  0.00735838  1
  Ru4+  Ru153  1  0.89868836  0.82429308  0.24895072  1
  Ru4+  Ru154  1  0.89204191  0.84322085  0.50732227  1
  Ru4+  Ru155  1  0.88365351  0.83484593  0.74737572  1
  Ru4+  Ru156  1  0.75038515  0.22317718  -0.00374775  1
  Ru4+  Ru157  1  0.24935657  0.90450769  0.50591584  1
  Ru4+  Ru158  1  0.24944873  0.31395375  -0.01053968  1
  Ru4+  Ru159  1  0.24722406  0.91340301  0.25982050  1
  Ru4+  Ru160  1  0.75016803  0.93155683  0.77252298  1
  Ru4+  Ru161  1  0.75099151  0.59091422  0.26280673  1
  Ru4+  Ru162  1  0.75084090  0.36428603  -0.05372097  1
  Ru4+  Ru163  1  0.75070601  0.23794398  0.73549870  1
  Ru4+  Ru164  1  0.75087962  0.23027191  0.25182440  1
  Ru4+  Ru165  1  0.24757775  0.04554210  0.24826953  1
  Ru4+  Ru166  1  0.24758265  0.92596239  0.03532273  1
  Ru4+  Ru167  1  0.25014930  0.73564575  0.25840839  1
  Ru4+  Ru168  1  0.25059879  0.33996685  0.25783562  1
  Ru4+  Ru169  1  0.24787722  0.05920656  0.03932021  1
  Ru4+  Ru170  1  0.75189490  0.93916094  0.22324245  1
  Ru4+  Ru171  1  0.25007609  0.71867142  0.01793073  1
  Ru4+  Ru172  1  0.24956028  0.06012351  0.75864489  1
  Ru4+  Ru173  1  0.24856595  0.44349772  -0.00118024  1
  Ru4+  Ru174  1  0.75092070  0.40459415  0.26988550  1
  Ru4+  Ru175  1  0.75032532  0.65276287  -0.03500840  1
  Ru4+  Ru176  1  0.74987139  0.75557944  0.77937521  1
  Ru4+  Ru177  1  0.24717290  0.57822948  -0.00884044  1
  Ru4+  Ru178  1  0.75043168  0.56455513  0.74563348  1
  Ru4+  Ru179  1  0.75212454  0.39447562  0.50622923  1
  O2-  O180  1  0.16287907  0.08207562  0.00457047  1
  O2-  O181  1  0.16476769  0.07721435  0.25014626  1
  O2-  O182  1  0.16964751  0.08197963  0.48914208  1
  O2-  O183  1  0.16613153  0.08237532  0.75272690  1
  O2-  O184  1  0.16698540  0.41809075  -0.00249452  1
  O2-  O185  1  0.16337334  0.41506723  0.25488863  1
  O2-  O186  1  0.16553753  0.41379965  0.50326038  1
  O2-  O187  1  0.16675172  0.41611552  0.75598710  1
  O2-  O188  1  0.17001577  0.74458008  -0.00247246  1
  O2-  O189  1  0.16804119  0.74689156  0.25224931  1
  O2-  O190  1  0.16664241  0.74928855  0.49487065  1
  O2-  O191  1  0.16561180  0.75319417  0.75224215  1
  O2-  O192  1  0.66377394  0.08056171  -0.00284502  1
  O2-  O193  1  0.66820603  0.08408104  0.24675653  1
  O2-  O194  1  0.66525029  0.08305604  0.50640210  1
  O2-  O195  1  0.66068771  0.08269915  0.75414814  1
  O2-  O196  1  0.66522099  0.40869400  -0.00495073  1
  O2-  O197  1  0.66657696  0.40964499  0.25578662  1
  O2-  O198  1  0.66566832  0.41200017  0.50357422  1
  O2-  O199  1  0.65913559  0.41406425  0.75129288  1
  O2-  O200  1  0.66087374  0.74546766  -0.00432953  1
  O2-  O201  1  0.66030686  0.74888352  0.24594705  1
  O2-  O202  1  0.66707906  0.75325749  0.49822471  1
  O2-  O203  1  0.66585354  0.75119906  0.75600049  1
  O2-  O204  1  0.33414884  0.25452856  -0.00541482  1
  O2-  O205  1  0.33519547  0.25399596  0.25101578  1
  O2-  O206  1  0.33537221  0.25370870  0.50027013  1
  O2-  O207  1  0.34599041  0.25241025  0.75777163  1
  O2-  O208  1  0.32847031  0.58623683  -0.00198935  1
  O2-  O209  1  0.33907158  0.58195656  0.24794090  1
  O2-  O210  1  0.33894432  0.58626758  0.50083749  1
  O2-  O211  1  0.32929818  0.58337717  0.75258167  1
  O2-  O212  1  0.33264303  0.91636527  0.00399229  1
  O2-  O213  1  0.33012802  0.91746001  0.25525125  1
  O2-  O214  1  0.33335945  0.91966766  0.49703696  1
  O2-  O215  1  0.33825126  0.91267309  0.74838886  1
  O2-  O216  1  0.83452765  0.25039872  -0.00994109  1
  O2-  O217  1  0.83503166  0.25141109  0.25704542  1
  O2-  O218  1  0.83605499  0.25413272  0.50414367  1
  O2-  O219  1  0.83183478  0.25309364  0.75373199  1
  O2-  O220  1  0.83401956  0.58407444  -0.00564584  1
  O2-  O221  1  0.83381047  0.58469376  0.24766022  1
  O2-  O222  1  0.83908498  0.58514323  0.49969668  1
  O2-  O223  1  0.83445353  0.58342998  0.75211906  1
  O2-  O224  1  0.83729200  0.91999222  0.00081484  1
  O2-  O225  1  0.83569650  0.91814144  0.24511038  1
  O2-  O226  1  0.83094963  0.92132465  0.50448074  1
  O2-  O227  1  0.83446360  0.92231919  0.75593222  1
  O2-  O228  1  0.16936302  0.25590888  -0.01073077  1
  O2-  O229  1  0.16539779  0.25607875  0.25284984  1
  O2-  O230  1  0.16952644  0.25222279  0.49981520  1
  O2-  O231  1  0.16274593  0.26002881  0.75579581  1
  O2-  O232  1  0.16528965  0.58145514  0.00248642  1
  O2-  O233  1  0.16810901  0.57840844  0.25010945  1
  O2-  O234  1  0.16183313  0.58310286  0.49754384  1
  O2-  O235  1  0.17238476  0.58058771  0.75069147  1
  O2-  O236  1  0.16224651  0.91766878  0.00461147  1
  O2-  O237  1  0.16414664  0.91823141  0.25117497  1
  O2-  O238  1  0.16354434  0.91324239  0.49754891  1
  O2-  O239  1  0.15960625  0.91586897  0.75137461  1
  O2-  O240  1  0.66656014  0.24731413  -0.00702601  1
  O2-  O241  1  0.66819973  0.25078551  0.25429694  1
  O2-  O242  1  0.66473324  0.25386690  0.50266521  1
  O2-  O243  1  0.66976491  0.25332797  0.75073484  1
  O2-  O244  1  0.66486102  0.58974133  -0.00547390  1
  O2-  O245  1  0.66719540  0.58503818  0.24913500  1
  O2-  O246  1  0.65999247  0.58853843  0.49436144  1
  O2-  O247  1  0.66757062  0.58213132  0.75168217  1
  O2-  O248  1  0.66342990  0.91741536  0.00045574  1
  O2-  O249  1  0.67010420  0.92098434  0.23952474  1
  O2-  O250  1  0.65914813  0.91358707  0.50250591  1
  O2-  O251  1  0.66775721  0.92171189  0.75629693  1
  O2-  O252  1  0.33148686  0.08037835  0.00515196  1
  O2-  O253  1  0.33004313  0.07637049  0.25618187  1
  O2-  O254  1  0.33488169  0.07969835  0.49406599  1
  O2-  O255  1  0.33172049  0.07953081  0.74740701  1
  O2-  O256  1  0.33175257  0.41999273  -0.00223791  1
  O2-  O257  1  0.32207287  0.41098164  0.25346737  1
  O2-  O258  1  0.32981847  0.41351308  0.50648901  1
  O2-  O259  1  0.33403298  0.41541194  0.75593155  1
  O2-  O260  1  0.33073174  0.74197606  -0.00386062  1
  O2-  O261  1  0.33426270  0.74692014  0.25423211  1
  O2-  O262  1  0.33454321  0.74489704  0.49690892  1
  O2-  O263  1  0.33533273  0.74438667  0.75303727  1
  O2-  O264  1  0.83039406  0.08390604  -0.00211308  1
  O2-  O265  1  0.83201642  0.08374614  0.24769307  1
  O2-  O266  1  0.83015150  0.08323788  0.50392705  1
  O2-  O267  1  0.83310022  0.08499786  0.75581889  1
  O2-  O268  1  0.83015786  0.41091582  -0.01415777  1
  O2-  O269  1  0.83697675  0.41206086  0.25652110  1
  O2-  O270  1  0.83963992  0.41567593  0.50511883  1
  O2-  O271  1  0.83822362  0.41189879  0.75087575  1
  O2-  O272  1  0.83558570  0.74581966  -0.00465544  1
  O2-  O273  1  0.84103498  0.74544037  0.23934795  1
  O2-  O274  1  0.84197548  0.75544545  0.49828127  1
  O2-  O275  1  0.83440009  0.74594768  0.76010773  1
  O2-  O276  1  0.55144650  0.56671846  0.80683009  1
  O2-  O277  1  0.55513950  0.76454218  0.76478467  1
  O2-  O278  1  0.45028053  0.57142247  0.75032784  1
  O2-  O279  1  0.03824205  0.90070195  0.46243858  1
  O2-  O280  1  0.95685870  0.57230375  0.76444547  1
  O2-  O281  1  0.45828886  0.89992632  0.51927254  1
  O2-  O282  1  0.05441206  0.23624725  0.51605426  1
  O2-  O283  1  0.45473541  0.46987659  0.28874399  1
  O2-  O284  1  0.54893560  0.56760250  0.99080855  1
  O2-  O285  1  0.45484814  0.77071499  0.25076438  1
  O2-  O286  1  0.02895079  0.78778855  0.73896633  1
  O2-  O287  1  0.94816299  0.91198894  0.99245781  1
  O2-  O288  1  0.45472028  0.23971037  0.74358052  1
  O2-  O289  1  0.45683794  0.22620976  0.48928808  1
  O2-  O290  1  0.05276853  0.90482160  0.25773313  1
  O2-  O291  1  0.94513845  0.42102750  0.73395338  1
  O2-  O292  1  0.04995455  0.42088777  0.48526283  1
  O2-  O293  1  0.54726286  0.42617701  0.51780980  1
  O2-  O294  1  0.98084795  0.52261762  0.47677044  1
  O2-  O295  1  0.95868292  0.41816640  0.76702096  1
  O2-  O296  1  0.55131335  0.91554354  0.76955357  1
  O2-  O297  1  0.05510461  0.92277337  0.76458511  1
  O2-  O298  1  0.46744561  0.10708382  0.71520684  1
  O2-  O299  1  0.55260469  0.42464573  0.26754860  1
  O2-  O300  1  0.55115004  0.24049631  0.98248553  1
  O2-  O301  1  0.44586056  0.90206804  0.75971438  1
  O2-  O302  1  0.04598458  0.78301688  0.96469501  1
  O2-  O303  1  0.54831104  0.09406160  0.01166458  1
  O2-  O304  1  0.05551391  0.09445213  0.48213024  1
  O2-  O305  1  0.45158560  0.75135123  0.73048953  1
  O2-  O306  1  0.02361801  0.78305489  0.74003554  1
  O2-  O307  1  0.04224592  0.09140454  0.51515316  1
  O2-  O308  1  0.44434832  0.89593577  0.48684869  1
  O2-  O309  1  0.05328422  0.08843325  0.02422536  1
  O2-  O310  1  0.45028061  0.42888362  0.99256417  1
  O2-  O311  1  0.52896960  0.78526193  0.55521530  1
  O2-  O312  1  0.54835670  0.89992901  0.98158505  1
  O2-  O313  1  0.54839871  0.42032074  0.75414857  1
  O2-  O314  1  0.04127039  0.23823465  0.48260255  1
  O2-  O315  1  0.46150791  0.09612868  0.28492652  1
  O2-  O316  1  0.97198948  0.45661608  0.95577311  1
  O2-  O317  1  0.94382959  0.91144824  0.24016519  1
  O2-  O318  1  0.02078158  0.21917329  0.96909310  1
  O2-  O319  1  0.94321235  0.75122143  0.98239000  1
  O2-  O320  1  0.95486355  0.22813734  0.25723675  1
  O2-  O321  1  0.96399019  0.78038477  0.20184910  1
  O2-  O322  1  0.44313563  0.57694219  0.95793510  1
  O2-  O323  1  0.53617915  0.87573130  0.20871238  1
  O2-  O324  1  0.06228904  0.08281899  0.76911868  1
  O2-  O325  1  0.94056416  0.07901629  0.21971441  1
  O2-  O326  1  0.07381524  0.70316879  0.06327707  1
  O2-  O327  1  0.94126129  0.07566746  0.71336418  1
  O2-  O328  1  0.93488623  0.93557643  0.58013827  1
  O2-  O329  1  0.56278431  0.73459298  0.78301853  1
  O2-  O330  1  0.44036606  0.92544867  0.78832625  1
  O2-  O331  1  0.55683350  0.59143184  0.52499132  1
  O2-  O332  1  0.44381419  0.40569300  0.96430293  1
  O2-  O333  1  0.93214246  0.62903717  0.43163607  1
  O2-  O334  1  0.43967159  0.74956260  0.98159352  1
  O2-  O335  1  0.43660138  0.58496148  0.94322647  1
  O2-  O336  1  0.06091453  0.25590434  0.67147251  1
  O2-  O337  1  0.41354811  0.55962744  0.10477323  1
  O2-  O338  1  0.56568279  0.61701584  0.68104893  1
  O2-  O339  1  0.07285132  0.66661949  0.67964126  1
  O2-  O340  1  0.55881960  0.08249928  0.22745555  1
  O2-  O341  1  0.05893384  0.72914682  0.41424986  1
  O2-  O342  1  0.55932317  0.25287669  0.23527838  1
  O2-  O343  1  0.42183250  0.39857029  0.18890005  1
  O2-  O344  1  0.93672441  0.07971377  0.02324360  1
  O2-  O345  1  0.43420902  0.92826655  0.22784291  1
  O2-  O346  1  0.57620966  0.73419564  0.44026711  1
  O2-  O347  1  0.93956260  0.61352504  0.59081342  1
  O2-  O348  1  0.06047276  0.95370876  0.59720266  1
  O2-  O349  1  0.43834813  0.25588822  0.95653736  1
  O2-  O350  1  0.05607253  0.74040745  0.55606273  1
  O2-  O351  1  0.94062591  0.58239492  0.22494798  1
  O2-  O352  1  0.91978661  0.40298383  0.05376206  1
  O2-  O353  1  0.06465831  0.73876365  0.22739782  1
  O2-  O354  1  0.58214918  0.92487062  0.32005606  1
  O2-  O355  1  0.05563861  0.59063279  0.27908787  1
  O2-  O356  1  0.93082828  0.90851792  0.43051781  1
  O2-  O357  1  0.43429161  0.40747511  0.47487226  1
  O2-  O358  1  0.06259151  0.68902564  0.84375485  1
  O2-  O359  1  0.41691500  0.09978860  0.14919182  1
  O2-  O360  1  0.55878477  0.58304699  0.22188111  1
  O2-  O361  1  0.06197874  0.90715013  0.45160102  1
  O2-  O362  1  0.56388135  0.74313800  0.28095104  1
  O2-  O363  1  0.93802828  0.59147328  0.02090035  1
  O2-  O364  1  0.06384754  0.24385505  0.81740439  1
  O2-  O365  1  0.42181821  0.06962796  0.82327651  1
  O2-  O366  1  0.93000658  0.73070722  0.32261164  1
  O2-  O367  1  0.93949650  0.08110123  0.48191618  1
  O2-  O368  1  0.08009621  0.26858206  0.05903851  1
  O2-  O369  1  0.43739403  0.07541762  0.97626159  1
  O2-  O370  1  0.43866664  0.09384101  0.30150185  1
  O2-  O371  1  0.56007062  0.93112546  0.97404560  1
  O2-  O372  1  0.75098244  0.01050074  0.32846496  1
  O2-  O373  1  0.75123419  0.32527569  0.18752007  1
  O2-  O374  1  0.74967493  0.66840745  0.69233818  1
  O2-  O375  1  0.25128156  0.34939601  0.64698806  1
  O2-  O376  1  0.75067245  -0.00753403  0.66655071  1
  O2-  O377  1  0.25094182  0.66547158  0.35315688  1
  O2-  O378  1  0.74989971  0.32809760  0.39225225  1
  O2-  O379  1  0.24976646  -0.01278828  0.66603264  1
  O2-  O380  1  0.74770274  0.66952664  0.35982648  1
  O2-  O381  1  0.74934070  -0.00561441  0.87461053  1
  O2-  O382  1  0.24957993  0.31466608  0.38146897  1
  O2-  O383  1  0.25543024  0.64300337  0.60835126  1
  O2-  O384  1  0.74928983  0.32526212  0.05867530  1
  O2-  O385  1  0.75036044  0.00111544  0.12214637  1
  O2-  O386  1  0.75259667  0.68165937  0.55512090  1
  O2-  O387  1  0.75029476  0.66875877  0.18840156  1
  O2-  O388  1  0.24822403  -0.00051820  0.89761504  1
  O2-  O389  1  0.24984405  0.65788040  0.13137507  1
  O2-  O390  1  0.74962686  0.69043509  0.06925591  1
  O2-  O391  1  0.74993058  0.65266465  0.84146637  1
  O2-  O392  1  0.25073113  0.00230940  0.57509098  1
  O2-  O393  1  0.25326089  0.65894389  0.89389043  1
  O2-  O394  1  0.24986814  0.34023636  0.12523212  1
  O2-  O395  1  0.75101832  -0.00116872  0.42136970  1
  O2-  O396  1  0.25140887  0.50010960  0.38702715  1
  O2-  O397  1  0.74989301  0.85492338  0.34927264  1
  O2-  O398  1  0.74981742  0.48846592  0.65589227  1
  O2-  O399  1  0.74984884  0.49459080  0.19461339  1
  O2-  O400  1  0.24924010  0.15407519  0.11771720  1
  O2-  O401  1  0.25013195  0.84014334  0.59113082  1
  O2-  O402  1  0.25057737  0.82519186  0.19062614  1
  O2-  O403  1  0.75008908  0.49475614  0.83477472  1
  O2-  O404  1  0.75017967  0.83274278  0.86653802  1
  O2-  O405  1  0.75065276  0.83784419  0.61735486  1
  O2-  O406  1  0.25035427  0.82597337  0.33401977  1
  O2-  O407  1  0.75061062  0.84041460  0.70452339  1
  O2-  O408  1  0.74962163  0.86066591  0.11179148  1
  O2-  O409  1  0.74894958  0.50284155  0.32434518  1
  O2-  O410  1  0.75119841  0.47135585  0.43155412  1
  O2-  O411  1  0.25002611  0.83392067  0.79470228  1
  O2-  O412  1  0.24892833  0.15136079  0.60740883  1
  O2-  O413  1  0.75029066  0.17098482  0.09542999  1
  O2-  O414  1  0.24974965  0.82006540  0.06988215  1
  O2-  O415  1  0.75038823  0.49404903  0.10812899  1
  O2-  O416  1  0.24938187  0.14707193  0.83299179  1
  O2-  O417  1  0.74988215  0.18502287  0.63548195  1
  O2-  O418  1  0.74992627  0.16556827  0.34230059  1
  O2-  O419  1  0.25079097  0.82145369  0.42201711  1
  O2-  O420  1  0.47624463  -0.01586424  0.09695414  1
  O2-  O421  1  0.95992282  0.30911370  0.12881032  1
  O2-  O422  1  0.97152999  0.33371368  0.62188014  1
  O2-  O423  1  0.98676300  -0.01004013  0.12512675  1
  O2-  O424  1  0.45897640  0.29593427  0.11710590  1
  O2-  O425  1  0.45514169  0.67460411  0.14226854  1
  O2-  O426  1  0.45296896  0.00970548  0.61420205  1
  O2-  O427  1  0.46122540  -0.01671264  0.38504214  1
  O2-  O428  1  0.53125330  -0.00697770  0.13066025  1
  O2-  O429  1  0.97426321  0.33504188  0.37212920  1
  O2-  O430  1  0.04430689  0.02460818  0.35695032  1
  O2-  O431  1  0.02331978  -0.00113798  0.88553768  1
  O2-  O432  1  0.54928102  0.03004962  0.41439734  1
  O2-  O433  1  0.54845405  0.01291552  0.61920713  1
  O2-  O434  1  0.02395591  0.35446006  0.87841196  1
  O2-  O435  1  0.54592892  0.36113472  0.10883694  1
  O2-  O436  1  0.97729672  0.66841597  0.12452075  1
  O2-  O437  1  0.96267701  0.01145442  0.35575128  1
  O2-  O438  1  0.48355288  0.31851438  0.36244235  1
  O2-  O439  1  0.50945286  0.64649581  0.36945619  1
  O2-  O440  1  0.47404760  0.33477359  0.61953477  1
  O2-  O441  1  0.54634999  0.69151535  0.10210796  1
  O2-  O442  1  0.04752571  0.36973574  0.16201140  1
  O2-  O443  1  0.48280731  0.68714108  0.86535945  1
