# generated using pymatgen
data_La7(Ru4O11)2
_symmetry_space_group_name_H-M   'P 1'
_cell_length_a   23.99076088
_cell_length_b   16.83172597
_cell_length_c   15.42871330
_cell_angle_alpha   89.99819348
_cell_angle_beta   89.99782374
_cell_angle_gamma   89.99845411
_symmetry_Int_Tables_number   1
_chemical_formula_structural   La7(Ru4O11)2
_chemical_formula_sum   'La84 Ru96 O264'
_cell_volume   6230.20565045
_cell_formula_units_Z   12
loop_
 _symmetry_equiv_pos_site_id
 _symmetry_equiv_pos_as_xyz
  1  'x, y, z'
loop_
 _atom_type_symbol
 _atom_type_oxidation_number
  La3+  3.0
  Ru4+  4.0
  O2-  -2.0
loop_
 _atom_site_type_symbol
 _atom_site_label
 _atom_site_symmetry_multiplicity
 _atom_site_fract_x
 _atom_site_fract_y
 _atom_site_fract_z
 _atom_site_occupancy
  La3+  La0  1  0.13506212  0.00289813  0.12260319  1
  La3+  La1  1  0.14133599  -0.00147475  0.37531923  1
  La3+  La2  1  0.14301648  -0.00435007  0.62446655  1
  La3+  La3  1  0.14065559  -0.00249113  0.87334088  1
  La3+  La4  1  0.13064776  0.34027795  0.11378898  1
  La3+  La5  1  0.13861039  0.33441383  0.38148351  1
  La3+  La6  1  0.14021717  0.33490350  0.61904216  1
  La3+  La7  1  0.13366898  0.34094779  0.88322256  1
  La3+  La8  1  0.13627866  0.66674343  0.12290909  1
  La3+  La9  1  0.13814356  0.66709300  0.38533955  1
  La3+  La10  1  0.13988181  0.66626049  0.61925625  1
  La3+  La11  1  0.14211124  0.66776246  0.87915104  1
  La3+  La12  1  0.64142832  0.00065853  0.12927144  1
  La3+  La13  1  0.63784614  0.00192764  0.37603477  1
  La3+  La14  1  0.63795283  -0.00096493  0.62022397  1
  La3+  La15  1  0.63452652  0.00053783  0.87481905  1
  La3+  La16  1  0.64004059  0.33511664  0.12535511  1
  La3+  La17  1  0.64401437  0.33658291  0.37567341  1
  La3+  La18  1  0.64194346  0.34042341  0.62814147  1
  La3+  La19  1  0.63410045  0.33625211  0.87651791  1
  La3+  La20  1  0.62673270  0.65641630  0.12041896  1
  La3+  La21  1  0.64285682  0.66616204  0.37084453  1
  La3+  La22  1  0.64078836  0.66704649  0.62498113  1
  La3+  La23  1  0.63165628  0.66012122  0.88166342  1
  La3+  La24  1  0.36419905  -0.00042100  0.12254455  1
  La3+  La25  1  0.36205724  -0.00297721  0.38093448  1
  La3+  La26  1  0.36281110  -0.00479101  0.62333371  1
  La3+  La27  1  0.36133143  -0.00392607  0.87261152  1
  La3+  La28  1  0.36306479  0.33306466  0.12423148  1
  La3+  La29  1  0.36291055  0.33400540  0.37903778  1
  La3+  La30  1  0.36095157  0.33287307  0.62085774  1
  La3+  La31  1  0.35975403  0.33453089  0.87497443  1
  La3+  La32  1  0.36386459  0.66701130  0.12198366  1
  La3+  La33  1  0.35898062  0.66634228  0.38009678  1
  La3+  La34  1  0.36002906  0.66528319  0.62312142  1
  La3+  La35  1  0.36383009  0.66298875  0.87382177  1
  La3+  La36  1  0.86266547  0.00434097  0.12832266  1
  La3+  La37  1  0.86160810  0.00206348  0.37730320  1
  La3+  La38  1  0.86326498  0.00286454  0.62173393  1
  La3+  La39  1  0.86317055  0.00150829  0.87061383  1
  La3+  La40  1  0.85942995  0.33197312  0.12546135  1
  La3+  La41  1  0.85668812  0.33668211  0.37875145  1
  La3+  La42  1  0.86043957  0.33512615  0.62072777  1
  La3+  La43  1  0.86191127  0.33513196  0.87682753  1
  La3+  La44  1  0.86009080  0.66693210  0.12972327  1
  La3+  La45  1  0.85481649  0.66654109  0.37416043  1
  La3+  La46  1  0.86034598  0.66429656  0.62313990  1
  La3+  La47  1  0.86599057  0.66352361  0.87200123  1
  La3+  La48  1  -0.00286763  0.16979142  0.36271402  1
  La3+  La49  1  -0.00303722  0.83077271  0.62487617  1
  La3+  La50  1  0.50338293  0.49979364  0.11279954  1
  La3+  La51  1  -0.00245908  0.49241348  0.10925626  1
  La3+  La52  1  0.49925651  0.50568253  0.63520730  1
  La3+  La53  1  0.49918268  0.82945208  0.61618241  1
  La3+  La54  1  0.48778631  0.17107120  0.87199895  1
  La3+  La55  1  0.00183071  0.16632211  0.38403234  1
  La3+  La56  1  0.49869371  0.83514608  0.88242354  1
  La3+  La57  1  -0.00659980  0.17221798  0.63234671  1
  La3+  La58  1  0.00449685  0.82071403  0.11580545  1
  La3+  La59  1  0.00349488  0.83064905  0.13526735  1
  La3+  La60  1  0.50254611  0.50377273  0.87879552  1
  La3+  La61  1  0.50230078  0.16565319  0.11957873  1
  La3+  La62  1  0.49820189  0.49854680  0.35581241  1
  La3+  La63  1  -0.00245161  0.83087513  0.38995915  1
  La3+  La64  1  0.49988251  0.83398447  0.12782377  1
  La3+  La65  1  0.50657866  0.83603653  0.63411949  1
  La3+  La66  1  0.00436984  0.83366322  0.88492785  1
  La3+  La67  1  -0.00375073  0.17359660  0.88329490  1
  La3+  La68  1  0.00585555  0.83456101  0.37190201  1
  La3+  La69  1  0.00502054  0.49507521  0.12801506  1
  La3+  La70  1  0.50087660  0.83050079  0.37889607  1
  La3+  La71  1  -0.00189873  0.49715587  0.61424282  1
  La3+  La72  1  0.74998737  0.82837096  0.50595647  1
  La3+  La73  1  0.75199401  0.55561720  0.01833865  1
  La3+  La74  1  0.74982223  0.17144737  0.49613712  1
  La3+  La75  1  0.24984545  0.89635486  0.24465783  1
  La3+  La76  1  0.24988671  0.83657429  0.00460235  1
  La3+  La77  1  0.74831780  0.80715231  0.74946665  1
  La3+  La78  1  0.74969040  0.50403244  0.25132064  1
  La3+  La79  1  0.25018047  0.49736308  0.03483844  1
  La3+  La80  1  0.74969051  0.18172675  0.80408974  1
  La3+  La81  1  0.75024082  0.49658916  0.71626972  1
  La3+  La82  1  0.74949647  0.83079465  -0.00511316  1
  La3+  La83  1  0.24760316  0.50610394  0.26895762  1
  Ru4+  Ru84  1  0.00018113  0.00846813  0.00244087  1
  Ru4+  Ru85  1  -0.00750016  -0.00020038  0.24413977  1
  Ru4+  Ru86  1  -0.00227241  0.00096779  0.49619786  1
  Ru4+  Ru87  1  0.00304280  0.00408195  0.74683553  1
  Ru4+  Ru88  1  -0.00042096  0.33490578  0.00147968  1
  Ru4+  Ru89  1  0.00120073  0.33525411  0.24598801  1
  Ru4+  Ru90  1  -0.00192504  0.33831742  0.49955125  1
  Ru4+  Ru91  1  -0.00177660  0.33869804  0.75148299  1
  Ru4+  Ru92  1  -0.00101944  0.66715117  -0.00594056  1
  Ru4+  Ru93  1  0.00190337  0.65900118  0.25039567  1
  Ru4+  Ru94  1  -0.00531273  0.65510695  0.49447295  1
  Ru4+  Ru95  1  -0.00286540  0.66788379  0.75154193  1
  Ru4+  Ru96  1  0.49991072  0.00354880  -0.00258742  1
  Ru4+  Ru97  1  0.50084918  0.00145231  0.24702353  1
  Ru4+  Ru98  1  0.50077187  0.01059596  0.49877847  1
  Ru4+  Ru99  1  0.50476494  0.01279432  0.75730040  1
  Ru4+  Ru100  1  0.49745693  0.33018110  -0.00064760  1
  Ru4+  Ru101  1  0.50326562  0.32602971  0.25014509  1
  Ru4+  Ru102  1  0.50616071  0.31538031  0.50617809  1
  Ru4+  Ru103  1  0.49790350  0.32807030  0.74827109  1
  Ru4+  Ru104  1  0.49928330  0.66625353  0.00387588  1
  Ru4+  Ru105  1  0.49540326  0.67206733  0.25406095  1
  Ru4+  Ru106  1  0.50260254  0.66288405  0.49565695  1
  Ru4+  Ru107  1  0.50682939  0.66868797  0.74917235  1
  Ru4+  Ru108  1  0.11173195  0.16605351  0.00066899  1
  Ru4+  Ru109  1  0.11618555  0.17086218  0.24948132  1
  Ru4+  Ru110  1  0.11473454  0.16715425  0.50128028  1
  Ru4+  Ru111  1  0.11148056  0.16421230  0.74771911  1
  Ru4+  Ru112  1  0.11355807  0.49875955  -0.00263691  1
  Ru4+  Ru113  1  0.10887605  0.49980101  0.24743597  1
  Ru4+  Ru114  1  0.11407349  0.49979993  0.49919799  1
  Ru4+  Ru115  1  0.11145951  0.50144571  0.75372032  1
  Ru4+  Ru116  1  0.11247296  0.83326453  -0.00095723  1
  Ru4+  Ru117  1  0.11500062  0.83133901  0.24957911  1
  Ru4+  Ru118  1  0.11885489  0.83581036  0.50176634  1
  Ru4+  Ru119  1  0.11408505  0.83716788  0.75082198  1
  Ru4+  Ru120  1  0.61358350  0.16543746  0.00148532  1
  Ru4+  Ru121  1  0.61087929  0.16616135  0.25032138  1
  Ru4+  Ru122  1  0.60449761  0.17896543  0.50036061  1
  Ru4+  Ru123  1  0.60861751  0.16310340  0.74791922  1
  Ru4+  Ru124  1  0.61332201  0.50653826  -0.00028112  1
  Ru4+  Ru125  1  0.61478329  0.49411859  0.25019542  1
  Ru4+  Ru126  1  0.61274627  0.50102701  0.49970681  1
  Ru4+  Ru127  1  0.61428337  0.50783186  0.75283849  1
  Ru4+  Ru128  1  0.60896085  0.82888309  -0.00057620  1
  Ru4+  Ru129  1  0.61376282  0.83144507  0.25023583  1
  Ru4+  Ru130  1  0.61054228  0.83256729  0.49825887  1
  Ru4+  Ru131  1  0.60823368  0.83242302  0.75148233  1
  Ru4+  Ru132  1  0.38732788  0.16474605  0.00117379  1
  Ru4+  Ru133  1  0.38732892  0.16584940  0.24934489  1
  Ru4+  Ru134  1  0.38805799  0.16891645  0.49942279  1
  Ru4+  Ru135  1  0.38892547  0.16688301  0.74955266  1
  Ru4+  Ru136  1  0.38803668  0.50234776  0.00097766  1
  Ru4+  Ru137  1  0.38663164  0.50534622  0.25065266  1
  Ru4+  Ru138  1  0.38350788  0.50013946  0.50107943  1
  Ru4+  Ru139  1  0.38495939  0.49547725  0.75104936  1
  Ru4+  Ru140  1  0.38917857  0.83344867  0.00089592  1
  Ru4+  Ru141  1  0.39042349  0.83070228  0.24988931  1
  Ru4+  Ru142  1  0.38199890  0.83075942  0.49854030  1
  Ru4+  Ru143  1  0.38298632  0.83268147  0.75205767  1
  Ru4+  Ru144  1  0.88807775  0.16926971  0.00080068  1
  Ru4+  Ru145  1  0.88594172  0.16415811  0.24695710  1
  Ru4+  Ru146  1  0.88628885  0.16749437  0.50186968  1
  Ru4+  Ru147  1  0.88992761  0.16545631  0.75013928  1
  Ru4+  Ru148  1  0.89052304  0.49828188  -0.00244409  1
  Ru4+  Ru149  1  0.88853474  0.49998241  0.25160856  1
  Ru4+  Ru150  1  0.88862389  0.50099982  0.49756446  1
  Ru4+  Ru151  1  0.89223653  0.50103368  0.75151657  1
  Ru4+  Ru152  1  0.88798008  0.83436117  -0.00308039  1
  Ru4+  Ru153  1  0.88316483  0.83480849  0.24923271  1
  Ru4+  Ru154  1  0.88552017  0.83204897  0.50183748  1
  Ru4+  Ru155  1  0.88991900  0.83333085  0.74658319  1
  Ru4+  Ru156  1  0.24930056  0.74646584  0.74316510  1
  Ru4+  Ru157  1  0.74970870  0.94049874  0.73595633  1
  Ru4+  Ru158  1  0.25025417  0.63216022  0.25015129  1
  Ru4+  Ru159  1  0.75036762  0.31513815  0.75882001  1
  Ru4+  Ru160  1  0.74987545  0.67463855  0.76361448  1
  Ru4+  Ru161  1  0.25012771  0.07736244  0.50128532  1
  Ru4+  Ru162  1  0.74984328  0.96501796  -0.02538058  1
  Ru4+  Ru163  1  0.25025258  0.37934363  0.25157738  1
  Ru4+  Ru164  1  0.75029098  0.10083337  0.00200973  1
  Ru4+  Ru165  1  0.24993531  0.58129113  0.73561525  1
  Ru4+  Ru166  1  0.24987989  0.42145481  0.72967194  1
  Ru4+  Ru167  1  0.74978002  0.07055189  0.71757832  1
  Ru4+  Ru168  1  0.24983366  0.24361431  -0.01194615  1
  Ru4+  Ru169  1  0.74988768  0.39816591  0.00123342  1
  Ru4+  Ru170  1  0.75001816  0.92317562  0.25745505  1
  Ru4+  Ru171  1  0.25059557  0.75717571  0.26813319  1
  Ru4+  Ru172  1  0.25022115  0.09258383  0.75012985  1
  Ru4+  Ru173  1  0.25026893  0.23429874  0.26104611  1
  Ru4+  Ru174  1  0.24998023  0.08404712  -0.00978543  1
  Ru4+  Ru175  1  0.75008983  0.57374300  0.48643164  1
  Ru4+  Ru176  1  0.24956905  0.23785074  0.74698310  1
  Ru4+  Ru177  1  0.75008721  0.24659077  0.25345689  1
  Ru4+  Ru178  1  0.25036142  0.08399383  0.26043577  1
  Ru4+  Ru179  1  0.74984480  0.69908939  0.00334950  1
  O2-  O180  1  0.16809512  0.08064535  -0.00037094  1
  O2-  O181  1  0.16772198  0.07983192  0.24967901  1
  O2-  O182  1  0.17064387  0.08335371  0.50216073  1
  O2-  O183  1  0.17136842  0.08143460  0.75150127  1
  O2-  O184  1  0.17002012  0.41659818  0.00105866  1
  O2-  O185  1  0.16510615  0.40914658  0.24841086  1
  O2-  O186  1  0.16568030  0.41583595  0.50410404  1
  O2-  O187  1  0.16522211  0.41509357  0.74779771  1
  O2-  O188  1  0.16626300  0.74622222  0.00190529  1
  O2-  O189  1  0.16836999  0.74637234  0.24968609  1
  O2-  O190  1  0.16665236  0.74877324  0.50182153  1
  O2-  O191  1  0.16582003  0.74639504  0.74884818  1
  O2-  O192  1  0.66849700  0.08440284  -0.00286750  1
  O2-  O193  1  0.66511054  0.08213942  0.25348905  1
  O2-  O194  1  0.66596041  0.08257835  0.49846636  1
  O2-  O195  1  0.66752795  0.08086395  0.75094274  1
  O2-  O196  1  0.66545227  0.41467155  0.00087849  1
  O2-  O197  1  0.66786442  0.41508742  0.24791353  1
  O2-  O198  1  0.66348625  0.41825711  0.50139457  1
  O2-  O199  1  0.66639636  0.41622774  0.75421168  1
  O2-  O200  1  0.66406798  0.74493864  0.00152011  1
  O2-  O201  1  0.66323146  0.74887502  0.24735791  1
  O2-  O202  1  0.66596349  0.74590455  0.49957321  1
  O2-  O203  1  0.66445982  0.74371574  0.75247485  1
  O2-  O204  1  0.33374814  0.25292901  0.00000562  1
  O2-  O205  1  0.33458977  0.25240948  0.25016979  1
  O2-  O206  1  0.33387943  0.24922266  0.50308545  1
  O2-  O207  1  0.33158391  0.25035558  0.74787544  1
  O2-  O208  1  0.33208585  0.58744536  0.00201199  1
  O2-  O209  1  0.33310467  0.58870751  0.24587556  1
  O2-  O210  1  0.33702644  0.58540702  0.50114713  1
  O2-  O211  1  0.33376460  0.58698195  0.75143552  1
  O2-  O212  1  0.33177272  0.92059439  0.00157360  1
  O2-  O213  1  0.34013241  0.92567358  0.25045416  1
  O2-  O214  1  0.33416321  0.91943980  0.49919689  1
  O2-  O215  1  0.33357854  0.91889155  0.75012508  1
  O2-  O216  1  0.83562410  0.24970187  -0.00115703  1
  O2-  O217  1  0.83349510  0.25107611  0.25071038  1
  O2-  O218  1  0.83087310  0.25218796  0.50198418  1
  O2-  O219  1  0.83409517  0.25415512  0.75181672  1
  O2-  O220  1  0.84189344  0.58966592  -0.00107869  1
  O2-  O221  1  0.83556269  0.58626294  0.24626476  1
  O2-  O222  1  0.83066658  0.58450395  0.49890878  1
  O2-  O223  1  0.83100838  0.58564618  0.75349885  1
  O2-  O224  1  0.83255280  0.92266203  0.00045073  1
  O2-  O225  1  0.83352317  0.92047587  0.25046400  1
  O2-  O226  1  0.83091233  0.91988701  0.49964272  1
  O2-  O227  1  0.83315046  0.91905975  0.75038711  1
  O2-  O228  1  0.16465539  0.25201557  -0.00143948  1
  O2-  O229  1  0.16828685  0.25049215  0.24897381  1
  O2-  O230  1  0.16753657  0.24917512  0.50375731  1
  O2-  O231  1  0.16598209  0.24928416  0.74825298  1
  O2-  O232  1  0.16734330  0.58502115  0.00324819  1
  O2-  O233  1  0.16402772  0.59002860  0.24860432  1
  O2-  O234  1  0.16560542  0.58489571  0.50269092  1
  O2-  O235  1  0.16888443  0.58546424  0.74742478  1
  O2-  O236  1  0.16764500  0.92109870  0.00148117  1
  O2-  O237  1  0.16052998  0.92479024  0.24861149  1
  O2-  O238  1  0.16595164  0.91869131  0.49953809  1
  O2-  O239  1  0.16739970  0.91829868  0.74971766  1
  O2-  O240  1  0.66714915  0.24856857  -0.00269959  1
  O2-  O241  1  0.66599371  0.24926909  0.24937760  1
  O2-  O242  1  0.67027005  0.24860871  0.50062165  1
  O2-  O243  1  0.66541598  0.25256948  0.75294632  1
  O2-  O244  1  0.66389912  0.59083362  0.00077284  1
  O2-  O245  1  0.66530323  0.58512116  0.24594002  1
  O2-  O246  1  0.67103295  0.58523792  0.49812624  1
  O2-  O247  1  0.66951074  0.58668417  0.75283399  1
  O2-  O248  1  0.66514140  0.92319253  -0.00108597  1
  O2-  O249  1  0.66568326  0.91908566  0.25373154  1
  O2-  O250  1  0.66678921  0.92214562  0.49757370  1
  O2-  O251  1  0.66520243  0.92217999  0.74928173  1
  O2-  O252  1  0.33377297  0.08075790  -0.00008653  1
  O2-  O253  1  0.33290630  0.07871211  0.25185391  1
  O2-  O254  1  0.33287412  0.08296438  0.50007877  1
  O2-  O255  1  0.33134282  0.08127697  0.74856870  1
  O2-  O256  1  0.33413023  0.41397011  0.00256509  1
  O2-  O257  1  0.33555259  0.41030753  0.24732422  1
  O2-  O258  1  0.33759068  0.41349116  0.50193484  1
  O2-  O259  1  0.33376271  0.41382422  0.74618052  1
  O2-  O260  1  0.33473918  0.74504915  -0.00020468  1
  O2-  O261  1  0.33490213  0.74757810  0.24849912  1
  O2-  O262  1  0.33495767  0.74686626  0.50121236  1
  O2-  O263  1  0.33370951  0.74524713  0.75201946  1
  O2-  O264  1  0.83272511  0.08207104  -0.00077773  1
  O2-  O265  1  0.83161634  0.08262594  0.25230996  1
  O2-  O266  1  0.82912373  0.08109795  0.49820329  1
  O2-  O267  1  0.83196256  0.08154833  0.74871016  1
  O2-  O268  1  0.83243490  0.41249530  0.00060178  1
  O2-  O269  1  0.83454072  0.41328851  0.24949100  1
  O2-  O270  1  0.83438410  0.41813593  0.50240468  1
  O2-  O271  1  0.83471422  0.41328651  0.75147865  1
  O2-  O272  1  0.83638558  0.74493851  -0.00053056  1
  O2-  O273  1  0.83464334  0.74711561  0.24742138  1
  O2-  O274  1  0.83169102  0.74692049  0.49942415  1
  O2-  O275  1  0.83412842  0.74525784  0.75356904  1
  O2-  O276  1  0.54587014  0.09202595  0.23833085  1
  O2-  O277  1  0.04879855  0.90710338  0.23912749  1
  O2-  O278  1  0.95831899  0.77560578  0.78953833  1
  O2-  O279  1  0.03807527  0.11233968  0.78730465  1
  O2-  O280  1  0.54852786  0.56391146  0.23107893  1
  O2-  O281  1  0.95365877  0.23232849  0.23682614  1
  O2-  O282  1  0.52369304  0.19322854  0.51973998  1
  O2-  O283  1  0.95535841  0.43426935  0.26182819  1
  O2-  O284  1  0.95403079  0.76182985  0.26058359  1
  O2-  O285  1  0.04392158  0.09696421  0.23074107  1
  O2-  O286  1  0.55050829  0.57848961  0.01292803  1
  O2-  O287  1  0.05335234  0.43005613  0.02159670  1
  O2-  O288  1  0.95954499  0.88643900  0.02534300  1
  O2-  O289  1  0.45361597  0.90726138  0.72896509  1
  O2-  O290  1  0.54477601  0.23605655  0.26133368  1
  O2-  O291  1  0.96089604  0.91117644  0.78971691  1
  O2-  O292  1  0.05313734  0.09797492  0.26735384  1
  O2-  O293  1  0.03735883  0.11352355  0.53724832  1
  O2-  O294  1  0.45122600  0.42926766  0.98948080  1
  O2-  O295  1  0.04762674  0.76426941  0.49038968  1
  O2-  O296  1  0.95418227  0.23635536  0.76380499  1
  O2-  O297  1  0.04240385  0.43086612  0.99846147  1
  O2-  O298  1  0.54445321  0.76869866  0.24040892  1
  O2-  O299  1  0.44947291  0.23914876  0.01541081  1
  O2-  O300  1  0.45399447  0.90075709  0.47867275  1
  O2-  O301  1  0.04765610  0.57315803  0.01027722  1
  O2-  O302  1  0.45592046  0.90093238  0.24308581  1
  O2-  O303  1  0.95330283  0.76060074  0.24071383  1
  O2-  O304  1  0.95325449  0.10168178  0.00848211  1
  O2-  O305  1  0.45197551  0.56509381  0.76723062  1
  O2-  O306  1  0.54514350  0.89787982  0.99215777  1
  O2-  O307  1  0.54911789  0.43241934  0.74169974  1
  O2-  O308  1  0.53541714  0.10715133  0.96806029  1
  O2-  O309  1  0.03485692  0.55131645  0.73874863  1
  O2-  O310  1  0.45288209  0.90380697  0.51781217  1
  O2-  O311  1  0.53402446  0.54688669  0.46581017  1
  O2-  O312  1  0.54354466  0.56281284  0.99246998  1
  O2-  O313  1  0.54319334  0.23302375  0.97082024  1
  O2-  O314  1  0.54246129  0.11765422  0.78679740  1
  O2-  O315  1  0.44876215  0.42884075  0.25735647  1
  O2-  O316  1  0.45402746  0.76017350  0.74199123  1
  O2-  O317  1  0.05113103  0.76526432  0.76296096  1
  O2-  O318  1  0.03978569  0.55066627  0.72887883  1
  O2-  O319  1  0.44819554  0.09898750  0.73214574  1
  O2-  O320  1  0.04748607  0.90408035  0.51665660  1
  O2-  O321  1  0.95358450  0.43169711  0.76491770  1
  O2-  O322  1  0.55078688  0.43022803  0.98717455  1
  O2-  O323  1  0.45388059  0.90173399  0.76759558  1
  O2-  O324  1  0.43599746  0.92478093  0.02594839  1
  O2-  O325  1  0.06410307  0.41087626  0.47706746  1
  O2-  O326  1  0.06254953  0.59091074  0.47614210  1
  O2-  O327  1  0.06418020  0.07291217  0.03139148  1
  O2-  O328  1  0.56240153  0.59289586  0.22191724  1
  O2-  O329  1  0.93894723  0.74188281  0.53029190  1
  O2-  O330  1  0.93676735  0.25646231  0.52743357  1
  O2-  O331  1  0.93425610  0.59089134  0.71941764  1
  O2-  O332  1  0.07844564  0.62868030  0.81160237  1
  O2-  O333  1  0.07361206  0.05543555  0.68619369  1
  O2-  O334  1  0.56344183  0.40406041  0.28613238  1
  O2-  O335  1  0.44077315  0.40453232  0.28383830  1
  O2-  O336  1  0.06260233  0.92676071  0.03150680  1
  O2-  O337  1  0.43592794  0.26605168  0.77957393  1
  O2-  O338  1  0.56157767  0.59845249  0.81741601  1
  O2-  O339  1  0.06634248  0.25884809  0.27671301  1
  O2-  O340  1  0.94013186  0.92162736  0.80830515  1
  O2-  O341  1  0.93541892  0.07897724  0.47339212  1
  O2-  O342  1  0.92915092  0.72743880  0.68884720  1
  O2-  O343  1  0.93572654  0.59462168  0.43137322  1
  O2-  O344  1  0.08123468  0.06402602  0.44894954  1
  O2-  O345  1  0.43631462  0.26749648  0.46712473  1
  O2-  O346  1  0.58146782  0.27645804  0.56191982  1
  O2-  O347  1  0.43995857  0.59236613  0.78517788  1
  O2-  O348  1  0.43630147  0.07102222  0.53025686  1
  O2-  O349  1  0.57393559  0.05237323  0.06153773  1
  O2-  O350  1  0.43556395  0.59243004  0.27341837  1
  O2-  O351  1  0.57832477  0.60280736  0.54802235  1
  O2-  O352  1  0.92789233  0.95318794  0.94528895  1
  O2-  O353  1  0.56494553  0.40561433  0.96866800  1
  O2-  O354  1  0.06990082  0.40108033  0.97078884  1
  O2-  O355  1  0.93519219  0.40289318  0.96505675  1
  O2-  O356  1  0.93568921  0.41090687  0.47626657  1
  O2-  O357  1  0.93613187  0.07583479  0.72268678  1
  O2-  O358  1  0.56696030  0.60513148  0.96705908  1
  O2-  O359  1  0.06324938  0.25789447  0.47515945  1
  O2-  O360  1  0.57452081  0.26733162  0.04902743  1
  O2-  O361  1  0.57100521  0.05198226  0.68794433  1
  O2-  O362  1  0.93552394  0.92234177  0.47553956  1
  O2-  O363  1  0.06719610  0.73953608  0.22274458  1
  O2-  O364  1  0.56319285  0.40616447  0.72603032  1
  O2-  O365  1  0.93829679  0.59046896  0.56561009  1
  O2-  O366  1  0.93365738  0.07248560  0.22379521  1
  O2-  O367  1  0.56693941  0.27632280  0.42256555  1
  O2-  O368  1  0.06269339  0.92975783  0.78807923  1
  O2-  O369  1  0.06325270  0.74152684  0.47248862  1
  O2-  O370  1  0.92311751  0.91667184  0.66401954  1
  O2-  O371  1  0.56609839  0.58347430  0.69026048  1
  O2-  O372  1  0.74973515  0.33586621  0.17489046  1
  O2-  O373  1  0.25015018  0.30833338  0.15566365  1
  O2-  O374  1  0.24969669  0.33399968  0.81075219  1
  O2-  O375  1  0.74976434  0.66391099  0.64141525  1
  O2-  O376  1  0.74986141  0.00586749  0.18919090  1
  O2-  O377  1  0.74992839  0.65960688  0.88733332  1
  O2-  O378  1  0.75059350  0.33831448  0.64109597  1
  O2-  O379  1  0.25077377  0.00643440  0.40040911  1
  O2-  O380  1  0.75045335  0.33518575  0.32829077  1
  O2-  O381  1  0.25036071  0.33943283  0.06867400  1
  O2-  O382  1  0.74972654  0.31855912  0.08559384  1
  O2-  O383  1  0.75045661  0.66010824  0.35889013  1
  O2-  O384  1  0.24991118  0.33472772  0.43611746  1
  O2-  O385  1  0.75037705  0.66150152  0.11920995  1
  O2-  O386  1  0.75016023  0.01505298  0.07977466  1
  O2-  O387  1  0.75034955  0.32655951  0.41808710  1
  O2-  O388  1  0.25085018  0.00724858  0.59545899  1
  O2-  O389  1  0.25033448  0.31095626  0.35029053  1
  O2-  O390  1  0.24989600  0.66571509  0.38715684  1
  O2-  O391  1  0.75000908  0.00156412  0.85393197  1
  O2-  O392  1  0.75019281  0.32557143  0.89508357  1
  O2-  O393  1  0.24939060  0.66772358  0.64912334  1
  O2-  O394  1  0.24974082  0.00312264  0.90474466  1
  O2-  O395  1  0.25019572  0.33697921  0.93198285  1
  O2-  O396  1  0.25016251  0.49967321  0.81682904  1
  O2-  O397  1  0.74992197  0.47577404  0.91788848  1
  O2-  O398  1  0.74996713  0.82276158  0.19162702  1
  O2-  O399  1  0.75003286  0.51018848  0.84192065  1
  O2-  O400  1  0.24995307  0.82977417  0.58314385  1
  O2-  O401  1  0.75041143  0.84476336  0.62767839  1
  O2-  O402  1  0.25036656  0.49726700  0.61719904  1
  O2-  O403  1  0.74992333  0.50632022  0.58421415  1
  O2-  O404  1  0.25007000  0.50094213  0.90469017  1
  O2-  O405  1  0.74995670  0.83863503  0.11474425  1
  O2-  O406  1  0.25012388  0.82468249  0.36564116  1
  O2-  O407  1  0.74972125  0.81870679  0.31077637  1
  O2-  O408  1  0.75049209  0.84086381  0.87070034  1
  O2-  O409  1  0.25021448  0.15809319  0.17886424  1
  O2-  O410  1  0.25012206  0.81894968  0.13489852  1
  O2-  O411  1  0.25060455  0.49889066  0.39716776  1
  O2-  O412  1  0.75018569  0.50506939  0.38876748  1
  O2-  O413  1  0.25009789  0.84346390  0.80023460  1
  O2-  O414  1  0.25020571  0.83579283  0.66529318  1
  O2-  O415  1  0.25015446  0.16427234  0.06745587  1
  O2-  O416  1  0.75022018  0.47334080  0.11773350  1
  O2-  O417  1  0.74990829  0.16277472  0.64003362  1
  O2-  O418  1  0.24982095  0.82899059  0.88257882  1
  O2-  O419  1  0.75028286  0.84005147  0.38792223  1
  O2-  O420  1  0.97416944  -0.00707506  0.12452069  1
  O2-  O421  1  0.95557330  0.33635278  0.11899440  1
  O2-  O422  1  0.51324448  0.33968968  0.62693495  1
  O2-  O423  1  0.52400961  0.33186769  0.86390546  1
  O2-  O424  1  0.45742395  0.67635034  0.38499632  1
  O2-  O425  1  0.02295313  0.66347454  0.12171521  1
  O2-  O426  1  0.97712978  0.33855819  0.62781615  1
  O2-  O427  1  0.52269607  0.34362590  0.13036935  1
  O2-  O428  1  0.02514430  0.32347724  0.87152556  1
  O2-  O429  1  0.04059660  -0.01414731  0.36481374  1
  O2-  O430  1  0.45348720  0.65916712  0.61635079  1
  O2-  O431  1  0.53641370  0.69358757  0.62551715  1
  O2-  O432  1  0.54527123  0.67081849  0.37566862  1
  O2-  O433  1  0.95816823  0.00006925  0.35980174  1
  O2-  O434  1  0.02624641  0.33893627  0.36833506  1
  O2-  O435  1  0.45581788  0.00246111  0.88134902  1
  O2-  O436  1  0.02324669  0.67017031  0.36572457  1
  O2-  O437  1  0.96603473  0.32496766  0.37051547  1
  O2-  O438  1  0.54394272  -0.00847752  0.87220161  1
  O2-  O439  1  0.04359135  0.33078605  0.13096031  1
  O2-  O440  1  0.52374975  0.67337117  0.12306211  1
  O2-  O441  1  0.97129577  0.66521895  0.88159715  1
  O2-  O442  1  0.97995065  0.00499460  0.61332082  1
  O2-  O443  1  0.47415295  0.00841677  0.12627580  1
