# generated using pymatgen
data_La7(Ru4O11)2
_symmetry_space_group_name_H-M   'P 1'
_cell_length_a   23.98987546
_cell_length_b   16.82960707
_cell_length_c   15.42657096
_cell_angle_alpha   89.99934112
_cell_angle_beta   89.99984090
_cell_angle_gamma   90.00018239
_symmetry_Int_Tables_number   1
_chemical_formula_structural   La7(Ru4O11)2
_chemical_formula_sum   'La84 Ru96 O264'
_cell_volume   6228.32649875
_cell_formula_units_Z   12
loop_
 _symmetry_equiv_pos_site_id
 _symmetry_equiv_pos_as_xyz
  1  'x, y, z'
loop_
 _atom_type_symbol
 _atom_type_oxidation_number
  La3+  3.0
  Ru4+  4.0
  O2-  -2.0
loop_
 _atom_site_type_symbol
 _atom_site_label
 _atom_site_symmetry_multiplicity
 _atom_site_fract_x
 _atom_site_fract_y
 _atom_site_fract_z
 _atom_site_occupancy
  La3+  La0  1  0.13815134  0.00260274  0.12533646  1
  La3+  La1  1  0.13841874  0.00166780  0.37565750  1
  La3+  La2  1  0.14218227  0.00036864  0.62666916  1
  La3+  La3  1  0.13755550  0.00015440  0.87321805  1
  La3+  La4  1  0.14233514  0.33174452  0.12718448  1
  La3+  La5  1  0.14281011  0.33323444  0.37593032  1
  La3+  La6  1  0.14087058  0.33541641  0.62368317  1
  La3+  La7  1  0.13915846  0.33311327  0.87637870  1
  La3+  La8  1  0.13785150  0.66552056  0.12325403  1
  La3+  La9  1  0.13655954  0.66573081  0.37663892  1
  La3+  La10  1  0.13690532  0.66797600  0.62470333  1
  La3+  La11  1  0.14161821  0.66747766  0.87618336  1
  La3+  La12  1  0.63935074  0.00281720  0.12673208  1
  La3+  La13  1  0.63811736  0.00339781  0.37295625  1
  La3+  La14  1  0.63906499  0.00239949  0.62520538  1
  La3+  La15  1  0.64140430  0.00181819  0.87756314  1
  La3+  La16  1  0.64041335  0.33144580  0.12363333  1
  La3+  La17  1  0.63994927  0.33328360  0.37558806  1
  La3+  La18  1  0.63965188  0.33286358  0.62824663  1
  La3+  La19  1  0.63812033  0.33292586  0.86989768  1
  La3+  La20  1  0.63696105  0.66590232  0.12688160  1
  La3+  La21  1  0.63811935  0.66584325  0.37425102  1
  La3+  La22  1  0.64061675  0.66441751  0.62598413  1
  La3+  La23  1  0.63668874  0.66592637  0.87268952  1
  La3+  La24  1  0.36268808  0.00244365  0.12587511  1
  La3+  La25  1  0.36321072  0.00119202  0.37572480  1
  La3+  La26  1  0.35933539  -0.00017478  0.62693454  1
  La3+  La27  1  0.36351706  -0.00014141  0.87275531  1
  La3+  La28  1  0.35974023  0.33256489  0.12712430  1
  La3+  La29  1  0.35944151  0.33533587  0.37476701  1
  La3+  La30  1  0.36175781  0.33478589  0.62164172  1
  La3+  La31  1  0.36173182  0.33207127  0.87705276  1
  La3+  La32  1  0.36321041  0.66528264  0.12307819  1
  La3+  La33  1  0.36318080  0.66517538  0.37741459  1
  La3+  La34  1  0.36466570  0.66555332  0.62409083  1
  La3+  La35  1  0.35921439  0.66795902  0.87586698  1
  La3+  La36  1  0.86099171  0.00175764  0.12403526  1
  La3+  La37  1  0.86033453  0.00253368  0.37607633  1
  La3+  La38  1  0.85953771  0.00103521  0.62505429  1
  La3+  La39  1  0.85935028  0.00187820  0.87666219  1
  La3+  La40  1  0.86440081  0.33394854  0.12748972  1
  La3+  La41  1  0.86186830  0.33418867  0.37343876  1
  La3+  La42  1  0.86056015  0.33441277  0.62795514  1
  La3+  La43  1  0.86085837  0.33378706  0.87100353  1
  La3+  La44  1  0.86098535  0.66548262  0.12828296  1
  La3+  La45  1  0.85834247  0.66667122  0.37507994  1
  La3+  La46  1  0.85894136  0.66561279  0.62627310  1
  La3+  La47  1  0.86245006  0.66656358  0.87294300  1
  La3+  La48  1  -0.00245032  0.83003299  0.13677363  1
  La3+  La49  1  0.00096650  0.50253877  0.86930100  1
  La3+  La50  1  -0.00050655  0.49181569  0.62521085  1
  La3+  La51  1  -0.00090138  0.16468782  0.86349602  1
  La3+  La52  1  0.50047962  0.16733315  0.61715844  1
  La3+  La53  1  -0.00021573  0.82969500  0.38345719  1
  La3+  La54  1  0.50007537  0.83308424  0.13584638  1
  La3+  La55  1  0.00092459  0.49645115  0.13055577  1
  La3+  La56  1  -0.00235809  0.16355147  0.63304173  1
  La3+  La57  1  -0.00023983  0.50109237  0.60551707  1
  La3+  La58  1  0.00165645  0.83473064  0.86342048  1
  La3+  La59  1  -0.00332718  0.83758502  0.63756258  1
  La3+  La60  1  0.49979080  0.17050270  0.86062387  1
  La3+  La61  1  0.50020544  0.16439921  0.36659130  1
  La3+  La62  1  -0.00036031  0.16654728  0.61092752  1
  La3+  La63  1  0.50068817  0.49887191  0.61384758  1
  La3+  La64  1  0.49955122  0.49892035  0.88498393  1
  La3+  La65  1  -0.00084143  0.16669941  0.35747010  1
  La3+  La66  1  -0.00130252  0.83152379  0.11485340  1
  La3+  La67  1  0.00399744  0.16027218  0.88174350  1
  La3+  La68  1  0.49861551  0.49852418  0.36814942  1
  La3+  La69  1  0.50077116  0.16473249  0.38392081  1
  La3+  La70  1  0.00061666  0.83702643  0.61591219  1
  La3+  La71  1  0.49682713  0.82965375  0.63003287  1
  La3+  La72  1  0.74981824  0.83548120  -0.00095976  1
  La3+  La73  1  0.74978269  0.79472041  0.74724023  1
  La3+  La74  1  0.25012977  0.82705529  0.24262290  1
  La3+  La75  1  0.25015035  0.13131009  0.77250992  1
  La3+  La76  1  0.75003064  0.79503717  0.50077174  1
  La3+  La77  1  0.75010049  0.50578240  -0.00076051  1
  La3+  La78  1  0.24999796  0.79315530  0.00423832  1
  La3+  La79  1  0.25035805  0.83342661  0.76770070  1
  La3+  La80  1  0.25004685  0.53371511  -0.03717458  1
  La3+  La81  1  0.25019856  0.87449397  0.47223073  1
  La3+  La82  1  0.25009950  0.16992264  0.26572921  1
  La3+  La83  1  0.75017700  0.79981824  0.25330555  1
  Ru4+  Ru84  1  -0.00075242  0.00095064  0.00047454  1
  Ru4+  Ru85  1  -0.00021232  -0.00094691  0.24941305  1
  Ru4+  Ru86  1  0.00063595  -0.00017951  0.49808861  1
  Ru4+  Ru87  1  0.00045402  0.00054071  0.75140520  1
  Ru4+  Ru88  1  0.00027991  0.33652592  0.00658611  1
  Ru4+  Ru89  1  0.00204384  0.32735671  0.24303642  1
  Ru4+  Ru90  1  0.00030267  0.33281844  0.49987651  1
  Ru4+  Ru91  1  0.00213933  0.32935357  0.75112475  1
  Ru4+  Ru92  1  -0.00007399  0.66552794  -0.00016596  1
  Ru4+  Ru93  1  0.00099207  0.66715412  0.24990527  1
  Ru4+  Ru94  1  -0.00363990  0.65965801  0.49920998  1
  Ru4+  Ru95  1  -0.00417353  0.66510108  0.75002950  1
  Ru4+  Ru96  1  0.50097880  -0.00757730  -0.00475503  1
  Ru4+  Ru97  1  0.49979012  -0.01085589  0.25212429  1
  Ru4+  Ru98  1  0.50053417  -0.00404441  0.50108235  1
  Ru4+  Ru99  1  0.49777971  -0.00011765  0.75146338  1
  Ru4+  Ru100  1  0.50015581  0.33475485  0.00095073  1
  Ru4+  Ru101  1  0.49828560  0.33726904  0.24474719  1
  Ru4+  Ru102  1  0.49887211  0.33402758  0.50279984  1
  Ru4+  Ru103  1  0.50125858  0.33553690  0.74890208  1
  Ru4+  Ru104  1  0.49952724  0.66600259  0.00285665  1
  Ru4+  Ru105  1  0.49874334  0.67269784  0.25152330  1
  Ru4+  Ru106  1  0.50297673  0.67293722  0.49883121  1
  Ru4+  Ru107  1  0.49811995  0.67509828  0.74874344  1
  Ru4+  Ru108  1  0.11348527  0.16897754  0.00078162  1
  Ru4+  Ru109  1  0.11147822  0.16748117  0.24970071  1
  Ru4+  Ru110  1  0.11266786  0.16580187  0.49999150  1
  Ru4+  Ru111  1  0.11179394  0.16358723  0.74980619  1
  Ru4+  Ru112  1  0.11144050  0.49910912  -0.00006111  1
  Ru4+  Ru113  1  0.11306610  0.49461553  0.25084307  1
  Ru4+  Ru114  1  0.11402672  0.49767439  0.49996845  1
  Ru4+  Ru115  1  0.11433293  0.49809132  0.75158960  1
  Ru4+  Ru116  1  0.11137873  0.83061648  -0.00014089  1
  Ru4+  Ru117  1  0.11044847  0.83113937  0.25032701  1
  Ru4+  Ru118  1  0.11514553  0.83682196  0.49815518  1
  Ru4+  Ru119  1  0.11459361  0.83692446  0.75255216  1
  Ru4+  Ru120  1  0.61510003  0.16711881  0.00067095  1
  Ru4+  Ru121  1  0.61661910  0.16715829  0.24805097  1
  Ru4+  Ru122  1  0.61277909  0.16501803  0.49999098  1
  Ru4+  Ru123  1  0.61435754  0.16817414  0.74902691  1
  Ru4+  Ru124  1  0.60911748  0.49976223  0.00019607  1
  Ru4+  Ru125  1  0.61594734  0.49611156  0.24955409  1
  Ru4+  Ru126  1  0.61316600  0.49970834  0.49985666  1
  Ru4+  Ru127  1  0.61680720  0.49534104  0.75069573  1
  Ru4+  Ru128  1  0.61180391  0.83419205  0.00137545  1
  Ru4+  Ru129  1  0.61034046  0.83293090  0.25031203  1
  Ru4+  Ru130  1  0.60951523  0.83060511  0.49943416  1
  Ru4+  Ru131  1  0.61135707  0.83156919  0.75133840  1
  Ru4+  Ru132  1  0.38513648  0.17083815  -0.00019420  1
  Ru4+  Ru133  1  0.38558977  0.17046448  0.24958943  1
  Ru4+  Ru134  1  0.38678356  0.16861829  0.50069679  1
  Ru4+  Ru135  1  0.38841518  0.16553280  0.75014252  1
  Ru4+  Ru136  1  0.38952089  0.50134893  0.00041725  1
  Ru4+  Ru137  1  0.38585636  0.49614475  0.25040375  1
  Ru4+  Ru138  1  0.38481716  0.49397275  0.49982445  1
  Ru4+  Ru139  1  0.38627628  0.49824069  0.75080000  1
  Ru4+  Ru140  1  0.39016341  0.83371036  -0.00031742  1
  Ru4+  Ru141  1  0.38968732  0.83314241  0.24953485  1
  Ru4+  Ru142  1  0.38943897  0.83499300  0.49905999  1
  Ru4+  Ru143  1  0.38836427  0.83468341  0.75076383  1
  Ru4+  Ru144  1  0.88523823  0.16429508  0.00024477  1
  Ru4+  Ru145  1  0.88587211  0.16715435  0.24943082  1
  Ru4+  Ru146  1  0.88531988  0.16664197  0.49899797  1
  Ru4+  Ru147  1  0.88523280  0.16674940  0.75029367  1
  Ru4+  Ru148  1  0.88962156  0.49931133  0.00018595  1
  Ru4+  Ru149  1  0.88397883  0.50246907  0.25068592  1
  Ru4+  Ru150  1  0.88634019  0.50037894  0.49985760  1
  Ru4+  Ru151  1  0.88203413  0.50278907  0.75079571  1
  Ru4+  Ru152  1  0.88773636  0.83429274  -0.00038815  1
  Ru4+  Ru153  1  0.88952806  0.83284255  0.25028347  1
  Ru4+  Ru154  1  0.88671844  0.83433992  0.49894951  1
  Ru4+  Ru155  1  0.88780234  0.83286463  0.75125310  1
  Ru4+  Ru156  1  0.24999854  0.26766358  0.73273859  1
  Ru4+  Ru157  1  0.75009105  0.23800191  -0.00202682  1
  Ru4+  Ru158  1  0.24996173  0.57809249  0.50372257  1
  Ru4+  Ru159  1  0.75002539  0.63704046  -0.00032472  1
  Ru4+  Ru160  1  0.75000950  0.57692124  0.50734257  1
  Ru4+  Ru161  1  0.75027354  0.94219387  0.24637277  1
  Ru4+  Ru162  1  0.25027576  0.09224054  0.00062641  1
  Ru4+  Ru163  1  0.74994986  0.94053050  0.49989895  1
  Ru4+  Ru164  1  0.25009554  0.72231347  0.50165422  1
  Ru4+  Ru165  1  0.24995728  0.25128031  0.50118468  1
  Ru4+  Ru166  1  0.75018290  0.23839158  0.25134733  1
  Ru4+  Ru167  1  0.74964405  0.42168323  0.24699768  1
  Ru4+  Ru168  1  0.75026213  0.37462758  0.02048537  1
  Ru4+  Ru169  1  0.25014184  0.42605675  0.74684506  1
  Ru4+  Ru170  1  0.25003476  0.94838551  0.25279389  1
  Ru4+  Ru171  1  0.25005629  0.57778815  0.25200199  1
  Ru4+  Ru172  1  0.75006280  0.93522010  0.74537881  1
  Ru4+  Ru173  1  0.25015036  0.70386080  0.25049258  1
  Ru4+  Ru174  1  0.25018322  0.08793407  0.50913721  1
  Ru4+  Ru175  1  0.74977532  0.24748043  0.50078763  1
  Ru4+  Ru176  1  0.25005343  0.93599329  -0.01710279  1
  Ru4+  Ru177  1  0.74983404  0.42386155  0.50527545  1
  Ru4+  Ru178  1  0.25000005  0.39707000  0.01886605  1
  Ru4+  Ru179  1  0.24987941  0.57727856  0.75029821  1
  O2-  O180  1  0.16686812  0.08121338  -0.00028170  1
  O2-  O181  1  0.16601747  0.08010904  0.25066697  1
  O2-  O182  1  0.16676248  0.08093013  0.50015778  1
  O2-  O183  1  0.16496910  0.07909745  0.75135341  1
  O2-  O184  1  0.16657740  0.41407006  -0.00074384  1
  O2-  O185  1  0.16738743  0.41746716  0.25060468  1
  O2-  O186  1  0.16511183  0.41589461  0.50042823  1
  O2-  O187  1  0.16757387  0.41543688  0.74988764  1
  O2-  O188  1  0.16451197  0.74603542  0.00146883  1
  O2-  O189  1  0.16472051  0.74516552  0.25038355  1
  O2-  O190  1  0.16744561  0.74601033  0.50009316  1
  O2-  O191  1  0.16855402  0.74553317  0.74832392  1
  O2-  O192  1  0.66817286  0.08244601  0.00001531  1
  O2-  O193  1  0.66601350  0.08224565  0.25043231  1
  O2-  O194  1  0.66649838  0.08083763  0.49951055  1
  O2-  O195  1  0.66523170  0.08172602  0.75019737  1
  O2-  O196  1  0.66590397  0.41298098  -0.00046704  1
  O2-  O197  1  0.66918100  0.41556388  0.25015327  1
  O2-  O198  1  0.66875442  0.41492341  0.49984753  1
  O2-  O199  1  0.66727545  0.41592351  0.74948435  1
  O2-  O200  1  0.66749161  0.74659598  -0.00045099  1
  O2-  O201  1  0.66472563  0.74558033  0.24858114  1
  O2-  O202  1  0.66510948  0.74595732  0.50049486  1
  O2-  O203  1  0.66402012  0.74633840  0.75157275  1
  O2-  O204  1  0.33282752  0.25101212  -0.00000057  1
  O2-  O205  1  0.33363357  0.25226146  0.25107673  1
  O2-  O206  1  0.33179385  0.25125794  0.50062016  1
  O2-  O207  1  0.33362966  0.25400854  0.74999466  1
  O2-  O208  1  0.33399303  0.58713569  0.00170565  1
  O2-  O209  1  0.33453475  0.58656312  0.25010938  1
  O2-  O210  1  0.33300865  0.58666415  0.49892220  1
  O2-  O211  1  0.33071483  0.58540583  0.74966692  1
  O2-  O212  1  0.33266735  0.92055488  -0.00017126  1
  O2-  O213  1  0.33471326  0.92170753  0.25070084  1
  O2-  O214  1  0.33432982  0.91998803  0.50073436  1
  O2-  O215  1  0.33254707  0.91896399  0.75046220  1
  O2-  O216  1  0.83136050  0.25189699  0.00006735  1
  O2-  O217  1  0.83283869  0.25185953  0.25039103  1
  O2-  O218  1  0.83205496  0.25224175  0.49982460  1
  O2-  O219  1  0.83459918  0.25254581  0.74942789  1
  O2-  O220  1  0.83418835  0.58785051  -0.00079282  1
  O2-  O221  1  0.83235731  0.58336704  0.24840963  1
  O2-  O222  1  0.83093953  0.58502722  0.50021150  1
  O2-  O223  1  0.83382166  0.58542502  0.75271048  1
  O2-  O224  1  0.83430455  0.91921651  0.00072012  1
  O2-  O225  1  0.83282513  0.92079026  0.24923194  1
  O2-  O226  1  0.83113650  0.91978850  0.49932674  1
  O2-  O227  1  0.83384740  0.91995440  0.75105507  1
  O2-  O228  1  0.16775435  0.25121222  -0.00155406  1
  O2-  O229  1  0.16646793  0.25166058  0.25133508  1
  O2-  O230  1  0.16835908  0.25151521  0.50068103  1
  O2-  O231  1  0.16713233  0.25481302  0.75018362  1
  O2-  O232  1  0.16571844  0.58694340  0.00213756  1
  O2-  O233  1  0.16526905  0.58632280  0.25009796  1
  O2-  O234  1  0.16706985  0.58733010  0.50010350  1
  O2-  O235  1  0.17002363  0.58629705  0.74878869  1
  O2-  O236  1  0.16702591  0.92164493  -0.00025036  1
  O2-  O237  1  0.16544954  0.92287641  0.24998474  1
  O2-  O238  1  0.16518828  0.92135476  0.50027658  1
  O2-  O239  1  0.16648779  0.92063187  0.75161682  1
  O2-  O240  1  0.66728607  0.25028786  -0.00049098  1
  O2-  O241  1  0.66786049  0.25218925  0.24969726  1
  O2-  O242  1  0.66771342  0.25294215  0.50021376  1
  O2-  O243  1  0.66727723  0.25161746  0.74958195  1
  O2-  O244  1  0.66635986  0.58779757  -0.00028886  1
  O2-  O245  1  0.66586488  0.58482045  0.24920598  1
  O2-  O246  1  0.66817544  0.58475766  0.50037421  1
  O2-  O247  1  0.66576999  0.58495608  0.75216590  1
  O2-  O248  1  0.66820820  0.91859691  -0.00058018  1
  O2-  O249  1  0.66705573  0.91940461  0.24986854  1
  O2-  O250  1  0.66723578  0.92058325  0.49998606  1
  O2-  O251  1  0.66735985  0.91966180  0.74925582  1
  O2-  O252  1  0.33130061  0.08133579  -0.00031685  1
  O2-  O253  1  0.33291171  0.07986540  0.25052066  1
  O2-  O254  1  0.33305091  0.08052844  0.50000724  1
  O2-  O255  1  0.33381251  0.07979656  0.75045024  1
  O2-  O256  1  0.33354609  0.41343405  -0.00014687  1
  O2-  O257  1  0.33297026  0.41609440  0.24995368  1
  O2-  O258  1  0.33331466  0.41609284  0.49913601  1
  O2-  O259  1  0.33252728  0.41543422  0.74993330  1
  O2-  O260  1  0.33578589  0.74630166  0.00164533  1
  O2-  O261  1  0.33575091  0.74467363  0.25052260  1
  O2-  O262  1  0.33206444  0.74592537  0.49938479  1
  O2-  O263  1  0.33342930  0.74666080  0.74894233  1
  O2-  O264  1  0.83291840  0.08267707  0.00130636  1
  O2-  O265  1  0.83360989  0.08121693  0.24977000  1
  O2-  O266  1  0.83189043  0.08144739  0.49914885  1
  O2-  O267  1  0.83448957  0.08117794  0.75062072  1
  O2-  O268  1  0.83272352  0.41200607  -0.00086487  1
  O2-  O269  1  0.83240867  0.41523958  0.25027219  1
  O2-  O270  1  0.83265452  0.41402862  0.49907619  1
  O2-  O271  1  0.83371528  0.41515321  0.75045754  1
  O2-  O272  1  0.83142799  0.74519076  -0.00097405  1
  O2-  O273  1  0.83486898  0.74557632  0.24838198  1
  O2-  O274  1  0.83587553  0.74556322  0.50041834  1
  O2-  O275  1  0.83452563  0.74572015  0.75251607  1
  O2-  O276  1  0.03767336  0.22026449  0.46407048  1
  O2-  O277  1  0.55029493  0.09763433  0.26655109  1
  O2-  O278  1  0.45566072  0.10169274  0.23167544  1
  O2-  O279  1  0.04653908  0.23713066  0.73654622  1
  O2-  O280  1  0.45476715  0.09802568  0.48618834  1
  O2-  O281  1  0.03612755  0.46886811  0.27163811  1
  O2-  O282  1  0.53362769  0.87571590  0.00089223  1
  O2-  O283  1  0.54535505  0.57041630  0.22930064  1
  O2-  O284  1  0.45549107  0.56123872  0.72212613  1
  O2-  O285  1  0.52163087  0.45210850  0.22973872  1
  O2-  O286  1  0.04510573  0.23529036  0.23534188  1
  O2-  O287  1  0.94867558  0.08497866  0.44545114  1
  O2-  O288  1  0.45389669  0.43067781  0.73824198  1
  O2-  O289  1  0.96344152  0.78067364  0.96517485  1
  O2-  O290  1  0.96550724  0.56119192  0.24843441  1
  O2-  O291  1  0.05418500  0.75119241  0.71568183  1
  O2-  O292  1  0.54465612  0.42836253  0.01508421  1
  O2-  O293  1  0.54841647  0.56789417  0.73033742  1
  O2-  O294  1  0.04432336  0.56830264  0.01089075  1
  O2-  O295  1  0.96211500  0.56383388  0.23255011  1
  O2-  O296  1  0.95935841  0.22575488  0.97253815  1
  O2-  O297  1  0.04629620  0.90464718  0.48399825  1
  O2-  O298  1  0.05103378  0.76254615  0.51349931  1
  O2-  O299  1  0.04620852  0.90491124  0.23902396  1
  O2-  O300  1  0.54608562  0.89988054  0.51458098  1
  O2-  O301  1  0.95011169  0.57045779  0.73978032  1
  O2-  O302  1  0.44956545  0.90224946  0.98451181  1
  O2-  O303  1  0.04394088  0.55888032  0.72101463  1
  O2-  O304  1  0.04639018  0.90355792  0.01171969  1
  O2-  O305  1  0.45249772  0.09577729  0.27000382  1
  O2-  O306  1  0.95115295  0.42634028  0.27016263  1
  O2-  O307  1  0.54844918  0.57388818  0.26783522  1
  O2-  O308  1  0.95430026  0.42907385  0.77157678  1
  O2-  O309  1  0.54770776  0.56709379  0.76955467  1
  O2-  O310  1  0.44536263  0.08545979  0.96486818  1
  O2-  O311  1  0.95138111  0.76486715  0.50977559  1
  O2-  O312  1  0.54908985  0.56941033  0.98588483  1
  O2-  O313  1  0.45230684  0.56703660  0.01322948  1
  O2-  O314  1  0.54061346  0.22918269  0.27369991  1
  O2-  O315  1  0.95253858  0.42842945  0.73245414  1
  O2-  O316  1  0.54484976  0.09686429  0.73581075  1
  O2-  O317  1  0.54326967  0.10744388  0.97309495  1
  O2-  O318  1  0.94776456  0.42382459  0.23177844  1
  O2-  O319  1  0.54468757  0.76768215  0.26122068  1
  O2-  O320  1  0.54462298  0.76243319  0.76244224  1
  O2-  O321  1  0.54112602  0.89648216  0.72400499  1
  O2-  O322  1  0.45154952  0.56840010  0.51238432  1
  O2-  O323  1  0.55800226  0.25374663  0.72374887  1
  O2-  O324  1  0.57653348  0.39021576  0.18312183  1
  O2-  O325  1  0.43517920  0.40820095  0.52851518  1
  O2-  O326  1  0.93390684  0.59424030  0.52706159  1
  O2-  O327  1  0.07134543  0.60486402  0.80372075  1
  O2-  O328  1  0.95023576  0.09469484  0.46189103  1
  O2-  O329  1  0.56351105  0.73501473  0.03430621  1
  O2-  O330  1  0.56939279  0.07029055  0.04135799  1
  O2-  O331  1  0.93445173  0.73885833  0.72188978  1
  O2-  O332  1  0.93588847  0.40836194  0.02617442  1
  O2-  O333  1  0.55975007  0.06995514  0.28635834  1
  O2-  O334  1  0.93644125  0.06998248  0.29992373  1
  O2-  O335  1  0.43506989  0.74043702  0.52644903  1
  O2-  O336  1  0.06338450  0.26323923  0.05939310  1
  O2-  O337  1  0.43705246  0.26466607  0.96656262  1
  O2-  O338  1  0.06755280  0.73667299  0.80741567  1
  O2-  O339  1  0.43702804  0.07121357  0.78202972  1
  O2-  O340  1  0.58113620  0.94510483  0.03962152  1
  O2-  O341  1  0.07262039  0.38039643  0.31603156  1
  O2-  O342  1  0.56558752  0.40601728  0.77947826  1
  O2-  O343  1  0.56878392  0.26698455  0.20253479  1
  O2-  O344  1  0.42812988  0.60242725  0.79077334  1
  O2-  O345  1  0.43491310  0.25905606  0.52805179  1
  O2-  O346  1  0.05416313  0.75136473  0.71656678  1
  O2-  O347  1  0.56927166  0.94075036  0.79820957  1
  O2-  O348  1  0.06290798  0.73632388  0.53303284  1
  O2-  O349  1  0.06436358  0.26666571  0.93857065  1
  O2-  O350  1  0.43532417  0.93074826  0.46695540  1
  O2-  O351  1  0.92598888  0.06802821  0.57354577  1
  O2-  O352  1  0.93625858  0.06840509  0.96718728  1
  O2-  O353  1  0.42868351  0.06996482  0.04907938  1
  O2-  O354  1  0.43678848  0.59364913  0.52851559  1
  O2-  O355  1  0.92554448  0.26914977  0.04573741  1
  O2-  O356  1  0.07204994  0.27942399  0.55532678  1
  O2-  O357  1  0.56431572  0.73986249  0.47328606  1
  O2-  O358  1  0.44551529  0.08576646  0.96421539  1
  O2-  O359  1  0.56468982  0.40733592  0.47374615  1
  O2-  O360  1  0.92861954  0.72020877  0.05521995  1
  O2-  O361  1  0.43620865  0.92814121  0.78238137  1
  O2-  O362  1  0.93489686  0.07338937  0.20522591  1
  O2-  O363  1  0.56382138  0.59536074  0.53309295  1
  O2-  O364  1  0.57434341  0.40202599  0.31264067  1
  O2-  O365  1  0.55035443  0.24423952  0.72780765  1
  O2-  O366  1  0.43475654  0.40573231  0.27897302  1
  O2-  O367  1  0.93427519  0.92689390  0.52736718  1
  O2-  O368  1  0.91672181  0.61896674  0.29621611  1
  O2-  O369  1  0.93518970  0.26440360  0.46643192  1
  O2-  O370  1  0.93472281  0.26125983  0.22422373  1
  O2-  O371  1  0.06921399  0.39326323  0.18048586  1
  O2-  O372  1  0.74975116  0.00227654  0.64963749  1
  O2-  O373  1  0.75016046  0.33433563  0.82307167  1
  O2-  O374  1  0.74988954  0.66772380  0.65145075  1
  O2-  O375  1  0.25017137  0.33551611  0.14928087  1
  O2-  O376  1  0.75013211  0.32249880  0.91129117  1
  O2-  O377  1  0.74988154  0.33357438  0.59178203  1
  O2-  O378  1  0.24976709  0.00213102  0.65118953  1
  O2-  O379  1  0.24994836  0.34142734  0.82926887  1
  O2-  O380  1  0.25010952  0.32864877  0.40910489  1
  O2-  O381  1  0.25010558  0.66454329  0.90371629  1
  O2-  O382  1  0.75019717  0.33462290  0.34248700  1
  O2-  O383  1  0.25011544  0.66103223  0.35919733  1
  O2-  O384  1  0.25004911  0.01988346  0.16697866  1
  O2-  O385  1  0.24987835  -0.00045589  0.42741297  1
  O2-  O386  1  0.24989679  0.00505205  0.07745793  1
  O2-  O387  1  0.24993503  0.66056913  0.14152995  1
  O2-  O388  1  0.74985278  -0.00187884  0.92325385  1
  O2-  O389  1  0.74996559  0.00027088  0.34750108  1
  O2-  O390  1  0.24993314  0.32475179  0.92424500  1
  O2-  O391  1  0.24988286  0.02021818  0.34045388  1
  O2-  O392  1  0.74985876  0.00851974  0.83459313  1
  O2-  O393  1  0.24981313  0.33053354  0.59428836  1
  O2-  O394  1  0.75024531  0.66631261  0.33070406  1
  O2-  O395  1  0.75011912  0.66646368  0.42180030  1
  O2-  O396  1  0.24998863  0.49375608  0.18119979  1
  O2-  O397  1  0.74999126  0.84353720  0.37940662  1
  O2-  O398  1  0.24989956  0.84048779  0.88629214  1
  O2-  O399  1  0.24987015  0.82779884  0.36476374  1
  O2-  O400  1  0.24992752  0.49910188  0.41915180  1
  O2-  O401  1  0.25000283  0.49620945  0.09373721  1
  O2-  O402  1  0.75004530  0.50003238  0.64852156  1
  O2-  O403  1  0.25006041  0.82038148  0.57714774  1
  O2-  O404  1  0.75001857  0.83673692  0.12565671  1
  O2-  O405  1  0.24985850  0.50527649  0.59197003  1
  O2-  O406  1  0.24988261  0.83760695  0.12232763  1
  O2-  O407  1  0.75012804  0.16446507  0.58197504  1
  O2-  O408  1  0.24986959  0.16311264  0.13256150  1
  O2-  O409  1  0.24991712  0.16543788  0.41263452  1
  O2-  O410  1  0.74995281  0.17235095  0.15933214  1
  O2-  O411  1  0.75000876  0.49650563  0.16025045  1
  O2-  O412  1  0.75003160  0.16890310  0.66579455  1
  O2-  O413  1  0.74994682  0.17206907  0.33918124  1
  O2-  O414  1  0.25004031  0.83631202  0.65223728  1
  O2-  O415  1  0.75006550  0.83539666  0.87385868  1
  O2-  O416  1  0.75007491  0.84455683  0.62246706  1
  O2-  O417  1  0.24991139  0.49758089  0.33268589  1
  O2-  O418  1  0.24990846  0.17230845  0.63625438  1
  O2-  O419  1  0.75016420  0.16925886  0.84646107  1
  O2-  O420  1  0.47651817  0.33154810  0.63057183  1
  O2-  O421  1  0.97790889  0.33708716  0.12807041  1
  O2-  O422  1  0.02820392  0.66831547  0.12761684  1
  O2-  O423  1  0.96594279  0.67274148  0.38135693  1
  O2-  O424  1  0.02855766  0.00003506  0.87500892  1
  O2-  O425  1  0.47217447  0.33316030  0.12504144  1
  O2-  O426  1  0.97816680  -0.00258958  0.63549199  1
  O2-  O427  1  0.46922755  -0.00777523  0.13134212  1
  O2-  O428  1  0.52424193  0.66146596  0.37520844  1
  O2-  O429  1  0.47203600  0.66974279  0.12729921  1
  O2-  O430  1  0.97649212  0.66562872  0.62341698  1
  O2-  O431  1  0.97175643  0.66440237  0.87633019  1
  O2-  O432  1  0.47145872  0.67073087  0.88068734  1
  O2-  O433  1  0.52978939  0.32176048  0.37982975  1
  O2-  O434  1  0.53818018  0.00281216  0.62195283  1
  O2-  O435  1  0.53074565  0.66689329  0.87657640  1
  O2-  O436  1  0.47620960  0.67008991  0.63219665  1
  O2-  O437  1  0.97451652  -0.00580993  0.11813007  1
  O2-  O438  1  0.03863399  0.66645859  0.37380596  1
  O2-  O439  1  0.46147226  0.00003799  0.62588588  1
  O2-  O440  1  0.52554346  0.32968987  0.87936431  1
  O2-  O441  1  0.52848756  -0.00025946  0.13629979  1
  O2-  O442  1  0.97118843  0.33146157  0.62360708  1
  O2-  O443  1  0.46574419  0.32956950  0.38007106  1
