# generated using pymatgen
data_La7(Ru4O11)2
_symmetry_space_group_name_H-M   'P 1'
_cell_length_a   23.99050622
_cell_length_b   16.83030533
_cell_length_c   15.42707076
_cell_angle_alpha   90.00182966
_cell_angle_beta   89.99923696
_cell_angle_gamma   89.99913517
_symmetry_Int_Tables_number   1
_chemical_formula_structural   La7(Ru4O11)2
_chemical_formula_sum   'La84 Ru96 O264'
_cell_volume   6228.95047771
_cell_formula_units_Z   12
loop_
 _symmetry_equiv_pos_site_id
 _symmetry_equiv_pos_as_xyz
  1  'x, y, z'
loop_
 _atom_type_symbol
 _atom_type_oxidation_number
  La3+  3.0
  Ru4+  4.0
  O2-  -2.0
loop_
 _atom_site_type_symbol
 _atom_site_label
 _atom_site_symmetry_multiplicity
 _atom_site_fract_x
 _atom_site_fract_y
 _atom_site_fract_z
 _atom_site_occupancy
  La3+  La0  1  0.13678889  0.00094942  0.12187789  1
  La3+  La1  1  0.13783477  -0.00276932  0.37660322  1
  La3+  La2  1  0.13964001  0.00100170  0.62760557  1
  La3+  La3  1  0.14391884  0.00267802  0.87293738  1
  La3+  La4  1  0.13791753  0.33460519  0.12420186  1
  La3+  La5  1  0.13703160  0.33478924  0.37682675  1
  La3+  La6  1  0.14352240  0.33280569  0.62659237  1
  La3+  La7  1  0.13937499  0.33310345  0.87247165  1
  La3+  La8  1  0.14172358  0.66466769  0.12569828  1
  La3+  La9  1  0.14024619  0.66845124  0.37712353  1
  La3+  La10  1  0.14260469  0.66609489  0.62209680  1
  La3+  La11  1  0.13921747  0.66529801  0.87585395  1
  La3+  La12  1  0.63903970  -0.00103767  0.12470444  1
  La3+  La13  1  0.64174526  -0.00008000  0.37786941  1
  La3+  La14  1  0.64370942  0.00034978  0.62613179  1
  La3+  La15  1  0.64347634  -0.00090699  0.87004644  1
  La3+  La16  1  0.63766375  0.33501527  0.12674630  1
  La3+  La17  1  0.63732044  0.33321201  0.37576284  1
  La3+  La18  1  0.63792156  0.32925332  0.62653295  1
  La3+  La19  1  0.63718854  0.33189721  0.87243146  1
  La3+  La20  1  0.64027690  0.66946951  0.12693394  1
  La3+  La21  1  0.63822660  0.66706274  0.37144973  1
  La3+  La22  1  0.63770981  0.66850089  0.62592663  1
  La3+  La23  1  0.63897105  0.67022340  0.87342212  1
  La3+  La24  1  0.36247198  -0.00032487  0.12086896  1
  La3+  La25  1  0.36215048  -0.00147217  0.37656520  1
  La3+  La26  1  0.35947268  0.00154083  0.62754541  1
  La3+  La27  1  0.35652187  0.00133139  0.87197187  1
  La3+  La28  1  0.36270618  0.33413827  0.12454536  1
  La3+  La29  1  0.36257490  0.33583728  0.37428115  1
  La3+  La30  1  0.35523907  0.33386809  0.62798624  1
  La3+  La31  1  0.35759728  0.33110523  0.87446374  1
  La3+  La32  1  0.36032227  0.66614158  0.12537161  1
  La3+  La33  1  0.35649612  0.66316821  0.37174606  1
  La3+  La34  1  0.35928803  0.66561775  0.62167878  1
  La3+  La35  1  0.36170123  0.66430123  0.87541833  1
  La3+  La36  1  0.86146289  -0.00067120  0.12615196  1
  La3+  La37  1  0.85539377  -0.00275416  0.38057221  1
  La3+  La38  1  0.85365000  -0.00005109  0.62434262  1
  La3+  La39  1  0.85776641  0.00071980  0.87088861  1
  La3+  La40  1  0.86217988  0.33464840  0.12514262  1
  La3+  La41  1  0.86132542  0.33195516  0.37667468  1
  La3+  La42  1  0.86302731  0.33034480  0.62618513  1
  La3+  La43  1  0.86188790  0.33041890  0.87187488  1
  La3+  La44  1  0.86093736  0.66774223  0.12684134  1
  La3+  La45  1  0.86148493  0.67036499  0.37253049  1
  La3+  La46  1  0.86154972  0.67054320  0.62603653  1
  La3+  La47  1  0.86229243  0.66992675  0.87471508  1
  La3+  La48  1  0.00133366  0.16772620  0.38390958  1
  La3+  La49  1  0.50250529  0.50270397  0.63213147  1
  La3+  La50  1  0.00078476  0.49614035  0.38117791  1
  La3+  La51  1  0.49851881  0.49737444  0.12869378  1
  La3+  La52  1  0.00047668  0.50258252  0.63575364  1
  La3+  La53  1  0.00053952  0.83435906  0.12021713  1
  La3+  La54  1  0.00443096  0.16732476  0.86661434  1
  La3+  La55  1  -0.00034721  0.50068239  0.35960860  1
  La3+  La56  1  0.50048325  0.17007779  0.13681804  1
  La3+  La57  1  0.49894446  0.16829919  0.36708087  1
  La3+  La58  1  0.50234239  0.83711221  0.62606844  1
  La3+  La59  1  0.00292118  0.49185468  0.61703097  1
  La3+  La60  1  -0.00198780  0.49800590  0.87075406  1
  La3+  La61  1  0.50115725  0.49998644  0.88203114  1
  La3+  La62  1  -0.00360982  0.16632118  0.36873552  1
  La3+  La63  1  -0.00010587  0.83310905  0.61290556  1
  La3+  La64  1  0.49907148  0.16482922  0.88491188  1
  La3+  La65  1  0.50040023  0.83153369  0.35941243  1
  La3+  La66  1  0.50396383  0.82831189  0.87524498  1
  La3+  La67  1  0.50426503  0.16835571  0.63760420  1
  La3+  La68  1  0.50237975  0.83791160  0.38080236  1
  La3+  La69  1  -0.00355151  0.83611099  0.87879233  1
  La3+  La70  1  0.50431380  0.15969186  0.62354745  1
  La3+  La71  1  0.50280485  0.17121214  0.12038619  1
  La3+  La72  1  0.75002869  0.13432804  0.28213486  1
  La3+  La73  1  0.24970874  0.83040458  0.52404348  1
  La3+  La74  1  0.24991613  0.86830186  0.73196652  1
  La3+  La75  1  0.24973104  0.20865440  0.47384562  1
  La3+  La76  1  0.75000326  0.49719934  0.52454027  1
  La3+  La77  1  0.24993317  0.50229632  0.47108573  1
  La3+  La78  1  0.25015832  0.49640511  0.72628336  1
  La3+  La79  1  0.75078583  0.55433851  0.02046780  1
  La3+  La80  1  0.25062077  0.17003629  0.30197867  1
  La3+  La81  1  0.74981987  0.49204965  0.69047645  1
  La3+  La82  1  0.24977941  0.78609460  0.26849577  1
  La3+  La83  1  0.75017644  0.12120861  0.02467907  1
  Ru4+  Ru84  1  -0.00004969  0.00222180  0.00153858  1
  Ru4+  Ru85  1  -0.00015387  0.00021839  0.24918209  1
  Ru4+  Ru86  1  0.00052038  -0.00353272  0.50031757  1
  Ru4+  Ru87  1  0.00150533  -0.00272690  0.74870706  1
  Ru4+  Ru88  1  -0.00287588  0.34012291  -0.00532979  1
  Ru4+  Ru89  1  -0.00105083  0.33672710  0.25050398  1
  Ru4+  Ru90  1  -0.00075981  0.33330632  0.50237855  1
  Ru4+  Ru91  1  -0.00148735  0.33170166  0.74775487  1
  Ru4+  Ru92  1  -0.00092215  0.66634630  0.00188998  1
  Ru4+  Ru93  1  -0.00104103  0.66715643  0.24554021  1
  Ru4+  Ru94  1  0.00274542  0.66871020  0.49778993  1
  Ru4+  Ru95  1  -0.00072716  0.66991435  0.75373558  1
  Ru4+  Ru96  1  0.50095067  -0.00682609  0.00018550  1
  Ru4+  Ru97  1  0.49934896  -0.00260351  0.24918808  1
  Ru4+  Ru98  1  0.50022341  -0.00162844  0.49908613  1
  Ru4+  Ru99  1  0.50350951  -0.00292477  0.75054326  1
  Ru4+  Ru100  1  0.50192278  0.33503743  -0.00260938  1
  Ru4+  Ru101  1  0.50244486  0.33743052  0.25031422  1
  Ru4+  Ru102  1  0.50107021  0.33609878  0.49836766  1
  Ru4+  Ru103  1  0.50102410  0.33469175  0.75026113  1
  Ru4+  Ru104  1  0.49705067  0.67057082  0.00609311  1
  Ru4+  Ru105  1  0.49822918  0.66448942  0.24818276  1
  Ru4+  Ru106  1  0.49966077  0.66228212  0.49838805  1
  Ru4+  Ru107  1  0.49943625  0.66628287  0.75196726  1
  Ru4+  Ru108  1  0.11391357  0.16328873  0.00152319  1
  Ru4+  Ru109  1  0.11249299  0.16489317  0.24797011  1
  Ru4+  Ru110  1  0.11120495  0.16732776  0.50007152  1
  Ru4+  Ru111  1  0.11538000  0.16556961  0.75005747  1
  Ru4+  Ru112  1  0.11258549  0.50136778  -0.00030564  1
  Ru4+  Ru113  1  0.11066655  0.50127452  0.24980387  1
  Ru4+  Ru114  1  0.10932700  0.50045916  0.49829063  1
  Ru4+  Ru115  1  0.11407324  0.49976767  0.75102771  1
  Ru4+  Ru116  1  0.11282065  0.83369533  0.00061306  1
  Ru4+  Ru117  1  0.10928767  0.83272754  0.24939185  1
  Ru4+  Ru118  1  0.11110306  0.83175304  0.49781655  1
  Ru4+  Ru119  1  0.11096766  0.83260116  0.74859883  1
  Ru4+  Ru120  1  0.61221033  0.16453862  -0.00054840  1
  Ru4+  Ru121  1  0.61271365  0.16584605  0.25023701  1
  Ru4+  Ru122  1  0.61430277  0.16609551  0.49935360  1
  Ru4+  Ru123  1  0.61615342  0.16631275  0.75156292  1
  Ru4+  Ru124  1  0.61248435  0.49894279  -0.00053584  1
  Ru4+  Ru125  1  0.61287057  0.49732860  0.24924290  1
  Ru4+  Ru126  1  0.60976940  0.50158355  0.50094329  1
  Ru4+  Ru127  1  0.61095907  0.49984725  0.75068158  1
  Ru4+  Ru128  1  0.61323510  0.83342249  -0.00047267  1
  Ru4+  Ru129  1  0.61392507  0.82961878  0.24852760  1
  Ru4+  Ru130  1  0.61390335  0.83605444  0.50101994  1
  Ru4+  Ru131  1  0.61565342  0.83354523  0.75003359  1
  Ru4+  Ru132  1  0.38433007  0.16661071  -0.00114846  1
  Ru4+  Ru133  1  0.39023076  0.16634539  0.25061166  1
  Ru4+  Ru134  1  0.38795298  0.16859026  0.49754836  1
  Ru4+  Ru135  1  0.38276734  0.16523740  0.75130473  1
  Ru4+  Ru136  1  0.38571588  0.50268279  -0.00048711  1
  Ru4+  Ru137  1  0.38933250  0.50296854  0.25278461  1
  Ru4+  Ru138  1  0.38900825  0.50004443  0.50056695  1
  Ru4+  Ru139  1  0.38962679  0.49963722  0.75139779  1
  Ru4+  Ru140  1  0.38977852  0.83330354  0.00094831  1
  Ru4+  Ru141  1  0.38898506  0.83167074  0.24964797  1
  Ru4+  Ru142  1  0.38644112  0.83444621  0.49976922  1
  Ru4+  Ru143  1  0.38812166  0.83299549  0.74890032  1
  Ru4+  Ru144  1  0.88906331  0.16178936  -0.00048478  1
  Ru4+  Ru145  1  0.88855248  0.16675756  0.24938944  1
  Ru4+  Ru146  1  0.88358077  0.16770452  0.50230082  1
  Ru4+  Ru147  1  0.88398275  0.16457676  0.74774979  1
  Ru4+  Ru148  1  0.89056312  0.49681146  -0.00085752  1
  Ru4+  Ru149  1  0.88864509  0.50179999  0.24858041  1
  Ru4+  Ru150  1  0.88966498  0.49643831  0.49925383  1
  Ru4+  Ru151  1  0.88725138  0.49958353  0.75096976  1
  Ru4+  Ru152  1  0.88636377  0.83477624  0.00119605  1
  Ru4+  Ru153  1  0.88620302  0.83282777  0.24867738  1
  Ru4+  Ru154  1  0.88761655  0.83490445  0.49815297  1
  Ru4+  Ru155  1  0.88460633  0.83312491  0.74890392  1
  Ru4+  Ru156  1  0.75006384  0.35993210  0.50841109  1
  Ru4+  Ru157  1  0.25014986  0.29784474  0.23778999  1
  Ru4+  Ru158  1  0.25022078  0.90735038  -0.00554356  1
  Ru4+  Ru159  1  0.25020481  0.72264705  0.74671808  1
  Ru4+  Ru160  1  0.75009812  0.27834827  0.24917138  1
  Ru4+  Ru161  1  0.74960670  0.76174189  0.49809113  1
  Ru4+  Ru162  1  0.75004932  0.61057055  0.76867687  1
  Ru4+  Ru163  1  0.75007029  0.57818996  0.25270502  1
  Ru4+  Ru164  1  0.25004881  0.05801567  0.21523569  1
  Ru4+  Ru165  1  0.25005841  0.92122016  0.23403278  1
  Ru4+  Ru166  1  0.24985460  0.42715489  0.25158811  1
  Ru4+  Ru167  1  0.25007599  0.07016068  0.51252913  1
  Ru4+  Ru168  1  0.74983020  0.26070682  -0.00298688  1
  Ru4+  Ru169  1  0.74971676  0.76266504  -0.00470432  1
  Ru4+  Ru170  1  0.75000905  0.90781773  -0.01123252  1
  Ru4+  Ru171  1  0.75004473  0.40609050  0.00104336  1
  Ru4+  Ru172  1  0.25003875  0.25468257  -0.00440361  1
  Ru4+  Ru173  1  0.75005745  0.90674774  0.24463441  1
  Ru4+  Ru174  1  0.24996956  0.58422176  0.24824640  1
  Ru4+  Ru175  1  0.74978411  0.36926824  0.76757386  1
  Ru4+  Ru176  1  0.24988805  0.41359148  0.00159409  1
  Ru4+  Ru177  1  0.25016047  0.76208947  -0.00257738  1
  Ru4+  Ru178  1  0.74996690  0.42361733  0.25067939  1
  Ru4+  Ru179  1  0.75002189  0.62295583  0.46412882  1
  O2-  O180  1  0.16714832  0.08176004  0.00001587  1
  O2-  O181  1  0.16511526  0.07981505  0.25047409  1
  O2-  O182  1  0.16597695  0.07997052  0.49999125  1
  O2-  O183  1  0.16606821  0.08212444  0.74754317  1
  O2-  O184  1  0.16778318  0.41289283  -0.00032867  1
  O2-  O185  1  0.16789068  0.41327050  0.25151658  1
  O2-  O186  1  0.16793968  0.41143938  0.49796372  1
  O2-  O187  1  0.16606571  0.41389012  0.75177273  1
  O2-  O188  1  0.17025633  0.74772640  -0.00172696  1
  O2-  O189  1  0.16082372  0.74610264  0.25004356  1
  O2-  O190  1  0.16741598  0.74883980  0.50011076  1
  O2-  O191  1  0.16854959  0.74706425  0.75091732  1
  O2-  O192  1  0.66433452  0.07824308  -0.00134877  1
  O2-  O193  1  0.66472013  0.07933022  0.24952726  1
  O2-  O194  1  0.66448369  0.08263159  0.49927634  1
  O2-  O195  1  0.66648737  0.08273285  0.75019803  1
  O2-  O196  1  0.66555949  0.41405654  -0.00025077  1
  O2-  O197  1  0.66821403  0.41675498  0.25129311  1
  O2-  O198  1  0.66542782  0.41236444  0.49987652  1
  O2-  O199  1  0.66734272  0.41219124  0.74964759  1
  O2-  O200  1  0.66813076  0.74800376  -0.00068497  1
  O2-  O201  1  0.66710378  0.74924201  0.25110224  1
  O2-  O202  1  0.66899538  0.74807329  0.49883430  1
  O2-  O203  1  0.66633033  0.75007276  0.74821303  1
  O2-  O204  1  0.33257096  0.25257254  0.00096707  1
  O2-  O205  1  0.33173303  0.25504797  0.24960686  1
  O2-  O206  1  0.33243177  0.25399082  0.50155314  1
  O2-  O207  1  0.33646488  0.25102756  0.75079546  1
  O2-  O208  1  0.33336967  0.58572828  -0.00104633  1
  O2-  O209  1  0.33176181  0.58264639  0.24864436  1
  O2-  O210  1  0.33361336  0.58414513  0.49968832  1
  O2-  O211  1  0.33283155  0.58648621  0.74994945  1
  O2-  O212  1  0.33186584  0.91735960  0.00136331  1
  O2-  O213  1  0.33500773  0.92020772  0.24912698  1
  O2-  O214  1  0.33499725  0.91731149  0.49966559  1
  O2-  O215  1  0.33389753  0.91918261  0.74930980  1
  O2-  O216  1  0.83294884  0.25325350  0.00036927  1
  O2-  O217  1  0.83372477  0.25296897  0.25034003  1
  O2-  O218  1  0.83240669  0.25114902  0.50050623  1
  O2-  O219  1  0.83506498  0.25155885  0.74876676  1
  O2-  O220  1  0.83895830  0.58832801  -0.00139648  1
  O2-  O221  1  0.83166724  0.58462819  0.25088210  1
  O2-  O222  1  0.83371000  0.58995025  0.50008566  1
  O2-  O223  1  0.83350079  0.58864976  0.74994215  1
  O2-  O224  1  0.83144727  0.91775798  -0.00080056  1
  O2-  O225  1  0.83207545  0.91832915  0.25037334  1
  O2-  O226  1  0.83560999  0.91426884  0.50065177  1
  O2-  O227  1  0.83359817  0.91600572  0.75014276  1
  O2-  O228  1  0.16568332  0.25348484  -0.00119421  1
  O2-  O229  1  0.16910529  0.25492258  0.25133232  1
  O2-  O230  1  0.16581878  0.25459447  0.49994093  1
  O2-  O231  1  0.16394638  0.25169249  0.75192088  1
  O2-  O232  1  0.16550904  0.58522937  -0.00091263  1
  O2-  O233  1  0.16652240  0.58424072  0.25155208  1
  O2-  O234  1  0.16656141  0.58713500  0.49799821  1
  O2-  O235  1  0.16716544  0.58740329  0.75068195  1
  O2-  O236  1  0.16745564  0.91744031  0.00046422  1
  O2-  O237  1  0.16662506  0.91957966  0.25029860  1
  O2-  O238  1  0.16486452  0.91915057  0.50098263  1
  O2-  O239  1  0.16344335  0.92038225  0.74877812  1
  O2-  O240  1  0.66643928  0.25394956  -0.00074596  1
  O2-  O241  1  0.66705641  0.25426139  0.25138409  1
  O2-  O242  1  0.66574800  0.25346587  0.49971198  1
  O2-  O243  1  0.66715025  0.25243054  0.75131070  1
  O2-  O244  1  0.66454705  0.58884593  -0.00064030  1
  O2-  O245  1  0.66776735  0.58457162  0.25068123  1
  O2-  O246  1  0.66801950  0.58833046  0.49938934  1
  O2-  O247  1  0.66691064  0.58747132  0.74980766  1
  O2-  O248  1  0.66748131  0.91864933  -0.00046090  1
  O2-  O249  1  0.66585280  0.91881992  0.25107928  1
  O2-  O250  1  0.66489727  0.91700858  0.49971314  1
  O2-  O251  1  0.66611884  0.91658085  0.74790573  1
  O2-  O252  1  0.33210394  0.08143367  0.00262259  1
  O2-  O253  1  0.33464881  0.07854740  0.24889589  1
  O2-  O254  1  0.33450485  0.08102802  0.49908885  1
  O2-  O255  1  0.33102772  0.08358849  0.74854604  1
  O2-  O256  1  0.33265706  0.41358511  0.00127161  1
  O2-  O257  1  0.33308398  0.41437271  0.24998377  1
  O2-  O258  1  0.33256849  0.41347881  0.49903099  1
  O2-  O259  1  0.33159994  0.41621886  0.74961669  1
  O2-  O260  1  0.33193634  0.74873952  -0.00084005  1
  O2-  O261  1  0.33632014  0.74579595  0.24825809  1
  O2-  O262  1  0.33112383  0.74946099  0.50222753  1
  O2-  O263  1  0.33290829  0.74741740  0.74993774  1
  O2-  O264  1  0.83620854  0.07975936  -0.00061287  1
  O2-  O265  1  0.83262005  0.08040143  0.24764060  1
  O2-  O266  1  0.83307201  0.08500848  0.49806912  1
  O2-  O267  1  0.83248129  0.08354186  0.75068449  1
  O2-  O268  1  0.83102381  0.41437726  0.00142948  1
  O2-  O269  1  0.83236643  0.41430066  0.25066659  1
  O2-  O270  1  0.83309190  0.41204901  0.50051690  1
  O2-  O271  1  0.83153488  0.41230368  0.74973084  1
  O2-  O272  1  0.83253343  0.74756329  -0.00134000  1
  O2-  O273  1  0.83621769  0.74910315  0.25074254  1
  O2-  O274  1  0.83101223  0.74796637  0.49992984  1
  O2-  O275  1  0.83421100  0.74956860  0.74818133  1
  O2-  O276  1  0.46643567  0.44455970  0.74621460  1
  O2-  O277  1  0.46025726  0.10828149  0.02839092  1
  O2-  O278  1  0.96079135  0.22570195  0.97587915  1
  O2-  O279  1  0.54667794  0.23643774  0.23923488  1
  O2-  O280  1  0.46209641  0.22713498  0.53227445  1
  O2-  O281  1  0.46745314  0.11654820  0.76908321  1
  O2-  O282  1  0.04872488  0.43604658  0.23744606  1
  O2-  O283  1  0.45373608  0.42686503  0.01310139  1
  O2-  O284  1  0.94168533  0.41462592  0.72606808  1
  O2-  O285  1  0.95480551  0.10327350  0.47444226  1
  O2-  O286  1  0.45393007  0.43266879  0.51400707  1
  O2-  O287  1  0.96603408  0.46418764  1.00803064  1
  O2-  O288  1  0.46712982  0.78920882  0.51151565  1
  O2-  O289  1  0.94714422  0.08649017  0.79132528  1
  O2-  O290  1  0.54555444  0.09789730  0.23887208  1
  O2-  O291  1  0.55221141  0.56938708  0.76488226  1
  O2-  O292  1  0.94993626  0.76688694  0.01329958  1
  O2-  O293  1  0.95343328  0.57210027  0.51117814  1
  O2-  O294  1  0.46178093  0.77517206  0.51361631  1
  O2-  O295  1  0.04436669  0.90379778  0.48717341  1
  O2-  O296  1  0.45102892  0.43230011  0.24030231  1
  O2-  O297  1  0.05303299  0.42869004  0.98409044  1
  O2-  O298  1  0.54111791  0.55860964  0.27442074  1
  O2-  O299  1  0.96701025  0.11655827  0.23489781  1
  O2-  O300  1  0.45554745  0.43141955  0.25947511  1
  O2-  O301  1  0.45114228  0.57520342  0.75527872  1
  O2-  O302  1  0.96388174  0.11039002  0.22558777  1
  O2-  O303  1  0.04908914  0.42798856  0.76543516  1
  O2-  O304  1  0.95791875  0.89212712  0.78370233  1
  O2-  O305  1  0.44989730  0.57394885  0.74579569  1
  O2-  O306  1  0.04937474  0.57444729  0.76378019  1
  O2-  O307  1  0.46124617  0.88528808  0.77941746  1
  O2-  O308  1  0.03976596  0.22575986  0.27400968  1
  O2-  O309  1  0.04282741  0.77838708  0.96414218  1
  O2-  O310  1  0.93888539  0.74652205  0.47478979  1
  O2-  O311  1  0.45461205  0.76437052  0.01066131  1
  O2-  O312  1  0.95251619  0.43317932  0.23848526  1
  O2-  O313  1  0.46235323  0.11882395  0.73086228  1
  O2-  O314  1  0.05032941  0.09224779  0.48761066  1
  O2-  O315  1  0.45453201  0.90507222  0.01507028  1
  O2-  O316  1  0.54203004  0.55892829  0.03024795  1
  O2-  O317  1  0.04749712  0.23630924  0.48904725  1
  O2-  O318  1  0.55409039  0.42745987  0.76266477  1
  O2-  O319  1  0.04815938  0.90221567  0.73140057  1
  O2-  O320  1  0.45473485  0.09680809  0.48505037  1
  O2-  O321  1  0.04477004  0.76320512  0.26333701  1
  O2-  O322  1  0.44978844  0.56998216  0.98602070  1
  O2-  O323  1  0.95019988  0.57275579  0.76161003  1
  O2-  O324  1  0.56432553  0.59086955  0.52691290  1
  O2-  O325  1  0.43520417  0.26364878  0.03359217  1
  O2-  O326  1  0.41853386  0.69927649  0.44509812  1
  O2-  O327  1  0.56919335  0.74701353  0.55822068  1
  O2-  O328  1  0.56423630  0.92788973  0.78451059  1
  O2-  O329  1  0.06234284  0.93235772  0.21780636  1
  O2-  O330  1  0.93718521  0.92642349  0.21475674  1
  O2-  O331  1  0.92821482  0.26334180  0.04097539  1
  O2-  O332  1  0.07297098  0.71842652  0.06007594  1
  O2-  O333  1  0.56816077  0.25520237  0.06035972  1
  O2-  O334  1  0.06193873  0.06693839  0.03115639  1
  O2-  O335  1  0.94696502  0.08655132  0.79163052  1
  O2-  O336  1  0.91685697  0.38264824  0.95913555  1
  O2-  O337  1  0.43498891  0.74380195  0.19428096  1
  O2-  O338  1  0.42768344  0.28006281  0.44115453  1
  O2-  O339  1  0.42169445  0.37132532  0.79840826  1
  O2-  O340  1  0.93177514  0.06922963  0.68230658  1
  O2-  O341  1  0.93130004  0.93498762  0.69576567  1
  O2-  O342  1  0.06235604  0.73590822  0.71681366  1
  O2-  O343  1  0.42129003  0.05915709  0.81236475  1
  O2-  O344  1  0.56536709  0.07487117  0.72209479  1
  O2-  O345  1  0.42621991  0.05821904  0.68092895  1
  O2-  O346  1  0.93732315  0.07027861  0.96761149  1
  O2-  O347  1  0.56312702  0.74035713  0.21773906  1
  O2-  O348  1  0.94941574  0.75620576  0.48057397  1
  O2-  O349  1  0.43665427  0.26311710  0.28156529  1
  O2-  O350  1  0.56418432  0.07310132  0.02602668  1
  O2-  O351  1  0.43649910  0.73939352  0.31197064  1
  O2-  O352  1  0.56883215  0.74350386  0.44330753  1
  O2-  O353  1  0.43409440  0.59579789  0.28205748  1
  O2-  O354  1  0.93097447  0.05512850  0.55108327  1
  O2-  O355  1  0.07724347  0.27107058  0.20403237  1
  O2-  O356  1  0.93756376  0.92966905  0.03283541  1
  O2-  O357  1  0.93335148  0.25894159  0.47205945  1
  O2-  O358  1  0.42417547  0.06257971  0.95277597  1
  O2-  O359  1  0.57472780  0.60393594  0.95487123  1
  O2-  O360  1  0.94517239  0.42017065  0.73180752  1
  O2-  O361  1  0.56762973  0.60088009  0.20568568  1
  O2-  O362  1  0.93508527  0.59419108  0.22682121  1
  O2-  O363  1  0.56491788  0.74278689  0.77603279  1
  O2-  O364  1  0.56661100  0.25522239  0.94010375  1
  O2-  O365  1  0.56460739  0.26051580  0.72239227  1
  O2-  O366  1  0.56806093  0.40614395  0.22207409  1
  O2-  O367  1  0.06281488  0.06749011  0.78351003  1
  O2-  O368  1  0.91978981  0.03869368  0.31313155  1
  O2-  O369  1  0.06437419  0.73450307  0.46901206  1
  O2-  O370  1  0.93574362  0.73969925  0.77555112  1
  O2-  O371  1  0.42766763  0.93519627  0.69124039  1
  O2-  O372  1  0.74992018  0.00021425  0.32801025  1
  O2-  O373  1  0.74973847  0.66965079  0.07861471  1
  O2-  O374  1  0.74962174  0.00009057  0.59572594  1
  O2-  O375  1  0.74961005  -0.00002819  0.41933993  1
  O2-  O376  1  0.74983379  -0.00440278  0.07773476  1
  O2-  O377  1  0.24950420  -0.00907507  0.60319571  1
  O2-  O378  1  0.25007870  -0.01330836  0.43295515  1
  O2-  O379  1  0.24924875  0.66171131  0.34420881  1
  O2-  O380  1  0.74977546  0.66838378  0.17326325  1
  O2-  O381  1  0.74999637  0.67720695  0.86302481  1
  O2-  O382  1  0.25073619  0.33596005  0.65251602  1
  O2-  O383  1  0.75007749  0.33259395  0.64605427  1
  O2-  O384  1  0.25008408  0.67289965  0.60355678  1
  O2-  O385  1  0.25016639  0.00035944  0.32788845  1
  O2-  O386  1  0.75027777  0.66362795  0.34340641  1
  O2-  O387  1  0.74996629  0.00291395  0.17250706  1
  O2-  O388  1  0.24998962  0.66468637  0.15683314  1
  O2-  O389  1  0.74982944  0.32639404  0.39018123  1
  O2-  O390  1  0.74996810  -0.00278903  0.85525556  1
  O2-  O391  1  0.75008725  0.67594950  0.57264451  1
  O2-  O392  1  0.74990039  0.33575200  0.89352838  1
  O2-  O393  1  0.75024729  0.33214298  0.10256188  1
  O2-  O394  1  0.74998280  0.68407356  0.67950121  1
  O2-  O395  1  0.24956316  -0.00616108  0.85045581  1
  O2-  O396  1  0.25006689  0.49781703  0.85351809  1
  O2-  O397  1  0.75006971  0.50182413  0.82300181  1
  O2-  O398  1  0.25011453  0.16447378  0.91729711  1
  O2-  O399  1  0.74968099  0.48335491  0.91063076  1
  O2-  O400  1  0.24997416  0.16098427  0.06557266  1
  O2-  O401  1  0.24973589  0.16556378  0.15285764  1
  O2-  O402  1  0.24995197  0.84326416  0.12913508  1
  O2-  O403  1  0.25002745  0.50443775  0.93953673  1
  O2-  O404  1  0.24997274  0.16636602  0.68295785  1
  O2-  O405  1  0.74986903  0.83411367  0.85796459  1
  O2-  O406  1  0.24996175  0.83776591  0.39429102  1
  O2-  O407  1  0.24998967  0.17025961  0.83527567  1
  O2-  O408  1  0.74993075  0.17727468  0.14905856  1
  O2-  O409  1  0.74988726  0.48674652  0.14093825  1
  O2-  O410  1  0.75003198  0.16749021  0.81664616  1
  O2-  O411  1  0.74992631  0.17522792  0.89892547  1
  O2-  O412  1  0.75001328  0.16651180  0.58435764  1
  O2-  O413  1  0.74993577  0.83735195  0.16060120  1
  O2-  O414  1  0.24996553  0.49930275  0.15725957  1
  O2-  O415  1  0.24990788  0.49975234  0.59880366  1
  O2-  O416  1  0.74982475  0.16670972  0.66395706  1
  O2-  O417  1  0.24999496  0.16161886  0.59932634  1
  O2-  O418  1  0.74998727  0.50282418  0.38128517  1
  O2-  O419  1  0.24995368  0.82527472  0.86962713  1
  O2-  O420  1  0.52473127  -0.00553326  0.12984438  1
  O2-  O421  1  0.46582630  0.67104239  0.87683465  1
  O2-  O422  1  0.51886391  0.33704803  0.12594101  1
  O2-  O423  1  0.95819294  0.32709547  0.61659477  1
  O2-  O424  1  0.45558315  -0.00271943  0.37163304  1
  O2-  O425  1  0.52628098  -0.00573896  0.61836408  1
  O2-  O426  1  0.52464761  0.33769528  0.61986441  1
  O2-  O427  1  0.97090679  0.33846655  0.13051802  1
  O2-  O428  1  0.46581868  0.66820150  0.62211081  1
  O2-  O429  1  0.95850369  0.34050253  0.36897288  1
  O2-  O430  1  0.54464467  -0.00028030  0.37677471  1
  O2-  O431  1  0.04464068  0.33526312  0.62538593  1
  O2-  O432  1  0.52559650  0.67176529  0.87398364  1
  O2-  O433  1  0.52208242  0.33838112  0.87009558  1
  O2-  O434  1  0.97560144  0.67010517  0.12129626  1
  O2-  O435  1  0.52779883  0.33220100  0.37721856  1
  O2-  O436  1  0.97512222  0.66210186  0.88330204  1
  O2-  O437  1  0.52860255  0.66394133  0.63707669  1
  O2-  O438  1  0.48147421  -0.00871757  0.87668463  1
  O2-  O439  1  0.47589971  0.65675219  0.11923584  1
  O2-  O440  1  0.02852107  0.33829717  0.11714797  1
  O2-  O441  1  0.97792154  0.32820135  0.86736127  1
  O2-  O442  1  0.04443621  0.33946060  0.37513589  1
  O2-  O443  1  0.52422886  0.66496772  0.37042039  1
