# generated using pymatgen
data_La7(Ru4O11)2
_symmetry_space_group_name_H-M   'P 1'
_cell_length_a   23.99524061
_cell_length_b   16.83426581
_cell_length_c   15.43018038
_cell_angle_alpha   89.99998287
_cell_angle_beta   89.99949414
_cell_angle_gamma   90.00052670
_symmetry_Int_Tables_number   1
_chemical_formula_structural   La7(Ru4O11)2
_chemical_formula_sum   'La84 Ru96 O264'
_cell_volume   6232.90191503
_cell_formula_units_Z   12
loop_
 _symmetry_equiv_pos_site_id
 _symmetry_equiv_pos_as_xyz
  1  'x, y, z'
loop_
 _atom_type_symbol
 _atom_type_oxidation_number
  La3+  3.0
  Ru4+  4.0
  O2-  -2.0
loop_
 _atom_site_type_symbol
 _atom_site_label
 _atom_site_symmetry_multiplicity
 _atom_site_fract_x
 _atom_site_fract_y
 _atom_site_fract_z
 _atom_site_occupancy
  La3+  La0  1  0.14290109  -0.00152300  0.12510751  1
  La3+  La1  1  0.14710852  0.00112979  0.36869402  1
  La3+  La2  1  0.14183880  0.00527269  0.63293117  1
  La3+  La3  1  0.13443879  0.00753524  0.87046326  1
  La3+  La4  1  0.14461976  0.33883944  0.13067783  1
  La3+  La5  1  0.13806005  0.33290866  0.36752616  1
  La3+  La6  1  0.15728086  0.33542122  0.62219834  1
  La3+  La7  1  0.14682071  0.32728378  0.87066959  1
  La3+  La8  1  0.14437019  0.66507946  0.12497232  1
  La3+  La9  1  0.14058709  0.66134373  0.36826437  1
  La3+  La10  1  0.13958980  0.66298578  0.62190420  1
  La3+  La11  1  0.14146842  0.66884274  0.87632671  1
  La3+  La12  1  0.63792314  -0.00011481  0.12423830  1
  La3+  La13  1  0.63990661  -0.00514595  0.37872042  1
  La3+  La14  1  0.63854715  -0.00118530  0.62335973  1
  La3+  La15  1  0.64271070  -0.00245927  0.87773075  1
  La3+  La16  1  0.63874956  0.33351624  0.12548192  1
  La3+  La17  1  0.63364584  0.33368306  0.37394292  1
  La3+  La18  1  0.63402175  0.33140095  0.62180256  1
  La3+  La19  1  0.63597035  0.33582960  0.87790706  1
  La3+  La20  1  0.63371494  0.66651112  0.12985729  1
  La3+  La21  1  0.63300357  0.66623359  0.37236133  1
  La3+  La22  1  0.63311134  0.66694147  0.62353157  1
  La3+  La23  1  0.63788922  0.66862405  0.87557133  1
  La3+  La24  1  0.36507712  -0.00357014  0.12307687  1
  La3+  La25  1  0.35203141  0.00249810  0.36857186  1
  La3+  La26  1  0.36224690  0.00576157  0.63287923  1
  La3+  La27  1  0.36157213  0.00769370  0.87132319  1
  La3+  La28  1  0.35672596  0.33547569  0.13150836  1
  La3+  La29  1  0.36743989  0.33530779  0.37077375  1
  La3+  La30  1  0.35093932  0.33282447  0.62615657  1
  La3+  La31  1  0.35301964  0.33395607  0.87333997  1
  La3+  La32  1  0.35133949  0.66432889  0.13045541  1
  La3+  La33  1  0.35666632  0.66209056  0.37109115  1
  La3+  La34  1  0.36401021  0.66586703  0.62453702  1
  La3+  La35  1  0.35846694  0.66699478  0.87652427  1
  La3+  La36  1  0.86344234  0.00215381  0.11651344  1
  La3+  La37  1  0.85328465  -0.01157777  0.37091116  1
  La3+  La38  1  0.86555153  -0.00591751  0.62064041  1
  La3+  La39  1  0.85209953  -0.01017372  0.87271238  1
  La3+  La40  1  0.85976374  0.33301255  0.12846937  1
  La3+  La41  1  0.86231779  0.33513555  0.37224084  1
  La3+  La42  1  0.86703345  0.33356643  0.62424729  1
  La3+  La43  1  0.86490503  0.32845043  0.87325828  1
  La3+  La44  1  0.86568797  0.67469484  0.12359038  1
  La3+  La45  1  0.87039165  0.66793738  0.36760157  1
  La3+  La46  1  0.86327739  0.67434365  0.63096132  1
  La3+  La47  1  0.87218026  0.67610639  0.87717854  1
  La3+  La48  1  0.49553114  0.84555601  0.88283611  1
  La3+  La49  1  -0.00654038  0.50887125  0.60339289  1
  La3+  La50  1  -0.00909595  0.16983039  0.39288843  1
  La3+  La51  1  0.00021310  0.49256960  0.89300025  1
  La3+  La52  1  0.00131961  0.50276769  0.87339670  1
  La3+  La53  1  -0.00251316  0.48638754  0.38478764  1
  La3+  La54  1  0.00092503  0.82796277  0.12226037  1
  La3+  La55  1  0.00129832  0.83471848  0.14344174  1
  La3+  La56  1  0.49525798  0.16536511  0.88193689  1
  La3+  La57  1  0.49811964  0.17132685  0.86088850  1
  La3+  La58  1  -0.00268872  0.82901404  0.62158370  1
  La3+  La59  1  0.50364003  0.17203861  0.38143199  1
  La3+  La60  1  0.50232102  0.49300289  0.12132970  1
  La3+  La61  1  0.50006450  0.50348029  0.62702866  1
  La3+  La62  1  -0.01121638  0.16649106  0.37717583  1
  La3+  La63  1  0.50164341  0.83676230  0.11953526  1
  La3+  La64  1  0.48701495  0.17921746  0.12222871  1
  La3+  La65  1  0.49959603  0.49407878  0.60717203  1
  La3+  La66  1  0.50068153  0.49307179  0.87130226  1
  La3+  La67  1  0.00404579  0.16964027  0.64840939  1
  La3+  La68  1  0.50116311  0.83790426  0.13638312  1
  La3+  La69  1  0.49836896  0.83158422  0.62178127  1
  La3+  La70  1  0.50146788  0.82769619  0.37283907  1
  La3+  La71  1  0.49310890  0.83331825  0.86537451  1
  La3+  La72  1  0.75059890  0.52703478  0.70079083  1
  La3+  La73  1  0.24954626  0.83377460  0.22941364  1
  La3+  La74  1  0.75036150  0.21422228  0.47922545  1
  La3+  La75  1  0.25064152  0.77808552  0.48580196  1
  La3+  La76  1  0.24907214  0.45718452  0.50104479  1
  La3+  La77  1  0.25195448  0.88437354  0.76184202  1
  La3+  La78  1  0.74975794  0.45766176  0.43610085  1
  La3+  La79  1  0.25113813  0.17531944  -0.02083448  1
  La3+  La80  1  0.75045800  0.78962032  0.23138311  1
  La3+  La81  1  0.75237334  0.54176272  0.05172801  1
  La3+  La82  1  0.25010658  0.22932900  0.46361907  1
  La3+  La83  1  0.75322008  0.09465648  0.73250114  1
  Ru4+  Ru84  1  -0.00361200  0.00984826  -0.00710078  1
  Ru4+  Ru85  1  0.00822654  0.00400815  0.25268480  1
  Ru4+  Ru86  1  0.00678069  0.00397443  0.49591978  1
  Ru4+  Ru87  1  0.00237462  -0.01082337  0.77091955  1
  Ru4+  Ru88  1  -0.00456380  0.33393164  0.00127155  1
  Ru4+  Ru89  1  0.01534868  0.33134184  0.24732762  1
  Ru4+  Ru90  1  0.00012509  0.33234442  0.50416353  1
  Ru4+  Ru91  1  0.01526370  0.32636211  0.74866199  1
  Ru4+  Ru92  1  0.00926530  0.66714765  0.00597671  1
  Ru4+  Ru93  1  -0.00324276  0.64689671  0.25504981  1
  Ru4+  Ru94  1  0.00963949  0.67906975  0.50379088  1
  Ru4+  Ru95  1  0.00239801  0.66182027  0.73523739  1
  Ru4+  Ru96  1  0.50229486  0.00749846  -0.00206463  1
  Ru4+  Ru97  1  0.49299209  -0.00364345  0.26201582  1
  Ru4+  Ru98  1  0.49745068  -0.00100022  0.50056284  1
  Ru4+  Ru99  1  0.50776014  0.00350059  0.74361930  1
  Ru4+  Ru100  1  0.50351145  0.34181985  0.01413391  1
  Ru4+  Ru101  1  0.49793156  0.33401449  0.24268290  1
  Ru4+  Ru102  1  0.49942809  0.33254882  0.49096043  1
  Ru4+  Ru103  1  0.49472639  0.32945306  0.75477354  1
  Ru4+  Ru104  1  0.49611369  0.65920395  0.00227132  1
  Ru4+  Ru105  1  0.50116474  0.66146609  0.25835133  1
  Ru4+  Ru106  1  0.49625480  0.67079570  0.48799706  1
  Ru4+  Ru107  1  0.50243736  0.67077597  0.75646747  1
  Ru4+  Ru108  1  0.11073537  0.16549788  0.00339551  1
  Ru4+  Ru109  1  0.10949650  0.17017527  0.24334989  1
  Ru4+  Ru110  1  0.10807806  0.15883003  0.50208851  1
  Ru4+  Ru111  1  0.11193305  0.17663596  0.75272318  1
  Ru4+  Ru112  1  0.11257446  0.49814176  -0.00086602  1
  Ru4+  Ru113  1  0.10975200  0.49746935  0.24559688  1
  Ru4+  Ru114  1  0.10718632  0.50033488  0.50070468  1
  Ru4+  Ru115  1  0.11334533  0.49066506  0.75112564  1
  Ru4+  Ru116  1  0.11385775  0.83216693  -0.00586092  1
  Ru4+  Ru117  1  0.11245129  0.83302368  0.25069903  1
  Ru4+  Ru118  1  0.10491478  0.82576702  0.49366723  1
  Ru4+  Ru119  1  0.11189139  0.83433838  0.75081664  1
  Ru4+  Ru120  1  0.61469174  0.16642736  0.00281966  1
  Ru4+  Ru121  1  0.61569065  0.16899075  0.26644471  1
  Ru4+  Ru122  1  0.60835412  0.16401743  0.50275110  1
  Ru4+  Ru123  1  0.60758690  0.16067531  0.73820098  1
  Ru4+  Ru124  1  0.61419120  0.50485976  0.00112980  1
  Ru4+  Ru125  1  0.61180376  0.49847486  0.25190508  1
  Ru4+  Ru126  1  0.61493995  0.49249405  0.49661474  1
  Ru4+  Ru127  1  0.60969696  0.50708186  0.75233742  1
  Ru4+  Ru128  1  0.61386460  0.83860752  -0.00004262  1
  Ru4+  Ru129  1  0.61797280  0.84020381  0.25071511  1
  Ru4+  Ru130  1  0.61299641  0.83422525  0.50177388  1
  Ru4+  Ru131  1  0.61322456  0.82619412  0.74943681  1
  Ru4+  Ru132  1  0.39255289  0.16747831  0.00284406  1
  Ru4+  Ru133  1  0.38530178  0.17048361  0.25124169  1
  Ru4+  Ru134  1  0.39112079  0.16803213  0.49718998  1
  Ru4+  Ru135  1  0.37978025  0.16817606  0.75002179  1
  Ru4+  Ru136  1  0.38555870  0.49892782  0.00044614  1
  Ru4+  Ru137  1  0.38903619  0.49796159  0.25347031  1
  Ru4+  Ru138  1  0.38849504  0.49630385  0.49264255  1
  Ru4+  Ru139  1  0.38425657  0.49899627  0.75092384  1
  Ru4+  Ru140  1  0.38301590  0.82466055  -0.00034570  1
  Ru4+  Ru141  1  0.38735509  0.83702623  0.24936916  1
  Ru4+  Ru142  1  0.39104744  0.83892507  0.49867553  1
  Ru4+  Ru143  1  0.39532795  0.83064548  0.75341456  1
  Ru4+  Ru144  1  0.88906877  0.17091130  -0.00286872  1
  Ru4+  Ru145  1  0.88981529  0.16728531  0.25171717  1
  Ru4+  Ru146  1  0.88903019  0.15598663  0.49749753  1
  Ru4+  Ru147  1  0.89073079  0.17260547  0.74537186  1
  Ru4+  Ru148  1  0.88710175  0.49447319  0.00046491  1
  Ru4+  Ru149  1  0.89079340  0.50757156  0.23422368  1
  Ru4+  Ru150  1  0.88824577  0.49904976  0.50314235  1
  Ru4+  Ru151  1  0.89028887  0.50602937  0.75127436  1
  Ru4+  Ru152  1  0.88448954  0.84040796  -0.00300402  1
  Ru4+  Ru153  1  0.88656246  0.83923454  0.25352163  1
  Ru4+  Ru154  1  0.88656720  0.83899420  0.49638343  1
  Ru4+  Ru155  1  0.87766677  0.83093191  0.74966919  1
  Ru4+  Ru156  1  0.74855793  0.05973809  0.50328523  1
  Ru4+  Ru157  1  0.75096466  0.08750484  0.24652899  1
  Ru4+  Ru158  1  0.75060942  0.24676128  0.00831374  1
  Ru4+  Ru159  1  0.25032825  0.03584696  0.02069336  1
  Ru4+  Ru160  1  0.74841534  0.25209420  0.73506312  1
  Ru4+  Ru161  1  0.24977501  0.60098191  0.49100135  1
  Ru4+  Ru162  1  0.75066784  0.60119947  0.51744520  1
  Ru4+  Ru163  1  0.75102687  0.39166787  -0.02098876  1
  Ru4+  Ru164  1  0.75033909  0.06785322  0.01183735  1
  Ru4+  Ru165  1  0.74794472  0.90963330  0.74817148  1
  Ru4+  Ru166  1  0.74939561  0.76739047  0.00072019  1
  Ru4+  Ru167  1  0.24943791  0.56484507  0.74634099  1
  Ru4+  Ru168  1  0.25073546  0.32682711  0.01741125  1
  Ru4+  Ru169  1  0.25047578  0.90289168  -0.00891221  1
  Ru4+  Ru170  1  0.25110752  0.08117142  0.49836923  1
  Ru4+  Ru171  1  0.75094554  0.24404552  0.26017028  1
  Ru4+  Ru172  1  0.25124579  0.74188467  0.73045456  1
  Ru4+  Ru173  1  0.74991077  0.65677699  0.76358673  1
  Ru4+  Ru174  1  0.75078912  0.94019781  0.26518018  1
  Ru4+  Ru175  1  0.24905709  0.92204541  0.50284384  1
  Ru4+  Ru176  1  0.25025793  0.58058887  -0.00064758  1
  Ru4+  Ru177  1  0.75047996  0.75852442  0.51555990  1
  Ru4+  Ru178  1  0.74990295  0.57089729  0.25561877  1
  Ru4+  Ru179  1  0.74985213  0.39086322  0.75569136  1
  O2-  O180  1  0.16876599  0.07756724  -0.00012265  1
  O2-  O181  1  0.16224996  0.08759515  0.24637203  1
  O2-  O182  1  0.16674079  0.08013264  0.49882469  1
  O2-  O183  1  0.16235397  0.08889208  0.75253459  1
  O2-  O184  1  0.16267455  0.41465518  -0.00059906  1
  O2-  O185  1  0.16640278  0.41810913  0.25225885  1
  O2-  O186  1  0.15747847  0.41328993  0.49124060  1
  O2-  O187  1  0.17054555  0.41909126  0.75146758  1
  O2-  O188  1  0.16353694  0.74998321  -0.00421361  1
  O2-  O189  1  0.16635790  0.74564137  0.24955214  1
  O2-  O190  1  0.16119638  0.74155824  0.49945664  1
  O2-  O191  1  0.17095809  0.74991377  0.75283762  1
  O2-  O192  1  0.66821734  0.07877519  0.00289479  1
  O2-  O193  1  0.66917914  0.08090143  0.24939747  1
  O2-  O194  1  0.66970567  0.08138897  0.50070386  1
  O2-  O195  1  0.66218139  0.07475492  0.75259478  1
  O2-  O196  1  0.66831448  0.41287306  -0.00017402  1
  O2-  O197  1  0.65972898  0.41460856  0.25332236  1
  O2-  O198  1  0.66759446  0.40830318  0.50126332  1
  O2-  O199  1  0.66589596  0.40963692  0.74607803  1
  O2-  O200  1  0.66509191  0.74781578  -0.00229442  1
  O2-  O201  1  0.66046995  0.74437159  0.25107075  1
  O2-  O202  1  0.66463777  0.74633074  0.50527800  1
  O2-  O203  1  0.66752925  0.74402693  0.74775308  1
  O2-  O204  1  0.33387429  0.25530748  0.00379689  1
  O2-  O205  1  0.33303167  0.25094697  0.24963583  1
  O2-  O206  1  0.33980322  0.25512417  0.49971123  1
  O2-  O207  1  0.33562215  0.25626383  0.74875571  1
  O2-  O208  1  0.33472947  0.58530238  0.00012358  1
  O2-  O209  1  0.33273965  0.58194487  0.24534062  1
  O2-  O210  1  0.33285157  0.58643911  0.50418762  1
  O2-  O211  1  0.33137622  0.58442097  0.75228639  1
  O2-  O212  1  0.33278007  0.91640324  -0.00292492  1
  O2-  O213  1  0.33478426  0.91918373  0.24437877  1
  O2-  O214  1  0.33308492  0.91964756  0.49841773  1
  O2-  O215  1  0.34298553  0.92290665  0.75246793  1
  O2-  O216  1  0.83388233  0.24982913  0.00205545  1
  O2-  O217  1  0.83467028  0.25133364  0.25205792  1
  O2-  O218  1  0.84378621  0.25328914  0.50084166  1
  O2-  O219  1  0.83248973  0.25210338  0.74748067  1
  O2-  O220  1  0.83811828  0.58834592  -0.00920449  1
  O2-  O221  1  0.83202262  0.58531555  0.25311059  1
  O2-  O222  1  0.83636565  0.58735038  0.50001780  1
  O2-  O223  1  0.83361172  0.59178146  0.75291417  1
  O2-  O224  1  0.83334057  0.91939310  0.00513814  1
  O2-  O225  1  0.83187712  0.92001768  0.24264167  1
  O2-  O226  1  0.83332036  0.91831491  0.50396322  1
  O2-  O227  1  0.83025423  0.91700417  0.74283443  1
  O2-  O228  1  0.16533564  0.25221081  0.00388940  1
  O2-  O229  1  0.16549790  0.24739903  0.25374911  1
  O2-  O230  1  0.15888781  0.24948474  0.49520356  1
  O2-  O231  1  0.17080525  0.24802562  0.75500770  1
  O2-  O232  1  0.16748783  0.58423424  -0.00121396  1
  O2-  O233  1  0.16612767  0.57717273  0.24958113  1
  O2-  O234  1  0.16633563  0.58521401  0.49935411  1
  O2-  O235  1  0.16457600  0.58226089  0.75287926  1
  O2-  O236  1  0.16787282  0.91798287  -0.00510898  1
  O2-  O237  1  0.16386998  0.91857893  0.24458208  1
  O2-  O238  1  0.16251861  0.91560553  0.49997854  1
  O2-  O239  1  0.16142981  0.92312431  0.75633446  1
  O2-  O240  1  0.66774104  0.25362230  -0.00180912  1
  O2-  O241  1  0.66689151  0.25453235  0.25345243  1
  O2-  O242  1  0.66187118  0.25646670  0.50400067  1
  O2-  O243  1  0.66066852  0.25070715  0.74416585  1
  O2-  O244  1  0.66650830  0.58961720  -0.00487304  1
  O2-  O245  1  0.66731727  0.58331838  0.25188177  1
  O2-  O246  1  0.66617590  0.58816404  0.50323028  1
  O2-  O247  1  0.66715068  0.59189228  0.75099181  1
  O2-  O248  1  0.66443365  0.91939248  0.00308514  1
  O2-  O249  1  0.67071970  0.92149718  0.24978672  1
  O2-  O250  1  0.66436229  0.91679450  0.50285108  1
  O2-  O251  1  0.66650091  0.91847953  0.75007778  1
  O2-  O252  1  0.33312106  0.07632154  0.00418484  1
  O2-  O253  1  0.34007959  0.08174635  0.24181382  1
  O2-  O254  1  0.33757821  0.08076776  0.50107528  1
  O2-  O255  1  0.33336310  0.08385628  0.75197103  1
  O2-  O256  1  0.33396475  0.41410006  0.00326077  1
  O2-  O257  1  0.33664536  0.41600915  0.25153058  1
  O2-  O258  1  0.33722180  0.41084988  0.49670813  1
  O2-  O259  1  0.33191016  0.41620636  0.75392911  1
  O2-  O260  1  0.33540495  0.74309428  -0.00405347  1
  O2-  O261  1  0.33199566  0.74664312  0.24895242  1
  O2-  O262  1  0.34282732  0.74580091  0.50235535  1
  O2-  O263  1  0.33513452  0.74568836  0.74971267  1
  O2-  O264  1  0.83330847  0.08291989  0.00856290  1
  O2-  O265  1  0.83551170  0.08184610  0.24910216  1
  O2-  O266  1  0.82420358  0.08315250  0.50886291  1
  O2-  O267  1  0.84761090  0.07575913  0.74907554  1
  O2-  O268  1  0.83466931  0.41053482  -0.00266733  1
  O2-  O269  1  0.84387108  0.41711565  0.25141483  1
  O2-  O270  1  0.83087317  0.41046448  0.49656366  1
  O2-  O271  1  0.83419477  0.41017601  0.74723145  1
  O2-  O272  1  0.83415102  0.75031491  -0.00767383  1
  O2-  O273  1  0.84102858  0.74555907  0.25420977  1
  O2-  O274  1  0.83612741  0.74814311  0.50370735  1
  O2-  O275  1  0.82841399  0.74573439  0.75295717  1
  O2-  O276  1  0.05185769  0.23996859  0.30939834  1
  O2-  O277  1  0.94708440  0.76397868  0.97857036  1
  O2-  O278  1  0.45470963  0.09326132  0.76366099  1
  O2-  O279  1  0.03340001  0.21969509  0.77291202  1
  O2-  O280  1  0.54447152  0.89766628  0.51341635  1
  O2-  O281  1  0.04982262  0.90789685  0.50939351  1
  O2-  O282  1  0.45782504  0.89462708  0.01022975  1
  O2-  O283  1  0.94987710  0.90745250  0.76514997  1
  O2-  O284  1  0.96508103  0.11293551  0.52826913  1
  O2-  O285  1  0.45125105  0.43679448  0.98859222  1
  O2-  O286  1  0.05034439  0.91024890  1.00266860  1
  O2-  O287  1  0.46740984  0.55921118  0.25310174  1
  O2-  O288  1  0.95095432  0.24005355  0.23183378  1
  O2-  O289  1  0.05780789  0.09178936  0.01328863  1
  O2-  O290  1  0.94534355  0.56465426  0.30063879  1
  O2-  O291  1  0.54956936  0.77319140  0.24988556  1
  O2-  O292  1  0.03848268  0.10605346  0.28286257  1
  O2-  O293  1  0.95109894  0.56625191  0.01139062  1
  O2-  O294  1  0.04634887  0.55654070  0.30141503  1
  O2-  O295  1  0.05097563  0.75756263  0.00281553  1
  O2-  O296  1  0.55301687  0.42905400  0.97700851  1
  O2-  O297  1  0.96026665  0.12701768  1.01127099  1
  O2-  O298  1  0.55118672  0.58525325  0.52040106  1
  O2-  O299  1  0.94427883  0.90548288  0.72713963  1
  O2-  O300  1  0.94902988  0.90904075  0.01905876  1
  O2-  O301  1  0.04086638  0.47178313  0.70860786  1
  O2-  O302  1  0.94677431  0.74555196  0.01217835  1
  O2-  O303  1  0.54578430  0.89929537  0.74899373  1
  O2-  O304  1  0.54950599  0.56041387  0.49204043  1
  O2-  O305  1  0.54820652  0.24200513  0.25005740  1
  O2-  O306  1  0.45176287  0.42780386  0.25233232  1
  O2-  O307  1  0.94416247  0.75634793  0.73577850  1
  O2-  O308  1  0.94818766  0.76054109  0.23785130  1
  O2-  O309  1  0.95050805  0.42755788  0.77089004  1
  O2-  O310  1  0.45274957  0.42715953  0.24301410  1
  O2-  O311  1  0.55087952  0.04512576  0.19584074  1
  O2-  O312  1  0.54554018  0.76518156  0.98787983  1
  O2-  O313  1  0.94774173  0.91096305  0.51688157  1
  O2-  O314  1  0.05494345  0.90752725  0.75364844  1
  O2-  O315  1  0.44745819  0.57295227  0.51665605  1
  O2-  O316  1  0.54716040  0.43016287  0.74125185  1
  O2-  O317  1  0.45203962  0.76727652  0.23837234  1
  O2-  O318  1  0.94489295  0.75879635  0.77467918  1
  O2-  O319  1  0.03741577  0.77534580  0.75539697  1
  O2-  O320  1  0.95983233  0.10313318  0.04007131  1
  O2-  O321  1  0.04404183  0.08270080  0.76047967  1
  O2-  O322  1  0.96793852  0.12086503  0.52140467  1
  O2-  O323  1  0.03671823  0.21719348  0.79140763  1
  O2-  O324  1  0.56130045  0.25420365  0.48049792  1
  O2-  O325  1  0.43772088  0.41351259  0.72261679  1
  O2-  O326  1  0.08713211  0.29123391  0.69118587  1
  O2-  O327  1  0.07444568  0.40055412  0.81382199  1
  O2-  O328  1  0.55984322  0.74274587  0.26350797  1
  O2-  O329  1  0.56424914  0.07249675  0.68033227  1
  O2-  O330  1  0.56075985  0.07089394  0.52073504  1
  O2-  O331  1  0.43314153  0.08139603  0.77873352  1
  O2-  O332  1  0.93217434  0.27024196  0.96925335  1
  O2-  O333  1  0.43851743  0.25963033  0.28900191  1
  O2-  O334  1  0.05871097  0.41761831  0.17658680  1
  O2-  O335  1  0.56171669  0.08365092  0.02321562  1
  O2-  O336  1  0.58016164  0.09052430  0.34018335  1
  O2-  O337  1  0.06394019  0.07470368  0.42827220  1
  O2-  O338  1  0.44006768  0.25321991  0.46532112  1
  O2-  O339  1  0.05850357  0.25307026  0.51292192  1
  O2-  O340  1  0.56578391  0.58988829  0.22227170  1
  O2-  O341  1  0.92554891  0.02535604  0.93189888  1
  O2-  O342  1  0.92603960  0.58881426  0.15734872  1
  O2-  O343  1  0.42417287  0.61211377  0.27025407  1
  O2-  O344  1  0.93978830  0.74314677  0.20624272  1
  O2-  O345  1  0.57150175  0.09358791  0.82657348  1
  O2-  O346  1  0.55903845  0.25102654  0.02613703  1
  O2-  O347  1  0.55841796  0.91618815  0.22911459  1
  O2-  O348  1  0.06552549  0.75203167  0.56869407  1
  O2-  O349  1  0.44117820  0.90978434  0.03465315  1
  O2-  O350  1  0.44185219  0.74332225  0.53908180  1
  O2-  O351  1  0.06570471  0.07232602  0.57804873  1
  O2-  O352  1  0.94283085  0.60029880  0.01007051  1
  O2-  O353  1  0.44029075  0.40799370  0.47048214  1
  O2-  O354  1  0.07814824  0.60103388  0.19224660  1
  O2-  O355  1  0.06817269  0.07453260  0.76540047  1
  O2-  O356  1  0.93635942  0.40613036  0.52918467  1
  O2-  O357  1  0.43472402  0.92141196  0.42315600  1
  O2-  O358  1  0.55984467  0.41774912  0.97448040  1
  O2-  O359  1  0.93895738  0.58001664  0.30492196  1
  O2-  O360  1  0.08051222  0.72050676  0.72781638  1
  O2-  O361  1  0.93534292  0.26899047  0.71583866  1
  O2-  O362  1  0.06447826  0.40358207  0.32519333  1
  O2-  O363  1  0.06493961  0.03680911  0.17388729  1
  O2-  O364  1  0.56327514  0.59312203  0.02157053  1
  O2-  O365  1  0.90826977  0.04998699  0.44574602  1
  O2-  O366  1  0.43684561  0.59497361  0.71765084  1
  O2-  O367  1  0.43015860  0.91181025  0.57107392  1
  O2-  O368  1  0.06369131  0.73744439  0.42284347  1
  O2-  O369  1  0.06295807  0.58904090  0.01613330  1
  O2-  O370  1  0.55745673  0.12476224  0.19305565  1
  O2-  O371  1  0.06932608  0.26869676  0.17159529  1
  O2-  O372  1  0.25023651  0.00117068  0.59249389  1
  O2-  O373  1  0.75019889  0.67760522  0.43253097  1
  O2-  O374  1  0.25069672  0.65424629  0.64294358  1
  O2-  O375  1  0.74963075  0.65640745  0.17693609  1
  O2-  O376  1  0.75060378  0.33655972  0.20679533  1
  O2-  O377  1  0.25039120  0.32899945  0.13713773  1
  O2-  O378  1  0.24964248  0.65864647  0.81594445  1
  O2-  O379  1  0.75066250  0.32858785  0.36313828  1
  O2-  O380  1  0.75174650  0.33571094  0.08357923  1
  O2-  O381  1  0.25024612  -0.00088986  0.68663283  1
  O2-  O382  1  0.75145861  0.00668645  0.14666409  1
  O2-  O383  1  0.75079291  -0.01364406  0.64272316  1
  O2-  O384  1  0.75104122  0.33472848  0.86624020  1
  O2-  O385  1  0.74922028  0.67297119  0.05105120  1
  O2-  O386  1  0.75015088  0.00631673  0.90330774  1
  O2-  O387  1  0.25284967  0.33555806  0.58786634  1
  O2-  O388  1  0.24918191  0.67335736  0.94642318  1
  O2-  O389  1  0.25119451  0.65221968  0.10390543  1
  O2-  O390  1  0.24982023  0.33413310  0.89623432  1
  O2-  O391  1  0.25011615  -0.01435915  0.89210270  1
  O2-  O392  1  0.24956443  0.66682704  0.39147381  1
  O2-  O393  1  0.24983872  -0.00332387  0.31499061  1
  O2-  O394  1  0.25027654  0.00049980  0.41129146  1
  O2-  O395  1  0.75039798  0.66824280  0.31382134  1
  O2-  O396  1  0.75065569  0.85604948  0.35869403  1
  O2-  O397  1  0.74798400  0.19095580  0.82846556  1
  O2-  O398  1  0.74980644  0.49692105  0.83449608  1
  O2-  O399  1  0.25034315  0.15962966  0.59357621  1
  O2-  O400  1  0.74971790  0.83612623  0.09398714  1
  O2-  O401  1  0.75046334  0.15527044  0.94725845  1
  O2-  O402  1  0.74921179  0.82765406  0.82677297  1
  O2-  O403  1  0.74921822  0.17479074  0.61719349  1
  O2-  O404  1  0.74956448  0.48821300  0.18007585  1
  O2-  O405  1  0.25135068  0.15683854  0.35715306  1
  O2-  O406  1  0.24996858  0.50180048  0.65445528  1
  O2-  O407  1  0.25176478  0.16493402  0.85428461  1
  O2-  O408  1  0.74958135  0.49152527  0.92107048  1
  O2-  O409  1  0.74996865  0.49708925  0.56890878  1
  O2-  O410  1  0.25000356  0.84727013  0.36864456  1
  O2-  O411  1  0.74942148  0.84408686  0.91586539  1
  O2-  O412  1  0.75044164  0.15215508  0.35137510  1
  O2-  O413  1  0.25076752  0.51134321  0.91119674  1
  O2-  O414  1  0.25007751  0.83907777  0.62034632  1
  O2-  O415  1  0.25106593  0.16320950  0.67999974  1
  O2-  O416  1  0.74997893  0.84568350  0.45178089  1
  O2-  O417  1  0.25006977  0.83766406  0.08212877  1
  O2-  O418  1  0.25054303  0.50765065  0.37452772  1
  O2-  O419  1  0.75015544  0.16808416  0.15498265  1
  O2-  O420  1  0.54374946  0.35977735  0.13637906  1
  O2-  O421  1  0.01202125  0.34634260  0.62230809  1
  O2-  O422  1  0.51962653  0.68530340  0.13059032  1
  O2-  O423  1  0.48036262  0.32806858  0.61970350  1
  O2-  O424  1  0.54625970  0.30572501  0.85233542  1
  O2-  O425  1  0.45314067  -0.00592433  0.89324388  1
  O2-  O426  1  0.45186699  0.32607242  0.87084268  1
  O2-  O427  1  0.54409954  0.66253198  0.38566725  1
  O2-  O428  1  0.97472498  0.67671532  0.39547429  1
  O2-  O429  1  0.45269557  0.31615157  0.11347824  1
  O2-  O430  1  0.01934316  0.33377828  0.89222126  1
  O2-  O431  1  0.52063524  -0.01400241  0.38047206  1
  O2-  O432  1  0.52700620  0.34250647  0.36720821  1
  O2-  O433  1  0.54543648  -0.02370661  0.89169018  1
  O2-  O434  1  0.02930784  0.00126889  0.88110764  1
  O2-  O435  1  0.54156141  -0.04235248  0.08713133  1
  O2-  O436  1  0.97800999  -0.01405107  0.36132031  1
  O2-  O437  1  0.02196261  0.69138674  0.13582056  1
  O2-  O438  1  0.04109228  0.62802361  0.62582479  1
  O2-  O439  1  0.95145003  0.66764164  0.60469490  1
  O2-  O440  1  0.47426924  0.00723705  0.63425201  1
  O2-  O441  1  0.45398790  0.68870804  0.38474391  1
  O2-  O442  1  0.96965091  0.33286892  0.37438334  1
  O2-  O443  1  0.45473901  0.01817408  0.14592068  1
