# generated using pymatgen
data_La7(Ru4O11)2
_symmetry_space_group_name_H-M   'P 1'
_cell_length_a   24.00004283
_cell_length_b   16.83918110
_cell_length_c   15.43539698
_cell_angle_alpha   89.98721389
_cell_angle_beta   90.00464322
_cell_angle_gamma   90.00724645
_symmetry_Int_Tables_number   1
_chemical_formula_structural   La7(Ru4O11)2
_chemical_formula_sum   'La84 Ru96 O264'
_cell_volume   6238.07758924
_cell_formula_units_Z   12
loop_
 _symmetry_equiv_pos_site_id
 _symmetry_equiv_pos_as_xyz
  1  'x, y, z'
loop_
 _atom_type_symbol
 _atom_type_oxidation_number
  La3+  3.0
  Ru4+  4.0
  O2-  -2.0
loop_
 _atom_site_type_symbol
 _atom_site_label
 _atom_site_symmetry_multiplicity
 _atom_site_fract_x
 _atom_site_fract_y
 _atom_site_fract_z
 _atom_site_occupancy
  La3+  La0  1  0.13691994  0.00103431  0.12944714  1
  La3+  La1  1  0.14845541  -0.00417242  0.37950934  1
  La3+  La2  1  0.15290241  0.00125863  0.62301153  1
  La3+  La3  1  0.14840133  0.00608895  0.87206401  1
  La3+  La4  1  0.14093431  0.33073030  0.12349359  1
  La3+  La5  1  0.13970298  0.33275328  0.38129490  1
  La3+  La6  1  0.15763884  0.33220768  0.61896351  1
  La3+  La7  1  0.14357848  0.33997745  0.87687376  1
  La3+  La8  1  0.13303235  0.67238928  0.12192942  1
  La3+  La9  1  0.14963613  0.66803208  0.37217737  1
  La3+  La10  1  0.15095229  0.65959208  0.62479540  1
  La3+  La11  1  0.15495852  0.65291226  0.87363505  1
  La3+  La12  1  0.64585494  -0.00810511  0.12391897  1
  La3+  La13  1  0.63781752  0.00299005  0.38085513  1
  La3+  La14  1  0.65161730  -0.00326773  0.61600625  1
  La3+  La15  1  0.63586093  0.00649791  0.86924095  1
  La3+  La16  1  0.64721018  0.31917599  0.11854399  1
  La3+  La17  1  0.64939157  0.33356837  0.36790536  1
  La3+  La18  1  0.64752594  0.33720541  0.62219427  1
  La3+  La19  1  0.63485319  0.33126539  0.86675016  1
  La3+  La20  1  0.64248500  0.65912614  0.13067805  1
  La3+  La21  1  0.63950053  0.66150484  0.37720742  1
  La3+  La22  1  0.64314418  0.66722251  0.61746184  1
  La3+  La23  1  0.63811375  0.67052795  0.87484991  1
  La3+  La24  1  0.36085580  0.00418077  0.12812059  1
  La3+  La25  1  0.34995760  0.00114532  0.38833525  1
  La3+  La26  1  0.34915022  0.00636199  0.62698830  1
  La3+  La27  1  0.35780806  0.00555720  0.87044417  1
  La3+  La28  1  0.35012614  0.34406640  0.13320740  1
  La3+  La29  1  0.36314153  0.32915057  0.38406578  1
  La3+  La30  1  0.35335061  0.33803730  0.62235279  1
  La3+  La31  1  0.35856919  0.33748530  0.88127027  1
  La3+  La32  1  0.36393798  0.67375939  0.12698135  1
  La3+  La33  1  0.34752168  0.66563515  0.37471137  1
  La3+  La34  1  0.35798248  0.66062375  0.62216092  1
  La3+  La35  1  0.35145432  0.66192330  0.87301231  1
  La3+  La36  1  0.86386244  -0.00364278  0.12050329  1
  La3+  La37  1  0.85938783  0.00445210  0.38361635  1
  La3+  La38  1  0.86189828  0.00298692  0.62130144  1
  La3+  La39  1  0.86827392  0.00196115  0.87237774  1
  La3+  La40  1  0.85963831  0.33083715  0.12670227  1
  La3+  La41  1  0.84744401  0.33411153  0.37294185  1
  La3+  La42  1  0.85833668  0.33505616  0.61999856  1
  La3+  La43  1  0.86571794  0.33479990  0.87331565  1
  La3+  La44  1  0.86762229  0.67141426  0.12574123  1
  La3+  La45  1  0.86138314  0.66693936  0.37663924  1
  La3+  La46  1  0.85643099  0.66268045  0.62059319  1
  La3+  La47  1  0.86724160  0.66855032  0.87300819  1
  La3+  La48  1  0.49055885  0.50172268  0.12195298  1
  La3+  La49  1  0.00191179  0.82410320  0.60392316  1
  La3+  La50  1  -0.00590638  0.15603836  0.90343253  1
  La3+  La51  1  0.50451373  0.17337582  0.63618131  1
  La3+  La52  1  -0.00284858  0.82896103  0.61765952  1
  La3+  La53  1  0.47955819  0.51381715  0.38537083  1
  La3+  La54  1  -0.00689926  0.51866813  0.36774130  1
  La3+  La55  1  -0.00072829  0.18621893  0.64372972  1
  La3+  La56  1  0.50399404  0.81877748  0.10713846  1
  La3+  La57  1  0.49896164  0.84412185  0.37338885  1
  La3+  La58  1  0.49492400  0.84685601  0.88039364  1
  La3+  La59  1  0.50612419  0.83165255  0.38751757  1
  La3+  La60  1  0.50454394  0.17822846  0.86824520  1
  La3+  La61  1  0.00191878  0.49351508  0.12419365  1
  La3+  La62  1  0.00815122  0.49591250  0.62858137  1
  La3+  La63  1  0.50003607  0.81550334  0.12204438  1
  La3+  La64  1  0.49980730  0.18462108  0.14149230  1
  La3+  La65  1  -0.00639275  0.15495014  0.88645246  1
  La3+  La66  1  0.50356168  0.15367515  0.37063007  1
  La3+  La67  1  0.50167344  0.49192941  0.61576245  1
  La3+  La68  1  -0.00389894  0.48618058  0.10537889  1
  La3+  La69  1  0.50652336  0.49054837  0.85011191  1
  La3+  La70  1  0.50444102  0.16930348  0.12797046  1
  La3+  La71  1  -0.00105378  0.83736284  0.89687645  1
  La3+  La72  1  0.75235396  0.78404968  0.23922633  1
  La3+  La73  1  0.75104009  0.50094906  -0.05985426  1
  La3+  La74  1  0.75137522  0.18012002  0.73293549  1
  La3+  La75  1  0.24711043  0.78398929  0.23228134  1
  La3+  La76  1  0.25406385  0.77658344  0.72546197  1
  La3+  La77  1  0.24786893  0.15420051  0.50671034  1
  La3+  La78  1  0.74624461  0.85963654  0.77453388  1
  La3+  La79  1  0.75520799  0.49313648  0.23960419  1
  La3+  La80  1  0.24618533  0.54977079  0.20808837  1
  La3+  La81  1  0.75353695  0.14517007  0.04269404  1
  La3+  La82  1  0.24912663  0.86893637  -0.00492425  1
  La3+  La83  1  0.75145201  0.82422160  0.48604761  1
  Ru4+  Ru84  1  -0.00280333  -0.00269787  0.01280364  1
  Ru4+  Ru85  1  0.01153487  -0.02753138  0.23593909  1
  Ru4+  Ru86  1  0.01043556  0.01015888  0.49024174  1
  Ru4+  Ru87  1  0.00061254  0.00023836  0.74983463  1
  Ru4+  Ru88  1  -0.00252799  0.32880739  0.01596300  1
  Ru4+  Ru89  1  0.00054349  0.32641790  0.24259273  1
  Ru4+  Ru90  1  -0.00680930  0.32797217  0.48588792  1
  Ru4+  Ru91  1  -0.01575659  0.34207191  0.76277862  1
  Ru4+  Ru92  1  0.01125185  0.66201290  -0.01480824  1
  Ru4+  Ru93  1  0.01172551  0.68584734  0.26362742  1
  Ru4+  Ru94  1  0.00085870  0.67272299  0.49254670  1
  Ru4+  Ru95  1  0.01117459  0.67911716  0.77708674  1
  Ru4+  Ru96  1  0.49792951  0.00008685  0.00523615  1
  Ru4+  Ru97  1  0.49161612  -0.00523401  0.25490937  1
  Ru4+  Ru98  1  0.48602087  0.01462361  0.49764432  1
  Ru4+  Ru99  1  0.51310156  -0.00545425  0.73988912  1
  Ru4+  Ru100  1  0.48723054  0.32852600  -0.00106493  1
  Ru4+  Ru101  1  0.50005824  0.34906205  0.24261452  1
  Ru4+  Ru102  1  0.49123429  0.31518105  0.50332048  1
  Ru4+  Ru103  1  0.49892590  0.33410020  0.75122210  1
  Ru4+  Ru104  1  0.49969302  0.66391617  -0.01391367  1
  Ru4+  Ru105  1  0.50139560  0.66482708  0.25417627  1
  Ru4+  Ru106  1  0.50230702  0.66703405  0.51397609  1
  Ru4+  Ru107  1  0.50344548  0.68153932  0.74437951  1
  Ru4+  Ru108  1  0.10691267  0.16390150  -0.00528527  1
  Ru4+  Ru109  1  0.10740486  0.16818183  0.24663399  1
  Ru4+  Ru110  1  0.09827114  0.15959467  0.49110982  1
  Ru4+  Ru111  1  0.11003282  0.17597366  0.75461974  1
  Ru4+  Ru112  1  0.10949892  0.51069300  -0.00267226  1
  Ru4+  Ru113  1  0.10269492  0.49874563  0.25391706  1
  Ru4+  Ru114  1  0.11377857  0.48755927  0.49838299  1
  Ru4+  Ru115  1  0.11015933  0.50012243  0.75510302  1
  Ru4+  Ru116  1  0.10695820  0.83412983  0.00099785  1
  Ru4+  Ru117  1  0.09625525  0.83003697  0.25310849  1
  Ru4+  Ru118  1  0.11176585  0.83389258  0.49985347  1
  Ru4+  Ru119  1  0.11094292  0.83868564  0.74852068  1
  Ru4+  Ru120  1  0.61830241  0.15385084  -0.01251780  1
  Ru4+  Ru121  1  0.61708155  0.17215210  0.25366442  1
  Ru4+  Ru122  1  0.61121615  0.16828479  0.50328004  1
  Ru4+  Ru123  1  0.61453835  0.16541820  0.74711077  1
  Ru4+  Ru124  1  0.61002606  0.50139731  -0.00122205  1
  Ru4+  Ru125  1  0.60802039  0.48450773  0.25138193  1
  Ru4+  Ru126  1  0.61386023  0.49222412  0.50595800  1
  Ru4+  Ru127  1  0.61644661  0.49972347  0.75004942  1
  Ru4+  Ru128  1  0.60834630  0.82496267  -0.00026658  1
  Ru4+  Ru129  1  0.61395517  0.83633051  0.24872123  1
  Ru4+  Ru130  1  0.61078217  0.83454832  0.50838049  1
  Ru4+  Ru131  1  0.59712460  0.83991816  0.74289183  1
  Ru4+  Ru132  1  0.38054766  0.18659365  0.01024518  1
  Ru4+  Ru133  1  0.38861779  0.16647624  0.24088817  1
  Ru4+  Ru134  1  0.39300040  0.16777226  0.50396836  1
  Ru4+  Ru135  1  0.38640818  0.16057632  0.74931802  1
  Ru4+  Ru136  1  0.38441594  0.51255146  -0.00154313  1
  Ru4+  Ru137  1  0.38541063  0.50388662  0.25602471  1
  Ru4+  Ru138  1  0.38312156  0.49621733  0.50127042  1
  Ru4+  Ru139  1  0.38900176  0.50193044  0.75127038  1
  Ru4+  Ru140  1  0.39042102  0.84086176  0.00426896  1
  Ru4+  Ru141  1  0.38672073  0.83829524  0.25596542  1
  Ru4+  Ru142  1  0.38301503  0.84593842  0.51561529  1
  Ru4+  Ru143  1  0.39601116  0.84313876  0.73875161  1
  Ru4+  Ru144  1  0.89194920  0.16985429  0.00215748  1
  Ru4+  Ru145  1  0.88669847  0.16868423  0.25195212  1
  Ru4+  Ru146  1  0.89042370  0.16083668  0.48970314  1
  Ru4+  Ru147  1  0.89149632  0.17227751  0.75139196  1
  Ru4+  Ru148  1  0.89567183  0.50230279  0.01041653  1
  Ru4+  Ru149  1  0.89153552  0.50864653  0.24775688  1
  Ru4+  Ru150  1  0.88925613  0.49631566  0.49619078  1
  Ru4+  Ru151  1  0.89144990  0.49202667  0.75653919  1
  Ru4+  Ru152  1  0.89392812  0.83313894  0.01063071  1
  Ru4+  Ru153  1  0.89454214  0.83628439  0.24995938  1
  Ru4+  Ru154  1  0.89416122  0.83617520  0.49765863  1
  Ru4+  Ru155  1  0.88631674  0.83118838  0.74198652  1
  Ru4+  Ru156  1  0.74767556  0.72404601  0.71856204  1
  Ru4+  Ru157  1  0.24620147  0.40020544  0.26136845  1
  Ru4+  Ru158  1  0.75084569  0.58620701  0.48818307  1
  Ru4+  Ru159  1  0.24954421  0.07900095  0.26095146  1
  Ru4+  Ru160  1  0.24958408  0.43003114  0.75789499  1
  Ru4+  Ru161  1  0.75104713  0.41256017  0.71256488  1
  Ru4+  Ru162  1  0.75100173  0.39165266  0.04451724  1
  Ru4+  Ru163  1  0.24152874  0.25389959  -0.02018195  1
  Ru4+  Ru164  1  0.75306531  0.92642903  0.26765036  1
  Ru4+  Ru165  1  0.75138971  0.01157040  -0.06450108  1
  Ru4+  Ru166  1  0.75157942  0.24340069  0.50496486  1
  Ru4+  Ru167  1  0.24722887  0.93213740  0.26631159  1
  Ru4+  Ru168  1  0.75157413  0.77057043  0.01146913  1
  Ru4+  Ru169  1  0.75275130  0.61588564  0.03398565  1
  Ru4+  Ru170  1  0.24932858  0.25348297  0.26362473  1
  Ru4+  Ru171  1  0.25281312  0.24371658  0.75345626  1
  Ru4+  Ru172  1  0.75084767  0.09992467  0.26082661  1
  Ru4+  Ru173  1  0.75070518  0.56398126  0.71583467  1
  Ru4+  Ru174  1  0.75226303  0.27060955  -0.03809565  1
  Ru4+  Ru175  1  0.24802705  0.57794858  0.49435432  1
  Ru4+  Ru176  1  0.24916893  0.08347742  0.00161451  1
  Ru4+  Ru177  1  0.75275032  1.00942626  0.75949842  1
  Ru4+  Ru178  1  0.24928312  0.92704225  0.74120139  1
  Ru4+  Ru179  1  0.25100682  0.72331434  0.01353490  1
  O2-  O180  1  0.16392978  0.07922700  0.00383939  1
  O2-  O181  1  0.16222237  0.08327728  0.24999286  1
  O2-  O182  1  0.16230040  0.08608312  0.50310774  1
  O2-  O183  1  0.15841708  0.08867755  0.75151315  1
  O2-  O184  1  0.15508135  0.41600131  0.00356429  1
  O2-  O185  1  0.16355059  0.41323730  0.24596873  1
  O2-  O186  1  0.17137286  0.41466116  0.48610367  1
  O2-  O187  1  0.16353525  0.41630793  0.75059661  1
  O2-  O188  1  0.16991292  0.74932086  0.00241998  1
  O2-  O189  1  0.15690846  0.75048048  0.24600398  1
  O2-  O190  1  0.15923563  0.74788362  0.49698470  1
  O2-  O191  1  0.15797536  0.74638674  0.75009515  1
  O2-  O192  1  0.67422537  0.07313973  0.00303899  1
  O2-  O193  1  0.66655417  0.08081545  0.25193928  1
  O2-  O194  1  0.66214434  0.08237046  0.49376191  1
  O2-  O195  1  0.67530141  0.07963956  0.74826220  1
  O2-  O196  1  0.66564555  0.41545936  -0.00060746  1
  O2-  O197  1  0.67964231  0.42256083  0.25753376  1
  O2-  O198  1  0.66840449  0.41648316  0.49168151  1
  O2-  O199  1  0.67333417  0.41055701  0.75355217  1
  O2-  O200  1  0.67137188  0.75036095  0.00287437  1
  O2-  O201  1  0.66286187  0.74151055  0.25782729  1
  O2-  O202  1  0.66616701  0.74920018  0.49597199  1
  O2-  O203  1  0.66601270  0.75168272  0.75091368  1
  O2-  O204  1  0.31964038  0.25100886  -0.01326622  1
  O2-  O205  1  0.33491122  0.25398396  0.25538915  1
  O2-  O206  1  0.32974518  0.24667313  0.50251939  1
  O2-  O207  1  0.33465011  0.25433772  0.75458736  1
  O2-  O208  1  0.32403760  0.58130033  0.00359710  1
  O2-  O209  1  0.33155954  0.59052997  0.24040398  1
  O2-  O210  1  0.33018082  0.58456499  0.49805042  1
  O2-  O211  1  0.33909230  0.58395810  0.74992395  1
  O2-  O212  1  0.33908555  0.92676462  0.00478935  1
  O2-  O213  1  0.32969420  0.91991669  0.24565076  1
  O2-  O214  1  0.32497506  0.91072916  0.49603879  1
  O2-  O215  1  0.33116167  0.91909716  0.75127290  1
  O2-  O216  1  0.83426248  0.25267492  -0.00452485  1
  O2-  O217  1  0.83662260  0.25055259  0.24395574  1
  O2-  O218  1  0.83651034  0.24981058  0.50047622  1
  O2-  O219  1  0.83591133  0.25461357  0.75184069  1
  O2-  O220  1  0.83543379  0.59294972  0.00733898  1
  O2-  O221  1  0.83558669  0.59033762  0.24472372  1
  O2-  O222  1  0.83560711  0.58482483  0.49551270  1
  O2-  O223  1  0.83960188  0.57687739  0.74658589  1
  O2-  O224  1  0.84879578  0.92101156  -0.00468204  1
  O2-  O225  1  0.83741548  0.91929113  0.25236539  1
  O2-  O226  1  0.83244534  0.92065800  0.50131866  1
  O2-  O227  1  0.83274814  0.92575526  0.74883395  1
  O2-  O228  1  0.15915274  0.25432572  -0.00232874  1
  O2-  O229  1  0.16420763  0.25314015  0.25374253  1
  O2-  O230  1  0.16345702  0.24394952  0.49311800  1
  O2-  O231  1  0.17344106  0.25255094  0.76480625  1
  O2-  O232  1  0.17112919  0.58088768  0.01551153  1
  O2-  O233  1  0.15905577  0.58793680  0.24231622  1
  O2-  O234  1  0.16100512  0.58131435  0.49384864  1
  O2-  O235  1  0.16717258  0.57970748  0.74806592  1
  O2-  O236  1  0.15725604  0.92340513  0.00436996  1
  O2-  O237  1  0.16197785  0.91203502  0.24126387  1
  O2-  O238  1  0.16093304  0.91649983  0.50106857  1
  O2-  O239  1  0.16676988  0.91992118  0.75270311  1
  O2-  O240  1  0.67171143  0.24783515  -0.01377980  1
  O2-  O241  1  0.67267846  0.24823988  0.24353799  1
  O2-  O242  1  0.66969688  0.25169414  0.49167299  1
  O2-  O243  1  0.66944862  0.24995066  0.75362081  1
  O2-  O244  1  0.67098012  0.59143883  0.00279122  1
  O2-  O245  1  0.66143060  0.57930680  0.25312783  1
  O2-  O246  1  0.66736195  0.58307506  0.49465243  1
  O2-  O247  1  0.66693986  0.58410678  0.74362544  1
  O2-  O248  1  0.64921242  0.91757814  -0.00423175  1
  O2-  O249  1  0.66965966  0.91803062  0.25544983  1
  O2-  O250  1  0.67260734  0.91520350  0.49001588  1
  O2-  O251  1  0.66124753  0.91901734  0.74606774  1
  O2-  O252  1  0.33751158  0.08578995  0.00360908  1
  O2-  O253  1  0.33518887  0.07996314  0.25188280  1
  O2-  O254  1  0.33236676  0.08786441  0.50255154  1
  O2-  O255  1  0.32928185  0.08973715  0.75889624  1
  O2-  O256  1  0.33715422  0.42357639  0.00342037  1
  O2-  O257  1  0.32733944  0.41875160  0.25922177  1
  O2-  O258  1  0.33289921  0.41342965  0.49660311  1
  O2-  O259  1  0.33257647  0.41518199  0.75413738  1
  O2-  O260  1  0.33256450  0.74859396  0.00231171  1
  O2-  O261  1  0.33564905  0.74972775  0.25429050  1
  O2-  O262  1  0.34611267  0.74781165  0.49821736  1
  O2-  O263  1  0.34765935  0.74542522  0.74874988  1
  O2-  O264  1  0.83209755  0.07749892  -0.00497827  1
  O2-  O265  1  0.83655253  0.08251162  0.25071425  1
  O2-  O266  1  0.83507409  0.08090728  0.50433383  1
  O2-  O267  1  0.82603857  0.07889322  0.74717783  1
  O2-  O268  1  0.83404107  0.41619288  -0.00084878  1
  O2-  O269  1  0.83723094  0.41242381  0.24319657  1
  O2-  O270  1  0.83654301  0.41612173  0.49974889  1
  O2-  O271  1  0.83020640  0.40721043  0.74844031  1
  O2-  O272  1  0.83444403  0.75276730  0.00303343  1
  O2-  O273  1  0.84523107  0.74457532  0.25212633  1
  O2-  O274  1  0.83832500  0.74791350  0.49780420  1
  O2-  O275  1  0.82857603  0.74270940  0.74831522  1
  O2-  O276  1  0.94849276  0.42086673  0.50836068  1
  O2-  O277  1  0.95820305  0.43488073  0.25011939  1
  O2-  O278  1  0.93365517  0.76286503  0.80822255  1
  O2-  O279  1  0.54739728  0.76838501  0.79851446  1
  O2-  O280  1  0.03340076  0.87379497  0.19080570  1
  O2-  O281  1  0.44989209  0.76739680  0.74248628  1
  O2-  O282  1  0.45983521  0.57091000  0.73756408  1
  O2-  O283  1  0.04643712  0.23594711  0.24316519  1
  O2-  O284  1  0.46286001  0.20903338  0.99678732  1
  O2-  O285  1  0.04534320  0.57002301  0.75723229  1
  O2-  O286  1  0.55571265  0.91972965  0.49384283  1
  O2-  O287  1  0.95672387  0.57327822  0.50520966  1
  O2-  O288  1  0.45913659  0.20200670  -0.00480932  1
  O2-  O289  1  0.43699172  0.24591105  0.43086135  1
  O2-  O290  1  0.04687555  0.44157837  0.44482728  1
  O2-  O291  1  0.54659195  0.76465659  0.24951929  1
  O2-  O292  1  0.56338120  0.22263677  0.00866588  1
  O2-  O293  1  0.03077963  0.23862545  0.79316602  1
  O2-  O294  1  0.04721919  0.09477936  0.77701963  1
  O2-  O295  1  0.05324064  0.75785671  0.01519948  1
  O2-  O296  1  0.54812788  0.75856519  0.24123919  1
  O2-  O297  1  0.52974966  0.47016937  0.26300183  1
  O2-  O298  1  0.44797325  0.23775103  0.76332786  1
  O2-  O299  1  0.56044218  0.41812216  0.73597182  1
  O2-  O300  1  0.56081539  0.25238608  0.76773859  1
  O2-  O301  1  0.03490803  0.80349928  0.75307140  1
  O2-  O302  1  0.53649101  0.88582140  0.68952594  1
  O2-  O303  1  0.54416590  0.09455554  0.76707336  1
  O2-  O304  1  0.03984799  0.09603751  0.56271646  1
  O2-  O305  1  0.55047871  0.08851442  0.23934342  1
  O2-  O306  1  0.44877063  0.41973937  0.50367446  1
  O2-  O307  1  0.44398288  0.41868626  0.72592778  1
  O2-  O308  1  0.02962087  0.80906031  0.75087166  1
  O2-  O309  1  0.55251852  0.75608516  0.51154218  1
  O2-  O310  1  0.05232073  0.24883483  0.50187846  1
  O2-  O311  1  0.45032565  0.76097177  0.99616097  1
  O2-  O312  1  0.55596239  0.46687699  0.43857304  1
  O2-  O313  1  0.94749133  0.23190613  0.49096608  1
  O2-  O314  1  0.54997339  0.09850543  0.76913891  1
  O2-  O315  1  0.04105880  0.90029318  0.48802772  1
  O2-  O316  1  0.46015573  0.51004910  0.96631910  1
  O2-  O317  1  0.52889601  0.46151089  0.26116258  1
  O2-  O318  1  0.55832539  0.92390404  0.21562968  1
  O2-  O319  1  0.54937539  0.23208587  0.45840458  1
  O2-  O320  1  0.45250655  0.89469778  0.20659934  1
  O2-  O321  1  0.46019125  0.82968865  0.51188607  1
  O2-  O322  1  0.94935793  0.75282890  0.02058260  1
  O2-  O323  1  0.54723547  0.08876371  0.51027046  1
  O2-  O324  1  0.06379859  0.94252714  0.70066267  1
  O2-  O325  1  0.43326993  0.06666302  0.72598431  1
  O2-  O326  1  0.56719163  0.01413559  0.65142045  1
  O2-  O327  1  0.93867279  0.08073141  0.01704374  1
  O2-  O328  1  0.59762774  0.38501703  0.20541686  1
  O2-  O329  1  0.44282192  0.23985972  0.44645863  1
  O2-  O330  1  0.43662509  0.74597403  0.22204346  1
  O2-  O331  1  0.06882700  0.71486074  0.85715910  1
  O2-  O332  1  0.06880249  0.06507103  0.42598799  1
  O2-  O333  1  0.94040743  0.05869622  0.46962554  1
  O2-  O334  1  0.06883257  0.94151961  0.31310013  1
  O2-  O335  1  0.58931601  0.23728530  0.59239617  1
  O2-  O336  1  0.42512858  0.91574924  0.82476960  1
  O2-  O337  1  0.43907397  0.09273744  0.57083425  1
  O2-  O338  1  0.43050986  0.91131346  0.66817857  1
  O2-  O339  1  0.55624334  0.42514696  0.73685788  1
  O2-  O340  1  0.05561684  0.73692551  0.18272301  1
  O2-  O341  1  0.43663104  0.59501112  0.27564320  1
  O2-  O342  1  0.94181765  0.92066016  0.70728286  1
  O2-  O343  1  0.06305575  0.75220735  0.33370704  1
  O2-  O344  1  0.43719611  0.59038063  0.51301180  1
  O2-  O345  1  0.42854479  0.94926431  0.32852649  1
  O2-  O346  1  0.43010391  0.41679131  0.22938179  1
  O2-  O347  1  0.57992164  0.74421134  0.08300038  1
  O2-  O348  1  0.55581960  0.25476446  0.26724370  1
  O2-  O349  1  0.08990402  0.25544186  0.67452689  1
  O2-  O350  1  0.42408526  0.60103249  0.05562024  1
  O2-  O351  1  0.93590658  0.72834804  0.63084908  1
  O2-  O352  1  0.43153679  0.07950021  0.42411843  1
  O2-  O353  1  0.93824514  0.75688875  0.80565432  1
  O2-  O354  1  0.56134590  0.58575726  0.96830439  1
  O2-  O355  1  0.05322251  0.60231511  0.08913837  1
  O2-  O356  1  0.56452075  0.06446939  0.97336227  1
  O2-  O357  1  0.93851204  0.08075840  0.78214881  1
  O2-  O358  1  0.42669252  0.26628302  0.59633612  1
  O2-  O359  1  0.93257655  0.42505438  0.67866154  1
  O2-  O360  1  0.57518002  0.40976933  0.56753285  1
  O2-  O361  1  0.56218154  0.74181660  0.93774373  1
  O2-  O362  1  0.93706650  0.41963716  0.82769231  1
  O2-  O363  1  0.41858587  0.95932911  0.52137025  1
  O2-  O364  1  0.08554856  0.41280912  0.58460097  1
  O2-  O365  1  0.56644311  0.70515423  0.67790409  1
  O2-  O366  1  0.04038461  0.57618686  0.75475870  1
  O2-  O367  1  0.40220623  0.30682415  0.02598141  1
  O2-  O368  1  0.56432854  0.93308530  0.82407109  1
  O2-  O369  1  0.05399345  0.70625415  0.62072509  1
  O2-  O370  1  0.06262732  0.58096163  0.93939739  1
  O2-  O371  1  0.56478195  0.59224705  0.54275199  1
  O2-  O372  1  0.25072981  0.67491365  0.57172140  1
  O2-  O373  1  0.24899803  0.66095552  0.35193182  1
  O2-  O374  1  0.75178863  0.68443528  0.13764616  1
  O2-  O375  1  0.75308660  0.33176536  0.61514289  1
  O2-  O376  1  0.75124367  0.00957107  0.35894173  1
  O2-  O377  1  0.75105149  0.67701364  0.40363942  1
  O2-  O378  1  0.24750858  0.32649773  0.36665491  1
  O2-  O379  1  0.25392452  0.65280334  0.66111131  1
  O2-  O380  1  0.24844923  -0.00097183  0.14827509  1
  O2-  O381  1  0.75137406  0.01476928  0.18253613  1
  O2-  O382  1  0.24924481  0.01100904  0.83372997  1
  O2-  O383  1  0.75166315  0.63787796  0.80879068  1
  O2-  O384  1  0.25017995  -0.00794681  0.92490839  1
  O2-  O385  1  0.75154382  0.68108610  0.93218914  1
  O2-  O386  1  0.75121843  0.33605720  0.42261838  1
  O2-  O387  1  0.75047816  0.64072747  0.61035044  1
  O2-  O388  1  0.74984186  -0.01687648  0.04566600  1
  O2-  O389  1  0.75139416  0.33676272  0.33003526  1
  O2-  O390  1  0.25358723  0.67551829  0.83271979  1
  O2-  O391  1  0.24576238  0.33262250  0.88029445  1
  O2-  O392  1  0.24892163  0.01226726  0.37158856  1
  O2-  O393  1  0.24803422  0.01900279  0.66874898  1
  O2-  O394  1  0.25316850  0.64804444  0.91964494  1
  O2-  O395  1  0.24926258  0.01344547  0.57670080  1
  O2-  O396  1  0.24892139  0.49120755  0.84564647  1
  O2-  O397  1  0.25072024  0.48609523  0.42830403  1
  O2-  O398  1  0.74983315  0.16432664  0.58700942  1
  O2-  O399  1  0.75031439  0.83899431  0.10636856  1
  O2-  O400  1  0.24824504  0.48873094  0.58197203  1
  O2-  O401  1  0.24704211  0.86236819  0.62411096  1
  O2-  O402  1  0.24967192  0.16710385  0.19084440  1
  O2-  O403  1  0.24614185  0.49353845  0.34103535  1
  O2-  O404  1  0.25014046  0.50633498  0.66782408  1
  O2-  O405  1  0.24923117  0.84953876  0.85425421  1
  O2-  O406  1  0.75049655  0.51923110  0.38230388  1
  O2-  O407  1  0.25004010  0.18201805  0.65671049  1
  O2-  O408  1  0.75091063  0.83525403  0.91474617  1
  O2-  O409  1  0.24737763  0.16012654  0.90346576  1
  O2-  O410  1  0.75126451  0.18696419  0.33510471  1
  O2-  O411  1  0.75192703  0.17328305  0.88780174  1
  O2-  O412  1  0.75206454  0.48067324  0.46466453  1
  O2-  O413  1  0.24918690  0.16449569  0.35034062  1
  O2-  O414  1  0.75046193  0.81500401  0.62689151  1
  O2-  O415  1  0.75188778  0.48375944  0.80511221  1
  O2-  O416  1  0.24641616  0.17496634  0.06348773  1
  O2-  O417  1  0.24822772  0.85220674  0.35497748  1
  O2-  O418  1  0.75241253  0.16089026  0.42025305  1
  O2-  O419  1  0.74988868  0.51015861  0.09706402  1
  O2-  O420  1  0.98067244  0.32843275  0.36414961  1
  O2-  O421  1  0.97894385  -0.01088704  0.88455707  1
  O2-  O422  1  0.97437273  -0.00015876  0.13312679  1
  O2-  O423  1  0.96772631  0.66673473  0.36843789  1
  O2-  O424  1  0.01189999  0.34455522  0.64079882  1
  O2-  O425  1  0.96163897  0.30827307  0.60964475  1
  O2-  O426  1  0.95303318  0.33025152  0.12808571  1
  O2-  O427  1  0.51933809  0.34227523  0.38750053  1
  O2-  O428  1  0.47047478  0.01387721  0.12451717  1
  O2-  O429  1  0.47231680  0.67218444  0.62723424  1
  O2-  O430  1  0.52769522  -0.00581825  0.37331389  1
  O2-  O431  1  0.45352835  0.35364819  0.88273966  1
  O2-  O432  1  0.54732963  0.32640769  0.09354934  1
  O2-  O433  1  0.46681699  0.36442834  0.35216133  1
  O2-  O434  1  0.47147993  0.01987982  0.89675520  1
  O2-  O435  1  0.46207139  0.33124060  0.13444319  1
  O2-  O436  1  0.04767681  0.35374259  0.12054715  1
  O2-  O437  1  0.52764385  0.65841710  0.38096838  1
  O2-  O438  1  0.97760641  0.30702773  0.89976637  1
  O2-  O439  1  0.96930400  0.63994113  0.88697198  1
  O2-  O440  1  0.54719660  0.34469067  0.90870953  1
  O2-  O441  1  0.49587407  0.66350765  0.12432248  1
  O2-  O442  1  0.51134197  0.32441661  0.63092255  1
  O2-  O443  1  0.47265013  0.66210165  0.86786834  1
