# generated using pymatgen
data_La7(Ru4O11)2
_symmetry_space_group_name_H-M   'P 1'
_cell_length_a   23.99583164
_cell_length_b   16.83601234
_cell_length_c   15.43181678
_cell_angle_alpha   89.99542953
_cell_angle_beta   89.99759265
_cell_angle_gamma   89.99672958
_symmetry_Int_Tables_number   1
_chemical_formula_structural   La7(Ru4O11)2
_chemical_formula_sum   'La84 Ru96 O264'
_cell_volume   6234.36316724
_cell_formula_units_Z   12
loop_
 _symmetry_equiv_pos_site_id
 _symmetry_equiv_pos_as_xyz
  1  'x, y, z'
loop_
 _atom_type_symbol
 _atom_type_oxidation_number
  La3+  3.0
  Ru4+  4.0
  O2-  -2.0
loop_
 _atom_site_type_symbol
 _atom_site_label
 _atom_site_symmetry_multiplicity
 _atom_site_fract_x
 _atom_site_fract_y
 _atom_site_fract_z
 _atom_site_occupancy
  La3+  La0  1  0.14648850  -0.00121558  0.13044098  1
  La3+  La1  1  0.14350579  0.00813183  0.36755229  1
  La3+  La2  1  0.13371688  -0.00473713  0.62544046  1
  La3+  La3  1  0.13781437  -0.00252176  0.87970497  1
  La3+  La4  1  0.13407405  0.33615448  0.13516981  1
  La3+  La5  1  0.14400293  0.33580285  0.37222272  1
  La3+  La6  1  0.14150150  0.33788783  0.62060776  1
  La3+  La7  1  0.14320776  0.32497630  0.87708026  1
  La3+  La8  1  0.15233945  0.66799099  0.12563176  1
  La3+  La9  1  0.13967334  0.66311430  0.37907470  1
  La3+  La10  1  0.13488611  0.66413022  0.62495656  1
  La3+  La11  1  0.14544166  0.67604298  0.87557378  1
  La3+  La12  1  0.63647505  0.00882450  0.13449921  1
  La3+  La13  1  0.63554399  0.00276589  0.37099010  1
  La3+  La14  1  0.62999530  0.00434615  0.62698160  1
  La3+  La15  1  0.63843521  -0.00618208  0.86942635  1
  La3+  La16  1  0.65085300  0.33365483  0.12125810  1
  La3+  La17  1  0.63716056  0.33503054  0.37712837  1
  La3+  La18  1  0.64061065  0.33720123  0.63025107  1
  La3+  La19  1  0.65322667  0.33692754  0.88228777  1
  La3+  La20  1  0.64215509  0.66070710  0.12599812  1
  La3+  La21  1  0.63354932  0.66505273  0.37034312  1
  La3+  La22  1  0.63139071  0.66550474  0.62034849  1
  La3+  La23  1  0.64150396  0.66192734  0.87750659  1
  La3+  La24  1  0.35301773  -0.00546523  0.12648870  1
  La3+  La25  1  0.36048583  0.00506529  0.36556420  1
  La3+  La26  1  0.36475130  -0.00145328  0.62568880  1
  La3+  La27  1  0.36859800  -0.00084068  0.87493652  1
  La3+  La28  1  0.36498313  0.33307131  0.12892715  1
  La3+  La29  1  0.35011609  0.32511688  0.36959945  1
  La3+  La30  1  0.34439709  0.33871251  0.62173428  1
  La3+  La31  1  0.36871329  0.33068908  0.87615868  1
  La3+  La32  1  0.35211228  0.67129418  0.12177834  1
  La3+  La33  1  0.35763069  0.65618848  0.37674538  1
  La3+  La34  1  0.36804419  0.65904895  0.61311360  1
  La3+  La35  1  0.35760330  0.66983266  0.88227214  1
  La3+  La36  1  0.86280912  -0.00234175  0.13053808  1
  La3+  La37  1  0.86619705  -0.00019006  0.37162052  1
  La3+  La38  1  0.86188385  0.00211730  0.62225759  1
  La3+  La39  1  0.86049309  -0.00235884  0.87560246  1
  La3+  La40  1  0.85148280  0.33149270  0.12102934  1
  La3+  La41  1  0.86091801  0.33270605  0.37381896  1
  La3+  La42  1  0.85534796  0.33438803  0.62732471  1
  La3+  La43  1  0.84763812  0.33907367  0.88025867  1
  La3+  La44  1  0.85214083  0.66279301  0.12483728  1
  La3+  La45  1  0.86650930  0.67038296  0.36871742  1
  La3+  La46  1  0.86374853  0.66963093  0.62514936  1
  La3+  La47  1  0.86065124  0.66312127  0.87652793  1
  La3+  La48  1  0.49550722  0.17362533  0.64108738  1
  La3+  La49  1  0.00187430  0.48819073  0.37101307  1
  La3+  La50  1  -0.00304340  0.16747377  0.12931941  1
  La3+  La51  1  0.50013640  0.50673203  0.86836508  1
  La3+  La52  1  0.50022633  0.15794511  0.89372456  1
  La3+  La53  1  0.00397282  0.49173946  0.87343651  1
  La3+  La54  1  0.49994246  0.16647786  0.36938255  1
  La3+  La55  1  -0.00483773  0.81158183  0.63733855  1
  La3+  La56  1  -0.01212295  0.50981759  0.12567883  1
  La3+  La57  1  0.00071605  0.17130144  0.86506549  1
  La3+  La58  1  0.50608576  0.84446473  0.11764639  1
  La3+  La59  1  0.00083613  0.83584731  0.14014220  1
  La3+  La60  1  -0.00849073  0.49113378  0.62002692  1
  La3+  La61  1  -0.00283664  0.16864074  0.61661339  1
  La3+  La62  1  0.00236874  0.82767064  0.11937607  1
  La3+  La63  1  0.50347570  0.50060883  0.36941668  1
  La3+  La64  1  0.49954570  0.16958047  0.61982796  1
  La3+  La65  1  0.49888005  0.83969556  0.36861657  1
  La3+  La66  1  0.49266006  0.81863651  0.86306856  1
  La3+  La67  1  -0.00323368  0.50036341  0.60161633  1
  La3+  La68  1  0.49150607  0.17458707  0.13928848  1
  La3+  La69  1  -0.00162227  0.17324068  0.88726328  1
  La3+  La70  1  0.49938267  0.83488178  0.63124382  1
  La3+  La71  1  -0.00933534  0.50260528  0.14624553  1
  La3+  La72  1  0.74980540  0.48609535  0.02035566  1
  La3+  La73  1  0.25126758  0.14539780  0.53924026  1
  La3+  La74  1  0.75109289  0.12358816  0.24815977  1
  La3+  La75  1  0.75040272  0.84820279  0.46417719  1
  La3+  La76  1  0.74890802  0.54019081  0.49864427  1
  La3+  La77  1  0.25176372  0.54104652  0.71529465  1
  La3+  La78  1  0.25037219  0.20457532  0.07005430  1
  La3+  La79  1  0.74985877  0.80779973  0.81676410  1
  La3+  La80  1  0.24936701  0.53908822  0.00624217  1
  La3+  La81  1  0.74873579  0.79296626  0.05948085  1
  La3+  La82  1  0.24897956  0.86898287  0.47244239  1
  La3+  La83  1  0.75321059  0.22709803  0.76541309  1
  Ru4+  Ru84  1  0.00273357  -0.00536429  0.00541246  1
  Ru4+  Ru85  1  -0.00164505  0.00696200  0.23784253  1
  Ru4+  Ru86  1  0.01725365  -0.00814502  0.50069425  1
  Ru4+  Ru87  1  0.00860166  -0.00678811  0.75032802  1
  Ru4+  Ru88  1  -0.00199195  0.33126584  0.01305652  1
  Ru4+  Ru89  1  0.00379224  0.32127560  0.24906984  1
  Ru4+  Ru90  1  0.00515022  0.31846260  0.47869868  1
  Ru4+  Ru91  1  -0.00476146  0.33753107  0.74761397  1
  Ru4+  Ru92  1  -0.00262589  0.66775185  -0.00627016  1
  Ru4+  Ru93  1  -0.00951115  0.68333266  0.25283274  1
  Ru4+  Ru94  1  0.00461497  0.68694155  0.50398765  1
  Ru4+  Ru95  1  0.00304126  0.65934814  0.75410777  1
  Ru4+  Ru96  1  0.50917769  0.00253187  0.00243119  1
  Ru4+  Ru97  1  0.49529858  -0.00474912  0.24846012  1
  Ru4+  Ru98  1  0.50853150  -0.01178848  0.49668373  1
  Ru4+  Ru99  1  0.49735005  -0.00694950  0.75824276  1
  Ru4+  Ru100  1  0.50276902  0.33402606  0.00962672  1
  Ru4+  Ru101  1  0.49435351  0.33463338  0.25482093  1
  Ru4+  Ru102  1  0.50649725  0.34098262  0.47739730  1
  Ru4+  Ru103  1  0.50308805  0.33975609  0.75981453  1
  Ru4+  Ru104  1  0.50072695  0.65933033  0.00664857  1
  Ru4+  Ru105  1  0.49755324  0.67041316  0.25371163  1
  Ru4+  Ru106  1  0.50286738  0.67148305  0.51015798  1
  Ru4+  Ru107  1  0.49990100  0.66410382  0.74895428  1
  Ru4+  Ru108  1  0.11489292  0.16866887  0.00335692  1
  Ru4+  Ru109  1  0.11256212  0.17315998  0.25451094  1
  Ru4+  Ru110  1  0.10684971  0.17003062  0.49319163  1
  Ru4+  Ru111  1  0.11288464  0.16545063  0.74744713  1
  Ru4+  Ru112  1  0.10920475  0.49661647  -0.00490737  1
  Ru4+  Ru113  1  0.11750910  0.50820869  0.25092210  1
  Ru4+  Ru114  1  0.11848432  0.50072234  0.49842899  1
  Ru4+  Ru115  1  0.11076731  0.50646896  0.76390537  1
  Ru4+  Ru116  1  0.11793274  0.83667381  -0.00193642  1
  Ru4+  Ru117  1  0.11393210  0.83480339  0.24841114  1
  Ru4+  Ru118  1  0.09745472  0.83493834  0.48644904  1
  Ru4+  Ru119  1  0.11686096  0.84273427  0.75712146  1
  Ru4+  Ru120  1  0.61075980  0.16592339  -0.00696679  1
  Ru4+  Ru121  1  0.61316420  0.17408796  0.25022647  1
  Ru4+  Ru122  1  0.61486046  0.16168128  0.49886085  1
  Ru4+  Ru123  1  0.61487148  0.17288883  0.75266160  1
  Ru4+  Ru124  1  0.60454822  0.50139184  0.00130298  1
  Ru4+  Ru125  1  0.61649737  0.49444354  0.25373871  1
  Ru4+  Ru126  1  0.61097202  0.50069003  0.50596425  1
  Ru4+  Ru127  1  0.61267550  0.49366009  0.74713187  1
  Ru4+  Ru128  1  0.60927556  0.84077573  0.00313481  1
  Ru4+  Ru129  1  0.61625270  0.83456731  0.24912815  1
  Ru4+  Ru130  1  0.61133011  0.83786096  0.49582773  1
  Ru4+  Ru131  1  0.61637457  0.82280007  0.75541798  1
  Ru4+  Ru132  1  0.38861512  0.16587764  0.00460529  1
  Ru4+  Ru133  1  0.38254019  0.16513510  0.24871161  1
  Ru4+  Ru134  1  0.39286564  0.16606950  0.49528155  1
  Ru4+  Ru135  1  0.38660342  0.17836334  0.75933342  1
  Ru4+  Ru136  1  0.39254257  0.50091231  -0.00412421  1
  Ru4+  Ru137  1  0.39039343  0.50367586  0.24653472  1
  Ru4+  Ru138  1  0.39169396  0.48388404  0.50086175  1
  Ru4+  Ru139  1  0.39127338  0.50346613  0.75588454  1
  Ru4+  Ru140  1  0.38506686  0.84265255  -0.00259077  1
  Ru4+  Ru141  1  0.38651721  0.83260480  0.25097809  1
  Ru4+  Ru142  1  0.39002535  0.83369899  0.50677756  1
  Ru4+  Ru143  1  0.38408528  0.82756327  0.74736735  1
  Ru4+  Ru144  1  0.88449632  0.16806806  0.00475272  1
  Ru4+  Ru145  1  0.89121537  0.16986553  0.25017907  1
  Ru4+  Ru146  1  0.88940262  0.16444075  0.49568032  1
  Ru4+  Ru147  1  0.89440969  0.15931655  0.74562121  1
  Ru4+  Ru148  1  0.89270428  0.50272467  -0.00600793  1
  Ru4+  Ru149  1  0.88327900  0.49666952  0.25749770  1
  Ru4+  Ru150  1  0.88834895  0.50417282  0.49242304  1
  Ru4+  Ru151  1  0.88908797  0.49764608  0.75480176  1
  Ru4+  Ru152  1  0.88753317  0.83157477  -0.00221079  1
  Ru4+  Ru153  1  0.88822896  0.82878598  0.25796530  1
  Ru4+  Ru154  1  0.88927750  0.83761388  0.49912353  1
  Ru4+  Ru155  1  0.89008833  0.83102109  0.74841527  1
  Ru4+  Ru156  1  0.74958429  0.99069846  0.50094162  1
  Ru4+  Ru157  1  0.25080913  0.74078613  0.76964749  1
  Ru4+  Ru158  1  0.25003703  0.72267166  0.49066804  1
  Ru4+  Ru159  1  0.24973938  0.40171742  0.78076708  1
  Ru4+  Ru160  1  0.75033547  0.27086883  0.26737966  1
  Ru4+  Ru161  1  0.74925365  0.57306187  0.25327098  1
  Ru4+  Ru162  1  0.74982536  0.69738687  0.71966670  1
  Ru4+  Ru163  1  0.25118418  0.42239608  0.23442942  1
  Ru4+  Ru164  1  0.24982882  0.27476834  0.47223445  1
  Ru4+  Ru165  1  0.74970106  0.94382579  0.73946532  1
  Ru4+  Ru166  1  0.75044796  0.95351790  0.00507635  1
  Ru4+  Ru167  1  0.25266253  0.39118658  0.00141853  1
  Ru4+  Ru168  1  0.75040085  0.23848151  0.48871938  1
  Ru4+  Ru169  1  0.25189331  0.92473567  0.75664566  1
  Ru4+  Ru170  1  0.24972472  0.76386160  0.24021310  1
  Ru4+  Ru171  1  0.75206184  0.39775379  0.49394687  1
  Ru4+  Ru172  1  0.75045839  0.70423247  0.48268410  1
  Ru4+  Ru173  1  0.74913391  0.08216544  0.75407955  1
  Ru4+  Ru174  1  0.75000221  0.56542372  0.73828566  1
  Ru4+  Ru175  1  0.25128209  0.05667788  -0.00838367  1
  Ru4+  Ru176  1  0.24783979  0.25324221  0.76113126  1
  Ru4+  Ru177  1  0.74981575  0.09364041  0.00793805  1
  Ru4+  Ru178  1  0.25130145  0.06957602  0.74613353  1
  Ru4+  Ru179  1  0.25072616  0.01691448  0.48103168  1
  O2-  O180  1  0.16533172  0.07907170  0.00453087  1
  O2-  O181  1  0.16631432  0.08792631  0.24629466  1
  O2-  O182  1  0.16507203  0.07886854  0.50428203  1
  O2-  O183  1  0.16573187  0.07798630  0.74961102  1
  O2-  O184  1  0.17377601  0.41405615  0.00777120  1
  O2-  O185  1  0.16869071  0.41922918  0.24671530  1
  O2-  O186  1  0.16264528  0.41541240  0.49889622  1
  O2-  O187  1  0.16386200  0.41720752  0.75358901  1
  O2-  O188  1  0.16024111  0.74704318  0.00449864  1
  O2-  O189  1  0.16542906  0.74814629  0.25196056  1
  O2-  O190  1  0.17036425  0.74854958  0.49154331  1
  O2-  O191  1  0.16795319  0.74846003  0.74871826  1
  O2-  O192  1  0.66793102  0.08220130  0.00138120  1
  O2-  O193  1  0.66261735  0.08263625  0.25618091  1
  O2-  O194  1  0.66718108  0.07736678  0.50162662  1
  O2-  O195  1  0.66592518  0.08308812  0.75244020  1
  O2-  O196  1  0.66238636  0.41797473  0.00269474  1
  O2-  O197  1  0.66306094  0.41110386  0.24947161  1
  O2-  O198  1  0.67146561  0.41428968  0.50280845  1
  O2-  O199  1  0.66642081  0.41746025  0.75021957  1
  O2-  O200  1  0.66063495  0.74870131  -0.00050905  1
  O2-  O201  1  0.65992250  0.74378863  0.25096431  1
  O2-  O202  1  0.66667792  0.74490048  0.49525486  1
  O2-  O203  1  0.66915139  0.74062014  0.74363703  1
  O2-  O204  1  0.33094460  0.25467935  -0.00053617  1
  O2-  O205  1  0.32951174  0.24714529  0.23855326  1
  O2-  O206  1  0.33347489  0.25136098  0.49913356  1
  O2-  O207  1  0.33044138  0.25761691  0.75975005  1
  O2-  O208  1  0.33759689  0.58768466  0.00259322  1
  O2-  O209  1  0.33707273  0.58396766  0.24969878  1
  O2-  O210  1  0.33994622  0.58098292  0.49956000  1
  O2-  O211  1  0.33897375  0.59015433  0.74691959  1
  O2-  O212  1  0.33295318  0.91863116  -0.00128401  1
  O2-  O213  1  0.33632151  0.91879868  0.24994220  1
  O2-  O214  1  0.33867063  0.92255968  0.49861513  1
  O2-  O215  1  0.33551371  0.92260839  0.75225856  1
  O2-  O216  1  0.83267356  0.24797085  -0.00206217  1
  O2-  O217  1  0.83312970  0.25062844  0.25185646  1
  O2-  O218  1  0.83324880  0.24864572  0.49901652  1
  O2-  O219  1  0.84706394  0.25153157  0.75089832  1
  O2-  O220  1  0.83492768  0.58685386  -0.00531784  1
  O2-  O221  1  0.83057087  0.58732179  0.25543403  1
  O2-  O222  1  0.83820160  0.59118897  0.49461213  1
  O2-  O223  1  0.83502201  0.58587153  0.74749054  1
  O2-  O224  1  0.83370184  0.92371535  0.00371647  1
  O2-  O225  1  0.83616723  0.91500779  0.25467856  1
  O2-  O226  1  0.83396823  0.92340818  0.49571309  1
  O2-  O227  1  0.83696455  0.92116070  0.75131098  1
  O2-  O228  1  0.17036999  0.25305842  0.00520194  1
  O2-  O229  1  0.17270860  0.24158584  0.23867230  1
  O2-  O230  1  0.16882305  0.25345845  0.50141569  1
  O2-  O231  1  0.16424233  0.25171245  0.74725563  1
  O2-  O232  1  0.15848250  0.58686223  -0.00022122  1
  O2-  O233  1  0.16627089  0.58948240  0.25463208  1
  O2-  O234  1  0.16680645  0.58684071  0.49738732  1
  O2-  O235  1  0.16418208  0.58747673  0.75133318  1
  O2-  O236  1  0.16504317  0.92137627  0.00023440  1
  O2-  O237  1  0.16290062  0.91840804  0.24955547  1
  O2-  O238  1  0.16010788  0.91830697  0.50771374  1
  O2-  O239  1  0.17318868  0.91725585  0.75049573  1
  O2-  O240  1  0.66312789  0.24500534  0.00254654  1
  O2-  O241  1  0.66814456  0.25302342  0.25264005  1
  O2-  O242  1  0.66982489  0.25077815  0.49991757  1
  O2-  O243  1  0.66428545  0.25846902  0.75207505  1
  O2-  O244  1  0.66484183  0.58348448  -0.00061661  1
  O2-  O245  1  0.66552481  0.58618918  0.25241046  1
  O2-  O246  1  0.65937554  0.59134335  0.49772673  1
  O2-  O247  1  0.66380284  0.58525005  0.74723162  1
  O2-  O248  1  0.67168080  0.92419352  0.00100390  1
  O2-  O249  1  0.66829122  0.92050353  0.25182053  1
  O2-  O250  1  0.66912369  0.92722314  0.49769677  1
  O2-  O251  1  0.66322651  0.91954461  0.74216869  1
  O2-  O252  1  0.33727347  0.07727292  -0.00136157  1
  O2-  O253  1  0.33075097  0.08085518  0.24373426  1
  O2-  O254  1  0.33684542  0.07508503  0.50118892  1
  O2-  O255  1  0.33866431  0.08302513  0.74820903  1
  O2-  O256  1  0.33505478  0.41370586  0.00133823  1
  O2-  O257  1  0.33506435  0.41703951  0.24593487  1
  O2-  O258  1  0.32596551  0.42641094  0.49428137  1
  O2-  O259  1  0.33443376  0.41710159  0.75877287  1
  O2-  O260  1  0.34097834  0.74992100  0.00237246  1
  O2-  O261  1  0.33309879  0.74832438  0.25165831  1
  O2-  O262  1  0.33142561  0.74578501  0.49587400  1
  O2-  O263  1  0.33279503  0.74398229  0.74824208  1
  O2-  O264  1  0.83228289  0.08025375  -0.00207409  1
  O2-  O265  1  0.83884904  0.07305659  0.25486781  1
  O2-  O266  1  0.83478747  0.07884743  0.49732084  1
  O2-  O267  1  0.83088214  0.08165150  0.75090360  1
  O2-  O268  1  0.83820592  0.41558967  0.00327550  1
  O2-  O269  1  0.83723404  0.41110139  0.25208566  1
  O2-  O270  1  0.83474415  0.41262731  0.49964300  1
  O2-  O271  1  0.84022416  0.41502979  0.74863846  1
  O2-  O272  1  0.83054008  0.74675080  -0.00708854  1
  O2-  O273  1  0.83305077  0.74650590  0.25981394  1
  O2-  O274  1  0.83285356  0.74275201  0.49451609  1
  O2-  O275  1  0.83061342  0.74339695  0.75093237  1
  O2-  O276  1  0.48177858  0.44630704  0.49438535  1
  O2-  O277  1  0.54889169  0.57838355  0.01385214  1
  O2-  O278  1  0.04552056  0.09777461  0.74278670  1
  O2-  O279  1  0.06112061  0.76492531  0.73332912  1
  O2-  O280  1  0.55127695  0.09808467  0.23849638  1
  O2-  O281  1  0.03562239  0.88944876  0.54275315  1
  O2-  O282  1  0.95259162  0.22881437  0.49116149  1
  O2-  O283  1  0.94532027  0.76296433  0.50615775  1
  O2-  O284  1  0.04678151  0.57798190  0.26586542  1
  O2-  O285  1  0.04324542  0.23297253  0.73448112  1
  O2-  O286  1  0.05267764  0.08965290  0.29788802  1
  O2-  O287  1  0.45360533  0.43332988  0.24292113  1
  O2-  O288  1  0.04420476  0.42661509  0.24129378  1
  O2-  O289  1  0.00623817  0.88716140  0.75693882  1
  O2-  O290  1  0.05127898  0.57505331  0.51241269  1
  O2-  O291  1  0.01035967  0.21461127  0.25739059  1
  O2-  O292  1  0.04791457  0.89258494  0.98259041  1
  O2-  O293  1  0.44670937  0.58516215  0.47334013  1
  O2-  O294  1  0.45013606  0.10209270  0.76706404  1
  O2-  O295  1  0.45269170  0.75861064  0.25606708  1
  O2-  O296  1  0.04100646  0.76520715  0.42756752  1
  O2-  O297  1  0.94776441  0.09681832  0.24569059  1
  O2-  O298  1  0.45176232  0.24645978  0.79880853  1
  O2-  O299  1  0.04530396  0.57586328  0.98031933  1
  O2-  O300  1  0.45060713  0.89923706  0.75668189  1
  O2-  O301  1  0.94919940  0.90215908  0.00528137  1
  O2-  O302  1  0.54590588  0.09119119  0.73722984  1
  O2-  O303  1  0.44965772  0.58318376  0.26691734  1
  O2-  O304  1  0.47898384  0.45135552  0.51249805  1
  O2-  O305  1  0.55400205  0.89622593  0.76205211  1
  O2-  O306  1  0.45186642  0.90232224  0.23408495  1
  O2-  O307  1  0.53738534  0.88395322  0.95711396  1
  O2-  O308  1  0.44768044  0.75603733  0.98071507  1
  O2-  O309  1  0.55515269  0.57143590  0.25580656  1
  O2-  O310  1  0.53943492  0.11906808  0.03820798  1
  O2-  O311  1  0.44373673  0.58048329  0.51173090  1
  O2-  O312  1  0.54478097  0.23764169  0.25664814  1
  O2-  O313  1  0.95080592  0.42218216  0.49421149  1
  O2-  O314  1  0.54741592  0.10288387  0.77413418  1
  O2-  O315  1  0.03461675  0.53878897  0.73470071  1
  O2-  O316  1  0.04491709  0.10031135  0.01294070  1
  O2-  O317  1  0.54407568  0.42554538  0.98074074  1
  O2-  O318  1  0.04783690  0.75738133  0.76530986  1
  O2-  O319  1  0.44992967  0.42678670  0.77320994  1
  O2-  O320  1  0.97010456  0.78418584  0.30060156  1
  O2-  O321  1  0.03376600  0.43803535  0.03246491  1
  O2-  O322  1  0.04416682  0.57031575  0.47519802  1
  O2-  O323  1  0.45100198  0.76022890  0.01952053  1
  O2-  O324  1  0.06719263  0.61997346  0.82533541  1
  O2-  O325  1  0.55936372  0.59433179  0.28553948  1
  O2-  O326  1  0.06752551  0.41795253  0.22964642  1
  O2-  O327  1  0.05551270  0.08487516  0.47141259  1
  O2-  O328  1  0.43226511  0.25812697  0.22125522  1
  O2-  O329  1  0.56111362  0.24340257  0.47030640  1
  O2-  O330  1  0.44009909  0.93612120  0.96797828  1
  O2-  O331  1  0.56013299  0.74771625  0.51809386  1
  O2-  O332  1  0.08587882  0.95470741  0.76993652  1
  O2-  O333  1  0.93402928  0.07413255  0.67446820  1
  O2-  O334  1  0.93486992  0.73411484  0.73600794  1
  O2-  O335  1  0.08638838  0.41243371  0.92743546  1
  O2-  O336  1  0.06149067  0.25312909  0.97037901  1
  O2-  O337  1  0.07012646  0.93843116  0.41983589  1
  O2-  O338  1  0.43935669  0.74595601  0.53872287  1
  O2-  O339  1  0.94287354  0.24862214  0.02110081  1
  O2-  O340  1  0.55914567  0.26190570  0.96013719  1
  O2-  O341  1  0.43967011  0.59992302  0.78080702  1
  O2-  O342  1  0.06602545  0.07525351  0.21016904  1
  O2-  O343  1  0.93794210  0.74049742  0.01712619  1
  O2-  O344  1  0.08534841  0.28427514  0.27351636  1
  O2-  O345  1  0.07791057  0.74659333  0.55633629  1
  O2-  O346  1  0.41114707  0.41378057  0.58426595  1
  O2-  O347  1  0.58170230  0.92920332  0.06855529  1
  O2-  O348  1  0.56209067  0.06542530  0.23806886  1
  O2-  O349  1  0.43904993  0.08000920  0.26913089  1
  O2-  O350  1  0.93976242  0.92451811  0.22941125  1
  O2-  O351  1  0.43891532  0.59104828  0.96312663  1
  O2-  O352  1  0.40855475  0.41748467  0.40806525  1
  O2-  O353  1  0.56231680  0.73543277  0.78666876  1
  O2-  O354  1  0.06889520  0.24542769  0.56970154  1
  O2-  O355  1  0.44117599  0.92312173  0.53986044  1
  O2-  O356  1  0.44099714  0.06934556  0.77517766  1
  O2-  O357  1  0.41224712  0.23741706  0.64899981  1
  O2-  O358  1  0.56588750  0.04969502  0.92389881  1
  O2-  O359  1  0.93173891  0.07765400  0.82973225  1
  O2-  O360  1  0.55810916  0.41354506  0.72879541  1
  O2-  O361  1  0.55912429  0.25431465  0.72471820  1
  O2-  O362  1  0.55901380  0.91960292  0.23395683  1
  O2-  O363  1  0.44399261  0.25197667  0.81522996  1
  O2-  O364  1  0.93374906  0.59042344  0.23746960  1
  O2-  O365  1  0.43957069  0.25485264  0.01842230  1
  O2-  O366  1  0.56847720  0.90647752  0.57367153  1
  O2-  O367  1  0.57641703  0.40962928  0.47524874  1
  O2-  O368  1  0.56141508  0.92763594  0.77751217  1
  O2-  O369  1  0.56432778  0.92341764  0.42122819  1
  O2-  O370  1  0.06658330  0.24306184  0.42791556  1
  O2-  O371  1  0.92308974  0.73926242  0.18502016  1
  O2-  O372  1  0.75011075  0.33480555  0.67593255  1
  O2-  O373  1  0.25018703  0.66305715  0.17461670  1
  O2-  O374  1  0.74883012  0.65302336  0.60304871  1
  O2-  O375  1  0.24835157  0.36894650  0.39887942  1
  O2-  O376  1  0.74915140  0.32623436  0.38939920  1
  O2-  O377  1  0.25169142  0.00714086  0.10154622  1
  O2-  O378  1  0.74787001  0.32295429  0.88327928  1
  O2-  O379  1  0.74959924  0.00478714  0.62509864  1
  O2-  O380  1  0.25233167  0.33713476  0.13726915  1
  O2-  O381  1  0.25018173  0.67474624  0.36180699  1
  O2-  O382  1  0.25098531  -0.00254884  0.36114782  1
  O2-  O383  1  0.25152822  -0.00150525  0.63779191  1
  O2-  O384  1  0.25013716  0.66522308  0.08214074  1
  O2-  O385  1  0.25166666  0.66457455  0.87710956  1
  O2-  O386  1  0.24828461  0.33355753  0.31551453  1
  O2-  O387  1  0.74884790  0.33896849  0.07967153  1
  O2-  O388  1  0.24559031  0.33736839  0.67991093  1
  O2-  O389  1  0.74990441  0.31631531  0.58528307  1
  O2-  O390  1  0.74847158  0.65661987  0.07958015  1
  O2-  O391  1  0.75052849  -0.00033808  0.86517752  1
  O2-  O392  1  0.24813705  0.35010008  0.55554100  1
  O2-  O393  1  0.74858256  0.67098426  0.17144140  1
  O2-  O394  1  0.75023215  0.34595024  0.17220526  1
  O2-  O395  1  0.74949068  0.67166203  0.85466045  1
  O2-  O396  1  0.75118194  0.47397436  0.80006872  1
  O2-  O397  1  0.24948856  0.84036073  0.91917810  1
  O2-  O398  1  0.75177804  0.86008535  0.93677144  1
  O2-  O399  1  0.25006202  0.80506855  0.59991854  1
  O2-  O400  1  0.24967831  0.82092192  0.33957105  1
  O2-  O401  1  0.74931418  0.50794708  0.35084696  1
  O2-  O402  1  0.24941402  0.15277271  0.94099674  1
  O2-  O403  1  0.75094998  0.84750795  0.67835752  1
  O2-  O404  1  0.25006298  0.16980578  0.67454228  1
  O2-  O405  1  0.74983828  0.82271982  0.59556794  1
  O2-  O406  1  0.24966597  0.15739092  0.81712769  1
  O2-  O407  1  0.25000661  0.47947138  0.87066470  1
  O2-  O408  1  0.74850225  0.82086641  0.33371422  1
  O2-  O409  1  0.75083072  0.15612973  0.10510240  1
  O2-  O410  1  0.74966158  0.83471934  0.25125469  1
  O2-  O411  1  0.75013494  0.50749354  0.16116480  1
  O2-  O412  1  0.24922415  0.81405672  0.13813620  1
  O2-  O413  1  0.25028821  0.49904398  0.15634049  1
  O2-  O414  1  0.25152539  0.82562222  0.68856220  1
  O2-  O415  1  0.25098112  0.83692037  0.83366682  1
  O2-  O416  1  0.75035808  0.18115174  0.38193623  1
  O2-  O417  1  0.25052230  0.18437989  0.39586003  1
  O2-  O418  1  0.24819847  0.50213596  0.59715801  1
  O2-  O419  1  0.75075767  0.50962779  0.87914497  1
  O2-  O420  1  0.04441011  0.33111215  0.83748255  1
  O2-  O421  1  0.50204376  0.00712819  0.12614698  1
  O2-  O422  1  0.95261608  0.33133107  0.35754773  1
  O2-  O423  1  0.48505198  0.32624356  0.63658228  1
  O2-  O424  1  0.02684021  0.00666475  0.62615346  1
  O2-  O425  1  0.54167320  0.35741728  0.35332447  1
  O2-  O426  1  0.95002034  0.33428816  0.87392953  1
  O2-  O427  1  0.95022013  0.32495210  0.63768971  1
  O2-  O428  1  0.51700531  0.01918483  0.61942764  1
  O2-  O429  1  0.48495074  0.34567542  0.12562761  1
  O2-  O430  1  0.04166454  0.65597129  0.64477207  1
  O2-  O431  1  0.52771186  0.66044891  0.63548879  1
  O2-  O432  1  0.04571098  0.37063948  0.64453259  1
  O2-  O433  1  0.04546691  -0.03062320  0.11910300  1
  O2-  O434  1  0.95237100  0.63836289  0.60390953  1
  O2-  O435  1  0.47429268  -0.00690537  0.38020330  1
  O2-  O436  1  0.04297327  0.37253860  0.38505200  1
  O2-  O437  1  0.04177674  0.31102479  0.12241822  1
  O2-  O438  1  0.01937195  0.01337094  0.88276514  1
  O2-  O439  1  0.94983547  0.35104757  0.14725683  1
  O2-  O440  1  0.99343854  0.65390334  0.12317660  1
  O2-  O441  1  0.45820425  0.29744932  0.36913775  1
  O2-  O442  1  0.53764693  0.33101931  0.59202815  1
  O2-  O443  1  0.95450674  0.02113704  0.10674489  1
