# generated using pymatgen
data_La7(Ru4O11)2
_symmetry_space_group_name_H-M   'P 1'
_cell_length_a   23.99519437
_cell_length_b   16.83666010
_cell_length_c   15.43104078
_cell_angle_alpha   90.00170336
_cell_angle_beta   89.99948165
_cell_angle_gamma   89.99982729
_symmetry_Int_Tables_number   1
_chemical_formula_structural   La7(Ru4O11)2
_chemical_formula_sum   'La84 Ru96 O264'
_cell_volume   6234.12398691
_cell_formula_units_Z   12
loop_
 _symmetry_equiv_pos_site_id
 _symmetry_equiv_pos_as_xyz
  1  'x, y, z'
loop_
 _atom_type_symbol
 _atom_type_oxidation_number
  La3+  3.0
  Ru4+  4.0
  O2-  -2.0
loop_
 _atom_site_type_symbol
 _atom_site_label
 _atom_site_symmetry_multiplicity
 _atom_site_fract_x
 _atom_site_fract_y
 _atom_site_fract_z
 _atom_site_occupancy
  La3+  La0  1  0.14752713  -0.00421741  0.13159308  1
  La3+  La1  1  0.15162624  -0.00426478  0.37128451  1
  La3+  La2  1  0.14485804  0.00128336  0.61466897  1
  La3+  La3  1  0.13290579  -0.00016990  0.87445887  1
  La3+  La4  1  0.14681747  0.34011959  0.13131737  1
  La3+  La5  1  0.14735768  0.33162739  0.37712926  1
  La3+  La6  1  0.13938633  0.32775623  0.62719918  1
  La3+  La7  1  0.12938612  0.34017506  0.87082603  1
  La3+  La8  1  0.13697872  0.66031368  0.12983670  1
  La3+  La9  1  0.13402659  0.67025755  0.37277484  1
  La3+  La10  1  0.14163882  0.67194974  0.62224102  1
  La3+  La11  1  0.13482946  0.66471720  0.88252031  1
  La3+  La12  1  0.63083190  0.00649643  0.12755365  1
  La3+  La13  1  0.64968192  0.01270120  0.37687689  1
  La3+  La14  1  0.64262950  0.00395155  0.62605626  1
  La3+  La15  1  0.63216648  0.00208174  0.87055050  1
  La3+  La16  1  0.63415427  0.32819694  0.13256569  1
  La3+  La17  1  0.64388161  0.33108534  0.37286926  1
  La3+  La18  1  0.66095271  0.33528423  0.62704904  1
  La3+  La19  1  0.63820339  0.32762372  0.87453079  1
  La3+  La20  1  0.64341042  0.66479696  0.12941260  1
  La3+  La21  1  0.64688455  0.66212531  0.38067278  1
  La3+  La22  1  0.63532793  0.67100991  0.62266605  1
  La3+  La23  1  0.64420597  0.66193148  0.87693266  1
  La3+  La24  1  0.35194220  -0.00227171  0.12649486  1
  La3+  La25  1  0.34751110  -0.00255632  0.37046037  1
  La3+  La26  1  0.35561389  -0.00160481  0.62211921  1
  La3+  La27  1  0.36668827  -0.00255571  0.88184912  1
  La3+  La28  1  0.35850887  0.33046744  0.12773420  1
  La3+  La29  1  0.34169276  0.32938120  0.37464378  1
  La3+  La30  1  0.36152534  0.33272116  0.62273667  1
  La3+  La31  1  0.36324252  0.33388977  0.87881661  1
  La3+  La32  1  0.35600371  0.66795336  0.12959054  1
  La3+  La33  1  0.34482111  0.67555421  0.37657130  1
  La3+  La34  1  0.35678402  0.66638548  0.62239475  1
  La3+  La35  1  0.35632005  0.66948363  0.87755920  1
  La3+  La36  1  0.86321752  0.00140627  0.13059014  1
  La3+  La37  1  0.85919126  0.00728703  0.37662917  1
  La3+  La38  1  0.85807026  0.00614956  0.61841266  1
  La3+  La39  1  0.86727111  0.00513626  0.87609957  1
  La3+  La40  1  0.86347899  0.32798724  0.13227877  1
  La3+  La41  1  0.86023470  0.32809686  0.37367153  1
  La3+  La42  1  0.85172030  0.33481935  0.62398801  1
  La3+  La43  1  0.85955013  0.32952187  0.87334412  1
  La3+  La44  1  0.87131248  0.66397118  0.13341680  1
  La3+  La45  1  0.85653545  0.66321485  0.37839599  1
  La3+  La46  1  0.86366014  0.67051827  0.62110219  1
  La3+  La47  1  0.85340732  0.67286127  0.87420402  1
  La3+  La48  1  0.51257857  0.48480033  0.12477192  1
  La3+  La49  1  0.50084201  0.16845523  0.63167431  1
  La3+  La50  1  0.49437107  0.51262006  0.89467972  1
  La3+  La51  1  0.51035303  0.47810006  0.12665896  1
  La3+  La52  1  -0.00011696  0.83305316  0.88990701  1
  La3+  La53  1  -0.00587642  0.82095308  0.87370970  1
  La3+  La54  1  -0.00000498  0.16602935  0.13634995  1
  La3+  La55  1  0.01054126  0.49543513  0.12914114  1
  La3+  La56  1  0.49821852  0.83352820  0.38361475  1
  La3+  La57  1  0.00966640  0.50138055  0.88563282  1
  La3+  La58  1  0.50184222  0.50917613  0.37307460  1
  La3+  La59  1  0.50263945  0.49559001  0.64180690  1
  La3+  La60  1  0.50401716  0.50432530  0.35747425  1
  La3+  La61  1  0.50083414  0.83808398  0.87746088  1
  La3+  La62  1  0.00106729  0.15539854  0.11669704  1
  La3+  La63  1  -0.00338859  0.50985210  0.35614401  1
  La3+  La64  1  0.00173647  0.49940942  0.86691891  1
  La3+  La65  1  0.49310107  0.15793466  0.35136994  1
  La3+  La66  1  -0.00237894  0.16659783  0.62673064  1
  La3+  La67  1  0.00646562  0.49421516  0.62147603  1
  La3+  La68  1  0.49872950  0.49456744  0.62016537  1
  La3+  La69  1  0.50437063  0.84793152  0.37008571  1
  La3+  La70  1  0.48044399  0.83290312  0.63340108  1
  La3+  La71  1  -0.00176421  0.14324143  0.38978508  1
  La3+  La72  1  0.74977428  0.15394481  -0.01343206  1
  La3+  La73  1  0.75040572  0.55115014  0.00489988  1
  La3+  La74  1  0.24954708  0.18037191  -0.01927328  1
  La3+  La75  1  0.25043270  0.16608026  0.25963457  1
  La3+  La76  1  0.74882415  0.88363839  0.01780999  1
  La3+  La77  1  0.24925385  0.83847621  0.48771453  1
  La3+  La78  1  0.25172515  0.24680223  0.75249268  1
  La3+  La79  1  0.24803971  0.48337126  0.25850939  1
  La3+  La80  1  0.24997443  0.80741918  0.75999321  1
  La3+  La81  1  0.25224015  0.45694859  0.53050304  1
  La3+  La82  1  0.75114602  0.83490441  0.27457487  1
  La3+  La83  1  0.74989886  0.84270440  0.77760756  1
  Ru4+  Ru84  1  0.00144959  0.00093088  0.00508837  1
  Ru4+  Ru85  1  -0.00382311  -0.00537862  0.25848560  1
  Ru4+  Ru86  1  0.00038502  -0.01257704  0.51095105  1
  Ru4+  Ru87  1  0.01375216  -0.00287888  0.74687100  1
  Ru4+  Ru88  1  -0.00134295  0.32201513  -0.00504602  1
  Ru4+  Ru89  1  0.00291882  0.32896025  0.25055902  1
  Ru4+  Ru90  1  0.00066526  0.33237960  0.48234005  1
  Ru4+  Ru91  1  -0.00266788  0.32386606  0.75344071  1
  Ru4+  Ru92  1  -0.00600930  0.67154949  0.00450150  1
  Ru4+  Ru93  1  0.00443335  0.67602670  0.24638172  1
  Ru4+  Ru94  1  -0.00581920  0.68496675  0.50055580  1
  Ru4+  Ru95  1  0.00514278  0.66917026  0.73823737  1
  Ru4+  Ru96  1  0.49693933  0.00136321  0.00079240  1
  Ru4+  Ru97  1  0.50211101  0.00305346  0.24068861  1
  Ru4+  Ru98  1  0.50576411  0.00046946  0.50475331  1
  Ru4+  Ru99  1  0.50465389  0.00405655  0.75358439  1
  Ru4+  Ru100  1  0.50415007  0.31892061  -0.00520462  1
  Ru4+  Ru101  1  0.49704260  0.31526264  0.25088573  1
  Ru4+  Ru102  1  0.50779122  0.32556140  0.50207391  1
  Ru4+  Ru103  1  0.50213619  0.32620582  0.74544886  1
  Ru4+  Ru104  1  0.49906205  0.67419903  -0.00353830  1
  Ru4+  Ru105  1  0.48971497  0.66967190  0.25238961  1
  Ru4+  Ru106  1  0.49670082  0.66023070  0.50719155  1
  Ru4+  Ru107  1  0.50526488  0.67090637  0.74839841  1
  Ru4+  Ru108  1  0.10988139  0.16173759  -0.00147839  1
  Ru4+  Ru109  1  0.10880702  0.17406837  0.24879988  1
  Ru4+  Ru110  1  0.11521705  0.17255276  0.49988942  1
  Ru4+  Ru111  1  0.10903907  0.16824637  0.74804431  1
  Ru4+  Ru112  1  0.11872978  0.49473010  0.00670911  1
  Ru4+  Ru113  1  0.11301713  0.50350819  0.25173472  1
  Ru4+  Ru114  1  0.10845976  0.49204703  0.51210699  1
  Ru4+  Ru115  1  0.11969317  0.50770866  0.74484925  1
  Ru4+  Ru116  1  0.11389695  0.83518352  0.00212274  1
  Ru4+  Ru117  1  0.11568554  0.83446985  0.25514069  1
  Ru4+  Ru118  1  0.10642592  0.83218985  0.50071196  1
  Ru4+  Ru119  1  0.10834661  0.84105800  0.74425959  1
  Ru4+  Ru120  1  0.60856360  0.16666038  -0.00214396  1
  Ru4+  Ru121  1  0.61235095  0.16915820  0.25075267  1
  Ru4+  Ru122  1  0.60736426  0.17992110  0.50464291  1
  Ru4+  Ru123  1  0.61235240  0.16906221  0.75236912  1
  Ru4+  Ru124  1  0.61419247  0.49820877  -0.00438176  1
  Ru4+  Ru125  1  0.62296692  0.50441900  0.25241694  1
  Ru4+  Ru126  1  0.61182743  0.49856996  0.49933717  1
  Ru4+  Ru127  1  0.61125046  0.49445205  0.74718289  1
  Ru4+  Ru128  1  0.60700714  0.82669612  0.01066183  1
  Ru4+  Ru129  1  0.61417946  0.83359009  0.25881315  1
  Ru4+  Ru130  1  0.61112975  0.83536799  0.49995116  1
  Ru4+  Ru131  1  0.60913192  0.82719708  0.74680045  1
  Ru4+  Ru132  1  0.39782497  0.16558172  0.00431295  1
  Ru4+  Ru133  1  0.39287415  0.16504811  0.25151494  1
  Ru4+  Ru134  1  0.38961043  0.16758433  0.50259789  1
  Ru4+  Ru135  1  0.39433809  0.16422967  0.74565900  1
  Ru4+  Ru136  1  0.38753775  0.50256722  -0.00307252  1
  Ru4+  Ru137  1  0.38054631  0.50212395  0.25689468  1
  Ru4+  Ru138  1  0.39931569  0.49973381  0.49841083  1
  Ru4+  Ru139  1  0.38485148  0.50026312  0.74862067  1
  Ru4+  Ru140  1  0.38927357  0.83600746  0.00186561  1
  Ru4+  Ru141  1  0.38027630  0.83004053  0.24402586  1
  Ru4+  Ru142  1  0.38855867  0.83322498  0.50188131  1
  Ru4+  Ru143  1  0.39062701  0.82939867  0.75352372  1
  Ru4+  Ru144  1  0.89714170  0.16876826  0.00308152  1
  Ru4+  Ru145  1  0.88068934  0.16848014  0.24718970  1
  Ru4+  Ru146  1  0.88972256  0.17096321  0.50847903  1
  Ru4+  Ru147  1  0.88623895  0.16768062  0.74906552  1
  Ru4+  Ru148  1  0.88994287  0.50458667  -0.00251734  1
  Ru4+  Ru149  1  0.88310613  0.49493109  0.25008772  1
  Ru4+  Ru150  1  0.88459204  0.50246870  0.50224907  1
  Ru4+  Ru151  1  0.88527292  0.49597122  0.75003206  1
  Ru4+  Ru152  1  0.89533907  0.83056956  -0.00222557  1
  Ru4+  Ru153  1  0.88833565  0.82986787  0.25319758  1
  Ru4+  Ru154  1  0.89741350  0.82116063  0.50060479  1
  Ru4+  Ru155  1  0.88821576  0.83565233  0.74612367  1
  Ru4+  Ru156  1  0.25228839  0.95168786  0.78431483  1
  Ru4+  Ru157  1  0.75038601  0.42633071  0.25936580  1
  Ru4+  Ru158  1  0.75175145  0.24532408  0.50110591  1
  Ru4+  Ru159  1  0.24969448  0.30975240  0.02849067  1
  Ru4+  Ru160  1  0.25030308  0.43942707  0.00141395  1
  Ru4+  Ru161  1  0.75019567  0.41778536  0.75736242  1
  Ru4+  Ru162  1  0.75140139  0.73213686  0.01683463  1
  Ru4+  Ru163  1  0.24893533  0.60235344  0.48412097  1
  Ru4+  Ru164  1  0.75148415  0.01751424  -0.00508187  1
  Ru4+  Ru165  1  0.75165283  0.28024414  0.04763265  1
  Ru4+  Ru166  1  0.75095622  0.40916445  -0.00823775  1
  Ru4+  Ru167  1  0.24981436  0.75793146  0.03297106  1
  Ru4+  Ru168  1  0.75148059  0.92085008  0.49843978  1
  Ru4+  Ru169  1  0.25058115  0.03769192  0.00663294  1
  Ru4+  Ru170  1  0.24672729  0.65871419  0.78052425  1
  Ru4+  Ru171  1  0.24913586  0.58716672  0.01009149  1
  Ru4+  Ru172  1  0.74998826  0.70534723  0.71856391  1
  Ru4+  Ru173  1  0.25114112  0.08751569  0.74364915  1
  Ru4+  Ru174  1  0.75011826  0.57051354  0.75907169  1
  Ru4+  Ru175  1  0.74990327  0.67431216  0.25828150  1
  Ru4+  Ru176  1  0.24982536  0.42763797  0.75281821  1
  Ru4+  Ru177  1  0.25140873  0.09105054  0.49048282  1
  Ru4+  Ru178  1  0.75074301  0.98720815  0.25442227  1
  Ru4+  Ru179  1  0.75076760  0.99069432  0.75594749  1
  O2-  O180  1  0.16530029  0.07716577  -0.00106858  1
  O2-  O181  1  0.16114509  0.08663606  0.25066519  1
  O2-  O182  1  0.16757474  0.08373735  0.49380656  1
  O2-  O183  1  0.16605546  0.08331972  0.75545372  1
  O2-  O184  1  0.16855994  0.41260360  -0.00570950  1
  O2-  O185  1  0.16315537  0.41642909  0.25421781  1
  O2-  O186  1  0.16610753  0.40887977  0.49951801  1
  O2-  O187  1  0.16788075  0.41463314  0.75459611  1
  O2-  O188  1  0.17052226  0.74784153  0.00316704  1
  O2-  O189  1  0.15909499  0.74540687  0.24980637  1
  O2-  O190  1  0.16472995  0.74846836  0.49508398  1
  O2-  O191  1  0.16353406  0.74563908  0.75443711  1
  O2-  O192  1  0.66114773  0.07874076  0.00090328  1
  O2-  O193  1  0.66444462  0.08031500  0.24282027  1
  O2-  O194  1  0.65646975  0.08743672  0.50545119  1
  O2-  O195  1  0.66519482  0.07944122  0.75388049  1
  O2-  O196  1  0.66832722  0.41449815  0.00034455  1
  O2-  O197  1  0.66917990  0.41232083  0.24613463  1
  O2-  O198  1  0.66091423  0.41598304  0.49237735  1
  O2-  O199  1  0.67185812  0.41683233  0.76289629  1
  O2-  O200  1  0.66910404  0.74731822  0.00518201  1
  O2-  O201  1  0.67302322  0.74545618  0.25014767  1
  O2-  O202  1  0.66121312  0.75207183  0.50411858  1
  O2-  O203  1  0.67156076  0.73967364  0.74425606  1
  O2-  O204  1  0.33822757  0.25155650  -0.00090379  1
  O2-  O205  1  0.33860575  0.24958089  0.24902622  1
  O2-  O206  1  0.34015271  0.25130737  0.50415914  1
  O2-  O207  1  0.34772151  0.25749781  0.74995527  1
  O2-  O208  1  0.33228983  0.58567151  0.00653203  1
  O2-  O209  1  0.32637174  0.58518719  0.24794624  1
  O2-  O210  1  0.33280332  0.58442770  0.50165179  1
  O2-  O211  1  0.33539845  0.58609811  0.75383083  1
  O2-  O212  1  0.33293209  0.91450720  -0.00046573  1
  O2-  O213  1  0.33958611  0.92092575  0.24846679  1
  O2-  O214  1  0.34088029  0.92091673  0.49953467  1
  O2-  O215  1  0.33474937  0.92430152  0.75523707  1
  O2-  O216  1  0.83490761  0.25533775  0.00370620  1
  O2-  O217  1  0.83220831  0.25425022  0.24459073  1
  O2-  O218  1  0.83369228  0.25338244  0.49848735  1
  O2-  O219  1  0.83693451  0.25231505  0.75561545  1
  O2-  O220  1  0.83845078  0.59061731  0.00927594  1
  O2-  O221  1  0.83294805  0.58668734  0.24605768  1
  O2-  O222  1  0.83576060  0.58683647  0.50202581  1
  O2-  O223  1  0.83376702  0.58319067  0.75115439  1
  O2-  O224  1  0.84437268  0.92447360  -0.00373474  1
  O2-  O225  1  0.83120378  0.91858570  0.24712436  1
  O2-  O226  1  0.83797241  0.91791581  0.49924039  1
  O2-  O227  1  0.83481914  0.92352595  0.75548956  1
  O2-  O228  1  0.16171390  0.25666377  -0.00202835  1
  O2-  O229  1  0.16971380  0.24950648  0.25378503  1
  O2-  O230  1  0.16829417  0.25211089  0.50301486  1
  O2-  O231  1  0.15876166  0.25871348  0.76148988  1
  O2-  O232  1  0.16663710  0.58885094  0.00273576  1
  O2-  O233  1  0.17086035  0.58662992  0.25558214  1
  O2-  O234  1  0.16387096  0.58518061  0.49896198  1
  O2-  O235  1  0.16852098  0.59351534  0.75430303  1
  O2-  O236  1  0.16202220  0.91923276  -0.00406601  1
  O2-  O237  1  0.16802481  0.91392221  0.24798062  1
  O2-  O238  1  0.16397222  0.91585437  0.49667510  1
  O2-  O239  1  0.17414667  0.91705734  0.76349423  1
  O2-  O240  1  0.67073857  0.25561677  0.00365073  1
  O2-  O241  1  0.66481815  0.25152307  0.24731749  1
  O2-  O242  1  0.67196138  0.24713538  0.48855423  1
  O2-  O243  1  0.66539495  0.24952657  0.75803462  1
  O2-  O244  1  0.66172801  0.58943039  0.00467040  1
  O2-  O245  1  0.67460372  0.59087125  0.25278083  1
  O2-  O246  1  0.66084413  0.58786525  0.50564129  1
  O2-  O247  1  0.66447302  0.57926460  0.74950713  1
  O2-  O248  1  0.65205900  0.92196955  -0.00144605  1
  O2-  O249  1  0.67013142  0.92430703  0.24660890  1
  O2-  O250  1  0.66717543  0.92054065  0.50276317  1
  O2-  O251  1  0.66850005  0.92131580  0.75265416  1
  O2-  O252  1  0.33655287  0.08004538  -0.00105585  1
  O2-  O253  1  0.34044952  0.08159384  0.24819873  1
  O2-  O254  1  0.33601796  0.08254702  0.49934156  1
  O2-  O255  1  0.33844951  0.08246704  0.75072906  1
  O2-  O256  1  0.33149312  0.41942285  0.00267622  1
  O2-  O257  1  0.33528096  0.41258268  0.24829000  1
  O2-  O258  1  0.34009715  0.41053051  0.50247933  1
  O2-  O259  1  0.33139705  0.41313277  0.75375143  1
  O2-  O260  1  0.33168464  0.74958842  0.00588311  1
  O2-  O261  1  0.33207984  0.74545591  0.24654059  1
  O2-  O262  1  0.33218890  0.74910262  0.50396126  1
  O2-  O263  1  0.33638102  0.74421542  0.74660965  1
  O2-  O264  1  0.83722505  0.07976995  -0.00293738  1
  O2-  O265  1  0.82822274  0.07614258  0.24837802  1
  O2-  O266  1  0.83590030  0.08589078  0.50034064  1
  O2-  O267  1  0.83506078  0.07919220  0.75521993  1
  O2-  O268  1  0.83483452  0.41792297  0.00260290  1
  O2-  O269  1  0.83019339  0.41381635  0.24292835  1
  O2-  O270  1  0.84013589  0.41537890  0.49453818  1
  O2-  O271  1  0.83016255  0.41414944  0.75547660  1
  O2-  O272  1  0.83462595  0.74561306  0.00784384  1
  O2-  O273  1  0.83047948  0.74505098  0.25035976  1
  O2-  O274  1  0.83631963  0.75036828  0.50114463  1
  O2-  O275  1  0.82765977  0.74327298  0.74537259  1
  O2-  O276  1  0.04647182  0.43536668  0.45225042  1
  O2-  O277  1  0.53605453  0.46500847  0.78254032  1
  O2-  O278  1  0.95150818  0.41917126  0.98434378  1
  O2-  O279  1  0.44485491  0.76930526  0.26584752  1
  O2-  O280  1  0.45375717  0.56864687  0.75808749  1
  O2-  O281  1  0.95573253  0.56837834  0.50699270  1
  O2-  O282  1  0.00754760  0.88340256  0.74754746  1
  O2-  O283  1  0.45672904  0.53617995  0.23852774  1
  O2-  O284  1  0.94703074  0.25009213  0.45226450  1
  O2-  O285  1  0.52629521  0.21715901  0.47024166  1
  O2-  O286  1  0.04793543  0.43763596  0.75595418  1
  O2-  O287  1  0.95575442  0.55608072  0.03951364  1
  O2-  O288  1  0.54836664  0.42461171  -0.00833191  1
  O2-  O289  1  0.95303820  0.57075394  0.74960762  1
  O2-  O290  1  0.45228020  0.24112344  0.00960354  1
  O2-  O291  1  0.55808523  0.57089487  0.25400228  1
  O2-  O292  1  0.03401616  0.21594642  0.28541938  1
  O2-  O293  1  0.05807982  0.75595746  0.74219087  1
  O2-  O294  1  0.54694662  0.75572444  0.49795318  1
  O2-  O295  1  0.05028725  0.42493032  0.24335573  1
  O2-  O296  1  0.54698004  0.09942994  0.24124865  1
  O2-  O297  1  0.53840202  0.78784845  0.22548685  1
  O2-  O298  1  0.04747348  0.08327511  0.25317881  1
  O2-  O299  1  0.45246507  0.09052072  0.01821454  1
  O2-  O300  1  0.45253741  0.76704376  0.00421293  1
  O2-  O301  1  0.04801885  0.89469985  0.22075211  1
  O2-  O302  1  0.55621051  0.56962524  0.24473175  1
  O2-  O303  1  0.52890869  0.20768228  0.48722893  1
  O2-  O304  1  0.05700820  0.58421138  0.22473762  1
  O2-  O305  1  0.45193243  0.90435184  0.75887141  1
  O2-  O306  1  0.55368667  0.75621043  0.69102170  1
  O2-  O307  1  0.54269018  0.42097446  0.25114923  1
  O2-  O308  1  0.94822852  0.90127708  0.51577005  1
  O2-  O309  1  0.05493880  0.56570211  0.01160509  1
  O2-  O310  1  0.94863940  0.58650039  0.26258147  1
  O2-  O311  1  0.55222280  0.57636013  0.02126212  1
  O2-  O312  1  0.45143946  0.76619117  0.98758918  1
  O2-  O313  1  0.54090102  0.79364859  0.23474817  1
  O2-  O314  1  0.94718979  0.75290862  0.74466844  1
  O2-  O315  1  0.45199610  0.56322746  0.05556203  1
  O2-  O316  1  0.45416002  0.08988886  0.51211273  1
  O2-  O317  1  0.54570432  0.22976730  0.76053372  1
  O2-  O318  1  0.45149591  0.54736864  0.22417858  1
  O2-  O319  1  0.53576423  0.89147808  0.53917571  1
  O2-  O320  1  0.94742217  0.90591256  0.21143188  1
  O2-  O321  1  0.95145104  0.55895601  0.23851827  1
  O2-  O322  1  0.95857564  0.77209211  0.22104195  1
  O2-  O323  1  0.04426850  0.22578979  0.99289903  1
  O2-  O324  1  0.07807346  0.26699436  0.17998175  1
  O2-  O325  1  0.94030298  0.73716052  0.57112917  1
  O2-  O326  1  0.06034032  0.74551917  0.98064589  1
  O2-  O327  1  0.93909479  0.07816130  0.26864032  1
  O2-  O328  1  0.56835470  0.25278031  0.97057640  1
  O2-  O329  1  0.42828826  0.42262246  0.07417620  1
  O2-  O330  1  0.05547005  0.59342134  0.22196159  1
  O2-  O331  1  0.06087227  0.59792200  0.02719621  1
  O2-  O332  1  0.42761792  0.64325135  0.33360866  1
  O2-  O333  1  0.56180331  0.26094700  0.29266552  1
  O2-  O334  1  0.58663427  0.75606264  0.35515691  1
  O2-  O335  1  0.93868515  0.25280332  0.26344264  1
  O2-  O336  1  0.93505615  0.39818260  0.78318176  1
  O2-  O337  1  0.93297508  0.73018270  0.29087667  1
  O2-  O338  1  0.93895358  0.73580520  0.43008618  1
  O2-  O339  1  0.42495587  0.42626976  0.92077575  1
  O2-  O340  1  0.93890185  0.07567649  0.53680029  1
  O2-  O341  1  0.43754673  0.92586762  0.97607861  1
  O2-  O342  1  0.55886140  0.73567713  0.06246955  1
  O2-  O343  1  0.56204553  0.74645850  0.94718270  1
  O2-  O344  1  0.06539637  0.39588128  0.60211148  1
  O2-  O345  1  0.93200564  0.62042123  0.92469194  1
  O2-  O346  1  0.05593128  0.09111395  0.73001502  1
  O2-  O347  1  0.56798256  0.95675915  0.42214398  1
  O2-  O348  1  0.05281756  0.43525427  0.45087847  1
  O2-  O349  1  0.05929366  0.08453303  0.52384768  1
  O2-  O350  1  0.06315066  0.92044393  0.51986971  1
  O2-  O351  1  0.06057408  0.41861825  0.78302440  1
  O2-  O352  1  0.56496603  0.92062154  0.77333134  1
  O2-  O353  1  0.56119026  0.69260342  0.17590625  1
  O2-  O354  1  0.92902262  0.92655661  0.29798238  1
  O2-  O355  1  0.42981210  0.61458471  0.93210958  1
  O2-  O356  1  0.56397205  0.41859626  0.23011473  1
  O2-  O357  1  0.55515146  0.74809995  0.68567362  1
  O2-  O358  1  0.05657469  0.25714194  0.71231378  1
  O2-  O359  1  0.58302575  0.39751548  0.68480112  1
  O2-  O360  1  0.43708262  0.74202019  0.52165364  1
  O2-  O361  1  0.06102127  0.74316730  0.52314529  1
  O2-  O362  1  0.06675903  0.93269296  0.29775376  1
  O2-  O363  1  0.93817897  0.74174194  0.73550243  1
  O2-  O364  1  0.06336329  0.25419557  0.47742188  1
  O2-  O365  1  0.43704118  0.40670494  0.71401386  1
  O2-  O366  1  0.94142333  0.24482816  0.45029385  1
  O2-  O367  1  0.58476317  0.75828215  0.82954218  1
  O2-  O368  1  0.08788296  0.95011770  0.72081604  1
  O2-  O369  1  0.59072097  0.28832078  0.55696662  1
  O2-  O370  1  0.93681068  0.27172646  0.61411748  1
  O2-  O371  1  0.93675067  0.40588019  0.28091617  1
  O2-  O372  1  0.25206750  0.34487547  0.64529708  1
  O2-  O373  1  0.75421139  0.32649718  0.59558799  1
  O2-  O374  1  0.74944257  0.33832800  0.41953126  1
  O2-  O375  1  0.25184963  -0.00534748  0.67069482  1
  O2-  O376  1  0.75079308  0.67674783  0.38265591  1
  O2-  O377  1  0.75040892  0.33738989  0.88459819  1
  O2-  O378  1  0.25150776  -0.00487801  0.54944191  1
  O2-  O379  1  0.25059181  -0.00742527  0.41635027  1
  O2-  O380  1  0.24995565  0.66258174  0.11701536  1
  O2-  O381  1  0.25061569  0.65196829  0.66093734  1
  O2-  O382  1  0.24921599  0.67252317  0.91276646  1
  O2-  O383  1  0.25204768  0.34127926  0.35592596  1
  O2-  O384  1  0.25074774  0.00922577  0.17920646  1
  O2-  O385  1  0.75167716  -0.01006702  0.39088656  1
  O2-  O386  1  0.25022710  0.33539972  0.14765150  1
  O2-  O387  1  0.25098724  0.33149085  0.89337453  1
  O2-  O388  1  0.75037885  0.65166645  0.90130779  1
  O2-  O389  1  0.25033151  -0.01856428  0.89867687  1
  O2-  O390  1  0.25072096  0.01041765  0.32507726  1
  O2-  O391  1  0.75033768  0.00101171  0.63277378  1
  O2-  O392  1  0.24993370  -0.03378624  0.10050671  1
  O2-  O393  1  0.74979703  0.32712203  0.32857709  1
  O2-  O394  1  0.75030027  0.65624022  0.12571686  1
  O2-  O395  1  0.24910972  0.68206611  0.57378953  1
  O2-  O396  1  0.25023084  0.15095438  0.64647094  1
  O2-  O397  1  0.24955222  0.50393834  0.10497007  1
  O2-  O398  1  0.25316494  0.82314857  0.36018012  1
  O2-  O399  1  0.75019175  0.80878293  0.12982439  1
  O2-  O400  1  0.75005716  0.49721688  0.33727506  1
  O2-  O401  1  0.74978329  0.82367967  0.54545271  1
  O2-  O402  1  0.25187242  0.16468001  0.40491728  1
  O2-  O403  1  0.75053811  0.16165266  0.41846078  1
  O2-  O404  1  0.25011452  0.50633333  0.90304696  1
  O2-  O405  1  0.25082797  0.13936316  0.85002943  1
  O2-  O406  1  0.75041215  0.50320015  0.58420343  1
  O2-  O407  1  0.25175702  0.18403452  0.56063463  1
  O2-  O408  1  0.74943850  0.49730376  0.67112925  1
  O2-  O409  1  0.75047895  0.18360227  0.12665155  1
  O2-  O410  1  0.74992414  0.82845218  0.63359278  1
  O2-  O411  1  0.25069720  0.52115022  0.39567996  1
  O2-  O412  1  0.75012781  0.16010646  0.58300947  1
  O2-  O413  1  0.25034592  0.81679947  0.12344029  1
  O2-  O414  1  0.75002691  0.17149614  0.66601035  1
  O2-  O415  1  0.24997177  0.50322868  0.67123649  1
  O2-  O416  1  0.75058861  0.79969215  0.91011865  1
  O2-  O417  1  0.25064021  0.15642204  0.11811639  1
  O2-  O418  1  0.25099221  0.83880149  0.63018921  1
  O2-  O419  1  0.74992782  0.17043696  0.33578709  1
  O2-  O420  1  0.02642032  0.64150835  0.62076204  1
  O2-  O421  1  0.46063782  0.01524843  0.86449036  1
  O2-  O422  1  0.02054968  0.33074104  0.36265533  1
  O2-  O423  1  0.52582255  0.01147526  0.63295794  1
  O2-  O424  1  0.02594785  -0.00572323  0.88056663  1
  O2-  O425  1  0.47052670  0.31413684  0.86377399  1
  O2-  O426  1  0.03202086  0.66121509  0.37543905  1
  O2-  O427  1  0.47256612  0.64993367  0.62921485  1
  O2-  O428  1  0.00703314  0.34202956  0.11547264  1
  O2-  O429  1  0.98275807  0.00321725  0.39134684  1
  O2-  O430  1  0.52656962  0.34156339  0.87329311  1
  O2-  O431  1  0.44862778  0.31938071  0.16552603  1
  O2-  O432  1  0.02475114  0.65957183  0.87006491  1
  O2-  O433  1  0.97291616  0.67323776  0.12399727  1
  O2-  O434  1  0.54138831  0.32526197  0.10965036  1
  O2-  O435  1  0.52608221  -0.00472133  0.11559985  1
  O2-  O436  1  0.50127705  0.32985430  0.62469044  1
  O2-  O437  1  0.05013789  0.01279191  0.10526192  1
  O2-  O438  1  0.52290295  0.63778766  0.39364245  1
  O2-  O439  1  0.95306107  0.01537011  0.10576072  1
  O2-  O440  1  0.00364153  -0.00046178  0.62883503  1
  O2-  O441  1  0.52048251  0.64836215  0.86398695  1
  O2-  O442  1  0.54049863  0.00562984  0.88905219  1
  O2-  O443  1  0.02223273  0.32782244  0.87679040  1
