# generated using pymatgen
data_La7(Ru4O11)2
_symmetry_space_group_name_H-M   'P 1'
_cell_length_a   23.99105762
_cell_length_b   16.83106385
_cell_length_c   15.42735906
_cell_angle_alpha   90.00222703
_cell_angle_beta   90.00034687
_cell_angle_gamma   90.00042121
_symmetry_Int_Tables_number   1
_chemical_formula_structural   La7(Ru4O11)2
_chemical_formula_sum   'La84 Ru96 O264'
_cell_volume   6229.49079706
_cell_formula_units_Z   12
loop_
 _symmetry_equiv_pos_site_id
 _symmetry_equiv_pos_as_xyz
  1  'x, y, z'
loop_
 _atom_type_symbol
 _atom_type_oxidation_number
  La3+  3.0
  Ru4+  4.0
  O2-  -2.0
loop_
 _atom_site_type_symbol
 _atom_site_label
 _atom_site_symmetry_multiplicity
 _atom_site_fract_x
 _atom_site_fract_y
 _atom_site_fract_z
 _atom_site_occupancy
  La3+  La0  1  0.13808751  0.00126284  0.13058261  1
  La3+  La1  1  0.13874896  0.00132127  0.37607914  1
  La3+  La2  1  0.14582796  0.00046795  0.62412863  1
  La3+  La3  1  0.14211955  -0.00086578  0.87172753  1
  La3+  La4  1  0.14164263  0.33216796  0.12692058  1
  La3+  La5  1  0.14233552  0.33389685  0.37517168  1
  La3+  La6  1  0.14014462  0.33492488  0.62343775  1
  La3+  La7  1  0.13797863  0.33176607  0.87408976  1
  La3+  La8  1  0.14192021  0.66767372  0.12819595  1
  La3+  La9  1  0.15083674  0.66714291  0.37627126  1
  La3+  La10  1  0.14147040  0.67053049  0.62594860  1
  La3+  La11  1  0.13863800  0.66959865  0.87058167  1
  La3+  La12  1  0.63449190  0.00218302  0.12124781  1
  La3+  La13  1  0.63328005  -0.00150935  0.37744574  1
  La3+  La14  1  0.63657191  0.00428786  0.62610607  1
  La3+  La15  1  0.63495984  0.00104160  0.87242795  1
  La3+  La16  1  0.63776585  0.33657412  0.12852275  1
  La3+  La17  1  0.63484945  0.33753413  0.37499884  1
  La3+  La18  1  0.64052243  0.33142442  0.62336242  1
  La3+  La19  1  0.64085324  0.33412134  0.87565357  1
  La3+  La20  1  0.63670144  0.66563178  0.12449427  1
  La3+  La21  1  0.63771395  0.66694520  0.37617457  1
  La3+  La22  1  0.62982487  0.67336965  0.63268448  1
  La3+  La23  1  0.62646508  0.67486794  0.86004501  1
  La3+  La24  1  0.35880197  -0.00155064  0.13092524  1
  La3+  La25  1  0.35965858  -0.00064157  0.37663696  1
  La3+  La26  1  0.35805578  -0.00243911  0.62640012  1
  La3+  La27  1  0.35739156  -0.00112836  0.86921402  1
  La3+  La28  1  0.36103774  0.33410205  0.13001498  1
  La3+  La29  1  0.35766731  0.33632948  0.37742923  1
  La3+  La30  1  0.36263509  0.33687472  0.61888504  1
  La3+  La31  1  0.36115446  0.33302931  0.87414274  1
  La3+  La32  1  0.35826445  0.66835358  0.13189438  1
  La3+  La33  1  0.35300821  0.66983363  0.37495189  1
  La3+  La34  1  0.35262360  0.67129885  0.62069649  1
  La3+  La35  1  0.36091720  0.66808180  0.87298845  1
  La3+  La36  1  0.86298557  0.00162936  0.12271528  1
  La3+  La37  1  0.85943556  0.00394481  0.37636469  1
  La3+  La38  1  0.86822349  0.00346377  0.62798006  1
  La3+  La39  1  0.86256143  0.00510613  0.87306594  1
  La3+  La40  1  0.86255329  0.33500265  0.12397547  1
  La3+  La41  1  0.86468729  0.33629220  0.37525857  1
  La3+  La42  1  0.86139208  0.33631374  0.62214865  1
  La3+  La43  1  0.85787351  0.33402526  0.87429403  1
  La3+  La44  1  0.86293796  0.66571302  0.12471933  1
  La3+  La45  1  0.87242106  0.67612499  0.38699322  1
  La3+  La46  1  0.86919806  0.67410135  0.61988610  1
  La3+  La47  1  0.85939982  0.66847747  0.87165279  1
  La3+  La48  1  0.00255346  0.16156305  0.88991196  1
  La3+  La49  1  0.49890140  0.49787373  0.11818630  1
  La3+  La50  1  0.50284835  0.83445766  0.62481694  1
  La3+  La51  1  0.49552730  0.50304729  0.35812940  1
  La3+  La52  1  0.00319264  0.82598744  0.10745191  1
  La3+  La53  1  -0.00366763  0.82891685  0.62735425  1
  La3+  La54  1  -0.00238645  0.16608349  0.61548991  1
  La3+  La55  1  0.49938607  0.16496693  0.11819932  1
  La3+  La56  1  -0.00373961  0.49949685  0.87666800  1
  La3+  La57  1  0.50297001  0.16851604  0.86786849  1
  La3+  La58  1  0.00418479  0.83170439  0.39359254  1
  La3+  La59  1  0.00378032  0.49501261  0.14218813  1
  La3+  La60  1  0.49488279  0.50050088  0.63253604  1
  La3+  La61  1  0.50139204  0.81802894  0.86143475  1
  La3+  La62  1  0.00044306  0.83315610  0.86381874  1
  La3+  La63  1  0.00668790  0.16103880  0.13629956  1
  La3+  La64  1  0.50549974  0.49970821  0.87857732  1
  La3+  La65  1  0.00451057  0.50632407  0.62121741  1
  La3+  La66  1  0.50201756  0.50020459  0.61286693  1
  La3+  La67  1  0.00105989  0.49647588  0.37354331  1
  La3+  La68  1  -0.00463073  0.83406621  0.37586047  1
  La3+  La69  1  0.49860546  0.16220853  0.61398334  1
  La3+  La70  1  0.50048715  0.17131605  0.85188854  1
  La3+  La71  1  0.00349332  0.49418567  0.12547070  1
  La3+  La72  1  0.75044422  0.79977356  0.76257958  1
  La3+  La73  1  0.75004540  0.80144556  0.00040653  1
  La3+  La74  1  0.74917362  0.18968340  0.23536094  1
  La3+  La75  1  0.74948761  0.78194735  0.24222584  1
  La3+  La76  1  0.24937044  0.50618254  0.48947629  1
  La3+  La77  1  0.74937983  0.45802336  0.71330820  1
  La3+  La78  1  0.75069678  0.17862657  0.48730690  1
  La3+  La79  1  0.24982382  0.87707470  0.02559440  1
  La3+  La80  1  0.75065758  0.87314660  0.50013878  1
  La3+  La81  1  0.74967754  0.46125801  -0.01935191  1
  La3+  La82  1  0.74967257  0.13242159  0.76325645  1
  La3+  La83  1  0.24994210  0.50333123  0.22651696  1
  Ru4+  Ru84  1  0.00009031  -0.00080820  -0.00106803  1
  Ru4+  Ru85  1  -0.00636117  0.00350476  0.25825254  1
  Ru4+  Ru86  1  0.00241923  0.00469836  0.49903182  1
  Ru4+  Ru87  1  0.00674864  -0.00446320  0.74881321  1
  Ru4+  Ru88  1  -0.00608091  0.32679506  0.00911906  1
  Ru4+  Ru89  1  0.00020461  0.32600267  0.24780095  1
  Ru4+  Ru90  1  0.00499223  0.32792497  0.49040483  1
  Ru4+  Ru91  1  -0.00483491  0.32421796  0.74487388  1
  Ru4+  Ru92  1  -0.00118721  0.66563150  0.00357729  1
  Ru4+  Ru93  1  0.00035153  0.66592551  0.24558801  1
  Ru4+  Ru94  1  -0.00145773  0.66927710  0.49724181  1
  Ru4+  Ru95  1  -0.00030745  0.66788638  0.74635943  1
  Ru4+  Ru96  1  0.50078930  -0.00177804  0.00905989  1
  Ru4+  Ru97  1  0.50121437  -0.00961698  0.25390405  1
  Ru4+  Ru98  1  0.50124294  -0.00075618  0.49538543  1
  Ru4+  Ru99  1  0.49980570  -0.00065494  0.73811544  1
  Ru4+  Ru100  1  0.49932722  0.33344890  0.00111560  1
  Ru4+  Ru101  1  0.49784085  0.33088222  0.24771563  1
  Ru4+  Ru102  1  0.50388590  0.32638992  0.49861110  1
  Ru4+  Ru103  1  0.50295358  0.32571501  0.74796784  1
  Ru4+  Ru104  1  0.49702463  0.66998170  -0.00332557  1
  Ru4+  Ru105  1  0.49751815  0.67119650  0.25709400  1
  Ru4+  Ru106  1  0.49970406  0.67671122  0.49349438  1
  Ru4+  Ru107  1  0.49433881  0.67468363  0.74830404  1
  Ru4+  Ru108  1  0.11267956  0.16585802  0.00028550  1
  Ru4+  Ru109  1  0.11282715  0.16786558  0.25058426  1
  Ru4+  Ru110  1  0.11079760  0.16848521  0.49789134  1
  Ru4+  Ru111  1  0.11456250  0.16361415  0.75038426  1
  Ru4+  Ru112  1  0.11495589  0.50061312  -0.00202772  1
  Ru4+  Ru113  1  0.11019903  0.49960896  0.24835439  1
  Ru4+  Ru114  1  0.11074112  0.49936858  0.49950891  1
  Ru4+  Ru115  1  0.11542428  0.50389715  0.75299940  1
  Ru4+  Ru116  1  0.11005507  0.83417337  0.00138340  1
  Ru4+  Ru117  1  0.11677219  0.83498398  0.24748008  1
  Ru4+  Ru118  1  0.11471858  0.83301204  0.50093296  1
  Ru4+  Ru119  1  0.11656989  0.84096714  0.74825811  1
  Ru4+  Ru120  1  0.61483300  0.16292952  0.00197402  1
  Ru4+  Ru121  1  0.60859095  0.16672660  0.24781958  1
  Ru4+  Ru122  1  0.60937478  0.16526025  0.50066847  1
  Ru4+  Ru123  1  0.61391332  0.17655349  0.74676196  1
  Ru4+  Ru124  1  0.61152205  0.50028258  0.00054986  1
  Ru4+  Ru125  1  0.61369234  0.49899799  0.24858711  1
  Ru4+  Ru126  1  0.61502527  0.49699178  0.50040708  1
  Ru4+  Ru127  1  0.61719348  0.49529505  0.75106153  1
  Ru4+  Ru128  1  0.61236441  0.83655273  -0.00124730  1
  Ru4+  Ru129  1  0.60880022  0.83514293  0.25124690  1
  Ru4+  Ru130  1  0.60900907  0.83712831  0.50031920  1
  Ru4+  Ru131  1  0.60942192  0.83221909  0.74969744  1
  Ru4+  Ru132  1  0.38720906  0.16476994  0.00316997  1
  Ru4+  Ru133  1  0.38630943  0.16547521  0.24927311  1
  Ru4+  Ru134  1  0.38701566  0.16157229  0.49862254  1
  Ru4+  Ru135  1  0.38435581  0.16445820  0.75185129  1
  Ru4+  Ru136  1  0.38962773  0.50050531  -0.00019131  1
  Ru4+  Ru137  1  0.38865518  0.50013028  0.24900847  1
  Ru4+  Ru138  1  0.38354240  0.50475862  0.49706810  1
  Ru4+  Ru139  1  0.38701742  0.50120118  0.75245998  1
  Ru4+  Ru140  1  0.39043172  0.83296246  0.00026373  1
  Ru4+  Ru141  1  0.39077736  0.83239748  0.24793090  1
  Ru4+  Ru142  1  0.38736578  0.83214553  0.49799959  1
  Ru4+  Ru143  1  0.38188288  0.82887948  0.75048970  1
  Ru4+  Ru144  1  0.88790910  0.16817188  -0.00128729  1
  Ru4+  Ru145  1  0.89456305  0.16022795  0.25274726  1
  Ru4+  Ru146  1  0.89121760  0.16700130  0.50036637  1
  Ru4+  Ru147  1  0.88838120  0.17314323  0.74721914  1
  Ru4+  Ru148  1  0.88811179  0.50162936  -0.00293243  1
  Ru4+  Ru149  1  0.88599319  0.49593116  0.25035229  1
  Ru4+  Ru150  1  0.88725730  0.49910703  0.49886451  1
  Ru4+  Ru151  1  0.88425590  0.49455205  0.75206122  1
  Ru4+  Ru152  1  0.89048408  0.83691636  -0.00101778  1
  Ru4+  Ru153  1  0.89026416  0.83654445  0.25081510  1
  Ru4+  Ru154  1  0.88995242  0.83173159  0.50595858  1
  Ru4+  Ru155  1  0.89063654  0.83202968  0.74790142  1
  Ru4+  Ru156  1  0.75086107  0.27466440  0.74067981  1
  Ru4+  Ru157  1  0.74987560  0.23730482  -0.00000695  1
  Ru4+  Ru158  1  0.74980863  0.32182563  0.25189745  1
  Ru4+  Ru159  1  0.74987428  0.58083569  0.50090835  1
  Ru4+  Ru160  1  0.25005796  0.24307124  0.25907788  1
  Ru4+  Ru161  1  0.24995078  0.24384477  0.50103933  1
  Ru4+  Ru162  1  0.25002989  0.43081249  0.74918971  1
  Ru4+  Ru163  1  0.25009006  0.73763515  -0.01378043  1
  Ru4+  Ru164  1  0.75036527  0.57542642  0.24740896  1
  Ru4+  Ru165  1  0.25086774  0.57534427  -0.00610237  1
  Ru4+  Ru166  1  0.74975949  0.04619432  0.53776738  1
  Ru4+  Ru167  1  0.74992328  0.31325662  0.50844909  1
  Ru4+  Ru168  1  0.74945162  0.05401591  0.21519016  1
  Ru4+  Ru169  1  0.74962987  0.91700582  0.23772744  1
  Ru4+  Ru170  1  0.25020699  0.24986545  -0.00466021  1
  Ru4+  Ru171  1  0.24986135  0.08060677  -0.00044381  1
  Ru4+  Ru172  1  0.75006903  0.93747322  0.74869797  1
  Ru4+  Ru173  1  0.75003852  0.59498384  0.74651924  1
  Ru4+  Ru174  1  0.25035071  0.57168618  0.74281786  1
  Ru4+  Ru175  1  0.24991190  0.24270016  0.74983819  1
  Ru4+  Ru176  1  0.74934856  0.60013568  0.02332975  1
  Ru4+  Ru177  1  0.25123971  0.42494667  -0.00858682  1
  Ru4+  Ru178  1  0.74853121  0.72549987  0.51038231  1
  Ru4+  Ru179  1  0.74987382  0.94607455  -0.00818947  1
  O2-  O180  1  0.16547577  0.08085095  0.00356450  1
  O2-  O181  1  0.16292626  0.08108576  0.24809105  1
  O2-  O182  1  0.16539792  0.08538746  0.49774627  1
  O2-  O183  1  0.16444900  0.08249556  0.75053653  1
  O2-  O184  1  0.17024635  0.41660692  -0.00191424  1
  O2-  O185  1  0.16398157  0.41448282  0.24976430  1
  O2-  O186  1  0.16299158  0.41427892  0.50079911  1
  O2-  O187  1  0.16782869  0.41643089  0.75094542  1
  O2-  O188  1  0.16785928  0.74581489  -0.00094998  1
  O2-  O189  1  0.16463457  0.74939084  0.24956376  1
  O2-  O190  1  0.16246122  0.74860652  0.50116321  1
  O2-  O191  1  0.16450798  0.74982047  0.75291982  1
  O2-  O192  1  0.66712004  0.08121477  -0.00143495  1
  O2-  O193  1  0.66459380  0.07767330  0.24711526  1
  O2-  O194  1  0.66787106  0.08113758  0.49837495  1
  O2-  O195  1  0.66137531  0.08130060  0.75116551  1
  O2-  O196  1  0.66258357  0.41013655  0.00238371  1
  O2-  O197  1  0.66994604  0.41176266  0.25042326  1
  O2-  O198  1  0.66948382  0.41422580  0.49613197  1
  O2-  O199  1  0.66523867  0.40964946  0.75028494  1
  O2-  O200  1  0.66620243  0.74724478  0.00332604  1
  O2-  O201  1  0.66076707  0.74292948  0.24892405  1
  O2-  O202  1  0.66603481  0.74504078  0.50220009  1
  O2-  O203  1  0.66446704  0.74657531  0.74923500  1
  O2-  O204  1  0.33552919  0.25163065  -0.00114512  1
  O2-  O205  1  0.33306828  0.25262769  0.25225521  1
  O2-  O206  1  0.33530820  0.25209046  0.49927413  1
  O2-  O207  1  0.33275553  0.25307910  0.74908822  1
  O2-  O208  1  0.33332460  0.58542982  -0.00071246  1
  O2-  O209  1  0.33636958  0.58460579  0.25035280  1
  O2-  O210  1  0.33425775  0.58705941  0.49926989  1
  O2-  O211  1  0.33056141  0.58437615  0.75240508  1
  O2-  O212  1  0.33815156  0.92097932  0.00170976  1
  O2-  O213  1  0.33531951  0.91844710  0.25196496  1
  O2-  O214  1  0.33603439  0.92102204  0.49704739  1
  O2-  O215  1  0.33425362  0.91787344  0.75182214  1
  O2-  O216  1  0.82880074  0.25209406  0.00423620  1
  O2-  O217  1  0.83643281  0.25528181  0.25182401  1
  O2-  O218  1  0.83445471  0.25741121  0.49917858  1
  O2-  O219  1  0.83151328  0.25162123  0.74959621  1
  O2-  O220  1  0.83188880  0.58517435  0.00227833  1
  O2-  O221  1  0.83233947  0.58764454  0.25054265  1
  O2-  O222  1  0.83449329  0.58652906  0.50183631  1
  O2-  O223  1  0.83475612  0.58547811  0.74646637  1
  O2-  O224  1  0.83301341  0.91941671  -0.00246371  1
  O2-  O225  1  0.83225700  0.91764983  0.24562042  1
  O2-  O226  1  0.84161254  0.92162714  0.50265940  1
  O2-  O227  1  0.83568376  0.92129228  0.74947318  1
  O2-  O228  1  0.16794313  0.25329112  -0.00108609  1
  O2-  O229  1  0.16722183  0.25076168  0.25101232  1
  O2-  O230  1  0.16656590  0.25118900  0.50036658  1
  O2-  O231  1  0.16575794  0.25259145  0.74933490  1
  O2-  O232  1  0.16656653  0.58573434  -0.00112976  1
  O2-  O233  1  0.16359169  0.58558774  0.25062966  1
  O2-  O234  1  0.16234528  0.58603321  0.50086686  1
  O2-  O235  1  0.16802519  0.58520422  0.75110269  1
  O2-  O236  1  0.16141617  0.92264303  0.00247188  1
  O2-  O237  1  0.16939294  0.91987721  0.24562337  1
  O2-  O238  1  0.16383815  0.92008671  0.49753642  1
  O2-  O239  1  0.16870663  0.91914972  0.75134719  1
  O2-  O240  1  0.66661815  0.25393129  0.00101816  1
  O2-  O241  1  0.66425371  0.25847371  0.25067898  1
  O2-  O242  1  0.66527628  0.25582673  0.49675051  1
  O2-  O243  1  0.67049784  0.25410300  0.75141683  1
  O2-  O244  1  0.66588513  0.58585812  0.00085015  1
  O2-  O245  1  0.66655907  0.58516797  0.25023288  1
  O2-  O246  1  0.66731492  0.58405810  0.50142224  1
  O2-  O247  1  0.66674751  0.58605623  0.74819367  1
  O2-  O248  1  0.66787367  0.91948064  -0.00111375  1
  O2-  O249  1  0.66757195  0.91863938  0.24799816  1
  O2-  O250  1  0.66334608  0.92258052  0.50124884  1
  O2-  O251  1  0.66609741  0.91806865  0.75277009  1
  O2-  O252  1  0.33162714  0.08094684  -0.00044012  1
  O2-  O253  1  0.33667592  0.08167948  0.25154187  1
  O2-  O254  1  0.33518518  0.08201041  0.49728141  1
  O2-  O255  1  0.33277998  0.08181231  0.74889584  1
  O2-  O256  1  0.33458719  0.41312658  -0.00242536  1
  O2-  O257  1  0.33283799  0.41379731  0.25155905  1
  O2-  O258  1  0.33402370  0.41497468  0.49904595  1
  O2-  O259  1  0.33390889  0.41481983  0.75107982  1
  O2-  O260  1  0.33464284  0.74622126  0.00089287  1
  O2-  O261  1  0.33386173  0.75164679  0.25031966  1
  O2-  O262  1  0.33540914  0.75026724  0.49953718  1
  O2-  O263  1  0.33432014  0.74651687  0.75279355  1
  O2-  O264  1  0.83795648  0.08215612  -0.00194525  1
  O2-  O265  1  0.83293234  0.07954514  0.24611241  1
  O2-  O266  1  0.83456039  0.07943234  0.50452944  1
  O2-  O267  1  0.83679746  0.08144568  0.75146198  1
  O2-  O268  1  0.83463795  0.41219254  0.00135573  1
  O2-  O269  1  0.83258331  0.41292556  0.25023328  1
  O2-  O270  1  0.83352380  0.41546287  0.49897101  1
  O2-  O271  1  0.83137674  0.41261641  0.74559446  1
  O2-  O272  1  0.83577676  0.74660532  0.00288202  1
  O2-  O273  1  0.83852066  0.74358230  0.25104547  1
  O2-  O274  1  0.83227698  0.74597816  0.50045313  1
  O2-  O275  1  0.83685158  0.74571777  0.74525193  1
  O2-  O276  1  0.45338706  0.90859091  0.50874629  1
  O2-  O277  1  0.45230172  0.90537067  0.23636745  1
  O2-  O278  1  0.04842138  0.76423015  0.26180511  1
  O2-  O279  1  0.96442457  0.89357016  0.20339985  1
  O2-  O280  1  0.05100911  0.43021432  0.77017614  1
  O2-  O281  1  0.54232350  0.45802038  0.45724939  1
  O2-  O282  1  0.45074591  0.43215080  0.51183577  1
  O2-  O283  1  0.54766919  0.42711588  0.73944176  1
  O2-  O284  1  0.54699067  0.23448977  0.51064116  1
  O2-  O285  1  0.95307190  0.90853692  0.51181629  1
  O2-  O286  1  0.54942750  0.75780504  0.76346058  1
  O2-  O287  1  0.96438490  0.21355936  0.03503723  1
  O2-  O288  1  0.55105936  0.76137745  0.50790385  1
  O2-  O289  1  0.54334093  0.76722073  0.73912826  1
  O2-  O290  1  0.02947060  0.44583596  0.00571526  1
  O2-  O291  1  0.05214635  0.57773221  0.98264969  1
  O2-  O292  1  0.95552321  0.76819412  0.98478242  1
  O2-  O293  1  0.04492797  0.76096867  0.73794372  1
  O2-  O294  1  0.95678421  0.42619558  0.49300677  1
  O2-  O295  1  0.46090664  0.11177182  0.96900972  1
  O2-  O296  1  0.95667039  0.76728654  0.50436124  1
  O2-  O297  1  0.95282254  0.57768311  0.73470534  1
  O2-  O298  1  0.95697012  0.08817497  0.73625900  1
  O2-  O299  1  0.54521295  0.23488182  0.99047292  1
  O2-  O300  1  0.44610699  0.76039681  0.48913478  1
  O2-  O301  1  0.95772593  0.55417983  0.03388206  1
  O2-  O302  1  0.54164530  0.10315615  0.73615570  1
  O2-  O303  1  0.94672928  0.75568448  0.48452854  1
  O2-  O304  1  0.03153436  0.43927221  0.98812301  1
  O2-  O305  1  0.54391987  0.56959764  0.01183822  1
  O2-  O306  1  0.54899744  0.76393239  0.49940309  1
  O2-  O307  1  0.54837998  0.90439495  0.78827922  1
  O2-  O308  1  0.05091739  0.57407868  0.76643433  1
  O2-  O309  1  0.95370196  0.23044029  0.25985070  1
  O2-  O310  1  0.95654813  0.56793306  0.49163217  1
  O2-  O311  1  0.94827184  0.75890322  0.26206215  1
  O2-  O312  1  0.45576097  0.55152411  0.78390050  1
  O2-  O313  1  0.54618242  0.42518671  0.98791872  1
  O2-  O314  1  0.96572430  0.22008189  0.78606655  1
  O2-  O315  1  0.94712798  0.56821011  0.77163640  1
  O2-  O316  1  0.95600266  0.43791079  0.70515799  1
  O2-  O317  1  0.55051738  0.56853655  0.75803621  1
  O2-  O318  1  0.45487401  0.77093434  0.98766936  1
  O2-  O319  1  0.45359192  0.09856602  0.48375952  1
  O2-  O320  1  0.95618687  0.56239883  0.25714602  1
  O2-  O321  1  0.45032906  0.89352180  0.73663568  1
  O2-  O322  1  0.04782700  0.42113352  0.73270287  1
  O2-  O323  1  0.55031871  0.09267413  0.77104524  1
  O2-  O324  1  0.56348092  0.07286118  0.53405638  1
  O2-  O325  1  0.56433739  0.26947524  0.82437717  1
  O2-  O326  1  0.05978555  0.26386540  0.57514125  1
  O2-  O327  1  0.56639474  0.59353069  0.77172130  1
  O2-  O328  1  0.08081385  0.39967965  0.06903679  1
  O2-  O329  1  0.56701752  0.73056836  0.71365882  1
  O2-  O330  1  0.43027272  0.62167636  0.68392178  1
  O2-  O331  1  0.56012608  0.92732198  0.96891645  1
  O2-  O332  1  0.06404052  0.25324885  0.97168741  1
  O2-  O333  1  0.06653988  0.91785145  0.81527010  1
  O2-  O334  1  0.06608574  0.74722269  0.72243744  1
  O2-  O335  1  0.43470082  0.74090143  0.22383418  1
  O2-  O336  1  0.42877858  0.04946158  0.06698384  1
  O2-  O337  1  0.08345080  0.40164846  0.93163062  1
  O2-  O338  1  0.56309531  0.59674938  0.53519773  1
  O2-  O339  1  0.56422311  0.25909013  0.68015912  1
  O2-  O340  1  0.93902972  0.06918610  0.17608093  1
  O2-  O341  1  0.06281630  0.26193637  0.43450169  1
  O2-  O342  1  0.06489037  0.26312373  0.28101287  1
  O2-  O343  1  0.56595272  0.74515173  0.04988033  1
  O2-  O344  1  0.55809358  0.92763235  0.81388576  1
  O2-  O345  1  0.56552424  0.93644067  0.66023067  1
  O2-  O346  1  0.92916225  0.61533903  0.93315401  1
  O2-  O347  1  0.06474608  0.92753767  0.27267754  1
  O2-  O348  1  0.93360074  0.07605816  0.72921659  1
  O2-  O349  1  0.43581572  0.40731752  0.52799916  1
  O2-  O350  1  0.56864362  0.75021918  0.95071952  1
  O2-  O351  1  0.93492858  0.41097349  0.02838214  1
  O2-  O352  1  0.43662798  0.26083476  0.78627231  1
  O2-  O353  1  0.06542121  0.74184031  0.02186568  1
  O2-  O354  1  0.93870326  0.73852152  0.78346621  1
  O2-  O355  1  0.93282761  0.73175591  0.53742319  1
  O2-  O356  1  0.92248512  0.40113527  0.80318144  1
  O2-  O357  1  0.43694589  0.25475211  0.22594947  1
  O2-  O358  1  0.56143634  0.40399334  0.21499012  1
  O2-  O359  1  0.92633529  0.93465484  0.31570139  1
  O2-  O360  1  0.06313444  0.07647318  0.48081430  1
  O2-  O361  1  0.56764471  0.92385928  0.27408105  1
  O2-  O362  1  0.43801635  0.06989875  0.78625703  1
  O2-  O363  1  0.56318546  0.07688759  0.02773611  1
  O2-  O364  1  0.56445838  0.92753167  0.47372921  1
  O2-  O365  1  0.93677736  0.08005084  0.32005571  1
  O2-  O366  1  0.43746157  0.41205128  0.22517114  1
  O2-  O367  1  0.44044147  0.92565385  0.72743637  1
  O2-  O368  1  0.93028143  0.27710184  0.68260735  1
  O2-  O369  1  0.57006519  0.38838611  0.56355018  1
  O2-  O370  1  0.91762060  0.26799400  0.94726536  1
  O2-  O371  1  0.06361646  0.92809672  0.67548704  1
  O2-  O372  1  0.75047086  0.66287270  0.39738019  1
  O2-  O373  1  0.24926180  0.66382189  0.58220659  1
  O2-  O374  1  0.24973871  -0.00022148  0.66864507  1
  O2-  O375  1  0.24856410  0.66168068  0.40190692  1
  O2-  O376  1  0.74940419  0.67948320  0.81802851  1
  O2-  O377  1  0.24999289  -0.00109712  0.58161599  1
  O2-  O378  1  0.25053097  0.33667196  0.06698609  1
  O2-  O379  1  0.75039171  0.00130143  0.85565673  1
  O2-  O380  1  0.25027185  -0.00008444  0.90876269  1
  O2-  O381  1  0.75022506  0.66955693  0.64420549  1
  O2-  O382  1  0.24987616  0.33549227  0.55866973  1
  O2-  O383  1  0.25000469  0.33468935  0.68695655  1
  O2-  O384  1  0.75036072  0.00214806  0.09928878  1
  O2-  O385  1  0.75027918  0.67642352  0.94073626  1
  O2-  O386  1  0.75081300  0.00497491  0.65117229  1
  O2-  O387  1  0.25087600  0.32538488  0.39886437  1
  O2-  O388  1  0.24968022  0.65455215  0.89325508  1
  O2-  O389  1  0.74971994  0.00334389  0.32152416  1
  O2-  O390  1  0.25037198  0.66043167  0.08077462  1
  O2-  O391  1  0.75109884  -0.00978936  0.43841264  1
  O2-  O392  1  0.25025959  0.66267789  0.17378647  1
  O2-  O393  1  0.74939649  0.33689834  0.85199011  1
  O2-  O394  1  0.24998353  0.33560901  0.19361858  1
  O2-  O395  1  0.25001470  0.66927605  0.67276198  1
  O2-  O396  1  0.24962968  0.49824006  0.35763431  1
  O2-  O397  1  0.75003499  0.17142280  0.91155486  1
  O2-  O398  1  0.75010794  0.50001713  0.32838842  1
  O2-  O399  1  0.25007404  0.16088431  0.82726304  1
  O2-  O400  1  0.75004115  0.82220606  0.62691314  1
  O2-  O401  1  0.24999582  0.16260506  0.16942113  1
  O2-  O402  1  0.24975474  0.83362032  0.58512961  1
  O2-  O403  1  0.24994465  0.16524713  0.91630991  1
  O2-  O404  1  0.24992422  0.49923816  0.08606396  1
  O2-  O405  1  0.75028817  0.16997701  0.09701894  1
  O2-  O406  1  0.74986324  0.51609644  0.12080470  1
  O2-  O407  1  0.25007028  0.49923163  0.63629071  1
  O2-  O408  1  0.24989835  0.83341838  0.66500246  1
  O2-  O409  1  0.24956175  0.83334176  0.33518148  1
  O2-  O410  1  0.24992349  0.16685011  0.08033471  1
  O2-  O411  1  0.75008446  0.82367497  0.37073219  1
  O2-  O412  1  0.25012502  0.17230946  0.34262234  1
  O2-  O413  1  0.24963253  0.83296503  0.41506855  1
  O2-  O414  1  0.74964836  0.16778565  0.62662254  1
  O2-  O415  1  0.25022226  0.82306558  0.89678396  1
  O2-  O416  1  0.75063233  0.15645038  0.36052463  1
  O2-  O417  1  0.25031055  0.17394028  0.58771546  1
  O2-  O418  1  0.75021577  0.51304981  0.84775195  1
  O2-  O419  1  0.75022176  0.49792968  0.41876984  1
  O2-  O420  1  0.52447015  -0.00313566  0.13419070  1
  O2-  O421  1  0.45517202  0.65861568  0.36951766  1
  O2-  O422  1  0.46940866  0.65561483  0.11687277  1
  O2-  O423  1  0.95468714  0.33556247  0.14082516  1
  O2-  O424  1  0.52059047  0.01171654  0.37044034  1
  O2-  O425  1  0.03226573  0.32543109  0.85441057  1
  O2-  O426  1  0.97808763  0.34087394  0.88445190  1
  O2-  O427  1  0.47146608  0.01018766  0.62049763  1
  O2-  O428  1  0.52671595  0.33120273  0.37008967  1
  O2-  O429  1  0.45333645  0.66744034  0.87954890  1
  O2-  O430  1  0.47198616  0.32801939  0.62991531  1
  O2-  O431  1  0.97111703  0.33801279  0.37310756  1
  O2-  O432  1  0.02827708  0.66037600  0.61477685  1
  O2-  O433  1  0.97458708  0.66425623  0.37268597  1
  O2-  O434  1  0.04221694  0.31990254  0.13975786  1
  O2-  O435  1  0.97589213  -0.00169273  0.62074223  1
  O2-  O436  1  0.52767048  0.65884595  0.14191782  1
  O2-  O437  1  0.54491981  0.66030429  0.36634542  1
  O2-  O438  1  0.02151745  0.01186789  0.88108597  1
  O2-  O439  1  0.53392761  0.65964801  0.87850408  1
  O2-  O440  1  0.02230912  -0.00374281  0.37792623  1
  O2-  O441  1  0.47667699  0.33167049  0.11682879  1
  O2-  O442  1  0.95337698  0.67143289  0.12930937  1
  O2-  O443  1  0.04366613  0.65325660  0.13659318  1
