# generated using pymatgen
data_La7(Ru4O11)2
_symmetry_space_group_name_H-M   'P 1'
_cell_length_a   23.99019350
_cell_length_b   16.82974960
_cell_length_c   15.42732812
_cell_angle_alpha   89.99952846
_cell_angle_beta   90.00077836
_cell_angle_gamma   90.00150921
_symmetry_Int_Tables_number   1
_chemical_formula_structural   La7(Ru4O11)2
_chemical_formula_sum   'La84 Ru96 O264'
_cell_volume   6228.76751570
_cell_formula_units_Z   12
loop_
 _symmetry_equiv_pos_site_id
 _symmetry_equiv_pos_as_xyz
  1  'x, y, z'
loop_
 _atom_type_symbol
 _atom_type_oxidation_number
  La3+  3.0
  Ru4+  4.0
  O2-  -2.0
loop_
 _atom_site_type_symbol
 _atom_site_label
 _atom_site_symmetry_multiplicity
 _atom_site_fract_x
 _atom_site_fract_y
 _atom_site_fract_z
 _atom_site_occupancy
  La3+  La0  1  0.14042757  0.00203872  0.12249671  1
  La3+  La1  1  0.14106606  -0.00109948  0.37525523  1
  La3+  La2  1  0.14357211  0.00041249  0.62804571  1
  La3+  La3  1  0.14427167  -0.00027910  0.87208693  1
  La3+  La4  1  0.13950012  0.33335719  0.12399591  1
  La3+  La5  1  0.14102008  0.33233264  0.37313070  1
  La3+  La6  1  0.13552122  0.33142676  0.62533172  1
  La3+  La7  1  0.13929404  0.33581303  0.87867951  1
  La3+  La8  1  0.13987226  0.66531825  0.12492268  1
  La3+  La9  1  0.13851781  0.66542507  0.37807952  1
  La3+  La10  1  0.13565618  0.66520465  0.62246612  1
  La3+  La11  1  0.13850771  0.66825204  0.87301542  1
  La3+  La12  1  0.63858137  0.00226917  0.12586783  1
  La3+  La13  1  0.63985889  -0.00033326  0.37584792  1
  La3+  La14  1  0.63634655  0.00061342  0.62473339  1
  La3+  La15  1  0.63607750  0.00325038  0.87546743  1
  La3+  La16  1  0.63877517  0.33259979  0.12437446  1
  La3+  La17  1  0.63956806  0.33297053  0.37511306  1
  La3+  La18  1  0.64242608  0.32802961  0.62828861  1
  La3+  La19  1  0.64017875  0.33089186  0.87209822  1
  La3+  La20  1  0.63900588  0.66662222  0.12671811  1
  La3+  La21  1  0.64007064  0.66514241  0.38027471  1
  La3+  La22  1  0.63661129  0.66592381  0.61942741  1
  La3+  La23  1  0.63660220  0.66522819  0.87532007  1
  La3+  La24  1  0.36046590  0.00140678  0.12540431  1
  La3+  La25  1  0.36090697  0.00014704  0.37324577  1
  La3+  La26  1  0.35898501  0.00084441  0.62794707  1
  La3+  La27  1  0.35587006  0.00171946  0.87297895  1
  La3+  La28  1  0.36083968  0.33206724  0.12519355  1
  La3+  La29  1  0.35823510  0.33294104  0.36963102  1
  La3+  La30  1  0.36265085  0.33425843  0.62738347  1
  La3+  La31  1  0.36060458  0.33306048  0.87794559  1
  La3+  La32  1  0.36187454  0.66671352  0.12872575  1
  La3+  La33  1  0.36233846  0.66683288  0.37383831  1
  La3+  La34  1  0.35925178  0.66603570  0.62147145  1
  La3+  La35  1  0.36033019  0.66738911  0.87441385  1
  La3+  La36  1  0.86298418  0.00280544  0.12608411  1
  La3+  La37  1  0.85944354  0.00011667  0.37576052  1
  La3+  La38  1  0.86246297  0.00129241  0.62334208  1
  La3+  La39  1  0.86340612  0.00229165  0.87614667  1
  La3+  La40  1  0.85832331  0.33177386  0.12624170  1
  La3+  La41  1  0.85797735  0.33214466  0.37406925  1
  La3+  La42  1  0.86137438  0.32893591  0.62900840  1
  La3+  La43  1  0.86254011  0.33176436  0.87370719  1
  La3+  La44  1  0.86044492  0.66864639  0.12754216  1
  La3+  La45  1  0.85671270  0.66650523  0.37873054  1
  La3+  La46  1  0.86314865  0.66774656  0.62355259  1
  La3+  La47  1  0.86220351  0.66252037  0.87828645  1
  La3+  La48  1  0.49935855  0.50306267  0.36499757  1
  La3+  La49  1  -0.00092511  0.83306497  0.13046390  1
  La3+  La50  1  0.50067960  0.16229646  0.88199259  1
  La3+  La51  1  0.00026713  0.16814956  0.36272521  1
  La3+  La52  1  0.49925027  0.16645074  0.38011014  1
  La3+  La53  1  0.49965062  0.83049094  0.36747237  1
  La3+  La54  1  -0.00535834  0.49753115  0.12166100  1
  La3+  La55  1  0.50125386  0.50097205  0.63000871  1
  La3+  La56  1  0.00149200  0.50105816  0.36945257  1
  La3+  La57  1  0.00171529  0.50025163  0.63600672  1
  La3+  La58  1  -0.00219338  0.82985731  0.36736792  1
  La3+  La59  1  0.00141791  0.50241119  0.39167302  1
  La3+  La60  1  0.50015826  0.83372901  0.13246146  1
  La3+  La61  1  0.00157853  0.16809646  0.38527434  1
  La3+  La62  1  0.50063282  0.49700855  0.87059606  1
  La3+  La63  1  0.49600651  0.49440324  0.61024507  1
  La3+  La64  1  -0.00039432  0.51201104  0.13623908  1
  La3+  La65  1  0.00094324  0.16838303  0.62474367  1
  La3+  La66  1  0.49738075  0.49862868  0.13163349  1
  La3+  La67  1  0.50190629  0.83629002  0.86588221  1
  La3+  La68  1  -0.00426280  0.16992328  0.87354635  1
  La3+  La69  1  0.00439954  0.83736441  0.63139179  1
  La3+  La70  1  0.50136773  0.16806973  0.63542162  1
  La3+  La71  1  0.00133370  0.83270113  0.38781823  1
  La3+  La72  1  0.24980038  0.88252733  0.22941993  1
  La3+  La73  1  0.75013195  0.52887318  0.72114096  1
  La3+  La74  1  0.24961843  0.46689040  0.77891404  1
  La3+  La75  1  0.75006621  0.82008649  0.68787928  1
  La3+  La76  1  0.75037259  0.87838224  0.30034880  1
  La3+  La77  1  0.25002654  0.13546558  0.47633777  1
  La3+  La78  1  0.24968667  0.83943687  0.74529184  1
  La3+  La79  1  0.25012122  0.49823295  0.26833587  1
  La3+  La80  1  0.24983414  0.78214644  0.52051168  1
  La3+  La81  1  0.74873618  0.81811698  0.00271240  1
  La3+  La82  1  0.74983145  0.49957236  0.00206544  1
  La3+  La83  1  0.74976617  0.16706198  0.50139354  1
  Ru4+  Ru84  1  -0.00158876  -0.00369962  0.00017122  1
  Ru4+  Ru85  1  -0.00077172  0.00445132  0.24553971  1
  Ru4+  Ru86  1  0.00003686  -0.00244284  0.49963815  1
  Ru4+  Ru87  1  -0.00305491  -0.00500203  0.75123444  1
  Ru4+  Ru88  1  -0.00472802  0.32758654  -0.00138208  1
  Ru4+  Ru89  1  -0.00101793  0.32743109  0.24733416  1
  Ru4+  Ru90  1  -0.00113022  0.33940187  0.50141673  1
  Ru4+  Ru91  1  0.00333514  0.33884319  0.74997308  1
  Ru4+  Ru92  1  -0.00111499  0.67046771  0.00191169  1
  Ru4+  Ru93  1  0.00003403  0.66864960  0.24998962  1
  Ru4+  Ru94  1  -0.00258250  0.67475553  0.50003804  1
  Ru4+  Ru95  1  0.00036031  0.66940267  0.74744959  1
  Ru4+  Ru96  1  0.50183183  -0.00074158  0.00001180  1
  Ru4+  Ru97  1  0.49871668  0.00538843  0.25025213  1
  Ru4+  Ru98  1  0.49918462  -0.00406339  0.50425342  1
  Ru4+  Ru99  1  0.50172366  -0.00231516  0.74423443  1
  Ru4+  Ru100  1  0.50006207  0.33807669  0.00788559  1
  Ru4+  Ru101  1  0.50035068  0.33123494  0.25098080  1
  Ru4+  Ru102  1  0.50277310  0.33508678  0.49644440  1
  Ru4+  Ru103  1  0.49784412  0.32979657  0.74676335  1
  Ru4+  Ru104  1  0.49849933  0.66821172  -0.00311494  1
  Ru4+  Ru105  1  0.50430722  0.66299813  0.25282018  1
  Ru4+  Ru106  1  0.49754995  0.67532659  0.49913363  1
  Ru4+  Ru107  1  0.50096488  0.67129370  0.75411415  1
  Ru4+  Ru108  1  0.11527435  0.16698777  -0.00029545  1
  Ru4+  Ru109  1  0.11290537  0.16878992  0.24748877  1
  Ru4+  Ru110  1  0.11578603  0.16232280  0.50062785  1
  Ru4+  Ru111  1  0.11597113  0.16713667  0.75039509  1
  Ru4+  Ru112  1  0.11789158  0.50255271  0.00024279  1
  Ru4+  Ru113  1  0.11326978  0.50236174  0.24963748  1
  Ru4+  Ru114  1  0.11690378  0.49591228  0.49973213  1
  Ru4+  Ru115  1  0.11070929  0.49749067  0.75170923  1
  Ru4+  Ru116  1  0.11084941  0.83661538  -0.00067845  1
  Ru4+  Ru117  1  0.11046214  0.83073542  0.25097595  1
  Ru4+  Ru118  1  0.10879437  0.83315509  0.49853350  1
  Ru4+  Ru119  1  0.11006672  0.83174233  0.75133649  1
  Ru4+  Ru120  1  0.61719199  0.16200526  -0.00104989  1
  Ru4+  Ru121  1  0.61404483  0.17046321  0.24983554  1
  Ru4+  Ru122  1  0.61060220  0.16689309  0.49982557  1
  Ru4+  Ru123  1  0.61771447  0.16283402  0.74945783  1
  Ru4+  Ru124  1  0.61158681  0.49586519  0.00065013  1
  Ru4+  Ru125  1  0.61296640  0.49884571  0.24972856  1
  Ru4+  Ru126  1  0.61609865  0.49612707  0.49676228  1
  Ru4+  Ru127  1  0.61250300  0.50329156  0.75085419  1
  Ru4+  Ru128  1  0.60874145  0.83343779  0.00035254  1
  Ru4+  Ru129  1  0.61084597  0.83448775  0.25098447  1
  Ru4+  Ru130  1  0.61108950  0.83123249  0.49983827  1
  Ru4+  Ru131  1  0.61004160  0.83381277  0.74949922  1
  Ru4+  Ru132  1  0.38135305  0.16287825  0.00056228  1
  Ru4+  Ru133  1  0.38924742  0.16856904  0.25093537  1
  Ru4+  Ru134  1  0.38973288  0.16827227  0.50064112  1
  Ru4+  Ru135  1  0.38533922  0.16491191  0.74902760  1
  Ru4+  Ru136  1  0.38603985  0.49844710  0.00001970  1
  Ru4+  Ru137  1  0.38738065  0.49835281  0.24906070  1
  Ru4+  Ru138  1  0.38817028  0.49973240  0.49921979  1
  Ru4+  Ru139  1  0.38368462  0.50345948  0.74997453  1
  Ru4+  Ru140  1  0.38788054  0.83194853  -0.00001132  1
  Ru4+  Ru141  1  0.38516689  0.83884240  0.24931501  1
  Ru4+  Ru142  1  0.39197724  0.83370415  0.50154496  1
  Ru4+  Ru143  1  0.38854227  0.83414837  0.74816379  1
  Ru4+  Ru144  1  0.88591979  0.16535425  -0.00097779  1
  Ru4+  Ru145  1  0.88689472  0.16736399  0.24902917  1
  Ru4+  Ru146  1  0.88693076  0.16535984  0.50018699  1
  Ru4+  Ru147  1  0.88270509  0.16615717  0.75246999  1
  Ru4+  Ru148  1  0.88702723  0.49695456  -0.00235858  1
  Ru4+  Ru149  1  0.88726200  0.50067333  0.25147915  1
  Ru4+  Ru150  1  0.88630670  0.50387259  0.50034043  1
  Ru4+  Ru151  1  0.89005666  0.50038264  0.74906460  1
  Ru4+  Ru152  1  0.89185083  0.83248009  -0.00147585  1
  Ru4+  Ru153  1  0.89024634  0.83361268  0.24980565  1
  Ru4+  Ru154  1  0.88763749  0.83116856  0.49872015  1
  Ru4+  Ru155  1  0.88925503  0.83159826  0.75108148  1
  Ru4+  Ru156  1  0.24976276  0.94326104  0.50713136  1
  Ru4+  Ru157  1  0.75005473  0.08896300  0.25183450  1
  Ru4+  Ru158  1  0.24996731  0.92775244  0.00379416  1
  Ru4+  Ru159  1  0.75000209  0.72000730  0.25975206  1
  Ru4+  Ru160  1  0.24996951  0.72786203  0.25405332  1
  Ru4+  Ru161  1  0.75030620  0.91541773  0.49525276  1
  Ru4+  Ru162  1  0.75052269  0.41822729  0.49761963  1
  Ru4+  Ru163  1  0.25056140  0.57932600  0.50303653  1
  Ru4+  Ru164  1  0.25072728  0.42166484  0.49776966  1
  Ru4+  Ru165  1  0.74990143  0.57965519  0.25406159  1
  Ru4+  Ru166  1  0.74998925  0.24834310  0.00121786  1
  Ru4+  Ru167  1  0.75032281  0.68978345  -0.00039244  1
  Ru4+  Ru168  1  0.74998878  0.70111082  0.76006295  1
  Ru4+  Ru169  1  0.24973261  0.60271794  0.73198783  1
  Ru4+  Ru170  1  0.24981198  0.08558691  0.24686128  1
  Ru4+  Ru171  1  0.75009460  0.39270386  0.75780411  1
  Ru4+  Ru172  1  0.75010512  0.09591783  0.74397745  1
  Ru4+  Ru173  1  0.25030956  0.57542990  0.01042113  1
  Ru4+  Ru174  1  0.74996797  0.94825870  0.00458349  1
  Ru4+  Ru175  1  0.75003359  0.95406120  0.73116787  1
  Ru4+  Ru176  1  0.25026598  0.27693175  0.50079589  1
  Ru4+  Ru177  1  0.24993994  0.74452441  0.01886483  1
  Ru4+  Ru178  1  0.75043498  0.41861824  0.24801574  1
  Ru4+  Ru179  1  0.24963351  0.24561837  0.74559400  1
  O2-  O180  1  0.16859557  0.08189244  0.00168232  1
  O2-  O181  1  0.16726789  0.08157551  0.24978162  1
  O2-  O182  1  0.16586184  0.07865458  0.49903023  1
  O2-  O183  1  0.16692367  0.08452679  0.75106211  1
  O2-  O184  1  0.16794143  0.41587239  -0.00163352  1
  O2-  O185  1  0.16647477  0.41304427  0.24987304  1
  O2-  O186  1  0.16961210  0.41484686  0.49986190  1
  O2-  O187  1  0.16643594  0.41211040  0.74848017  1
  O2-  O188  1  0.16631035  0.74742619  0.00105784  1
  O2-  O189  1  0.16697972  0.74644802  0.25071090  1
  O2-  O190  1  0.16234229  0.74470329  0.49868599  1
  O2-  O191  1  0.16750898  0.74797383  0.74805542  1
  O2-  O192  1  0.66789272  0.08062148  0.00146153  1
  O2-  O193  1  0.66741696  0.08061545  0.25086291  1
  O2-  O194  1  0.66751301  0.08015850  0.50149692  1
  O2-  O195  1  0.66742504  0.08081653  0.74808938  1
  O2-  O196  1  0.66987791  0.41537152  0.00062175  1
  O2-  O197  1  0.66654069  0.41499557  0.25018283  1
  O2-  O198  1  0.66919936  0.41514763  0.50034164  1
  O2-  O199  1  0.66755150  0.41347288  0.74975485  1
  O2-  O200  1  0.66417624  0.74426621  -0.00036425  1
  O2-  O201  1  0.66682782  0.74609124  0.25023956  1
  O2-  O202  1  0.66458218  0.74804372  0.50283284  1
  O2-  O203  1  0.66759312  0.74420289  0.74938256  1
  O2-  O204  1  0.33338927  0.25145389  0.00067751  1
  O2-  O205  1  0.33341697  0.25007711  0.24827040  1
  O2-  O206  1  0.33310310  0.25335323  0.49964036  1
  O2-  O207  1  0.33212002  0.25234216  0.74895837  1
  O2-  O208  1  0.33218488  0.58548070  0.00069007  1
  O2-  O209  1  0.33341812  0.58663667  0.25243944  1
  O2-  O210  1  0.33170005  0.58565420  0.49946486  1
  O2-  O211  1  0.33345407  0.58736983  0.74916981  1
  O2-  O212  1  0.33234663  0.91999209  0.00085918  1
  O2-  O213  1  0.33664505  0.92213101  0.25281247  1
  O2-  O214  1  0.33236060  0.92061155  0.49953079  1
  O2-  O215  1  0.33565387  0.91784679  0.75040613  1
  O2-  O216  1  0.83352899  0.25350990  0.00000759  1
  O2-  O217  1  0.83552080  0.25142367  0.25109109  1
  O2-  O218  1  0.83126722  0.25230812  0.50207606  1
  O2-  O219  1  0.83266004  0.25128746  0.74848965  1
  O2-  O220  1  0.83021572  0.58298988  0.00027451  1
  O2-  O221  1  0.83292937  0.58610010  0.24896582  1
  O2-  O222  1  0.83414629  0.58489876  0.50185574  1
  O2-  O223  1  0.83422534  0.58821666  0.74834398  1
  O2-  O224  1  0.83339282  0.92136420  0.00113281  1
  O2-  O225  1  0.83537408  0.92087457  0.24935724  1
  O2-  O226  1  0.83192744  0.92028918  0.50108571  1
  O2-  O227  1  0.83487485  0.91977945  0.75043453  1
  O2-  O228  1  0.16434274  0.25111713  0.00077734  1
  O2-  O229  1  0.16676396  0.25000553  0.25026740  1
  O2-  O230  1  0.16801151  0.25325215  0.49906700  1
  O2-  O231  1  0.16887311  0.25129273  0.74964986  1
  O2-  O232  1  0.16836847  0.58468168  0.00016178  1
  O2-  O233  1  0.16633643  0.58695057  0.25222590  1
  O2-  O234  1  0.16770620  0.58478422  0.50051100  1
  O2-  O235  1  0.16560825  0.58681728  0.74843745  1
  O2-  O236  1  0.16922885  0.91894832  0.00172474  1
  O2-  O237  1  0.16183288  0.92213875  0.25045166  1
  O2-  O238  1  0.16831927  0.92090386  0.50031686  1
  O2-  O239  1  0.16419246  0.91726115  0.74924736  1
  O2-  O240  1  0.66927087  0.25302236  0.00187863  1
  O2-  O241  1  0.66607206  0.24981652  0.25172858  1
  O2-  O242  1  0.66814939  0.25301755  0.49974114  1
  O2-  O243  1  0.66613150  0.25028320  0.74967869  1
  O2-  O244  1  0.66916982  0.58408945  -0.00162616  1
  O2-  O245  1  0.66816322  0.58654077  0.24912859  1
  O2-  O246  1  0.66628700  0.58447781  0.50390006  1
  O2-  O247  1  0.66579567  0.58910131  0.74976048  1
  O2-  O248  1  0.66550659  0.92250581  0.00087544  1
  O2-  O249  1  0.66659128  0.92132117  0.24814642  1
  O2-  O250  1  0.66630099  0.91932496  0.50165827  1
  O2-  O251  1  0.66709261  0.92153768  0.74858540  1
  O2-  O252  1  0.33397390  0.08048823  -0.00027865  1
  O2-  O253  1  0.33358338  0.08032130  0.25036896  1
  O2-  O254  1  0.33480187  0.07797500  0.49942406  1
  O2-  O255  1  0.33526700  0.08317362  0.74992866  1
  O2-  O256  1  0.33446048  0.41540522  0.00097905  1
  O2-  O257  1  0.33227400  0.41475393  0.25000725  1
  O2-  O258  1  0.33146014  0.41354848  0.50071626  1
  O2-  O259  1  0.33381349  0.41243322  0.74827962  1
  O2-  O260  1  0.33345210  0.74786233  0.00018678  1
  O2-  O261  1  0.33268494  0.74648387  0.25137619  1
  O2-  O262  1  0.33754573  0.74616610  0.49851117  1
  O2-  O263  1  0.33272734  0.74823830  0.75059488  1
  O2-  O264  1  0.83521354  0.08203331  0.00021014  1
  O2-  O265  1  0.83136816  0.08057407  0.25130156  1
  O2-  O266  1  0.83088034  0.08112934  0.50149200  1
  O2-  O267  1  0.83297577  0.08118198  0.74838589  1
  O2-  O268  1  0.83062535  0.41469359  0.00089000  1
  O2-  O269  1  0.83201711  0.41403228  0.24906156  1
  O2-  O270  1  0.83198103  0.41326393  0.50157478  1
  O2-  O271  1  0.83355699  0.41268609  0.74979762  1
  O2-  O272  1  0.83369375  0.74585214  0.00100904  1
  O2-  O273  1  0.83078943  0.74549677  0.25207172  1
  O2-  O274  1  0.83615390  0.74760516  0.50237681  1
  O2-  O275  1  0.83118891  0.74371599  0.74779500  1
  O2-  O276  1  0.44872942  0.23620302  0.02025945  1
  O2-  O277  1  0.54854773  0.90778544  0.48235149  1
  O2-  O278  1  0.04521943  0.56780495  0.51518861  1
  O2-  O279  1  0.45199520  0.42987510  0.98552956  1
  O2-  O280  1  0.96413989  0.55166954  0.97313534  1
  O2-  O281  1  0.54925293  0.43140143  0.73878251  1
  O2-  O282  1  0.54678550  0.23386212  0.76440595  1
  O2-  O283  1  0.45108611  0.75978265  0.51635621  1
  O2-  O284  1  0.95808149  0.23043449  0.71723512  1
  O2-  O285  1  0.44924989  0.56794806  0.23827433  1
  O2-  O286  1  0.54930662  0.56734842  0.23906201  1
  O2-  O287  1  0.45224480  0.42958404  0.76078225  1
  O2-  O288  1  0.54390009  0.22822762  0.01196434  1
  O2-  O289  1  0.54602789  0.10543868  0.21976981  1
  O2-  O290  1  0.45588063  0.90101049  0.01541115  1
  O2-  O291  1  0.04635699  0.09740124  0.51224685  1
  O2-  O292  1  0.95172075  0.75972027  0.70558159  1
  O2-  O293  1  0.45406154  0.10056705  0.73965172  1
  O2-  O294  1  0.04062624  0.11043553  0.77584326  1
  O2-  O295  1  0.45213061  0.09891242  0.24884002  1
  O2-  O296  1  0.03429925  0.11629215  0.99865420  1
  O2-  O297  1  0.53753070  0.55434190  0.00192760  1
  O2-  O298  1  0.54887042  0.42285523  0.04784328  1
  O2-  O299  1  0.54397891  0.22815723  1.01194760  1
  O2-  O300  1  0.04564328  0.76648005  0.01751717  1
  O2-  O301  1  0.44686712  0.23824479  0.98149163  1
  O2-  O302  1  0.95411260  0.43433055  0.51483438  1
  O2-  O303  1  0.54327952  0.57186660  0.48050558  1
  O2-  O304  1  0.54806321  0.56933972  0.51878829  1
  O2-  O305  1  0.04430618  0.90151841  0.26378746  1
  O2-  O306  1  0.45358660  0.76259720  0.23818970  1
  O2-  O307  1  0.96335348  0.21892536  0.75325943  1
  O2-  O308  1  0.04276465  0.43804257  -0.00707475  1
  O2-  O309  1  0.04513001  0.23758860  0.51286696  1
  O2-  O310  1  0.45293599  0.90554205  0.73915597  1
  O2-  O311  1  0.45320103  0.57185008  0.74032690  1
  O2-  O312  1  0.54944291  0.76426568  0.48557437  1
  O2-  O313  1  0.96317925  0.55675314  -0.00823662  1
  O2-  O314  1  0.04585049  0.90001862  0.76094738  1
  O2-  O315  1  0.03562959  0.11518669  0.21012208  1
  O2-  O316  1  0.04672598  0.43040529  0.23834519  1
  O2-  O317  1  0.45153674  0.09679443  0.25801892  1
  O2-  O318  1  0.54845253  0.42515496  0.45674009  1
  O2-  O319  1  0.44866134  0.57256451  0.98199570  1
  O2-  O320  1  0.45600858  0.10057321  0.51140587  1
  O2-  O321  1  0.46694676  0.77701913  0.74286071  1
  O2-  O322  1  0.45008322  0.90408282  0.51071842  1
  O2-  O323  1  0.04545602  0.43401583  0.97791986  1
  O2-  O324  1  0.56464286  0.07584101  0.77749176  1
  O2-  O325  1  0.06478725  0.58930820  0.52333366  1
  O2-  O326  1  0.43468272  0.74273786  0.22351383  1
  O2-  O327  1  0.06205386  0.40434069  0.78343899  1
  O2-  O328  1  0.93417151  0.74208472  0.97347668  1
  O2-  O329  1  0.93680412  0.07232462  0.42883238  1
  O2-  O330  1  0.06632354  0.25786415  0.72100302  1
  O2-  O331  1  0.92177143  0.73635142  0.82241775  1
  O2-  O332  1  0.56101315  0.92588187  0.28208629  1
  O2-  O333  1  0.56412844  0.25870618  0.77367739  1
  O2-  O334  1  0.93521597  0.39952595  0.96738410  1
  O2-  O335  1  0.06516245  0.59770926  0.03527065  1
  O2-  O336  1  0.91533711  0.61367007  0.05415485  1
  O2-  O337  1  0.57799582  0.60994308  0.03336200  1
  O2-  O338  1  0.06548859  0.25568432  0.52569479  1
  O2-  O339  1  0.43722908  0.40244210  0.21654716  1
  O2-  O340  1  0.57727055  0.41002301  0.92296335  1
  O2-  O341  1  0.57032615  0.38804677  0.58460860  1
  O2-  O342  1  0.57988050  0.27062317  0.95668387  1
  O2-  O343  1  0.06312529  0.26544922  0.21735057  1
  O2-  O344  1  0.56784392  0.06710221  0.29548531  1
  O2-  O345  1  0.42644582  0.71760869  0.70879534  1
  O2-  O346  1  0.93438857  0.92607398  0.97580201  1
  O2-  O347  1  0.93730785  0.92640839  0.46627141  1
  O2-  O348  1  0.93631214  0.40254140  0.28500761  1
  O2-  O349  1  0.56643242  0.74046381  0.77709913  1
  O2-  O350  1  0.92416855  0.28653913  0.80257975  1
  O2-  O351  1  0.56283889  0.26596365  0.21795520  1
  O2-  O352  1  0.94486424  0.74967523  0.69938062  1
  O2-  O353  1  0.07529573  0.06127329  0.96775382  1
  O2-  O354  1  0.56475853  0.92727676  0.71758791  1
  O2-  O355  1  0.93414255  0.07189276  0.22497032  1
  O2-  O356  1  0.06659328  0.74002809  0.77652568  1
  O2-  O357  1  0.06611060  0.92237574  0.97442943  1
  O2-  O358  1  0.43711947  0.26260031  0.28530054  1
  O2-  O359  1  0.43541582  0.40607645  0.77513811  1
  O2-  O360  1  0.07395121  0.06585571  0.70501489  1
  O2-  O361  1  0.43830314  0.93002052  0.21579001  1
  O2-  O362  1  0.93446396  0.74213160  0.22489095  1
  O2-  O363  1  0.07382792  0.38445766  0.04790688  1
  O2-  O364  1  0.55474540  0.42825421  0.45561729  1
  O2-  O365  1  0.56425674  0.07181731  0.97284970  1
  O2-  O366  1  0.07115570  0.05416036  0.30896848  1
  O2-  O367  1  0.93215262  0.08070908  0.56059673  1
  O2-  O368  1  0.93314027  0.07441744  0.77692644  1
  O2-  O369  1  0.06566019  0.40727675  0.47220388  1
  O2-  O370  1  0.93639989  0.26414104  0.46728381  1
  O2-  O371  1  0.55715118  0.41206053  0.05604310  1
  O2-  O372  1  0.24995847  0.66251464  0.40645352  1
  O2-  O373  1  0.74984319  0.00042617  0.40416846  1
  O2-  O374  1  0.75068981  0.33480113  0.65078276  1
  O2-  O375  1  0.24977529  0.00190989  0.15363415  1
  O2-  O376  1  0.74959861  0.65919097  0.11350825  1
  O2-  O377  1  0.75051250  0.66770031  0.38818208  1
  O2-  O378  1  0.75020084  0.33747157  0.15456824  1
  O2-  O379  1  0.25043630  -0.00545763  0.85510702  1
  O2-  O380  1  0.74995526  0.33173161  0.42176826  1
  O2-  O381  1  0.25015876  0.66402875  0.59654125  1
  O2-  O382  1  0.74976509  0.02205128  0.09309652  1
  O2-  O383  1  0.25009793  0.66660039  0.15120428  1
  O2-  O384  1  0.25005715  0.33223379  0.82656949  1
  O2-  O385  1  0.74993152  0.33209741  0.33104048  1
  O2-  O386  1  0.25024853  0.00266143  0.34610740  1
  O2-  O387  1  0.24998581  0.67523929  0.81668220  1
  O2-  O388  1  0.75006347  0.01109035  0.83239190  1
  O2-  O389  1  0.74979517  0.66008948  0.88589736  1
  O2-  O390  1  0.24987919  0.33541694  0.35764175  1
  O2-  O391  1  0.24998771  -0.00554474  0.64040769  1
  O2-  O392  1  0.25013400  0.66393518  0.93701848  1
  O2-  O393  1  0.25008015  0.33250451  0.91702855  1
  O2-  O394  1  0.74974996  -0.00520600  0.17908878  1
  O2-  O395  1  0.75012975  0.02493073  0.92155926  1
  O2-  O396  1  0.24984481  0.16484894  0.08441828  1
  O2-  O397  1  0.74994369  0.83111524  0.42246465  1
  O2-  O398  1  0.75017650  0.17330746  0.83245272  1
  O2-  O399  1  0.74993444  0.16376814  0.65459909  1
  O2-  O400  1  0.74991286  0.83391568  0.56831124  1
  O2-  O401  1  0.75028813  0.84130765  0.88582375  1
  O2-  O402  1  0.25018176  0.50567054  0.63477990  1
  O2-  O403  1  0.75020101  0.83389964  0.80965402  1
  O2-  O404  1  0.75002951  0.16144313  0.08256287  1
  O2-  O405  1  0.25015170  0.84530641  0.62585119  1
  O2-  O406  1  0.75004207  0.49306769  0.85976812  1
  O2-  O407  1  0.75014534  0.50028337  0.34234803  1
  O2-  O408  1  0.75082120  0.84807707  0.11885147  1
  O2-  O409  1  0.25019937  0.83202086  0.94745258  1
  O2-  O410  1  0.24989550  0.82339538  0.10637844  1
  O2-  O411  1  0.24970165  0.16811643  0.16844304  1
  O2-  O412  1  0.25013793  0.17812890  0.61417924  1
  O2-  O413  1  0.24972656  0.83147635  0.86446544  1
  O2-  O414  1  0.24992520  0.50317234  0.13111426  1
  O2-  O415  1  0.24980043  0.81018202  0.33976127  1
  O2-  O416  1  0.25017267  0.85521437  0.41844223  1
  O2-  O417  1  0.74982803  0.81397184  0.19103925  1
  O2-  O418  1  0.75006007  0.17110180  0.16908541  1
  O2-  O419  1  0.74999659  0.16232598  0.91852417  1
  O2-  O420  1  0.46606790  0.32667470  0.87905282  1
  O2-  O421  1  0.02306003  0.34429953  0.62510295  1
  O2-  O422  1  0.47085514  0.33151616  0.62407566  1
  O2-  O423  1  0.02834123  -0.00112164  0.86898172  1
  O2-  O424  1  0.46474160  0.00138070  0.87610615  1
  O2-  O425  1  0.03161263  0.66031188  0.87958920  1
  O2-  O426  1  0.52606511  0.66207448  0.88061023  1
  O2-  O427  1  0.97474411  -0.00604339  0.11818916  1
  O2-  O428  1  0.45772245  0.66575124  0.37464344  1
  O2-  O429  1  0.47495257  0.00276078  0.62676999  1
  O2-  O430  1  0.54213438  0.66763955  0.36635566  1
  O2-  O431  1  0.03436662  -0.00954253  0.61707143  1
  O2-  O432  1  0.52473374  0.32299830  0.36843855  1
  O2-  O433  1  0.52368863  0.33606264  0.86485088  1
  O2-  O434  1  0.98039714  0.66822798  0.12643476  1
  O2-  O435  1  0.02612727  0.66957921  0.62926999  1
  O2-  O436  1  0.02732659  0.66766544  0.37474169  1
  O2-  O437  1  0.52886368  -0.01192876  0.87288867  1
  O2-  O438  1  0.97556846  0.65704393  0.87424291  1
  O2-  O439  1  0.97123576  0.00081806  0.87419067  1
  O2-  O440  1  0.53199441  0.67539447  0.13403921  1
  O2-  O441  1  0.02525779  0.32893108  0.37189666  1
  O2-  O442  1  0.96515628  -0.01004094  0.63558294  1
  O2-  O443  1  0.46676289  0.66336440  0.11706242  1
