# generated using pymatgen
data_La7(Ru4O11)2
_symmetry_space_group_name_H-M   'P 1'
_cell_length_a   23.99122656
_cell_length_b   16.83119736
_cell_length_c   15.42732291
_cell_angle_alpha   90.00176630
_cell_angle_beta   90.00168041
_cell_angle_gamma   90.00037343
_symmetry_Int_Tables_number   1
_chemical_formula_structural   La7(Ru4O11)2
_chemical_formula_sum   'La84 Ru96 O264'
_cell_volume   6229.56947694
_cell_formula_units_Z   12
loop_
 _symmetry_equiv_pos_site_id
 _symmetry_equiv_pos_as_xyz
  1  'x, y, z'
loop_
 _atom_type_symbol
 _atom_type_oxidation_number
  La3+  3.0
  Ru4+  4.0
  O2-  -2.0
loop_
 _atom_site_type_symbol
 _atom_site_label
 _atom_site_symmetry_multiplicity
 _atom_site_fract_x
 _atom_site_fract_y
 _atom_site_fract_z
 _atom_site_occupancy
  La3+  La0  1  0.14731416  -0.00128077  0.12263656  1
  La3+  La1  1  0.14644086  -0.00084891  0.37328071  1
  La3+  La2  1  0.13913925  0.00468057  0.61815834  1
  La3+  La3  1  0.14335093  -0.00035029  0.88023367  1
  La3+  La4  1  0.12703066  0.34064551  0.13361655  1
  La3+  La5  1  0.13061225  0.33763597  0.36808343  1
  La3+  La6  1  0.14042618  0.33110881  0.62013364  1
  La3+  La7  1  0.13824710  0.33329278  0.87772646  1
  La3+  La8  1  0.13757517  0.66994254  0.12571063  1
  La3+  La9  1  0.13987562  0.66536276  0.37789677  1
  La3+  La10  1  0.13648315  0.66553571  0.62837471  1
  La3+  La11  1  0.13832783  0.67258389  0.87191242  1
  La3+  La12  1  0.64249863  0.00105336  0.12574474  1
  La3+  La13  1  0.63659790  -0.00044053  0.37409767  1
  La3+  La14  1  0.63149244  0.00041600  0.62521196  1
  La3+  La15  1  0.64113621  -0.00087335  0.87294857  1
  La3+  La16  1  0.64056902  0.33213984  0.12446149  1
  La3+  La17  1  0.64357870  0.33303561  0.37556569  1
  La3+  La18  1  0.63814768  0.33709258  0.62343228  1
  La3+  La19  1  0.63690295  0.33333076  0.87593733  1
  La3+  La20  1  0.63221610  0.66106347  0.13454250  1
  La3+  La21  1  0.62818754  0.65718189  0.36456516  1
  La3+  La22  1  0.63911287  0.66575119  0.62208851  1
  La3+  La23  1  0.63810515  0.66824292  0.87638224  1
  La3+  La24  1  0.35222978  -0.00079414  0.12075050  1
  La3+  La25  1  0.35780567  0.00092881  0.37622987  1
  La3+  La26  1  0.36001572  0.00278573  0.62103102  1
  La3+  La27  1  0.35854379  -0.00014738  0.88005360  1
  La3+  La28  1  0.36453689  0.33191024  0.12002057  1
  La3+  La29  1  0.35909446  0.33190501  0.37950203  1
  La3+  La30  1  0.36081404  0.33009227  0.62407217  1
  La3+  La31  1  0.36387933  0.33312427  0.87735741  1
  La3+  La32  1  0.36104236  0.66859082  0.12364143  1
  La3+  La33  1  0.35928328  0.66896503  0.37518939  1
  La3+  La34  1  0.35940621  0.66602538  0.62555598  1
  La3+  La35  1  0.36207993  0.66789976  0.87562527  1
  La3+  La36  1  0.85669084  0.00012467  0.12364284  1
  La3+  La37  1  0.86016184  0.00131645  0.37400633  1
  La3+  La38  1  0.86140543  0.00095372  0.62856153  1
  La3+  La39  1  0.85619901  -0.00021773  0.87411681  1
  La3+  La40  1  0.86538417  0.32782928  0.12425865  1
  La3+  La41  1  0.85630607  0.33223507  0.37646903  1
  La3+  La42  1  0.86081463  0.33616126  0.62386039  1
  La3+  La43  1  0.86200876  0.32911967  0.87786623  1
  La3+  La44  1  0.86161592  0.67001393  0.12339067  1
  La3+  La45  1  0.86301842  0.66669261  0.37975059  1
  La3+  La46  1  0.86486963  0.66463453  0.62079261  1
  La3+  La47  1  0.86028876  0.67015836  0.87444021  1
  La3+  La48  1  -0.00095466  0.50117036  0.14056170  1
  La3+  La49  1  0.49556144  0.15841307  0.37534255  1
  La3+  La50  1  -0.00093126  0.50171598  0.60491062  1
  La3+  La51  1  0.49734035  0.16701183  0.63399222  1
  La3+  La52  1  0.00021240  0.83104818  0.88326859  1
  La3+  La53  1  0.50358691  0.82871336  0.87426764  1
  La3+  La54  1  -0.00556404  0.16084415  0.86902679  1
  La3+  La55  1  0.00136445  0.82707990  0.37043444  1
  La3+  La56  1  0.00136383  0.16231701  0.88856513  1
  La3+  La57  1  0.00008757  0.49378242  0.62485896  1
  La3+  La58  1  0.50061773  0.50080456  0.36046117  1
  La3+  La59  1  0.00709634  0.16601273  0.36954643  1
  La3+  La60  1  0.50364502  0.83165624  0.13612190  1
  La3+  La61  1  -0.00695237  0.84008774  0.12147966  1
  La3+  La62  1  0.00137286  0.49750758  0.12114846  1
  La3+  La63  1  0.50811258  0.48674262  0.63278831  1
  La3+  La64  1  0.00732126  0.49257277  0.35813887  1
  La3+  La65  1  0.50508976  0.83141025  0.62952220  1
  La3+  La66  1  0.49764000  0.15586068  0.39167695  1
  La3+  La67  1  0.00045337  0.17031036  0.12365768  1
  La3+  La68  1  0.50829629  0.51314285  0.13131102  1
  La3+  La69  1  0.00140366  0.82530660  0.62489857  1
  La3+  La70  1  0.50365436  0.50677993  0.38124693  1
  La3+  La71  1  0.49623612  0.83014554  0.11679779  1
  La3+  La72  1  0.75044064  0.46406671  0.29956051  1
  La3+  La73  1  0.75003393  0.20918151  0.53050479  1
  La3+  La74  1  0.75010268  0.16638836  0.25910578  1
  La3+  La75  1  0.25052992  0.21770768  0.75990514  1
  La3+  La76  1  0.74977596  0.83913389  -0.01182077  1
  La3+  La77  1  0.25011418  0.52926216  0.04008995  1
  La3+  La78  1  0.75029380  0.47872682  0.04728595  1
  La3+  La79  1  0.74944366  0.87370429  0.71561151  1
  La3+  La80  1  0.24986505  0.11268377  0.23865305  1
  La3+  La81  1  0.74885934  0.55454527  0.72007712  1
  La3+  La82  1  0.24996677  0.83639709  0.27889331  1
  La3+  La83  1  0.25079218  0.50368853  0.26030898  1
  Ru4+  Ru84  1  0.00028477  -0.00455328  0.00060026  1
  Ru4+  Ru85  1  0.00034932  -0.00030044  0.25042543  1
  Ru4+  Ru86  1  -0.00075742  0.00557999  0.49995667  1
  Ru4+  Ru87  1  -0.00028171  -0.00161950  0.74895511  1
  Ru4+  Ru88  1  0.00163825  0.33502738  0.00020596  1
  Ru4+  Ru89  1  0.00197105  0.33393877  0.25115315  1
  Ru4+  Ru90  1  -0.00131383  0.32591755  0.50120726  1
  Ru4+  Ru91  1  0.00217810  0.33355684  0.74927310  1
  Ru4+  Ru92  1  0.00003828  0.66666661  0.00725350  1
  Ru4+  Ru93  1  0.00184253  0.66535375  0.24936502  1
  Ru4+  Ru94  1  0.00318255  0.66343909  0.49668619  1
  Ru4+  Ru95  1  -0.00243792  0.66550641  0.76081488  1
  Ru4+  Ru96  1  0.49844570  0.00548373  -0.00036857  1
  Ru4+  Ru97  1  0.50432432  0.00021102  0.25496121  1
  Ru4+  Ru98  1  0.49418164  -0.00206249  0.50606920  1
  Ru4+  Ru99  1  0.49463874  0.00576007  0.74638829  1
  Ru4+  Ru100  1  0.50272963  0.33196800  -0.01130410  1
  Ru4+  Ru101  1  0.50302401  0.33531210  0.24908521  1
  Ru4+  Ru102  1  0.49924922  0.33249428  0.50196659  1
  Ru4+  Ru103  1  0.49736456  0.33306957  0.75384449  1
  Ru4+  Ru104  1  0.49961483  0.66534039  -0.00049407  1
  Ru4+  Ru105  1  0.49978518  0.66467498  0.24905151  1
  Ru4+  Ru106  1  0.49598041  0.66456163  0.49904066  1
  Ru4+  Ru107  1  0.49422919  0.66380204  0.75156426  1
  Ru4+  Ru108  1  0.11794524  0.16786931  0.00134989  1
  Ru4+  Ru109  1  0.11079312  0.16828501  0.24779761  1
  Ru4+  Ru110  1  0.11516637  0.17007867  0.50089677  1
  Ru4+  Ru111  1  0.11419402  0.16574828  0.74692027  1
  Ru4+  Ru112  1  0.11496373  0.50575533  -0.00015544  1
  Ru4+  Ru113  1  0.11169376  0.49939706  0.25120765  1
  Ru4+  Ru114  1  0.11676635  0.50356994  0.49394116  1
  Ru4+  Ru115  1  0.11549929  0.50176595  0.75788996  1
  Ru4+  Ru116  1  0.11335451  0.83605453  0.00080325  1
  Ru4+  Ru117  1  0.11097553  0.83414195  0.24880817  1
  Ru4+  Ru118  1  0.11212967  0.83202738  0.50064664  1
  Ru4+  Ru119  1  0.11728094  0.83579037  0.74991752  1
  Ru4+  Ru120  1  0.61482265  0.17001690  0.00086449  1
  Ru4+  Ru121  1  0.61154318  0.16907088  0.24573540  1
  Ru4+  Ru122  1  0.61510781  0.17037149  0.50070093  1
  Ru4+  Ru123  1  0.61326797  0.16466293  0.75003789  1
  Ru4+  Ru124  1  0.60935723  0.49826269  0.00152780  1
  Ru4+  Ru125  1  0.61035571  0.49809547  0.24991850  1
  Ru4+  Ru126  1  0.61628575  0.49873686  0.49790475  1
  Ru4+  Ru127  1  0.60955575  0.49790263  0.75153721  1
  Ru4+  Ru128  1  0.61424813  0.83000492  -0.00175756  1
  Ru4+  Ru129  1  0.61280422  0.83400701  0.25300734  1
  Ru4+  Ru130  1  0.61626921  0.82774360  0.50047539  1
  Ru4+  Ru131  1  0.61519363  0.82607054  0.74758365  1
  Ru4+  Ru132  1  0.38738965  0.16249326  -0.00044123  1
  Ru4+  Ru133  1  0.38993042  0.16871290  0.24948167  1
  Ru4+  Ru134  1  0.38342328  0.16740585  0.49957135  1
  Ru4+  Ru135  1  0.38964451  0.16740759  0.74923005  1
  Ru4+  Ru136  1  0.38664554  0.50697827  0.00058560  1
  Ru4+  Ru137  1  0.39388789  0.50006942  0.25049349  1
  Ru4+  Ru138  1  0.38622071  0.50556112  0.50064350  1
  Ru4+  Ru139  1  0.38749249  0.50164662  0.75020294  1
  Ru4+  Ru140  1  0.38445314  0.83652273  -0.00117693  1
  Ru4+  Ru141  1  0.38762093  0.83166018  0.25062180  1
  Ru4+  Ru142  1  0.38578307  0.83125149  0.49877821  1
  Ru4+  Ru143  1  0.38656775  0.83242380  0.74896993  1
  Ru4+  Ru144  1  0.88076547  0.16344744  0.00282526  1
  Ru4+  Ru145  1  0.88794924  0.16479848  0.24978582  1
  Ru4+  Ru146  1  0.89163220  0.16669890  0.50325197  1
  Ru4+  Ru147  1  0.88690166  0.16539383  0.74657873  1
  Ru4+  Ru148  1  0.88811677  0.50238669  -0.00116923  1
  Ru4+  Ru149  1  0.89280887  0.49873619  0.25217671  1
  Ru4+  Ru150  1  0.88389129  0.50094288  0.49602223  1
  Ru4+  Ru151  1  0.88717640  0.50166633  0.75652887  1
  Ru4+  Ru152  1  0.88751340  0.83364676  0.00143732  1
  Ru4+  Ru153  1  0.88806463  0.83150464  0.25089567  1
  Ru4+  Ru154  1  0.88462312  0.83851994  0.50118144  1
  Ru4+  Ru155  1  0.88845753  0.83693339  0.75242336  1
  Ru4+  Ru156  1  0.24998734  0.75248207  0.50655118  1
  Ru4+  Ru157  1  0.74983630  0.75875609  0.24566725  1
  Ru4+  Ru158  1  0.74997206  0.06773056  0.50977779  1
  Ru4+  Ru159  1  0.74994284  0.39853077  0.73944220  1
  Ru4+  Ru160  1  0.25016771  0.06419657  0.77991949  1
  Ru4+  Ru161  1  0.24973748  0.91839226  0.49722735  1
  Ru4+  Ru162  1  0.74959498  0.61237799  0.00182954  1
  Ru4+  Ru163  1  0.74944784  0.08901905  0.00242457  1
  Ru4+  Ru164  1  0.74999875  0.75643193  0.50073789  1
  Ru4+  Ru165  1  0.25111583  0.37509166  0.24938932  1
  Ru4+  Ru166  1  0.74975576  0.90179887  0.50437797  1
  Ru4+  Ru167  1  0.25022598  0.59169749  0.74211009  1
  Ru4+  Ru168  1  0.75014153  0.90827164  0.24400937  1
  Ru4+  Ru169  1  0.25029102  0.91361419  0.75695898  1
  Ru4+  Ru170  1  0.24942490  0.39180432  -0.00954996  1
  Ru4+  Ru171  1  0.25054841  0.63643649  0.26195822  1
  Ru4+  Ru172  1  0.75057352  0.73394623  0.73650531  1
  Ru4+  Ru173  1  0.24976099  0.75504271  -0.00884214  1
  Ru4+  Ru174  1  0.24969704  0.42079424  0.49484401  1
  Ru4+  Ru175  1  0.75006247  0.24662866  0.75135479  1
  Ru4+  Ru176  1  0.25029352  0.24766707  0.23713229  1
  Ru4+  Ru177  1  0.25020302  0.41062517  0.74539577  1
  Ru4+  Ru178  1  0.75022976  0.35622020  -0.01494613  1
  Ru4+  Ru179  1  0.75086247  0.61169099  0.24481913  1
  O2-  O180  1  0.16339750  0.08145233  -0.00154120  1
  O2-  O181  1  0.16136596  0.07815726  0.24967336  1
  O2-  O182  1  0.16597615  0.08570162  0.50200484  1
  O2-  O183  1  0.16540767  0.07899484  0.75075031  1
  O2-  O184  1  0.16694433  0.41344145  0.00222462  1
  O2-  O185  1  0.16694106  0.41060730  0.24720002  1
  O2-  O186  1  0.16618570  0.41322540  0.49807529  1
  O2-  O187  1  0.16543960  0.41444081  0.75159949  1
  O2-  O188  1  0.16638633  0.74770967  -0.00015767  1
  O2-  O189  1  0.16964171  0.74870005  0.24895108  1
  O2-  O190  1  0.16670937  0.74770021  0.50076002  1
  O2-  O191  1  0.16701627  0.75032467  0.74992045  1
  O2-  O192  1  0.66797506  0.08131003  0.00091736  1
  O2-  O193  1  0.66584363  0.08300509  0.25031562  1
  O2-  O194  1  0.66618966  0.07932213  0.50391789  1
  O2-  O195  1  0.66580531  0.08096028  0.74712157  1
  O2-  O196  1  0.66880944  0.41057048  -0.00136179  1
  O2-  O197  1  0.66477535  0.41334961  0.24910691  1
  O2-  O198  1  0.66702457  0.41470828  0.50175194  1
  O2-  O199  1  0.66828575  0.41128451  0.74718440  1
  O2-  O200  1  0.66743037  0.74736399  0.00016659  1
  O2-  O201  1  0.66808615  0.74626278  0.25093620  1
  O2-  O202  1  0.66818223  0.74709542  0.49627681  1
  O2-  O203  1  0.66868928  0.74562741  0.74790959  1
  O2-  O204  1  0.33787637  0.25330433  0.00041898  1
  O2-  O205  1  0.33471511  0.25257033  0.24874053  1
  O2-  O206  1  0.33261414  0.25197037  0.49838340  1
  O2-  O207  1  0.33903017  0.25712562  0.75146596  1
  O2-  O208  1  0.33411666  0.58663011  -0.00122860  1
  O2-  O209  1  0.33437176  0.58825672  0.24954503  1
  O2-  O210  1  0.33146221  0.58568295  0.50269204  1
  O2-  O211  1  0.33130106  0.58591047  0.74911003  1
  O2-  O212  1  0.33337474  0.91663972  -0.00011072  1
  O2-  O213  1  0.33258767  0.92075645  0.25072946  1
  O2-  O214  1  0.33201637  0.91772631  0.50058327  1
  O2-  O215  1  0.33030956  0.91635800  0.75345961  1
  O2-  O216  1  0.83247873  0.25441529  -0.00043795  1
  O2-  O217  1  0.83484201  0.25432518  0.24872007  1
  O2-  O218  1  0.83542315  0.25221203  0.49865011  1
  O2-  O219  1  0.83329157  0.25225007  0.74976079  1
  O2-  O220  1  0.83407373  0.58775130  0.00038911  1
  O2-  O221  1  0.83301790  0.58892163  0.25172274  1
  O2-  O222  1  0.83236398  0.58547882  0.49693318  1
  O2-  O223  1  0.83697688  0.58805350  0.75014255  1
  O2-  O224  1  0.83408194  0.91911995  -0.00118992  1
  O2-  O225  1  0.83441134  0.91880416  0.24943251  1
  O2-  O226  1  0.83238474  0.91784597  0.49983854  1
  O2-  O227  1  0.83334457  0.92117720  0.75041894  1
  O2-  O228  1  0.16399035  0.25532137  0.00016920  1
  O2-  O229  1  0.16779570  0.25287643  0.24925170  1
  O2-  O230  1  0.16693566  0.25050843  0.49803774  1
  O2-  O231  1  0.16242457  0.25635940  0.75297216  1
  O2-  O232  1  0.16630756  0.58795487  -0.00138202  1
  O2-  O233  1  0.16662579  0.58672519  0.24726878  1
  O2-  O234  1  0.16790454  0.58506705  0.50080253  1
  O2-  O235  1  0.16868044  0.58672946  0.74909186  1
  O2-  O236  1  0.16363631  0.91717448  -0.00126523  1
  O2-  O237  1  0.16802452  0.91645303  0.25027526  1
  O2-  O238  1  0.16511662  0.91803200  0.50156939  1
  O2-  O239  1  0.16682722  0.91876263  0.74925674  1
  O2-  O240  1  0.66433381  0.25178990  -0.00024648  1
  O2-  O241  1  0.66751929  0.25171956  0.25017129  1
  O2-  O242  1  0.66385084  0.25630959  0.50133216  1
  O2-  O243  1  0.66564322  0.25215350  0.74755975  1
  O2-  O244  1  0.66425070  0.58814986  0.00064376  1
  O2-  O245  1  0.66986174  0.58901460  0.25311190  1
  O2-  O246  1  0.66504038  0.58693770  0.49621470  1
  O2-  O247  1  0.65839747  0.58897453  0.75025617  1
  O2-  O248  1  0.66477505  0.92018176  0.00033104  1
  O2-  O249  1  0.66778650  0.91766390  0.24977152  1
  O2-  O250  1  0.66820482  0.91764092  0.50293586  1
  O2-  O251  1  0.66524696  0.92128510  0.74899672  1
  O2-  O252  1  0.33643577  0.08312374  -0.00060954  1
  O2-  O253  1  0.33734626  0.07635239  0.25044000  1
  O2-  O254  1  0.33357223  0.08353051  0.49771244  1
  O2-  O255  1  0.33478835  0.07978246  0.75214786  1
  O2-  O256  1  0.33147054  0.41137693  0.00211240  1
  O2-  O257  1  0.33567787  0.41028534  0.24890054  1
  O2-  O258  1  0.33487520  0.41494310  0.50000834  1
  O2-  O259  1  0.33548114  0.41608881  0.75053832  1
  O2-  O260  1  0.33205457  0.74712591  -0.00128273  1
  O2-  O261  1  0.33394689  0.74790431  0.24948645  1
  O2-  O262  1  0.33366292  0.74795388  0.50066213  1
  O2-  O263  1  0.33491158  0.74934443  0.75130893  1
  O2-  O264  1  0.83239768  0.07974242  0.00086148  1
  O2-  O265  1  0.83644596  0.08021630  0.25155433  1
  O2-  O266  1  0.83306308  0.08141427  0.50008084  1
  O2-  O267  1  0.83413163  0.08143736  0.74871416  1
  O2-  O268  1  0.83339926  0.40903912  -0.00039292  1
  O2-  O269  1  0.83507941  0.41143822  0.24701670  1
  O2-  O270  1  0.83597161  0.41448198  0.49937291  1
  O2-  O271  1  0.83443479  0.41343484  0.75124982  1
  O2-  O272  1  0.83241086  0.74921893  -0.00046216  1
  O2-  O273  1  0.83332570  0.74801935  0.24945971  1
  O2-  O274  1  0.83118799  0.74836383  0.49901115  1
  O2-  O275  1  0.83418504  0.74687886  0.74584120  1
  O2-  O276  1  0.94889963  0.09309361  0.01472066  1
  O2-  O277  1  0.95210509  0.09726410  0.44996940  1
  O2-  O278  1  0.95434991  0.23378159  0.24186197  1
  O2-  O279  1  0.45243107  0.42527927  0.48334827  1
  O2-  O280  1  0.95036725  0.56931484  0.71296441  1
  O2-  O281  1  0.05130064  0.76768382  0.76369140  1
  O2-  O282  1  0.95079978  0.42445671  0.74322065  1
  O2-  O283  1  0.95239908  0.76765329  0.76586222  1
  O2-  O284  1  0.96091783  0.23122592  0.46164250  1
  O2-  O285  1  0.94976134  0.43255238  0.00613082  1
  O2-  O286  1  0.45865008  0.88759825  0.52905177  1
  O2-  O287  1  0.54682619  0.23828450  0.49082162  1
  O2-  O288  1  0.95157382  0.23682480  0.01619767  1
  O2-  O289  1  0.46350199  0.55095390  0.71937202  1
  O2-  O290  1  0.54564574  0.09864090  0.73668507  1
  O2-  O291  1  0.04095851  0.10987016  0.54137681  1
  O2-  O292  1  0.95031085  0.23990504  0.97723073  1
  O2-  O293  1  0.04488113  0.09539910  0.23572601  1
  O2-  O294  1  0.05102791  0.09318008  0.01553045  1
  O2-  O295  1  0.45018676  0.43584991  0.02301647  1
  O2-  O296  1  0.05249820  0.42585048  0.01337542  1
  O2-  O297  1  0.55129311  0.57139527  0.51461421  1
  O2-  O298  1  0.04141209  0.12101414  0.50460804  1
  O2-  O299  1  0.55310313  0.89942361  0.76077356  1
  O2-  O300  1  0.45797308  0.55101971  0.54312523  1
  O2-  O301  1  0.95495186  0.09313131  0.73309428  1
  O2-  O302  1  0.45297151  0.76422481  0.73760438  1
  O2-  O303  1  0.04340611  0.22119933  0.77940674  1
  O2-  O304  1  0.95405036  0.90310669  0.26487981  1
  O2-  O305  1  0.45536660  0.42671874  0.98568125  1
  O2-  O306  1  0.45231365  0.90454875  0.23703015  1
  O2-  O307  1  0.04957913  0.42824944  0.23459032  1
  O2-  O308  1  0.04649829  0.43253548  0.50556886  1
  O2-  O309  1  0.54544614  0.90077010  0.00807134  1
  O2-  O310  1  0.04747717  0.56781881  0.71673025  1
  O2-  O311  1  0.45237003  0.10326219  0.98927816  1
  O2-  O312  1  0.54833367  0.10018544  0.51609213  1
  O2-  O313  1  0.55464953  0.90050011  0.51024466  1
  O2-  O314  1  0.04262663  0.90102958  0.51265108  1
  O2-  O315  1  0.95014732  0.76558216  0.51152129  1
  O2-  O316  1  0.95011216  0.23959621  0.73449998  1
  O2-  O317  1  0.54862995  0.56979817  0.26446183  1
  O2-  O318  1  0.04841075  0.57026840  0.00824726  1
  O2-  O319  1  0.46007557  0.89159906  0.78414592  1
  O2-  O320  1  0.04584755  0.77156875  0.01164980  1
  O2-  O321  1  0.03381050  0.78354788  0.21912993  1
  O2-  O322  1  0.53778071  0.22603405  0.28515515  1
  O2-  O323  1  0.45169399  0.09738147  0.25460532  1
  O2-  O324  1  0.06610963  0.40108730  0.03292361  1
  O2-  O325  1  0.56942857  0.59331492  0.21739623  1
  O2-  O326  1  0.06468879  0.58649733  0.27852171  1
  O2-  O327  1  0.43536441  0.25968431  0.52595923  1
  O2-  O328  1  0.93814069  0.92995935  0.03255569  1
  O2-  O329  1  0.94425250  0.59361145  0.68588035  1
  O2-  O330  1  0.42151347  0.60879203  0.79892465  1
  O2-  O331  1  0.07455501  0.27441641  0.69905187  1
  O2-  O332  1  0.56529164  0.07724168  0.27924706  1
  O2-  O333  1  0.06647905  0.25660183  0.27699434  1
  O2-  O334  1  0.56478810  0.92920801  0.77302382  1
  O2-  O335  1  0.93722215  0.92981072  0.78501140  1
  O2-  O336  1  0.07981263  0.73250426  0.30260353  1
  O2-  O337  1  0.56615195  0.07556462  0.04434080  1
  O2-  O338  1  0.56480223  0.40159304  0.97087879  1
  O2-  O339  1  0.43673538  0.25819673  0.72319240  1
  O2-  O340  1  0.06770738  0.40555041  0.28457325  1
  O2-  O341  1  0.42317210  0.60760345  0.44590300  1
  O2-  O342  1  0.56523550  0.74476932  0.22468490  1
  O2-  O343  1  0.56356323  0.40223038  0.46551839  1
  O2-  O344  1  0.06090513  0.73561186  0.77333480  1
  O2-  O345  1  0.42093880  0.93835509  0.69944814  1
  O2-  O346  1  0.43420598  0.74368390  0.02415147  1
  O2-  O347  1  0.56395424  0.73707517  0.96331265  1
  O2-  O348  1  0.56456066  0.92164564  0.27420844  1
  O2-  O349  1  0.93785931  0.73810049  0.52865898  1
  O2-  O350  1  0.92941651  0.04950026  0.56276357  1
  O2-  O351  1  0.56255725  0.40169672  0.77632518  1
  O2-  O352  1  0.07886134  0.59209483  0.83497170  1
  O2-  O353  1  0.06419525  0.93146120  0.21595845  1
  O2-  O354  1  0.57083009  0.28535100  0.18554550  1
  O2-  O355  1  0.93161564  0.60613933  0.83876215  1
  O2-  O356  1  0.06189094  0.41216352  0.22336602  1
  O2-  O357  1  0.56910583  0.07796885  0.95409109  1
  O2-  O358  1  0.43712071  0.92681005  0.97632609  1
  O2-  O359  1  0.93605544  0.59406902  0.53075097  1
  O2-  O360  1  0.42483733  0.93467133  0.45587220  1
  O2-  O361  1  0.06804585  0.26219397  0.52617063  1
  O2-  O362  1  0.92839607  0.28114672  0.56143109  1
  O2-  O363  1  0.06062297  0.58334889  0.68825540  1
  O2-  O364  1  0.06470706  0.59294184  0.52568571  1
  O2-  O365  1  0.56092453  0.92770099  0.53414524  1
  O2-  O366  1  0.56119130  0.07098043  0.52752308  1
  O2-  O367  1  0.07364614  0.02972834  0.43606302  1
  O2-  O368  1  0.43550595  0.07792190  0.52575779  1
  O2-  O369  1  0.56323566  0.73429841  0.71761510  1
  O2-  O370  1  0.93637264  0.74337528  0.02100009  1
  O2-  O371  1  0.56057200  0.58530120  0.27762471  1
  O2-  O372  1  0.74977397  0.00327524  0.90823855  1
  O2-  O373  1  0.74988081  0.33415338  0.42136636  1
  O2-  O374  1  0.74968066  0.65327558  0.82887612  1
  O2-  O375  1  0.24917212  -0.00507127  0.68022190  1
  O2-  O376  1  0.75033925  0.00220685  0.30815189  1
  O2-  O377  1  0.25057839  0.33625785  0.40352269  1
  O2-  O378  1  0.25046622  0.00386144  0.10763243  1
  O2-  O379  1  0.25024441  -0.00321523  0.39990199  1
  O2-  O380  1  0.24995795  0.00455589  0.56230986  1
  O2-  O381  1  0.25031572  0.68979360  0.15506696  1
  O2-  O382  1  0.25011199  0.68032772  0.37173153  1
  O2-  O383  1  0.25005484  0.66630804  0.65224761  1
  O2-  O384  1  0.74992844  0.67412143  0.59934083  1
  O2-  O385  1  0.75001282  -0.00294926  0.07702566  1
  O2-  O386  1  0.25031213  0.33417923  0.65002178  1
  O2-  O387  1  0.75041016  0.32963980  0.32790016  1
  O2-  O388  1  0.75006988  -0.01228707  0.42659942  1
  O2-  O389  1  0.74935163  0.69010117  0.91208461  1
  O2-  O390  1  0.75023426  0.00274707  0.16972469  1
  O2-  O391  1  0.24979264  0.66272669  0.06844697  1
  O2-  O392  1  0.75054752  0.33054713  0.85183396  1
  O2-  O393  1  0.25012686  0.33636889  0.84938809  1
  O2-  O394  1  0.25010164  -0.00288328  0.88483939  1
  O2-  O395  1  0.74967604  0.67158283  0.10966293  1
  O2-  O396  1  0.74976034  0.51837533  0.91847069  1
  O2-  O397  1  0.25009230  0.50072079  0.81944159  1
  O2-  O398  1  0.75002639  0.83045500  0.34370994  1
  O2-  O399  1  0.24994828  0.49105802  0.90788235  1
  O2-  O400  1  0.25005502  0.17381546  0.11391937  1
  O2-  O401  1  0.74964223  0.16050380  0.83155810  1
  O2-  O402  1  0.24999891  0.83126006  0.59233559  1
  O2-  O403  1  0.74961969  0.17157997  0.91936613  1
  O2-  O404  1  0.75009293  0.16167106  0.11861641  1
  O2-  O405  1  0.75007963  0.82552074  0.84619255  1
  O2-  O406  1  0.75038753  0.47643492  0.83253541  1
  O2-  O407  1  0.74997088  0.15771245  0.40116722  1
  O2-  O408  1  0.25003418  0.83996419  0.05925185  1
  O2-  O409  1  0.74977548  0.51395046  0.17351697  1
  O2-  O410  1  0.75025275  0.47349821  0.61960367  1
  O2-  O411  1  0.24968260  0.14862968  0.87360549  1
  O2-  O412  1  0.25016170  0.16777104  0.55723610  1
  O2-  O413  1  0.24998648  0.49738882  0.66835255  1
  O2-  O414  1  0.75006476  0.83360467  0.13561371  1
  O2-  O415  1  0.25003293  0.50185085  0.57870865  1
  O2-  O416  1  0.24976880  0.15286894  0.63847834  1
  O2-  O417  1  0.25006538  0.82894285  0.41663053  1
  O2-  O418  1  0.25018259  0.83166689  0.14539994  1
  O2-  O419  1  0.25014416  0.49635105  0.40920731  1
  O2-  O420  1  0.04458774  0.66219768  0.12804209  1
  O2-  O421  1  0.46127475  0.01093846  0.36323033  1
  O2-  O422  1  0.48054831  0.34617089  0.62872433  1
  O2-  O423  1  0.97176924  0.33577085  0.12749811  1
  O2-  O424  1  0.53774817  -0.00050210  0.39658203  1
  O2-  O425  1  0.47882362  0.67599334  0.88242747  1
  O2-  O426  1  0.52559368  -0.00550577  0.87464045  1
  O2-  O427  1  0.03870144  0.66391427  0.39397757  1
  O2-  O428  1  0.45526573  0.65797869  0.13876408  1
  O2-  O429  1  0.47593165  0.67277550  0.62159235  1
  O2-  O430  1  0.47873663  0.67640375  0.36694417  1
  O2-  O431  1  0.02873878  -0.00134455  0.87504823  1
  O2-  O432  1  0.02182902  0.68733312  0.61742839  1
  O2-  O433  1  0.02141435  0.33370036  0.38188860  1
  O2-  O434  1  0.95362345  0.66680026  0.36904566  1
  O2-  O435  1  0.46801348  0.00710638  0.87114189  1
  O2-  O436  1  0.54091849  0.66906824  0.10620978  1
  O2-  O437  1  0.95633453  0.65863942  0.13665199  1
  O2-  O438  1  0.47331552  0.33003113  0.87169927  1
  O2-  O439  1  0.52147727  -0.00831464  0.13013249  1
  O2-  O440  1  0.01817955  0.34925057  0.62422957  1
  O2-  O441  1  0.02751062  0.33422378  0.87837315  1
  O2-  O442  1  0.47983732  0.00676102  0.62699070  1
  O2-  O443  1  0.01901872  0.67826615  0.89022141  1
