# generated using pymatgen
data_La7(Ru4O11)2
_symmetry_space_group_name_H-M   'P 1'
_cell_length_a   23.99329053
_cell_length_b   16.83392093
_cell_length_c   15.42978283
_cell_angle_alpha   89.99917904
_cell_angle_beta   90.00046854
_cell_angle_gamma   89.99933082
_symmetry_Int_Tables_number   1
_chemical_formula_structural   La7(Ru4O11)2
_chemical_formula_sum   'La84 Ru96 O264'
_cell_volume   6232.10711176
_cell_formula_units_Z   12
loop_
 _symmetry_equiv_pos_site_id
 _symmetry_equiv_pos_as_xyz
  1  'x, y, z'
loop_
 _atom_type_symbol
 _atom_type_oxidation_number
  La3+  3.0
  Ru4+  4.0
  O2-  -2.0
loop_
 _atom_site_type_symbol
 _atom_site_label
 _atom_site_symmetry_multiplicity
 _atom_site_fract_x
 _atom_site_fract_y
 _atom_site_fract_z
 _atom_site_occupancy
  La3+  La0  1  0.13928027  -0.00571179  0.12913453  1
  La3+  La1  1  0.14230182  0.00492622  0.37852407  1
  La3+  La2  1  0.13904311  0.00584976  0.62685031  1
  La3+  La3  1  0.14240980  0.00271044  0.87495680  1
  La3+  La4  1  0.13534855  0.33372433  0.12582560  1
  La3+  La5  1  0.14172152  0.32534866  0.38065091  1
  La3+  La6  1  0.14688439  0.32701957  0.62175945  1
  La3+  La7  1  0.13859080  0.33010063  0.87154305  1
  La3+  La8  1  0.14588491  0.66504221  0.11728740  1
  La3+  La9  1  0.14281595  0.66081157  0.36849464  1
  La3+  La10  1  0.14152854  0.66919527  0.62768371  1
  La3+  La11  1  0.15531711  0.66856312  0.87156884  1
  La3+  La12  1  0.63991008  0.00039404  0.12550420  1
  La3+  La13  1  0.64651026  -0.00116646  0.37621656  1
  La3+  La14  1  0.65066468  0.00101640  0.62786183  1
  La3+  La15  1  0.64734596  0.00184807  0.87075091  1
  La3+  La16  1  0.63713836  0.33233117  0.12143621  1
  La3+  La17  1  0.63556904  0.33249494  0.37932153  1
  La3+  La18  1  0.63664408  0.32743238  0.62703853  1
  La3+  La19  1  0.64010842  0.32485684  0.87008171  1
  La3+  La20  1  0.63626832  0.66949520  0.12424882  1
  La3+  La21  1  0.63955821  0.67393484  0.37423693  1
  La3+  La22  1  0.63772373  0.66767833  0.62367007  1
  La3+  La23  1  0.63862817  0.66746674  0.87275173  1
  La3+  La24  1  0.36190428  -0.00690124  0.12303275  1
  La3+  La25  1  0.35775914  0.00178736  0.37462382  1
  La3+  La26  1  0.35810612  0.00277493  0.62664965  1
  La3+  La27  1  0.35653543  0.00020602  0.87920211  1
  La3+  La28  1  0.36774816  0.33848887  0.12350758  1
  La3+  La29  1  0.35977886  0.33183217  0.37656023  1
  La3+  La30  1  0.35051912  0.32845813  0.62092707  1
  La3+  La31  1  0.36706665  0.33364976  0.87945832  1
  La3+  La32  1  0.35558232  0.66805495  0.11921629  1
  La3+  La33  1  0.35995709  0.67195379  0.37420971  1
  La3+  La34  1  0.35431068  0.66645246  0.63294710  1
  La3+  La35  1  0.34661498  0.67003947  0.87193711  1
  La3+  La36  1  0.86572685  -0.00390234  0.13072108  1
  La3+  La37  1  0.85866889  -0.00328567  0.37743914  1
  La3+  La38  1  0.84759928  0.00566486  0.62525296  1
  La3+  La39  1  0.85124467  0.00183078  0.87031021  1
  La3+  La40  1  0.85977984  0.33803070  0.12368656  1
  La3+  La41  1  0.86922142  0.32472370  0.37907511  1
  La3+  La42  1  0.86784731  0.32425901  0.62177070  1
  La3+  La43  1  0.86238327  0.32757408  0.87230610  1
  La3+  La44  1  0.86726800  0.66858411  0.12247983  1
  La3+  La45  1  0.86354219  0.66916834  0.37484329  1
  La3+  La46  1  0.85071888  0.66474045  0.62089678  1
  La3+  La47  1  0.85834356  0.65423640  0.87672632  1
  La3+  La48  1  0.49983953  0.80704883  0.61213484  1
  La3+  La49  1  0.50034714  0.83294511  0.87843859  1
  La3+  La50  1  0.00123745  0.82874205  0.13219171  1
  La3+  La51  1  -0.00556071  0.50197981  0.63290968  1
  La3+  La52  1  0.50021274  0.50169913  0.38991345  1
  La3+  La53  1  0.49592411  0.84228524  0.11830719  1
  La3+  La54  1  0.00389222  0.49672987  0.88441271  1
  La3+  La55  1  -0.00958435  0.84703758  0.38533506  1
  La3+  La56  1  0.49857317  0.48995215  0.87778538  1
  La3+  La57  1  -0.00021030  0.82833599  0.88944195  1
  La3+  La58  1  0.00075672  0.49356111  0.38160449  1
  La3+  La59  1  -0.00240524  0.50155097  0.36154619  1
  La3+  La60  1  0.49799675  0.17153841  0.11949898  1
  La3+  La61  1  0.50070277  0.50213285  0.14788310  1
  La3+  La62  1  0.00642831  0.83944574  0.87375993  1
  La3+  La63  1  0.49950383  0.16695799  0.61920208  1
  La3+  La64  1  0.50128106  0.49129541  0.64863493  1
  La3+  La65  1  0.49333615  0.50450665  0.12893636  1
  La3+  La66  1  0.49893811  0.16162327  0.37675670  1
  La3+  La67  1  0.00200907  0.15787589  0.85984403  1
  La3+  La68  1  0.49742624  0.84510300  0.86048278  1
  La3+  La69  1  -0.00264668  0.16632439  0.12056619  1
  La3+  La70  1  0.50081696  0.16384609  0.86896570  1
  La3+  La71  1  -0.00416359  0.16611832  0.13697296  1
  La3+  La72  1  0.75062187  0.49798250  0.51549714  1
  La3+  La73  1  0.75199814  0.44628624  0.00550004  1
  La3+  La74  1  0.75034719  0.15448837  0.32643829  1
  La3+  La75  1  0.24956627  0.51196026  -0.02568297  1
  La3+  La76  1  0.74868270  0.52801373  0.76001469  1
  La3+  La77  1  0.74870807  0.51297845  0.16343364  1
  La3+  La78  1  0.75046914  0.84211905  0.51313387  1
  La3+  La79  1  0.24999317  0.85889666  0.46662049  1
  La3+  La80  1  0.75060058  0.85161474  0.74959111  1
  La3+  La81  1  0.25024284  0.49007351  0.23839338  1
  La3+  La82  1  0.75073457  0.87790267  0.03035127  1
  La3+  La83  1  0.24922301  0.19966566  -0.01068243  1
  Ru4+  Ru84  1  0.00236487  -0.00120703  0.00409696  1
  Ru4+  Ru85  1  0.00206452  0.01002242  0.25593794  1
  Ru4+  Ru86  1  0.00155308  0.01422646  0.49396056  1
  Ru4+  Ru87  1  0.00140389  -0.00104647  0.74670770  1
  Ru4+  Ru88  1  -0.00119449  0.33665777  0.00357314  1
  Ru4+  Ru89  1  0.00034307  0.32344820  0.25230740  1
  Ru4+  Ru90  1  0.00252180  0.32114637  0.51048485  1
  Ru4+  Ru91  1  0.00652915  0.33187123  0.73524851  1
  Ru4+  Ru92  1  -0.00359197  0.66344737  0.00965256  1
  Ru4+  Ru93  1  0.00611612  0.67182602  0.25224793  1
  Ru4+  Ru94  1  -0.00034479  0.66698686  0.49512007  1
  Ru4+  Ru95  1  -0.00395551  0.67360087  0.74575957  1
  Ru4+  Ru96  1  0.50477491  0.00939858  0.00698177  1
  Ru4+  Ru97  1  0.49876114  0.00446573  0.23302933  1
  Ru4+  Ru98  1  0.50186001  -0.00989128  0.49814048  1
  Ru4+  Ru99  1  0.49635203  0.00317600  0.74245202  1
  Ru4+  Ru100  1  0.50679450  0.32584177  -0.00414559  1
  Ru4+  Ru101  1  0.50166248  0.32292577  0.24643288  1
  Ru4+  Ru102  1  0.49794355  0.33558006  0.49871891  1
  Ru4+  Ru103  1  0.49710008  0.33989876  0.75715123  1
  Ru4+  Ru104  1  0.50092153  0.66592638  -0.00879654  1
  Ru4+  Ru105  1  0.49945083  0.67554051  0.25398057  1
  Ru4+  Ru106  1  0.49117345  0.66620009  0.49524062  1
  Ru4+  Ru107  1  0.49833852  0.66467454  0.76275333  1
  Ru4+  Ru108  1  0.10959687  0.16809168  -0.00149955  1
  Ru4+  Ru109  1  0.11195448  0.16510778  0.25462372  1
  Ru4+  Ru110  1  0.10987751  0.16783941  0.50052518  1
  Ru4+  Ru111  1  0.11364144  0.16487504  0.74740094  1
  Ru4+  Ru112  1  0.11037987  0.49825532  -0.00252480  1
  Ru4+  Ru113  1  0.11100199  0.49594782  0.24764413  1
  Ru4+  Ru114  1  0.11531901  0.49614330  0.50397105  1
  Ru4+  Ru115  1  0.11407602  0.50133517  0.74949032  1
  Ru4+  Ru116  1  0.11491217  0.83381994  0.00076204  1
  Ru4+  Ru117  1  0.11170304  0.83208231  0.24914331  1
  Ru4+  Ru118  1  0.10722117  0.83010855  0.49973166  1
  Ru4+  Ru119  1  0.11327326  0.83419068  0.74904659  1
  Ru4+  Ru120  1  0.60921282  0.16550850  0.00269317  1
  Ru4+  Ru121  1  0.60735983  0.16568573  0.25333270  1
  Ru4+  Ru122  1  0.61413532  0.16481760  0.49925770  1
  Ru4+  Ru123  1  0.61398878  0.15994759  0.75029576  1
  Ru4+  Ru124  1  0.61224274  0.49952653  -0.00360004  1
  Ru4+  Ru125  1  0.60929243  0.50094904  0.25179854  1
  Ru4+  Ru126  1  0.61038415  0.50201398  0.49429507  1
  Ru4+  Ru127  1  0.61006797  0.50170318  0.74966986  1
  Ru4+  Ru128  1  0.61305159  0.83380077  0.00252242  1
  Ru4+  Ru129  1  0.61058510  0.83244999  0.25245937  1
  Ru4+  Ru130  1  0.60872692  0.84014481  0.49484473  1
  Ru4+  Ru131  1  0.61029753  0.83543893  0.74626643  1
  Ru4+  Ru132  1  0.39006297  0.16689565  0.00130427  1
  Ru4+  Ru133  1  0.38633310  0.16456499  0.25218865  1
  Ru4+  Ru134  1  0.38563849  0.16595572  0.50196601  1
  Ru4+  Ru135  1  0.38510325  0.15869856  0.74640392  1
  Ru4+  Ru136  1  0.38268177  0.50380498  -0.00418546  1
  Ru4+  Ru137  1  0.38301482  0.50772554  0.25167932  1
  Ru4+  Ru138  1  0.38790696  0.50226922  0.49688639  1
  Ru4+  Ru139  1  0.38721466  0.50077813  0.74863607  1
  Ru4+  Ru140  1  0.37851178  0.82981489  0.00008159  1
  Ru4+  Ru141  1  0.39146475  0.83595161  0.25111840  1
  Ru4+  Ru142  1  0.39675562  0.82693298  0.50060277  1
  Ru4+  Ru143  1  0.38764091  0.83430927  0.74540541  1
  Ru4+  Ru144  1  0.88721942  0.16659854  -0.00121192  1
  Ru4+  Ru145  1  0.89234511  0.17466441  0.25227567  1
  Ru4+  Ru146  1  0.89347380  0.16598380  0.49944332  1
  Ru4+  Ru147  1  0.88531185  0.15795476  0.75353045  1
  Ru4+  Ru148  1  0.89266529  0.50021672  0.00381943  1
  Ru4+  Ru149  1  0.88831381  0.50136417  0.24552833  1
  Ru4+  Ru150  1  0.88632054  0.49745187  0.50334439  1
  Ru4+  Ru151  1  0.88837166  0.50140175  0.74466564  1
  Ru4+  Ru152  1  0.88739379  0.83535684  -0.00126182  1
  Ru4+  Ru153  1  0.88104401  0.83101141  0.24971444  1
  Ru4+  Ru154  1  0.88738579  0.83458010  0.49894351  1
  Ru4+  Ru155  1  0.89604801  0.81623665  0.74484137  1
  Ru4+  Ru156  1  0.74982659  0.39666104  0.26456550  1
  Ru4+  Ru157  1  0.74963367  0.08756660  -0.00784801  1
  Ru4+  Ru158  1  0.75015193  0.03946887  0.23084112  1
  Ru4+  Ru159  1  0.74958299  0.77307978  0.26582547  1
  Ru4+  Ru160  1  0.25026364  0.43023610  0.73957358  1
  Ru4+  Ru161  1  0.75037022  0.23431649  0.74584306  1
  Ru4+  Ru162  1  0.75025664  0.73832267  -0.01705457  1
  Ru4+  Ru163  1  0.75106122  0.34311757  0.49918551  1
  Ru4+  Ru164  1  0.24950659  0.57298888  0.50620512  1
  Ru4+  Ru165  1  0.74979178  0.63330040  0.24814870  1
  Ru4+  Ru166  1  0.74896605  0.26205633  0.22394080  1
  Ru4+  Ru167  1  0.24923607  0.34540667  0.26670183  1
  Ru4+  Ru168  1  0.25030525  0.77185159  0.23582640  1
  Ru4+  Ru169  1  0.24935866  0.99044389  0.52773944  1
  Ru4+  Ru170  1  0.74945078  0.23528419  0.01443391  1
  Ru4+  Ru171  1  0.74919315  0.64407392  0.48637626  1
  Ru4+  Ru172  1  0.24951220  0.63632033  0.24371689  1
  Ru4+  Ru173  1  0.74945979  0.66898420  0.75548219  1
  Ru4+  Ru174  1  0.75064606  0.38379251  0.73390565  1
  Ru4+  Ru175  1  0.25101320  0.05521590  -0.00426105  1
  Ru4+  Ru176  1  0.24951810  0.90224368  0.74444365  1
  Ru4+  Ru177  1  0.74947764  0.59848711  -0.01360422  1
  Ru4+  Ru178  1  0.24973784  0.08800650  0.25656249  1
  Ru4+  Ru179  1  0.25118518  0.72223448  0.50855660  1
  O2-  O180  1  0.17039712  0.07983813  0.00386262  1
  O2-  O181  1  0.17015755  0.08050675  0.24697304  1
  O2-  O182  1  0.16592899  0.08069286  0.50525705  1
  O2-  O183  1  0.16511270  0.08145178  0.75207140  1
  O2-  O184  1  0.16591750  0.41138341  -0.00179825  1
  O2-  O185  1  0.16613892  0.41003281  0.24799374  1
  O2-  O186  1  0.16363325  0.41512823  0.50045748  1
  O2-  O187  1  0.16583559  0.41248431  0.75410380  1
  O2-  O188  1  0.16216361  0.74834678  -0.00113982  1
  O2-  O189  1  0.16805427  0.75111943  0.24970789  1
  O2-  O190  1  0.17248199  0.74964035  0.50876451  1
  O2-  O191  1  0.16107480  0.75061837  0.74830811  1
  O2-  O192  1  0.66757851  0.08117489  0.00223852  1
  O2-  O193  1  0.67010681  0.07943044  0.24902683  1
  O2-  O194  1  0.66375379  0.08368043  0.50035717  1
  O2-  O195  1  0.66502639  0.08268836  0.74890382  1
  O2-  O196  1  0.66176753  0.41255452  0.00241272  1
  O2-  O197  1  0.66566526  0.41099105  0.25100149  1
  O2-  O198  1  0.66743000  0.41042380  0.50212494  1
  O2-  O199  1  0.66651345  0.40992344  0.74813982  1
  O2-  O200  1  0.66744556  0.74670929  -0.00000040  1
  O2-  O201  1  0.66886415  0.75055062  0.24772237  1
  O2-  O202  1  0.66471214  0.75005598  0.50259259  1
  O2-  O203  1  0.66946258  0.74557626  0.74988964  1
  O2-  O204  1  0.33436891  0.25816164  0.00315460  1
  O2-  O205  1  0.33548356  0.25256874  0.24654993  1
  O2-  O206  1  0.33446653  0.25098884  0.49673341  1
  O2-  O207  1  0.34060326  0.25275092  0.75299524  1
  O2-  O208  1  0.33287820  0.58840488  -0.00187235  1
  O2-  O209  1  0.32920470  0.59186009  0.24982049  1
  O2-  O210  1  0.33236955  0.58541767  0.50084097  1
  O2-  O211  1  0.33921356  0.58344551  0.75189102  1
  O2-  O212  1  0.33070910  0.91662715  0.00633942  1
  O2-  O213  1  0.33811284  0.91883786  0.25009266  1
  O2-  O214  1  0.33691757  0.91948185  0.49888817  1
  O2-  O215  1  0.32843502  0.91753185  0.74992796  1
  O2-  O216  1  0.83403056  0.25055361  0.00141876  1
  O2-  O217  1  0.83145626  0.25436173  0.25315970  1
  O2-  O218  1  0.83270361  0.25468618  0.49619720  1
  O2-  O219  1  0.83532805  0.24984144  0.74920229  1
  O2-  O220  1  0.83103916  0.58205704  0.00698766  1
  O2-  O221  1  0.83077131  0.59123109  0.24491689  1
  O2-  O222  1  0.83265700  0.58819815  0.49243426  1
  O2-  O223  1  0.83137151  0.59077758  0.75228776  1
  O2-  O224  1  0.83671848  0.92289567  -0.00070177  1
  O2-  O225  1  0.83433057  0.91666226  0.25068723  1
  O2-  O226  1  0.83551255  0.91851634  0.50311904  1
  O2-  O227  1  0.84065126  0.91160488  0.75038943  1
  O2-  O228  1  0.16074060  0.25772851  0.00216891  1
  O2-  O229  1  0.16993972  0.25244237  0.24493160  1
  O2-  O230  1  0.16675148  0.24978461  0.50130103  1
  O2-  O231  1  0.16363108  0.25318106  0.75483464  1
  O2-  O232  1  0.16316531  0.58455946  -0.00389984  1
  O2-  O233  1  0.16785856  0.58707215  0.24347048  1
  O2-  O234  1  0.16637651  0.58676713  0.50290685  1
  O2-  O235  1  0.16214888  0.58380988  0.74789521  1
  O2-  O236  1  0.16265723  0.92003533  0.00080188  1
  O2-  O237  1  0.16816149  0.91216948  0.24675927  1
  O2-  O238  1  0.16333465  0.91848447  0.50370772  1
  O2-  O239  1  0.16805157  0.91871573  0.75153332  1
  O2-  O240  1  0.66617449  0.24906220  0.00457195  1
  O2-  O241  1  0.66375549  0.25238866  0.24881851  1
  O2-  O242  1  0.66705490  0.25712375  0.49832300  1
  O2-  O243  1  0.66541580  0.24786281  0.74534605  1
  O2-  O244  1  0.66764608  0.58549422  -0.00041778  1
  O2-  O245  1  0.66649659  0.59312974  0.24521348  1
  O2-  O246  1  0.66752262  0.58956670  0.50359085  1
  O2-  O247  1  0.66524237  0.59175595  0.74856004  1
  O2-  O248  1  0.66290260  0.92278059  -0.00119015  1
  O2-  O249  1  0.66016641  0.91703097  0.24788270  1
  O2-  O250  1  0.66808903  0.91634743  0.50518189  1
  O2-  O251  1  0.66626647  0.91640190  0.75219217  1
  O2-  O252  1  0.33334752  0.08170426  0.00672380  1
  O2-  O253  1  0.33069180  0.08188623  0.24688248  1
  O2-  O254  1  0.33385433  0.08138170  0.49897323  1
  O2-  O255  1  0.33169990  0.08200677  0.74801501  1
  O2-  O256  1  0.33009562  0.41598020  -0.00330897  1
  O2-  O257  1  0.33381274  0.41010026  0.25154416  1
  O2-  O258  1  0.34056407  0.41673320  0.49974819  1
  O2-  O259  1  0.33172883  0.41250491  0.75230097  1
  O2-  O260  1  0.33202824  0.74608840  0.00273953  1
  O2-  O261  1  0.33441376  0.75033693  0.24710031  1
  O2-  O262  1  0.33343600  0.74662327  0.49766217  1
  O2-  O263  1  0.33543316  0.75444993  0.75108740  1
  O2-  O264  1  0.83269380  0.08131388  0.00343404  1
  O2-  O265  1  0.83108967  0.07966672  0.25237789  1
  O2-  O266  1  0.83720318  0.08455098  0.49782192  1
  O2-  O267  1  0.83157135  0.08336778  0.74863546  1
  O2-  O268  1  0.84304676  0.41023813  -0.00343218  1
  O2-  O269  1  0.83464454  0.41284543  0.25149453  1
  O2-  O270  1  0.82974425  0.40895737  0.49952751  1
  O2-  O271  1  0.83699297  0.41095383  0.74926142  1
  O2-  O272  1  0.83131333  0.74761621  0.00190319  1
  O2-  O273  1  0.83236690  0.74556517  0.25076336  1
  O2-  O274  1  0.83291772  0.74877241  0.49576030  1
  O2-  O275  1  0.82048701  0.74969244  0.75063351  1
  O2-  O276  1  0.95366141  0.42779716  0.23484757  1
  O2-  O277  1  0.97872624  0.79671550  0.74469745  1
  O2-  O278  1  0.54894424  0.90364016  0.99448315  1
  O2-  O279  1  0.54287094  0.45049607  0.02941375  1
  O2-  O280  1  0.45720385  0.22338251  0.26089596  1
  O2-  O281  1  0.95730935  0.43155406  0.01249696  1
  O2-  O282  1  0.54421299  0.09749127  0.73369360  1
  O2-  O283  1  0.55175736  0.23728008  0.75798884  1
  O2-  O284  1  0.54640481  0.23238100  0.48742189  1
  O2-  O285  1  0.44812314  0.42929726  0.00764467  1
  O2-  O286  1  0.05301757  0.09308322  0.51402861  1
  O2-  O287  1  0.03558848  0.78289497  0.54283056  1
  O2-  O288  1  0.46295675  0.88805568  0.70524967  1
  O2-  O289  1  0.04921939  0.56290627  0.49911052  1
  O2-  O290  1  0.45100987  0.76067754  0.26150946  1
  O2-  O291  1  0.54875171  0.89235855  0.54444516  1
  O2-  O292  1  0.95943791  0.57229593  0.79066464  1
  O2-  O293  1  0.94362858  0.07930237  0.52221672  1
  O2-  O294  1  0.05012579  0.23460627  0.74753506  1
  O2-  O295  1  0.04849763  0.56483135  0.24677991  1
  O2-  O296  1  0.95032227  0.56752077  0.48726279  1
  O2-  O297  1  0.45315122  0.56948291  0.98608849  1
  O2-  O298  1  0.05238072  0.09917751  0.49726424  1
  O2-  O299  1  0.97544931  0.79167594  0.73590020  1
  O2-  O300  1  0.44698874  0.42717735  0.23547304  1
  O2-  O301  1  0.95022421  0.24068548  0.50636293  1
  O2-  O302  1  0.94747262  0.24692051  0.30176186  1
  O2-  O303  1  0.94821297  0.25136397  0.77003770  1
  O2-  O304  1  0.55118171  0.75686761  0.02022058  1
  O2-  O305  1  0.47145126  0.77168462  0.44840241  1
  O2-  O306  1  0.94772691  0.22753856  0.74064633  1
  O2-  O307  1  0.04906135  0.90432920  0.73243006  1
  O2-  O308  1  0.44775790  0.76162594  0.99444989  1
  O2-  O309  1  0.05154188  0.91292256  0.49355178  1
  O2-  O310  1  0.55015156  0.54929953  0.54947353  1
  O2-  O311  1  0.45305722  0.90555350  0.99143990  1
  O2-  O312  1  0.95508996  0.10118387  0.00544220  1
  O2-  O313  1  0.95019524  0.24226959  0.48888340  1
  O2-  O314  1  0.45160368  0.54789880  0.55124336  1
  O2-  O315  1  0.95788353  0.23957536  0.98203578  1
  O2-  O316  1  0.45577979  0.90750041  0.23927818  1
  O2-  O317  1  0.03368115  0.77353070  0.29150826  1
  O2-  O318  1  0.94560859  0.89919326  0.23848332  1
  O2-  O319  1  0.44630940  0.91086863  0.51553616  1
  O2-  O320  1  0.02341781  0.77651211  0.51013630  1
  O2-  O321  1  0.04825007  0.57024351  0.73620467  1
  O2-  O322  1  0.45809193  0.44088282  0.26751622  1
  O2-  O323  1  0.03564048  0.89578200  0.24954348  1
  O2-  O324  1  0.06533978  0.25756332  0.27058161  1
  O2-  O325  1  0.06176169  0.06924516  0.71898012  1
  O2-  O326  1  0.06938669  0.08965486  0.17966299  1
  O2-  O327  1  0.55920391  0.07303789  0.28547588  1
  O2-  O328  1  0.56295337  0.61838195  0.42885968  1
  O2-  O329  1  0.93681254  0.40863001  0.51995180  1
  O2-  O330  1  0.43938317  0.73294232  0.72162017  1
  O2-  O331  1  0.43997523  0.25193776  0.97928637  1
  O2-  O332  1  0.42874615  0.71930722  0.56229270  1
  O2-  O333  1  0.43040495  0.91746048  0.97998863  1
  O2-  O334  1  0.56533276  0.73526910  0.27917854  1
  O2-  O335  1  0.93765181  0.92857540  0.96232862  1
  O2-  O336  1  0.56180007  0.41302020  0.77635449  1
  O2-  O337  1  0.09150263  0.72034651  0.45415496  1
  O2-  O338  1  0.56205500  0.26632855  0.77502740  1
  O2-  O339  1  0.56591706  0.95879365  0.43042492  1
  O2-  O340  1  0.06729287  0.26425557  0.47341496  1
  O2-  O341  1  0.43382000  0.40361157  0.02383777  1
  O2-  O342  1  0.93573816  0.58882410  0.97471813  1
  O2-  O343  1  0.43854209  0.26196513  0.53841033  1
  O2-  O344  1  0.93923462  0.06834021  0.78619086  1
  O2-  O345  1  0.08190649  0.94449693  0.28066478  1
  O2-  O346  1  0.55988099  0.59652500  0.71632367  1
  O2-  O347  1  0.91801553  0.57199421  0.65606175  1
  O2-  O348  1  0.93543189  0.59268899  0.27317263  1
  O2-  O349  1  0.93742668  0.74948985  0.02625218  1
  O2-  O350  1  0.91413802  0.73959650  0.83488835  1
  O2-  O351  1  0.43023109  0.09530179  0.81823002  1
  O2-  O352  1  0.07125491  0.71896160  0.18060535  1
  O2-  O353  1  0.43711429  0.06784614  0.28912963  1
  O2-  O354  1  0.06795470  0.09296170  0.31828890  1
  O2-  O355  1  0.94011878  0.08375208  0.22111753  1
  O2-  O356  1  0.56238617  0.93229472  0.71807359  1
  O2-  O357  1  0.93754388  0.93274849  0.23308230  1
  O2-  O358  1  0.93081300  0.26334528  0.15134461  1
  O2-  O359  1  0.56186425  0.40507791  0.46415338  1
  O2-  O360  1  0.44444459  0.07282242  0.52083830  1
  O2-  O361  1  0.93675913  0.57669004  0.80694055  1
  O2-  O362  1  0.41849167  0.92755443  0.81283189  1
  O2-  O363  1  0.95169123  0.24071385  0.29872927  1
  O2-  O364  1  0.56946603  0.37494577  0.93627841  1
  O2-  O365  1  0.43470599  0.60304789  0.22015125  1
  O2-  O366  1  0.06429399  0.07893085  0.97425765  1
  O2-  O367  1  0.43374928  0.60786150  0.42259420  1
  O2-  O368  1  0.91181701  0.73423026  0.67210428  1
  O2-  O369  1  0.56378930  0.59725275  0.03672261  1
  O2-  O370  1  0.43841094  0.06979292  0.67596810  1
  O2-  O371  1  0.43705159  0.41278720  0.76989282  1
  O2-  O372  1  0.74940628  0.65949060  0.10706208  1
  O2-  O373  1  0.25130382  0.33778445  0.58327474  1
  O2-  O374  1  0.74888719  0.32377044  0.62591287  1
  O2-  O375  1  0.74989441  0.00962884  0.42530049  1
  O2-  O376  1  0.75004241  -0.01998175  0.64400172  1
  O2-  O377  1  0.75131179  0.31412398  0.83055615  1
  O2-  O378  1  0.24866541  0.66924568  0.68781672  1
  O2-  O379  1  0.25060382  0.33802396  0.38308835  1
  O2-  O380  1  0.75089517  0.00159860  0.87268385  1
  O2-  O381  1  0.25118359  0.66388211  0.11887151  1
  O2-  O382  1  0.75050160  -0.00806986  0.11660081  1
  O2-  O383  1  0.25061369  0.65425988  0.38877129  1
  O2-  O384  1  0.74974853  0.67156971  0.36660567  1
  O2-  O385  1  0.24798550  0.66264579  0.86004610  1
  O2-  O386  1  0.75091722  -0.01975583  0.34022058  1
  O2-  O387  1  0.24990532  0.33011274  0.67457605  1
  O2-  O388  1  0.25065818  -0.00261132  0.39729895  1
  O2-  O389  1  0.24863561  0.64744845  0.59947553  1
  O2-  O390  1  0.74688331  0.67188254  0.60994203  1
  O2-  O391  1  0.74976193  0.32953489  0.37212331  1
  O2-  O392  1  0.75023396  0.34423828  0.12357680  1
  O2-  O393  1  0.75013156  0.33004715  0.95598306  1
  O2-  O394  1  0.24901667  -0.00787285  0.65579166  1
  O2-  O395  1  0.24907425  -0.00411761  0.89712054  1
  O2-  O396  1  0.24967780  0.49714945  0.65569783  1
  O2-  O397  1  0.25034683  0.83814305  0.62072562  1
  O2-  O398  1  0.74991004  0.17132447  0.13237384  1
  O2-  O399  1  0.74899726  0.50554775  0.38723804  1
  O2-  O400  1  0.24970853  0.47545910  0.45536000  1
  O2-  O401  1  0.25069167  0.16527592  0.59153720  1
  O2-  O402  1  0.24990968  0.16361498  0.86647499  1
  O2-  O403  1  0.24932329  0.49006516  0.83648829  1
  O2-  O404  1  0.75023728  0.82468090  0.16398299  1
  O2-  O405  1  0.74924828  0.81819661  0.88956568  1
  O2-  O406  1  0.25060037  0.17058117  0.32907751  1
  O2-  O407  1  0.75028120  0.50941820  0.30087057  1
  O2-  O408  1  0.74954235  0.82270073  0.37207195  1
  O2-  O409  1  0.24975570  0.84362956  0.88065546  1
  O2-  O410  1  0.74966396  0.51026338  0.89157711  1
  O2-  O411  1  0.24959741  0.50514248  0.37349232  1
  O2-  O412  1  0.25047680  0.16435190  0.41266500  1
  O2-  O413  1  0.25064971  0.82930436  0.33167238  1
  O2-  O414  1  0.25017442  0.83176765  0.14651240  1
  O2-  O415  1  0.24931079  0.49174435  0.10621274  1
  O2-  O416  1  0.75012936  0.16804026  0.90790626  1
  O2-  O417  1  0.74957540  0.47469730  0.64141861  1
  O2-  O418  1  0.74918585  0.15651106  0.66388880  1
  O2-  O419  1  0.74912772  0.16915790  0.57988018  1
  O2-  O420  1  0.95691444  -0.00341464  0.10478240  1
  O2-  O421  1  0.04926320  0.34558094  0.61817315  1
  O2-  O422  1  0.99092741  0.66380979  0.61179885  1
  O2-  O423  1  0.94937985  -0.00567087  0.36927707  1
  O2-  O424  1  0.02015116  0.35457118  0.37828279  1
  O2-  O425  1  0.47022562  0.01453653  0.90026350  1
  O2-  O426  1  0.45164732  0.66916171  0.86453394  1
  O2-  O427  1  0.45451314  0.00809003  0.11326908  1
  O2-  O428  1  0.54731963  0.66572107  0.87296819  1
  O2-  O429  1  0.99783203  0.67541966  0.88416409  1
  O2-  O430  1  0.45699821  0.31477526  0.13569361  1
  O2-  O431  1  0.54616611  0.32481936  0.12814944  1
  O2-  O432  1  0.54719879  -0.00050725  0.12787675  1
  O2-  O433  1  0.47391709  0.33214715  0.37437427  1
  O2-  O434  1  0.47457101  0.33273921  0.87936504  1
  O2-  O435  1  0.03063418  0.33037140  0.12307719  1
  O2-  O436  1  0.97526978  0.66249483  0.13240518  1
  O2-  O437  1  0.95830929  0.33760663  0.64548460  1
  O2-  O438  1  0.04689992  -0.02284946  0.10796793  1
  O2-  O439  1  0.03053624  -0.01054464  0.38570211  1
  O2-  O440  1  0.55325695  0.00231109  0.87817378  1
  O2-  O441  1  0.02621116  -0.00795164  0.87291429  1
  O2-  O442  1  0.03892197  0.64391767  0.36644899  1
  O2-  O443  1  0.95344794  0.68926788  0.38787817  1
