# generated using pymatgen
data_La7(Ru4O11)2
_symmetry_space_group_name_H-M   'P 1'
_cell_length_a   23.99107918
_cell_length_b   16.83088127
_cell_length_c   15.42827674
_cell_angle_alpha   89.99984461
_cell_angle_beta   90.00107442
_cell_angle_gamma   89.99949087
_symmetry_Int_Tables_number   1
_chemical_formula_structural   La7(Ru4O11)2
_chemical_formula_sum   'La84 Ru96 O264'
_cell_volume   6229.79937202
_cell_formula_units_Z   12
loop_
 _symmetry_equiv_pos_site_id
 _symmetry_equiv_pos_as_xyz
  1  'x, y, z'
loop_
 _atom_type_symbol
 _atom_type_oxidation_number
  La3+  3.0
  Ru4+  4.0
  O2-  -2.0
loop_
 _atom_site_type_symbol
 _atom_site_label
 _atom_site_symmetry_multiplicity
 _atom_site_fract_x
 _atom_site_fract_y
 _atom_site_fract_z
 _atom_site_occupancy
  La3+  La0  1  0.13998200  0.00103241  0.12563273  1
  La3+  La1  1  0.13934914  -0.00212429  0.37410879  1
  La3+  La2  1  0.13905765  0.00058992  0.62350986  1
  La3+  La3  1  0.13659982  0.00115520  0.87442069  1
  La3+  La4  1  0.13735262  0.33518108  0.12419035  1
  La3+  La5  1  0.14142515  0.33128617  0.36939873  1
  La3+  La6  1  0.13772415  0.33456486  0.62714817  1
  La3+  La7  1  0.14075876  0.33299973  0.87480715  1
  La3+  La8  1  0.13801531  0.66627861  0.12741573  1
  La3+  La9  1  0.13644506  0.66732554  0.37814037  1
  La3+  La10  1  0.14332216  0.66504590  0.62062594  1
  La3+  La11  1  0.13611396  0.66728960  0.87093284  1
  La3+  La12  1  0.64088440  -0.00089672  0.12420227  1
  La3+  La13  1  0.64104166  -0.00073988  0.37409589  1
  La3+  La14  1  0.64069045  -0.00150138  0.62218394  1
  La3+  La15  1  0.63851847  0.00065623  0.87385602  1
  La3+  La16  1  0.64304517  0.33555662  0.12752379  1
  La3+  La17  1  0.64220853  0.33260126  0.37245175  1
  La3+  La18  1  0.64089672  0.33022753  0.62662917  1
  La3+  La19  1  0.63726691  0.33256182  0.87458680  1
  La3+  La20  1  0.64107554  0.66488513  0.12380780  1
  La3+  La21  1  0.63920764  0.66770654  0.37594467  1
  La3+  La22  1  0.63604655  0.66565704  0.62658617  1
  La3+  La23  1  0.63880717  0.66430645  0.87269420  1
  La3+  La24  1  0.36115351  0.00085181  0.12871390  1
  La3+  La25  1  0.35985174  -0.00220389  0.37597422  1
  La3+  La26  1  0.36066836  0.00003539  0.62259123  1
  La3+  La27  1  0.36381255  0.00053944  0.87528695  1
  La3+  La28  1  0.36098126  0.33562038  0.12453596  1
  La3+  La29  1  0.36199824  0.33480899  0.37357330  1
  La3+  La30  1  0.36228956  0.33306563  0.62726083  1
  La3+  La31  1  0.35877700  0.33268264  0.87414748  1
  La3+  La32  1  0.36216332  0.66608683  0.12922110  1
  La3+  La33  1  0.36284601  0.66757932  0.37495208  1
  La3+  La34  1  0.35327427  0.66236959  0.61794565  1
  La3+  La35  1  0.36376776  0.66743714  0.87179356  1
  La3+  La36  1  0.86060358  -0.00347841  0.12414113  1
  La3+  La37  1  0.86162161  -0.00487002  0.37460870  1
  La3+  La38  1  0.85970522  0.00022901  0.62678310  1
  La3+  La39  1  0.86478116  0.00185058  0.87069562  1
  La3+  La40  1  0.86072930  0.33704185  0.12757738  1
  La3+  La41  1  0.85808714  0.33269594  0.37370376  1
  La3+  La42  1  0.86258556  0.33340959  0.62657396  1
  La3+  La43  1  0.86297824  0.33371316  0.87461052  1
  La3+  La44  1  0.86220125  0.66439358  0.12344391  1
  La3+  La45  1  0.86169783  0.66625380  0.37503043  1
  La3+  La46  1  0.86350755  0.66554132  0.62591451  1
  La3+  La47  1  0.86012751  0.66622614  0.87561754  1
  La3+  La48  1  0.50268273  0.50362587  0.88070131  1
  La3+  La49  1  0.50344862  0.84027858  0.87456370  1
  La3+  La50  1  0.49639614  0.50155663  0.13620305  1
  La3+  La51  1  0.50231942  0.16930128  0.11713826  1
  La3+  La52  1  -0.00188430  0.50056392  0.38485184  1
  La3+  La53  1  -0.00429739  0.17031247  0.62215397  1
  La3+  La54  1  0.00015553  0.83242085  0.61605555  1
  La3+  La55  1  0.49744160  0.50091156  0.35982724  1
  La3+  La56  1  0.00078210  0.82915357  0.88243140  1
  La3+  La57  1  0.49615418  0.51106976  0.62721542  1
  La3+  La58  1  -0.00107360  0.83427484  0.63300351  1
  La3+  La59  1  -0.00005041  0.16344667  0.64248611  1
  La3+  La60  1  -0.00201390  0.50306969  0.88399133  1
  La3+  La61  1  0.00310994  0.50565755  0.13339916  1
  La3+  La62  1  0.49899642  0.16517123  0.13864671  1
  La3+  La63  1  0.50202102  0.16775769  0.63034824  1
  La3+  La64  1  -0.00034422  0.83032686  0.36726286  1
  La3+  La65  1  -0.00215354  0.16619566  0.88724326  1
  La3+  La66  1  0.49423044  0.82505061  0.12519943  1
  La3+  La67  1  -0.00046513  0.17480448  0.37013050  1
  La3+  La68  1  0.50293468  0.49959240  0.11652951  1
  La3+  La69  1  0.49863269  0.83148351  0.14545392  1
  La3+  La70  1  -0.00850981  0.16561653  0.38615840  1
  La3+  La71  1  0.49913442  0.49749380  0.86025054  1
  La3+  La72  1  0.25002967  0.53581673  0.77217272  1
  La3+  La73  1  0.75035054  0.13263795  0.50502248  1
  La3+  La74  1  0.24996394  0.12387204  0.47049609  1
  La3+  La75  1  0.75041579  0.16346516  -0.04141477  1
  La3+  La76  1  0.24947598  0.82312655  -0.02521312  1
  La3+  La77  1  0.75016538  0.53504398  0.79293921  1
  La3+  La78  1  0.24941076  0.12019479  -0.00683891  1
  La3+  La79  1  0.25109556  0.12126206  0.29639961  1
  La3+  La80  1  0.25054118  0.83821734  0.21371734  1
  La3+  La81  1  0.25006974  0.49818898  0.24884492  1
  La3+  La82  1  0.25024595  0.83323672  0.51132731  1
  La3+  La83  1  0.74963410  0.20142295  0.23199025  1
  Ru4+  Ru84  1  0.00342957  0.00483487  0.00111604  1
  Ru4+  Ru85  1  -0.00229697  -0.00592900  0.24557455  1
  Ru4+  Ru86  1  -0.00177246  -0.00477543  0.50177903  1
  Ru4+  Ru87  1  0.00559829  -0.00700886  0.75127079  1
  Ru4+  Ru88  1  0.00035367  0.33317940  0.00190572  1
  Ru4+  Ru89  1  0.00106466  0.33885146  0.24942030  1
  Ru4+  Ru90  1  -0.00265124  0.34254076  0.49995336  1
  Ru4+  Ru91  1  0.00097994  0.33788514  0.74957934  1
  Ru4+  Ru92  1  -0.00097500  0.66638605  0.00381016  1
  Ru4+  Ru93  1  -0.00199714  0.66496820  0.24922612  1
  Ru4+  Ru94  1  -0.00280600  0.65965311  0.49949641  1
  Ru4+  Ru95  1  -0.00027128  0.66202747  0.74752638  1
  Ru4+  Ru96  1  0.50108895  0.00098809  -0.00472100  1
  Ru4+  Ru97  1  0.49984462  -0.00098348  0.25757076  1
  Ru4+  Ru98  1  0.50000524  0.00311540  0.49574271  1
  Ru4+  Ru99  1  0.50099816  0.00243375  0.75439944  1
  Ru4+  Ru100  1  0.49794896  0.32923270  -0.00163631  1
  Ru4+  Ru101  1  0.50059144  0.32683441  0.25360632  1
  Ru4+  Ru102  1  0.49965288  0.32566992  0.50147272  1
  Ru4+  Ru103  1  0.49794049  0.33276453  0.74853863  1
  Ru4+  Ru104  1  0.50139878  0.67211765  -0.00297847  1
  Ru4+  Ru105  1  0.49996325  0.66978771  0.25342818  1
  Ru4+  Ru106  1  0.50146611  0.67530015  0.49961138  1
  Ru4+  Ru107  1  0.49398490  0.67648451  0.75153450  1
  Ru4+  Ru108  1  0.11034066  0.16769074  -0.00113566  1
  Ru4+  Ru109  1  0.11716808  0.17173041  0.24680546  1
  Ru4+  Ru110  1  0.11559196  0.16790157  0.50063716  1
  Ru4+  Ru111  1  0.11574443  0.16951129  0.75124787  1
  Ru4+  Ru112  1  0.11287208  0.49629872  0.00006943  1
  Ru4+  Ru113  1  0.11117374  0.50153578  0.25061215  1
  Ru4+  Ru114  1  0.11193378  0.50280326  0.50120730  1
  Ru4+  Ru115  1  0.10983315  0.49929759  0.74877353  1
  Ru4+  Ru116  1  0.10947569  0.83277482  -0.00203768  1
  Ru4+  Ru117  1  0.11260142  0.83237432  0.24929487  1
  Ru4+  Ru118  1  0.11465036  0.83756691  0.50010923  1
  Ru4+  Ru119  1  0.11385826  0.83349790  0.75082105  1
  Ru4+  Ru120  1  0.61074848  0.16563691  -0.00052521  1
  Ru4+  Ru121  1  0.61084833  0.16701481  0.24888593  1
  Ru4+  Ru122  1  0.61164336  0.17062302  0.50013216  1
  Ru4+  Ru123  1  0.61456763  0.16574446  0.74991029  1
  Ru4+  Ru124  1  0.61523788  0.49935530  0.00010019  1
  Ru4+  Ru125  1  0.61532439  0.49937271  0.25113696  1
  Ru4+  Ru126  1  0.61533799  0.50263212  0.50151087  1
  Ru4+  Ru127  1  0.61433661  0.49591596  0.74832839  1
  Ru4+  Ru128  1  0.61431036  0.83560704  -0.00162401  1
  Ru4+  Ru129  1  0.61302339  0.83690576  0.25042419  1
  Ru4+  Ru130  1  0.61192385  0.83482747  0.49796567  1
  Ru4+  Ru131  1  0.61368065  0.83290282  0.74857212  1
  Ru4+  Ru132  1  0.38908261  0.16900575  0.00007935  1
  Ru4+  Ru133  1  0.39047248  0.16585921  0.24950603  1
  Ru4+  Ru134  1  0.38970800  0.16644578  0.50015103  1
  Ru4+  Ru135  1  0.38817447  0.16991928  0.75110708  1
  Ru4+  Ru136  1  0.38403758  0.49577942  0.00001834  1
  Ru4+  Ru137  1  0.38698049  0.49939996  0.25236245  1
  Ru4+  Ru138  1  0.38600282  0.50331971  0.50021918  1
  Ru4+  Ru139  1  0.38924353  0.50056620  0.74878503  1
  Ru4+  Ru140  1  0.38924051  0.83271462  -0.00297976  1
  Ru4+  Ru141  1  0.38912194  0.83201044  0.25328235  1
  Ru4+  Ru142  1  0.39091696  0.82994066  0.50160119  1
  Ru4+  Ru143  1  0.38817259  0.83089266  0.74793109  1
  Ru4+  Ru144  1  0.89011397  0.16860002  0.00160894  1
  Ru4+  Ru145  1  0.88740169  0.16554703  0.24848425  1
  Ru4+  Ru146  1  0.88723519  0.16499740  0.50052772  1
  Ru4+  Ru147  1  0.88144424  0.16953942  0.75241045  1
  Ru4+  Ru148  1  0.88539472  0.50220004  -0.00029674  1
  Ru4+  Ru149  1  0.88717513  0.49620475  0.25026555  1
  Ru4+  Ru150  1  0.88875843  0.50015223  0.50072637  1
  Ru4+  Ru151  1  0.88850356  0.49875931  0.75164274  1
  Ru4+  Ru152  1  0.88360075  0.83295921  -0.00162305  1
  Ru4+  Ru153  1  0.88627384  0.83537610  0.25072330  1
  Ru4+  Ru154  1  0.88505960  0.83560631  0.50018770  1
  Ru4+  Ru155  1  0.88611833  0.83099538  0.75104668  1
  Ru4+  Ru156  1  0.25023697  0.69558112  0.00241525  1
  Ru4+  Ru157  1  0.75032189  0.39437720  0.74892681  1
  Ru4+  Ru158  1  0.24998027  0.39818449  0.73380180  1
  Ru4+  Ru159  1  0.75029738  0.57790653  0.25220237  1
  Ru4+  Ru160  1  0.75017336  0.41519400  0.49477988  1
  Ru4+  Ru161  1  0.74980771  0.05803808  0.25295455  1
  Ru4+  Ru162  1  0.74990502  0.02913744  -0.00406871  1
  Ru4+  Ru163  1  0.74990558  0.75150552  -0.00060191  1
  Ru4+  Ru164  1  0.75044535  0.27567082  0.50705191  1
  Ru4+  Ru165  1  0.75054851  0.58853045  0.49580613  1
  Ru4+  Ru166  1  0.25006656  0.08340361  0.73951293  1
  Ru4+  Ru167  1  0.25063634  0.27250949  0.25210194  1
  Ru4+  Ru168  1  0.75026964  0.75687608  0.49396402  1
  Ru4+  Ru169  1  0.25077181  0.73234743  0.75754257  1
  Ru4+  Ru170  1  0.75037045  0.29873827  -0.01423851  1
  Ru4+  Ru171  1  0.25018522  0.26701730  0.50443488  1
  Ru4+  Ru172  1  0.24987534  0.56577913  0.00243606  1
  Ru4+  Ru173  1  0.24962119  0.42342500  0.50672733  1
  Ru4+  Ru174  1  0.74977187  0.91682028  0.74622912  1
  Ru4+  Ru175  1  0.25015720  0.92006781  0.75664335  1
  Ru4+  Ru176  1  0.75027472  0.75397478  0.25469798  1
  Ru4+  Ru177  1  0.25011398  0.27041259  0.00909321  1
  Ru4+  Ru178  1  0.24987570  0.94806025  0.00662794  1
  Ru4+  Ru179  1  0.74988815  0.75370241  0.75183250  1
  O2-  O180  1  0.16094219  0.07797882  -0.00048058  1
  O2-  O181  1  0.16760260  0.08044700  0.25174430  1
  O2-  O182  1  0.16516000  0.07818995  0.50184224  1
  O2-  O183  1  0.16662478  0.07933979  0.75161983  1
  O2-  O184  1  0.16500918  0.41502860  0.00147797  1
  O2-  O185  1  0.16903005  0.41494853  0.24922198  1
  O2-  O186  1  0.17008809  0.41772675  0.50181729  1
  O2-  O187  1  0.16763870  0.41336740  0.75011541  1
  O2-  O188  1  0.16339414  0.74386569  0.00090109  1
  O2-  O189  1  0.16662565  0.74633979  0.24989148  1
  O2-  O190  1  0.16671524  0.74708703  0.49685413  1
  O2-  O191  1  0.17003067  0.74666001  0.75086715  1
  O2-  O192  1  0.66809097  0.08025255  -0.00196715  1
  O2-  O193  1  0.66960145  0.07942154  0.24953292  1
  O2-  O194  1  0.66622807  0.07821012  0.49904434  1
  O2-  O195  1  0.66548268  0.08227528  0.74971138  1
  O2-  O196  1  0.66857524  0.41378343  -0.00193713  1
  O2-  O197  1  0.66541378  0.41550382  0.25183869  1
  O2-  O198  1  0.66870364  0.41560330  0.49964612  1
  O2-  O199  1  0.66713328  0.41214117  0.75154327  1
  O2-  O200  1  0.66701948  0.74947398  -0.00135998  1
  O2-  O201  1  0.66715095  0.74879083  0.25092030  1
  O2-  O202  1  0.66581559  0.74707214  0.50074727  1
  O2-  O203  1  0.66570369  0.74828602  0.75054142  1
  O2-  O204  1  0.33357720  0.25343043  0.00034391  1
  O2-  O205  1  0.33337460  0.25536275  0.25182769  1
  O2-  O206  1  0.33464708  0.25373870  0.49894892  1
  O2-  O207  1  0.33523008  0.25181946  0.74967645  1
  O2-  O208  1  0.33355508  0.58701962  0.00006534  1
  O2-  O209  1  0.32884291  0.58609733  0.25070185  1
  O2-  O210  1  0.33238253  0.58277619  0.49351302  1
  O2-  O211  1  0.33600863  0.58805465  0.75181722  1
  O2-  O212  1  0.33393284  0.92282347  0.00097806  1
  O2-  O213  1  0.33501601  0.91879105  0.24998167  1
  O2-  O214  1  0.33561353  0.91887677  0.50159655  1
  O2-  O215  1  0.33457680  0.91744631  0.75018661  1
  O2-  O216  1  0.83210059  0.25510639  -0.00185051  1
  O2-  O217  1  0.83637223  0.25443432  0.25063276  1
  O2-  O218  1  0.83196328  0.25396942  0.50326297  1
  O2-  O219  1  0.83317656  0.25292876  0.75043350  1
  O2-  O220  1  0.83212052  0.58436437  -0.00185643  1
  O2-  O221  1  0.83269421  0.58477676  0.25160824  1
  O2-  O222  1  0.83246824  0.58689759  0.50146762  1
  O2-  O223  1  0.83287382  0.58756821  0.74665024  1
  O2-  O224  1  0.83041561  0.91879848  0.00093405  1
  O2-  O225  1  0.83087058  0.91977638  0.24920825  1
  O2-  O226  1  0.83260259  0.91967167  0.49824223  1
  O2-  O227  1  0.83323390  0.91891470  0.75110526  1
  O2-  O228  1  0.16739236  0.25314070  0.00150677  1
  O2-  O229  1  0.16919718  0.25373805  0.24919598  1
  O2-  O230  1  0.16695815  0.25385440  0.49996138  1
  O2-  O231  1  0.16655586  0.25202194  0.75039802  1
  O2-  O232  1  0.16669456  0.58647202  0.00152746  1
  O2-  O233  1  0.16923985  0.58600966  0.24962674  1
  O2-  O234  1  0.16562621  0.58430018  0.49634036  1
  O2-  O235  1  0.16317667  0.58818947  0.75099035  1
  O2-  O236  1  0.16477469  0.92245053  -0.00137387  1
  O2-  O237  1  0.16856343  0.91856422  0.25277446  1
  O2-  O238  1  0.16676146  0.92054866  0.50048745  1
  O2-  O239  1  0.16543497  0.91872099  0.75067611  1
  O2-  O240  1  0.66594066  0.25439759  -0.00214673  1
  O2-  O241  1  0.66231411  0.25373923  0.25189900  1
  O2-  O242  1  0.66857151  0.25324913  0.50040385  1
  O2-  O243  1  0.66563281  0.25081116  0.75185268  1
  O2-  O244  1  0.66506450  0.58621164  -0.00176835  1
  O2-  O245  1  0.66790011  0.58672823  0.25194442  1
  O2-  O246  1  0.66824550  0.58797504  0.50000262  1
  O2-  O247  1  0.66667622  0.58806312  0.74855770  1
  O2-  O248  1  0.67005547  0.91747613  0.00017013  1
  O2-  O249  1  0.66843350  0.91711820  0.25164066  1
  O2-  O250  1  0.66785666  0.91635728  0.50156368  1
  O2-  O251  1  0.66845555  0.91931390  0.75086414  1
  O2-  O252  1  0.33851115  0.07652020  0.00047836  1
  O2-  O253  1  0.33534991  0.07952369  0.25036370  1
  O2-  O254  1  0.33529846  0.07854825  0.50222409  1
  O2-  O255  1  0.33505244  0.08020830  0.74947205  1
  O2-  O256  1  0.33228542  0.41409212  0.00080731  1
  O2-  O257  1  0.33020387  0.41493450  0.25136450  1
  O2-  O258  1  0.33365286  0.41456437  0.49897181  1
  O2-  O259  1  0.33213322  0.41221669  0.75047382  1
  O2-  O260  1  0.33450601  0.74402715  0.00148860  1
  O2-  O261  1  0.33061508  0.74503017  0.24982073  1
  O2-  O262  1  0.33372671  0.74770582  0.49514848  1
  O2-  O263  1  0.32923450  0.74850268  0.75405734  1
  O2-  O264  1  0.83451242  0.07833665  -0.00146108  1
  O2-  O265  1  0.83258453  0.07900910  0.24932242  1
  O2-  O266  1  0.83499560  0.07705112  0.49957824  1
  O2-  O267  1  0.83204627  0.08341641  0.75017530  1
  O2-  O268  1  0.83450556  0.41420989  -0.00256796  1
  O2-  O269  1  0.83244297  0.41675692  0.25029012  1
  O2-  O270  1  0.83329913  0.41374305  0.50232568  1
  O2-  O271  1  0.83311337  0.41412822  0.75097316  1
  O2-  O272  1  0.83191550  0.74880974  -0.00063927  1
  O2-  O273  1  0.83260303  0.74914202  0.25005469  1
  O2-  O274  1  0.83398016  0.74626190  0.50019977  1
  O2-  O275  1  0.83113668  0.74775977  0.74878296  1
  O2-  O276  1  0.03937832  0.44691620  0.52317643  1
  O2-  O277  1  0.04659417  0.09514014  0.50799331  1
  O2-  O278  1  0.45361553  0.09808497  0.00992421  1
  O2-  O279  1  0.95528380  0.89884441  0.76310219  1
  O2-  O280  1  0.54683501  0.09860071  0.50232784  1
  O2-  O281  1  0.04756644  0.57792594  0.51602526  1
  O2-  O282  1  0.03612932  0.77766508  0.76923862  1
  O2-  O283  1  0.52984967  0.45561807  0.47801682  1
  O2-  O284  1  0.44630436  0.75505499  0.27054852  1
  O2-  O285  1  0.95997534  0.89298715  0.01216499  1
  O2-  O286  1  0.54845734  0.09690584  0.50084236  1
  O2-  O287  1  0.44960086  0.76572438  0.51204123  1
  O2-  O288  1  0.94349809  0.42426945  0.20020681  1
  O2-  O289  1  0.53344135  0.89367479  0.52436776  1
  O2-  O290  1  0.53534128  0.88292032  0.29111814  1
  O2-  O291  1  0.44661503  0.09497689  0.51933514  1
  O2-  O292  1  0.45480526  0.09105358  0.73610779  1
  O2-  O293  1  0.46546180  0.78677209  0.75558342  1
  O2-  O294  1  0.03508681  0.87772812  0.24064594  1
  O2-  O295  1  0.04430815  0.77189677  0.48413867  1
  O2-  O296  1  0.96260570  0.55538477  0.72170686  1
  O2-  O297  1  0.04041808  0.10400067  0.25082353  1
  O2-  O298  1  0.95212796  0.23848368  0.25620536  1
  O2-  O299  1  0.94364934  0.91218825  0.27327050  1
  O2-  O300  1  0.03889798  0.10858794  0.24464517  1
  O2-  O301  1  0.45217773  0.56793934  0.01067761  1
  O2-  O302  1  0.04637709  0.76080274  0.52132525  1
  O2-  O303  1  0.53773324  0.88913598  0.03310054  1
  O2-  O304  1  0.55031613  0.75400859  0.48036797  1
  O2-  O305  1  0.45411743  0.23657326  0.76580925  1
  O2-  O306  1  0.95613168  0.43216401  0.01174904  1
  O2-  O307  1  0.94459204  0.43135138  0.51231773  1
  O2-  O308  1  0.03941644  0.43927589  0.51398762  1
  O2-  O309  1  0.54726845  0.56969335  0.76323246  1
  O2-  O310  1  0.04804937  0.43542794  0.26372470  1
  O2-  O311  1  0.95375396  0.23766147  0.76642621  1
  O2-  O312  1  0.46631358  0.78002596  0.76470763  1
  O2-  O313  1  0.04664859  0.56721290  0.01202863  1
  O2-  O314  1  0.04637138  0.09781643  0.98568943  1
  O2-  O315  1  0.54568440  0.23397053  0.98752029  1
  O2-  O316  1  0.53433799  0.88672639  0.50701035  1
  O2-  O317  1  0.04704517  0.09414269  0.49582265  1
  O2-  O318  1  0.52848827  0.45299999  0.51667973  1
  O2-  O319  1  0.04479242  0.77294055  0.74196295  1
  O2-  O320  1  0.54606577  0.43096701  0.24036041  1
  O2-  O321  1  0.04671554  0.24107677  0.49195007  1
  O2-  O322  1  0.95432758  0.09631330  0.76531604  1
  O2-  O323  1  0.95920768  0.89229982  1.01202797  1
  O2-  O324  1  0.07791250  0.93554654  0.21560334  1
  O2-  O325  1  0.06957804  0.74179418  0.80455190  1
  O2-  O326  1  0.41172589  0.70726157  0.70315003  1
  O2-  O327  1  0.56409257  0.07123714  0.03585365  1
  O2-  O328  1  0.08686677  0.37752271  0.44948241  1
  O2-  O329  1  0.56624002  0.92511327  0.79406328  1
  O2-  O330  1  0.57743519  0.93861752  0.94425433  1
  O2-  O331  1  0.06721155  0.25985605  0.27622980  1
  O2-  O332  1  0.93689282  0.40364798  0.78565797  1
  O2-  O333  1  0.93305181  0.74349092  0.77880138  1
  O2-  O334  1  0.43457596  0.59151128  0.22380195  1
  O2-  O335  1  0.56354239  0.59738183  0.21639488  1
  O2-  O336  1  0.06308986  0.40692380  0.71973316  1
  O2-  O337  1  0.94721122  0.41577093  0.20122225  1
  O2-  O338  1  0.43571799  0.92988385  0.96521794  1
  O2-  O339  1  0.43642902  0.40475125  0.28460318  1
  O2-  O340  1  0.57935319  0.95972798  0.44281870  1
  O2-  O341  1  0.56308976  0.25879744  0.53367246  1
  O2-  O342  1  0.43604933  0.40633442  0.02613006  1
  O2-  O343  1  0.56338418  0.92990580  0.69788298  1
  O2-  O344  1  0.43430497  0.74145553  0.97356507  1
  O2-  O345  1  0.93074745  0.39373818  0.33536373  1
  O2-  O346  1  0.44415775  0.74768880  0.27577849  1
  O2-  O347  1  0.92302330  0.93909015  0.96168547  1
  O2-  O348  1  0.57110123  0.94032793  0.18992796  1
  O2-  O349  1  0.06352794  0.26084146  0.71523361  1
  O2-  O350  1  0.06241102  0.26408859  0.96536877  1
  O2-  O351  1  0.06551596  0.07450566  0.72573091  1
  O2-  O352  1  0.56152026  0.59217282  0.78444626  1
  O2-  O353  1  0.57547083  0.37821665  0.42391707  1
  O2-  O354  1  0.93384915  0.59368191  0.22303752  1
  O2-  O355  1  0.94238645  0.92082205  0.27746715  1
  O2-  O356  1  0.92981440  0.59776270  0.79042968  1
  O2-  O357  1  0.57881568  0.38627741  0.57493936  1
  O2-  O358  1  0.07963066  0.06044423  0.20853707  1
  O2-  O359  1  0.93337980  0.07733368  0.77307977  1
  O2-  O360  1  0.56422279  0.59275443  0.52644878  1
  O2-  O361  1  0.56481188  0.40088140  0.07038566  1
  O2-  O362  1  0.93304517  0.59356020  0.47288784  1
  O2-  O363  1  0.43568584  0.40793556  0.72430616  1
  O2-  O364  1  0.43689386  0.59109136  0.52533725  1
  O2-  O365  1  0.93390873  0.59316927  0.02784415  1
  O2-  O366  1  0.56276383  0.07573056  0.21792117  1
  O2-  O367  1  0.93639628  0.92391701  0.52473824  1
  O2-  O368  1  0.56746133  0.41399992  0.93618878  1
  O2-  O369  1  0.93464344  0.26307255  0.46724928  1
  O2-  O370  1  0.93603762  0.26256559  0.03021614  1
  O2-  O371  1  0.06996492  0.72004827  0.67290513  1
  O2-  O372  1  0.25048060  0.33924563  0.39914335  1
  O2-  O373  1  0.25005580  0.34515199  0.91897854  1
  O2-  O374  1  0.24994816  0.02080753  0.91416670  1
  O2-  O375  1  0.74985360  0.66627592  0.06116065  1
  O2-  O376  1  0.24986452  0.02346409  0.09675007  1
  O2-  O377  1  0.74982931  0.35041205  0.08920161  1
  O2-  O378  1  0.24958167  0.65682200  0.11577323  1
  O2-  O379  1  0.25045166  -0.00397558  0.65153378  1
  O2-  O380  1  0.74969751  0.66785333  0.40214522  1
  O2-  O381  1  0.25011096  0.00419103  0.82660543  1
  O2-  O382  1  0.74948034  0.66720537  0.84608320  1
  O2-  O383  1  0.25013014  -0.00259346  0.18288328  1
  O2-  O384  1  0.75085977  -0.00555749  0.10985115  1
  O2-  O385  1  0.25000521  0.33891787  0.60254458  1
  O2-  O386  1  0.25027369  0.32426487  0.82918246  1
  O2-  O387  1  0.25011291  0.33804016  0.14905981  1
  O2-  O388  1  0.75013970  0.32895197  0.64982984  1
  O2-  O389  1  0.24966111  0.67385839  0.60631663  1
  O2-  O390  1  0.24982667  0.66068604  0.88283500  1
  O2-  O391  1  0.74984029  0.33126667  0.17704450  1
  O2-  O392  1  0.74942367  -0.00118946  0.65690517  1
  O2-  O393  1  0.24984240  0.00523569  0.40151359  1
  O2-  O394  1  0.74985518  0.66780528  0.18344371  1
  O2-  O395  1  0.74951281  0.33483025  0.39655095  1
  O2-  O396  1  0.25019024  0.83425539  0.62589675  1
  O2-  O397  1  0.24994114  0.49994234  0.91313682  1
  O2-  O398  1  0.75005975  0.82739146  0.40874039  1
  O2-  O399  1  0.25008022  0.17565221  0.80543967  1
  O2-  O400  1  0.25031751  0.83147853  0.32561471  1
  O2-  O401  1  0.25002621  0.17651413  0.67894264  1
  O2-  O402  1  0.25022497  0.83637106  0.84917774  1
  O2-  O403  1  0.25027492  0.18919356  0.09561800  1
  O2-  O404  1  0.74996960  0.50060052  0.40781032  1
  O2-  O405  1  0.24980218  0.82693980  0.70358307  1
  O2-  O406  1  0.75000006  0.83608416  0.57931855  1
  O2-  O407  1  0.74969413  0.49719800  0.16859801  1
  O2-  O408  1  0.74991117  0.50400108  0.08384053  1
  O2-  O409  1  0.75025046  0.15799250  0.36753472  1
  O2-  O410  1  0.25007852  0.18706077  0.89037227  1
  O2-  O411  1  0.75002500  0.49503893  0.65914585  1
  O2-  O412  1  0.74989076  0.16257221  0.09970213  1
  O2-  O413  1  0.74984460  0.50133182  0.57144456  1
  O2-  O414  1  0.25009520  0.83573825  0.09913415  1
  O2-  O415  1  0.24988840  0.17429788  0.59113839  1
  O2-  O416  1  0.24967190  0.17405698  0.17969275  1
  O2-  O417  1  0.25007978  0.48701794  0.63369085  1
  O2-  O418  1  0.74992068  0.83086738  0.67187819  1
  O2-  O419  1  0.24972962  0.83325212  0.39928540  1
  O2-  O420  1  0.04265918  0.66481004  0.36987017  1
  O2-  O421  1  0.97902703  0.67718715  0.12569868  1
  O2-  O422  1  0.02715406  -0.00423568  0.37417866  1
  O2-  O423  1  0.47305276  0.32867196  0.61897467  1
  O2-  O424  1  0.47036733  0.00006031  0.37096774  1
  O2-  O425  1  0.98136359  0.00342017  0.87503416  1
  O2-  O426  1  0.47338764  0.32620001  0.12831706  1
  O2-  O427  1  0.47449679  0.65857964  0.87122412  1
  O2-  O428  1  0.95819708  0.00903204  0.63178600  1
  O2-  O429  1  0.47542919  0.66061926  0.62423925  1
  O2-  O430  1  0.03903534  0.65554373  0.88290851  1
  O2-  O431  1  0.02147030  0.00010571  0.11469433  1
  O2-  O432  1  0.96086760  0.67417642  0.36710123  1
  O2-  O433  1  0.52347518  0.32991038  0.86364613  1
  O2-  O434  1  0.97036406  0.67065108  0.62258250  1
  O2-  O435  1  0.47151315  -0.00119943  0.12591835  1
  O2-  O436  1  0.04177384  -0.01282403  0.62079276  1
  O2-  O437  1  0.97092555  0.32857566  0.62527162  1
  O2-  O438  1  0.96258528  0.67105518  0.89140200  1
  O2-  O439  1  0.51926874  0.01493053  0.87260997  1
  O2-  O440  1  0.53291530  0.67257835  0.63317710  1
  O2-  O441  1  0.47508407  0.67391674  0.12024126  1
  O2-  O442  1  0.01883706  0.33098389  0.37341891  1
  O2-  O443  1  0.03022672  0.33335145  0.12492435  1
