# generated using pymatgen
data_La7(Ru4O11)2
_symmetry_space_group_name_H-M   'P 1'
_cell_length_a   23.99045940
_cell_length_b   16.83025967
_cell_length_c   15.42693955
_cell_angle_alpha   89.99803958
_cell_angle_beta   90.00151474
_cell_angle_gamma   90.00047056
_symmetry_Int_Tables_number   1
_chemical_formula_structural   La7(Ru4O11)2
_chemical_formula_sum   'La84 Ru96 O264'
_cell_volume   6228.86844222
_cell_formula_units_Z   12
loop_
 _symmetry_equiv_pos_site_id
 _symmetry_equiv_pos_as_xyz
  1  'x, y, z'
loop_
 _atom_type_symbol
 _atom_type_oxidation_number
  La3+  3.0
  Ru4+  4.0
  O2-  -2.0
loop_
 _atom_site_type_symbol
 _atom_site_label
 _atom_site_symmetry_multiplicity
 _atom_site_fract_x
 _atom_site_fract_y
 _atom_site_fract_z
 _atom_site_occupancy
  La3+  La0  1  0.13758428  -0.00205365  0.12248784  1
  La3+  La1  1  0.13970512  -0.00047469  0.37641047  1
  La3+  La2  1  0.13765797  -0.00088663  0.62289019  1
  La3+  La3  1  0.13704711  -0.00320914  0.87835216  1
  La3+  La4  1  0.13820691  0.33165157  0.12681304  1
  La3+  La5  1  0.14010120  0.33285551  0.37609260  1
  La3+  La6  1  0.14264657  0.33327930  0.62488420  1
  La3+  La7  1  0.13842420  0.33138820  0.87110499  1
  La3+  La8  1  0.13558038  0.66919138  0.12695307  1
  La3+  La9  1  0.13883121  0.66673020  0.37972592  1
  La3+  La10  1  0.14379870  0.66666795  0.62141390  1
  La3+  La11  1  0.13780189  0.66944628  0.87202172  1
  La3+  La12  1  0.64064069  -0.00158849  0.12333111  1
  La3+  La13  1  0.63677456  0.00066435  0.37575083  1
  La3+  La14  1  0.64422290  -0.00009826  0.62736923  1
  La3+  La15  1  0.63911214  0.00006811  0.87292947  1
  La3+  La16  1  0.63957884  0.33385593  0.12586903  1
  La3+  La17  1  0.63877287  0.33236303  0.37525647  1
  La3+  La18  1  0.64059569  0.33171473  0.62660755  1
  La3+  La19  1  0.63924761  0.33188738  0.87265567  1
  La3+  La20  1  0.64081491  0.66353402  0.12144883  1
  La3+  La21  1  0.63808634  0.66812718  0.37460048  1
  La3+  La22  1  0.63799599  0.66819007  0.62415012  1
  La3+  La23  1  0.63598135  0.66609336  0.87713351  1
  La3+  La24  1  0.36204651  0.00208057  0.12565393  1
  La3+  La25  1  0.36311713  -0.00066052  0.37731393  1
  La3+  La26  1  0.36433853  -0.00452192  0.62573898  1
  La3+  La27  1  0.36457200  -0.00228649  0.87536491  1
  La3+  La28  1  0.36350960  0.33172387  0.12469188  1
  La3+  La29  1  0.36070609  0.33314879  0.37865219  1
  La3+  La30  1  0.35705345  0.33434079  0.62646607  1
  La3+  La31  1  0.36142855  0.33194282  0.87089000  1
  La3+  La32  1  0.36312506  0.66735186  0.12527708  1
  La3+  La33  1  0.35963047  0.66625751  0.37901711  1
  La3+  La34  1  0.35640483  0.66746382  0.62343097  1
  La3+  La35  1  0.36171915  0.66983800  0.87356057  1
  La3+  La36  1  0.86142777  -0.00112121  0.12577847  1
  La3+  La37  1  0.86592609  -0.00265560  0.37724209  1
  La3+  La38  1  0.85692451  -0.00141851  0.62591059  1
  La3+  La39  1  0.86098213  0.00077390  0.87172752  1
  La3+  La40  1  0.86085473  0.33299350  0.12605105  1
  La3+  La41  1  0.86317603  0.33458091  0.37532442  1
  La3+  La42  1  0.85859608  0.33315725  0.62863952  1
  La3+  La43  1  0.86122334  0.33108761  0.87374218  1
  La3+  La44  1  0.86041041  0.66539078  0.12330795  1
  La3+  La45  1  0.86131458  0.66649582  0.37663948  1
  La3+  La46  1  0.86469776  0.66824792  0.62648802  1
  La3+  La47  1  0.86294651  0.66720691  0.87414805  1
  La3+  La48  1  -0.00051028  0.16749823  0.11493558  1
  La3+  La49  1  0.50021287  0.83072288  0.64124339  1
  La3+  La50  1  0.49675057  0.83903149  0.36958261  1
  La3+  La51  1  0.49981130  0.16739267  0.88127282  1
  La3+  La52  1  0.49574227  0.50330779  0.61458462  1
  La3+  La53  1  0.00013321  0.16692079  0.36807002  1
  La3+  La54  1  -0.00046030  0.49841021  0.13724718  1
  La3+  La55  1  0.50086115  0.83653591  0.38442073  1
  La3+  La56  1  0.49787747  0.16733364  0.38521706  1
  La3+  La57  1  -0.00070507  0.83201622  0.88201177  1
  La3+  La58  1  -0.00847665  0.50266053  0.87077381  1
  La3+  La59  1  -0.00035943  0.83260892  0.37784312  1
  La3+  La60  1  -0.00036293  0.50561603  0.88883894  1
  La3+  La61  1  0.50123970  0.16666705  0.12199478  1
  La3+  La62  1  0.00327057  0.83453009  0.63419066  1
  La3+  La63  1  0.00167347  0.16853267  0.88419972  1
  La3+  La64  1  0.50025774  0.16812369  0.63582960  1
  La3+  La65  1  -0.00121119  0.82495493  0.61570572  1
  La3+  La66  1  0.49996743  0.49839264  0.36228522  1
  La3+  La67  1  0.50116683  0.49888912  0.63485606  1
  La3+  La68  1  0.50146270  0.83417827  0.61909707  1
  La3+  La69  1  0.50261949  0.83241528  0.13007050  1
  La3+  La70  1  -0.00038678  0.16728078  0.13656994  1
  La3+  La71  1  -0.00184683  0.50314110  0.63201353  1
  La3+  La72  1  0.74979890  0.21248529  0.27031265  1
  La3+  La73  1  0.75019682  0.47220678  0.49818995  1
  La3+  La74  1  0.75039149  0.46691382  0.75214932  1
  La3+  La75  1  0.25001484  0.49893369  0.26576292  1
  La3+  La76  1  0.74994718  0.87905135  0.27781626  1
  La3+  La77  1  0.74998293  0.11743678  0.51413837  1
  La3+  La78  1  0.24982653  0.19214196  -0.00590615  1
  La3+  La79  1  0.75005638  0.83603454  0.52758379  1
  La3+  La80  1  0.24927490  0.49743463  0.01702675  1
  La3+  La81  1  0.24982744  0.20330426  0.50317179  1
  La3+  La82  1  0.25013519  0.80195440  0.27705753  1
  La3+  La83  1  0.24986501  0.16580831  0.25060675  1
  Ru4+  Ru84  1  -0.00331550  0.00627517  -0.00030751  1
  Ru4+  Ru85  1  -0.00155366  0.00077209  0.25348125  1
  Ru4+  Ru86  1  0.00431568  0.00888502  0.49812988  1
  Ru4+  Ru87  1  -0.00108439  0.00415321  0.75124865  1
  Ru4+  Ru88  1  -0.00020598  0.33220529  -0.00266904  1
  Ru4+  Ru89  1  0.00068874  0.33471983  0.24809256  1
  Ru4+  Ru90  1  -0.00361145  0.33433636  0.50417277  1
  Ru4+  Ru91  1  0.00104407  0.32726670  0.74877366  1
  Ru4+  Ru92  1  0.00086132  0.66896695  0.00006011  1
  Ru4+  Ru93  1  0.00305340  0.67177353  0.25011948  1
  Ru4+  Ru94  1  0.00058432  0.66241562  0.49790809  1
  Ru4+  Ru95  1  0.00236503  0.66258151  0.75019884  1
  Ru4+  Ru96  1  0.50572462  -0.00424773  -0.00955847  1
  Ru4+  Ru97  1  0.49634936  0.00329807  0.25139269  1
  Ru4+  Ru98  1  0.50215236  0.00833632  0.49702485  1
  Ru4+  Ru99  1  0.50341450  0.00636285  0.75673008  1
  Ru4+  Ru100  1  0.49845069  0.33557552  0.00117050  1
  Ru4+  Ru101  1  0.50020471  0.33428334  0.24946346  1
  Ru4+  Ru102  1  0.49857408  0.33084211  0.49678958  1
  Ru4+  Ru103  1  0.49870739  0.33129065  0.75010677  1
  Ru4+  Ru104  1  0.49848874  0.66820720  -0.00512666  1
  Ru4+  Ru105  1  0.50115065  0.66562064  0.24928542  1
  Ru4+  Ru106  1  0.50152256  0.66486101  0.49746209  1
  Ru4+  Ru107  1  0.50067617  0.66730355  0.75565348  1
  Ru4+  Ru108  1  0.10926576  0.16680483  0.00032631  1
  Ru4+  Ru109  1  0.11126265  0.16662716  0.24882885  1
  Ru4+  Ru110  1  0.10933121  0.16643199  0.50110847  1
  Ru4+  Ru111  1  0.11303849  0.17173994  0.74882159  1
  Ru4+  Ru112  1  0.11116492  0.50250494  0.00065596  1
  Ru4+  Ru113  1  0.10935694  0.49836254  0.25093070  1
  Ru4+  Ru114  1  0.11688133  0.50277656  0.50011416  1
  Ru4+  Ru115  1  0.11617042  0.49733851  0.74761667  1
  Ru4+  Ru116  1  0.11686006  0.83093431  0.00060954  1
  Ru4+  Ru117  1  0.11024626  0.83440895  0.24946777  1
  Ru4+  Ru118  1  0.11561389  0.83232153  0.49922752  1
  Ru4+  Ru119  1  0.11402105  0.83132125  0.75074845  1
  Ru4+  Ru120  1  0.61218324  0.16720211  -0.00081273  1
  Ru4+  Ru121  1  0.61120126  0.16552455  0.24864576  1
  Ru4+  Ru122  1  0.61152302  0.16846416  0.49990709  1
  Ru4+  Ru123  1  0.61506046  0.16555674  0.75077445  1
  Ru4+  Ru124  1  0.61474122  0.50213266  0.00016371  1
  Ru4+  Ru125  1  0.61193075  0.49996380  0.25011693  1
  Ru4+  Ru126  1  0.61350282  0.49867718  0.49638587  1
  Ru4+  Ru127  1  0.61085969  0.50065407  0.75255449  1
  Ru4+  Ru128  1  0.61218864  0.83306122  0.00029032  1
  Ru4+  Ru129  1  0.61233106  0.83456737  0.24930064  1
  Ru4+  Ru130  1  0.61419514  0.83372960  0.49911246  1
  Ru4+  Ru131  1  0.61414327  0.83583417  0.75194515  1
  Ru4+  Ru132  1  0.38527514  0.17220701  0.00149300  1
  Ru4+  Ru133  1  0.38865507  0.16550645  0.25000079  1
  Ru4+  Ru134  1  0.38863915  0.16743096  0.49985701  1
  Ru4+  Ru135  1  0.38623700  0.16741682  0.75090728  1
  Ru4+  Ru136  1  0.39373985  0.50070884  0.00156853  1
  Ru4+  Ru137  1  0.38951481  0.50058994  0.25180920  1
  Ru4+  Ru138  1  0.38354456  0.49983472  0.49917303  1
  Ru4+  Ru139  1  0.38395746  0.49801799  0.75164637  1
  Ru4+  Ru140  1  0.38681106  0.83372266  0.00037540  1
  Ru4+  Ru141  1  0.38866896  0.83468210  0.24909474  1
  Ru4+  Ru142  1  0.38151950  0.83028931  0.49883571  1
  Ru4+  Ru143  1  0.38354726  0.82944961  0.75122448  1
  Ru4+  Ru144  1  0.88888493  0.16590079  -0.00008923  1
  Ru4+  Ru145  1  0.89031628  0.16650593  0.24859289  1
  Ru4+  Ru146  1  0.88850743  0.16484215  0.50057963  1
  Ru4+  Ru147  1  0.88471011  0.16563758  0.74966520  1
  Ru4+  Ru148  1  0.88489470  0.50174710  0.00182453  1
  Ru4+  Ru149  1  0.88784460  0.49984029  0.24931961  1
  Ru4+  Ru150  1  0.89094941  0.49915955  0.49910809  1
  Ru4+  Ru151  1  0.88896156  0.49937339  0.74877724  1
  Ru4+  Ru152  1  0.88763056  0.83255541  -0.00076146  1
  Ru4+  Ru153  1  0.89093675  0.83414702  0.24946447  1
  Ru4+  Ru154  1  0.88464104  0.82951621  0.49782617  1
  Ru4+  Ru155  1  0.88243222  0.83842845  0.75162511  1
  Ru4+  Ru156  1  0.75027317  0.57176415  0.24922136  1
  Ru4+  Ru157  1  0.25001424  0.36519561  0.28090978  1
  Ru4+  Ru158  1  0.25008309  0.06227870  0.51150714  1
  Ru4+  Ru159  1  0.74988578  0.74417115  -0.00707569  1
  Ru4+  Ru160  1  0.74977899  0.75415755  0.74896258  1
  Ru4+  Ru161  1  0.24993772  0.09278888  0.75004155  1
  Ru4+  Ru162  1  0.25029184  0.62116414  -0.01715547  1
  Ru4+  Ru163  1  0.25005958  0.63194762  0.28212812  1
  Ru4+  Ru164  1  0.75001639  0.26651478  0.49346699  1
  Ru4+  Ru165  1  0.24993083  0.76642174  -0.00509788  1
  Ru4+  Ru166  1  0.24995749  0.90970094  0.74412827  1
  Ru4+  Ru167  1  0.25028274  0.58785493  0.73552612  1
  Ru4+  Ru168  1  0.74990531  0.42810297  0.00089496  1
  Ru4+  Ru169  1  0.75006663  0.60845780  0.75710247  1
  Ru4+  Ru170  1  0.25027197  0.37478399  -0.01733264  1
  Ru4+  Ru171  1  0.75004731  0.73882214  0.25319728  1
  Ru4+  Ru172  1  0.74999682  0.92088025  -0.00891728  1
  Ru4+  Ru173  1  0.74981439  0.08503987  -0.01784362  1
  Ru4+  Ru174  1  0.75013513  0.24847566  -0.01573369  1
  Ru4+  Ru175  1  0.25013461  0.93504933  0.23297216  1
  Ru4+  Ru176  1  0.74995498  0.61007907  0.50105729  1
  Ru4+  Ru177  1  0.75010213  0.06642973  0.25965321  1
  Ru4+  Ru178  1  0.24989323  0.05584510  0.00105855  1
  Ru4+  Ru179  1  0.75008790  0.42382552  0.24749332  1
  O2-  O180  1  0.16751318  0.07932020  0.00109932  1
  O2-  O181  1  0.16921518  0.08089466  0.24882271  1
  O2-  O182  1  0.16768752  0.07995010  0.49991592  1
  O2-  O183  1  0.16797767  0.07987788  0.75020652  1
  O2-  O184  1  0.16484285  0.41026946  0.00110768  1
  O2-  O185  1  0.16774677  0.41260370  0.24906102  1
  O2-  O186  1  0.16733514  0.41726083  0.49988921  1
  O2-  O187  1  0.16765787  0.41595271  0.75181062  1
  O2-  O188  1  0.16638499  0.74759961  0.00103316  1
  O2-  O189  1  0.16528235  0.74483371  0.24976149  1
  O2-  O190  1  0.16713624  0.74993197  0.49903877  1
  O2-  O191  1  0.16558627  0.74799618  0.75159750  1
  O2-  O192  1  0.66733334  0.08065366  -0.00296743  1
  O2-  O193  1  0.66848497  0.08017020  0.25271546  1
  O2-  O194  1  0.66195590  0.07770602  0.49990970  1
  O2-  O195  1  0.66404059  0.08145073  0.75094730  1
  O2-  O196  1  0.66596949  0.41320612  -0.00113696  1
  O2-  O197  1  0.66848978  0.41447635  0.24912464  1
  O2-  O198  1  0.66752388  0.41358047  0.50134938  1
  O2-  O199  1  0.66529110  0.41261315  0.75160006  1
  O2-  O200  1  0.66690638  0.74830180  -0.00207302  1
  O2-  O201  1  0.66692689  0.74635366  0.25144922  1
  O2-  O202  1  0.66855117  0.74615066  0.50020831  1
  O2-  O203  1  0.66661405  0.74627197  0.75040842  1
  O2-  O204  1  0.33313910  0.25338298  -0.00038246  1
  O2-  O205  1  0.33230727  0.25172640  0.25072808  1
  O2-  O206  1  0.33448055  0.25292378  0.50065907  1
  O2-  O207  1  0.33409759  0.25092427  0.75055213  1
  O2-  O208  1  0.33441400  0.58763156  0.00026210  1
  O2-  O209  1  0.33291571  0.58818681  0.24960718  1
  O2-  O210  1  0.33475345  0.58436865  0.49906053  1
  O2-  O211  1  0.33145457  0.58648714  0.75033038  1
  O2-  O212  1  0.33230858  0.91793688  -0.00026154  1
  O2-  O213  1  0.33330883  0.92014059  0.25025156  1
  O2-  O214  1  0.33263316  0.91858037  0.50024984  1
  O2-  O215  1  0.33142250  0.92011221  0.75122141  1
  O2-  O216  1  0.83119318  0.25381751  -0.00039113  1
  O2-  O217  1  0.83495659  0.25639244  0.25068030  1
  O2-  O218  1  0.83195888  0.25254772  0.49801639  1
  O2-  O219  1  0.83615116  0.25069561  0.75106146  1
  O2-  O220  1  0.83509275  0.58617014  -0.00062817  1
  O2-  O221  1  0.83359470  0.58647602  0.24982755  1
  O2-  O222  1  0.83119235  0.58653131  0.49954275  1
  O2-  O223  1  0.83174635  0.58765818  0.75102953  1
  O2-  O224  1  0.83368173  0.92028573  -0.00026010  1
  O2-  O225  1  0.83542887  0.92147487  0.24905006  1
  O2-  O226  1  0.83206440  0.92076672  0.49857878  1
  O2-  O227  1  0.83455907  0.91874474  0.75278107  1
  O2-  O228  1  0.16686646  0.25470901  0.00169377  1
  O2-  O229  1  0.16943366  0.25173723  0.24942544  1
  O2-  O230  1  0.16469331  0.25287748  0.49942387  1
  O2-  O231  1  0.16622723  0.24987555  0.75155436  1
  O2-  O232  1  0.16478045  0.58930801  0.00107969  1
  O2-  O233  1  0.16544656  0.58753334  0.24892641  1
  O2-  O234  1  0.16708264  0.58387115  0.49831846  1
  O2-  O235  1  0.16684416  0.58626693  0.75141784  1
  O2-  O236  1  0.16697698  0.91850967  0.00138761  1
  O2-  O237  1  0.16613461  0.92022312  0.24992129  1
  O2-  O238  1  0.16746514  0.91814437  0.49938094  1
  O2-  O239  1  0.16765871  0.92069262  0.75129013  1
  O2-  O240  1  0.66697098  0.25388995  -0.00143509  1
  O2-  O241  1  0.66273367  0.25383141  0.24818731  1
  O2-  O242  1  0.66773628  0.25262742  0.50003768  1
  O2-  O243  1  0.66482658  0.25287467  0.75103938  1
  O2-  O244  1  0.66461115  0.58446594  -0.00251044  1
  O2-  O245  1  0.66605033  0.58418584  0.25094066  1
  O2-  O246  1  0.66725518  0.58659256  0.50029808  1
  O2-  O247  1  0.66670383  0.58687016  0.75099217  1
  O2-  O248  1  0.66735624  0.91857910  -0.00338214  1
  O2-  O249  1  0.66490103  0.92075860  0.25028661  1
  O2-  O250  1  0.66819010  0.91976303  0.50016772  1
  O2-  O251  1  0.66444452  0.91831017  0.75147182  1
  O2-  O252  1  0.33248715  0.07990810  -0.00099992  1
  O2-  O253  1  0.32957009  0.08195535  0.25066283  1
  O2-  O254  1  0.33221026  0.07995621  0.50131571  1
  O2-  O255  1  0.33230742  0.07929177  0.74930380  1
  O2-  O256  1  0.33575361  0.41092150  0.00000921  1
  O2-  O257  1  0.33477240  0.41259685  0.24950564  1
  O2-  O258  1  0.33501246  0.41490516  0.49953927  1
  O2-  O259  1  0.33311662  0.41575845  0.75124981  1
  O2-  O260  1  0.33386637  0.74877400  0.00053738  1
  O2-  O261  1  0.33531980  0.74501793  0.25033140  1
  O2-  O262  1  0.33360656  0.74823434  0.49944878  1
  O2-  O263  1  0.33407630  0.74777787  0.75136679  1
  O2-  O264  1  0.83355074  0.07996741  -0.00038600  1
  O2-  O265  1  0.83374949  0.07905901  0.25159697  1
  O2-  O266  1  0.83795922  0.07790613  0.49774573  1
  O2-  O267  1  0.83353721  0.08243316  0.75244631  1
  O2-  O268  1  0.83323042  0.41379017  -0.00095278  1
  O2-  O269  1  0.83302173  0.41362107  0.25059227  1
  O2-  O270  1  0.83408547  0.41251934  0.49850618  1
  O2-  O271  1  0.83492224  0.41313975  0.75215207  1
  O2-  O272  1  0.83391892  0.74801274  0.00008565  1
  O2-  O273  1  0.83429302  0.74567379  0.24981812  1
  O2-  O274  1  0.83226193  0.74542976  0.49937613  1
  O2-  O275  1  0.83287372  0.74773056  0.75109675  1
  O2-  O276  1  0.04869685  0.76527620  0.25430906  1
  O2-  O277  1  0.45459300  0.09466505  0.98141345  1
  O2-  O278  1  0.95712403  0.11264323  0.78741712  1
  O2-  O279  1  0.94840201  0.43273764  0.48659686  1
  O2-  O280  1  0.05113947  0.23328662  0.48498412  1
  O2-  O281  1  0.54591428  0.23375076  0.76511669  1
  O2-  O282  1  0.54971510  0.56885033  0.76659346  1
  O2-  O283  1  0.54530419  0.09938292  0.51686399  1
  O2-  O284  1  0.94931860  0.76381225  0.23654170  1
  O2-  O285  1  0.04366056  0.10583615  0.71889586  1
  O2-  O286  1  0.45317802  0.90400875  0.51817963  1
  O2-  O287  1  0.53661561  0.44832059  0.21768296  1
  O2-  O288  1  0.45373013  0.76028068  0.98528470  1
  O2-  O289  1  0.45317541  0.90272820  0.47912892  1
  O2-  O290  1  0.45641601  0.23739746  0.23685379  1
  O2-  O291  1  0.05125644  0.90109864  0.98667563  1
  O2-  O292  1  0.95300864  0.76336619  0.73991031  1
  O2-  O293  1  0.45469277  0.43007831  0.00083671  1
  O2-  O294  1  0.95482458  0.57072675  0.01783840  1
  O2-  O295  1  0.95296267  0.90123361  0.48185956  1
  O2-  O296  1  0.04163053  0.43980339  0.50741515  1
  O2-  O297  1  0.54863658  0.42427882  0.74294356  1
  O2-  O298  1  0.45145155  0.09892521  0.02018060  1
  O2-  O299  1  0.45140247  0.56983483  0.48088060  1
  O2-  O300  1  0.04961029  0.42903871  0.99302506  1
  O2-  O301  1  0.04697577  0.57163536  0.75958758  1
  O2-  O302  1  0.95194812  0.90178766  0.98523173  1
  O2-  O303  1  0.54535555  0.76606877  0.76420685  1
  O2-  O304  1  0.44678882  0.08892202  0.23055795  1
  O2-  O305  1  0.54885201  0.57154967  0.48116988  1
  O2-  O306  1  0.54982465  0.75868514  0.29445494  1
  O2-  O307  1  0.95340953  0.90566323  0.74257698  1
  O2-  O308  1  0.04652777  0.56884555  0.23733643  1
  O2-  O309  1  0.04195416  0.43961152  0.50608627  1
  O2-  O310  1  0.45244804  0.75993056  0.48579149  1
  O2-  O311  1  0.95136944  0.42967971  0.01340482  1
  O2-  O312  1  0.44990009  0.90314699  0.73549741  1
  O2-  O313  1  0.45261728  0.43265727  0.99867619  1
  O2-  O314  1  0.03971985  0.44186845  0.77902928  1
  O2-  O315  1  0.04690625  0.76630105  0.24542123  1
  O2-  O316  1  0.55036625  0.09580521  0.29732682  1
  O2-  O317  1  0.46545118  0.88809820  0.00412724  1
  O2-  O318  1  0.53975269  0.43837100  0.52616660  1
  O2-  O319  1  0.45192641  0.76366350  0.23484254  1
  O2-  O320  1  0.45638410  0.55981663  0.72399724  1
  O2-  O321  1  0.95332452  0.90575224  0.52087502  1
  O2-  O322  1  0.95317920  0.09380894  0.48502310  1
  O2-  O323  1  0.96321563  0.22176158  0.50835689  1
  O2-  O324  1  0.06247885  0.92775549  0.53310045  1
  O2-  O325  1  0.93362978  0.59234173  0.72198123  1
  O2-  O326  1  0.43328355  0.07801462  0.80976747  1
  O2-  O327  1  0.42751568  0.61277956  0.80703524  1
  O2-  O328  1  0.56491539  0.74127763  0.52544503  1
  O2-  O329  1  0.43662409  0.07387021  0.68239355  1
  O2-  O330  1  0.43564942  0.26085815  0.47467977  1
  O2-  O331  1  0.44133796  0.08096309  0.22474693  1
  O2-  O332  1  0.56695718  0.91960059  0.19453812  1
  O2-  O333  1  0.06603715  0.74356391  0.44115867  1
  O2-  O334  1  0.56855562  0.72149539  0.17225777  1
  O2-  O335  1  0.92225753  0.27650092  0.53307706  1
  O2-  O336  1  0.56333631  0.73580723  0.02874647  1
  O2-  O337  1  0.43790716  0.59823504  0.28250732  1
  O2-  O338  1  0.57082189  0.38920328  0.30070837  1
  O2-  O339  1  0.43742776  0.26138871  0.78495267  1
  O2-  O340  1  0.06502210  0.73927571  0.56660975  1
  O2-  O341  1  0.07778146  0.39039466  0.46105756  1
  O2-  O342  1  0.43736893  0.92698201  0.71353288  1
  O2-  O343  1  0.06436087  0.92942210  0.97322329  1
  O2-  O344  1  0.93636459  0.25857012  0.22168510  1
  O2-  O345  1  0.43747904  0.60056660  0.03208252  1
  O2-  O346  1  0.56388361  0.92953431  0.31260028  1
  O2-  O347  1  0.93523995  0.92772669  0.27563976  1
  O2-  O348  1  0.43429900  0.07312501  0.47469711  1
  O2-  O349  1  0.93008457  0.05629385  0.69583671  1
  O2-  O350  1  0.43479910  0.26177660  0.02617738  1
  O2-  O351  1  0.06426696  0.25792696  0.97512654  1
  O2-  O352  1  0.55532178  0.75106141  0.30292499  1
  O2-  O353  1  0.06395811  0.07080637  0.53194596  1
  O2-  O354  1  0.43580313  0.40319866  0.71599194  1
  O2-  O355  1  0.56343007  0.93146879  0.46850003  1
  O2-  O356  1  0.06396305  0.59500506  0.53495762  1
  O2-  O357  1  0.06546107  0.40765940  0.27491473  1
  O2-  O358  1  0.56632797  0.92568582  0.02384357  1
  O2-  O359  1  0.57827042  0.07429047  0.17510350  1
  O2-  O360  1  0.93468976  0.59468221  0.52473857  1
  O2-  O361  1  0.93489918  0.74443830  0.72174165  1
  O2-  O362  1  0.06187319  0.06971572  0.21579382  1
  O2-  O363  1  0.57247648  0.39247942  0.44269597  1
  O2-  O364  1  0.06393442  0.25971213  0.71823991  1
  O2-  O365  1  0.93547032  0.25782931  0.97494575  1
  O2-  O366  1  0.55520360  0.08757188  0.30347531  1
  O2-  O367  1  0.07125427  0.06728093  0.78891581  1
  O2-  O368  1  0.06480895  0.25623609  0.27579922  1
  O2-  O369  1  0.42324317  0.94215056  0.03222358  1
  O2-  O370  1  0.56403846  0.25804174  0.46675001  1
  O2-  O371  1  0.07198034  0.39264159  0.69184648  1
  O2-  O372  1  0.25001023  0.33316088  0.66892632  1
  O2-  O373  1  0.75020604  0.65626793  0.17401884  1
  O2-  O374  1  0.75002912  0.34347293  0.58236001  1
  O2-  O375  1  0.24979749  0.68219837  0.08092111  1
  O2-  O376  1  0.25028360  0.31903342  0.17361391  1
  O2-  O377  1  0.75005869  0.33551003  0.67391596  1
  O2-  O378  1  0.74978077  0.33246437  0.18455032  1
  O2-  O379  1  0.75009104  0.66164947  0.34948737  1
  O2-  O380  1  0.25007887  0.67928913  0.17662825  1
  O2-  O381  1  0.25031678  0.66589187  0.39670541  1
  O2-  O382  1  0.25023960  0.33177285  0.58004530  1
  O2-  O383  1  0.74977335  0.66953825  0.64815692  1
  O2-  O384  1  0.25010219  0.68108842  0.88425716  1
  O2-  O385  1  0.24989837  0.01110456  0.32997751  1
  O2-  O386  1  0.24990035  -0.01104096  0.41776659  1
  O2-  O387  1  0.25012845  0.66161458  0.60689204  1
  O2-  O388  1  0.74952306  0.33208237  0.06610154  1
  O2-  O389  1  0.75016085  0.00011056  0.64903262  1
  O2-  O390  1  0.24989297  0.31312135  0.08052987  1
  O2-  O391  1  0.25000678  0.33196231  0.39973678  1
  O2-  O392  1  0.75011211  -0.01053162  0.17962945  1
  O2-  O393  1  0.75018762  0.66456286  0.06484905  1
  O2-  O394  1  0.75013611  0.00444166  0.06678819  1
  O2-  O395  1  0.24996160  0.31917438  0.88478005  1
  O2-  O396  1  0.75001891  0.17845959  0.62423125  1
  O2-  O397  1  0.25022057  0.50116456  0.13936537  1
  O2-  O398  1  0.74998712  0.83257783  0.91599920  1
  O2-  O399  1  0.25017329  0.50147279  0.58323235  1
  O2-  O400  1  0.74997259  0.49546901  0.09139139  1
  O2-  O401  1  0.74991575  0.15607418  0.15179195  1
  O2-  O402  1  0.24998630  0.16160122  0.84179145  1
  O2-  O403  1  0.75002861  0.82608874  0.39551922  1
  O2-  O404  1  0.74994410  0.82997961  0.66475680  1
  O2-  O405  1  0.24989917  0.49472992  0.80341638  1
  O2-  O406  1  0.74994480  0.49644194  0.90651840  1
  O2-  O407  1  0.75000812  0.49841441  0.34543463  1
  O2-  O408  1  0.24995495  0.83973218  0.66497536  1
  O2-  O409  1  0.75006871  0.16701471  0.06587377  1
  O2-  O410  1  0.74996183  0.17189806  0.39288678  1
  O2-  O411  1  0.25003861  0.49691433  0.66583581  1
  O2-  O412  1  0.25019988  0.50218660  0.88808104  1
  O2-  O413  1  0.24990199  0.83319009  0.91008204  1
  O2-  O414  1  0.75005587  0.83380192  0.06842159  1
  O2-  O415  1  0.24996069  0.84025138  0.14015646  1
  O2-  O416  1  0.75025726  0.83666164  0.82839426  1
  O2-  O417  1  0.74991678  0.16700830  0.85975322  1
  O2-  O418  1  0.74975226  0.82377977  0.15503240  1
  O2-  O419  1  0.24999421  0.16113180  0.65692571  1
  O2-  O420  1  0.47253749  -0.00507592  0.36984872  1
  O2-  O421  1  0.02368345  0.32675019  0.37537871  1
  O2-  O422  1  0.02184206  -0.00089576  0.87524815  1
  O2-  O423  1  0.02661938  0.66506742  0.11891179  1
  O2-  O424  1  0.45613437  0.66993452  0.62553296  1
  O2-  O425  1  0.95896778  0.33805994  0.86646549  1
  O2-  O426  1  0.97588150  0.00484490  0.37607079  1
  O2-  O427  1  0.47704159  -0.00669733  0.88018350  1
  O2-  O428  1  0.97959217  0.67044759  0.62228778  1
  O2-  O429  1  0.54147037  0.66198010  0.63390041  1
  O2-  O430  1  0.52769739  0.66618375  0.87804474  1
  O2-  O431  1  0.95657270  0.66779311  0.87639673  1
  O2-  O432  1  0.47312599  0.33912773  0.36919518  1
  O2-  O433  1  0.04357681  0.66954169  0.87707595  1
  O2-  O434  1  0.47157337  0.33812862  0.12905590  1
  O2-  O435  1  0.46896389  -0.00239911  0.13039920  1
  O2-  O436  1  0.02146021  0.65844749  0.37020059  1
  O2-  O437  1  0.52456985  0.00251928  0.11278226  1
  O2-  O438  1  0.96520747  0.33127871  0.37092060  1
  O2-  O439  1  0.97504863  0.33860580  0.63261342  1
  O2-  O440  1  0.52789648  0.32885795  0.62372006  1
  O2-  O441  1  0.97615807  0.33482779  0.12244755  1
  O2-  O442  1  0.03934897  0.33392673  0.87053601  1
  O2-  O443  1  0.53198120  0.32968672  0.12379375  1
