# generated using pymatgen
data_La7(Ru4O11)2
_symmetry_space_group_name_H-M   'P 1'
_cell_length_a   23.99114341
_cell_length_b   16.83107097
_cell_length_c   15.42711698
_cell_angle_alpha   89.99949921
_cell_angle_beta   89.99986893
_cell_angle_gamma   90.00005304
_symmetry_Int_Tables_number   1
_chemical_formula_structural   La7(Ru4O11)2
_chemical_formula_sum   'La84 Ru96 O264'
_cell_volume   6229.41795955
_cell_formula_units_Z   12
loop_
 _symmetry_equiv_pos_site_id
 _symmetry_equiv_pos_as_xyz
  1  'x, y, z'
loop_
 _atom_type_symbol
 _atom_type_oxidation_number
  La3+  3.0
  Ru4+  4.0
  O2-  -2.0
loop_
 _atom_site_type_symbol
 _atom_site_label
 _atom_site_symmetry_multiplicity
 _atom_site_fract_x
 _atom_site_fract_y
 _atom_site_fract_z
 _atom_site_occupancy
  La3+  La0  1  0.14073503  0.00155499  0.12639959  1
  La3+  La1  1  0.13855564  0.00363843  0.37422536  1
  La3+  La2  1  0.14346837  0.00075681  0.62457349  1
  La3+  La3  1  0.13982008  -0.00199988  0.87621336  1
  La3+  La4  1  0.13925266  0.33687524  0.12129759  1
  La3+  La5  1  0.13747326  0.33272704  0.37334212  1
  La3+  La6  1  0.14035831  0.33248084  0.62504788  1
  La3+  La7  1  0.13724004  0.33629246  0.88085734  1
  La3+  La8  1  0.14106527  0.66541547  0.12281428  1
  La3+  La9  1  0.14252381  0.66934076  0.38114737  1
  La3+  La10  1  0.14364038  0.66739762  0.62183263  1
  La3+  La11  1  0.14515257  0.66455333  0.87490536  1
  La3+  La12  1  0.64162891  -0.00466546  0.12532626  1
  La3+  La13  1  0.63855574  -0.00022196  0.37295424  1
  La3+  La14  1  0.63907933  0.00248859  0.62741355  1
  La3+  La15  1  0.64280540  -0.00430517  0.87281773  1
  La3+  La16  1  0.63589321  0.33386462  0.12384728  1
  La3+  La17  1  0.63873006  0.33111393  0.37808462  1
  La3+  La18  1  0.64029911  0.33040444  0.62266834  1
  La3+  La19  1  0.63933288  0.33140837  0.87376959  1
  La3+  La20  1  0.63672595  0.66756238  0.12386586  1
  La3+  La21  1  0.63820036  0.66843000  0.37388577  1
  La3+  La22  1  0.63277115  0.66729030  0.62746570  1
  La3+  La23  1  0.64264529  0.66899142  0.87197223  1
  La3+  La24  1  0.35998658  0.00292490  0.12665374  1
  La3+  La25  1  0.35573090  0.00430880  0.37124799  1
  La3+  La26  1  0.36559856  -0.00142488  0.62088687  1
  La3+  La27  1  0.35944008  -0.00179992  0.87605905  1
  La3+  La28  1  0.35886382  0.33160299  0.12247848  1
  La3+  La29  1  0.36281318  0.33089890  0.37171270  1
  La3+  La30  1  0.36057940  0.33244057  0.62533953  1
  La3+  La31  1  0.36240776  0.33587191  0.88039216  1
  La3+  La32  1  0.35913580  0.66571308  0.12429385  1
  La3+  La33  1  0.35823906  0.66773935  0.38012936  1
  La3+  La34  1  0.35600787  0.66761046  0.62386628  1
  La3+  La35  1  0.35512147  0.66634070  0.87473059  1
  La3+  La36  1  0.86685776  0.00645720  0.11567505  1
  La3+  La37  1  0.86795661  0.01037474  0.38445366  1
  La3+  La38  1  0.86723151  0.00812970  0.61820958  1
  La3+  La39  1  0.86525460  0.00466499  0.88274190  1
  La3+  La40  1  0.86455957  0.33437849  0.12534991  1
  La3+  La41  1  0.86166721  0.33055482  0.37629446  1
  La3+  La42  1  0.86147310  0.33040631  0.62511233  1
  La3+  La43  1  0.85613554  0.32987340  0.87535064  1
  La3+  La44  1  0.86194203  0.67031548  0.12503626  1
  La3+  La45  1  0.85802916  0.66589791  0.37130542  1
  La3+  La46  1  0.86695669  0.66695986  0.62760781  1
  La3+  La47  1  0.86130694  0.66700978  0.87116547  1
  La3+  La48  1  0.50041429  0.83521364  0.85897049  1
  La3+  La49  1  -0.00322528  0.83426788  0.14042262  1
  La3+  La50  1  0.50256618  0.83272031  0.12399251  1
  La3+  La51  1  0.00036378  0.16667507  0.11623569  1
  La3+  La52  1  0.00125026  0.49602122  0.12995939  1
  La3+  La53  1  0.49664222  0.17281703  0.37727661  1
  La3+  La54  1  0.50174285  0.49888203  0.36530570  1
  La3+  La55  1  -0.00097187  0.16022713  0.87390348  1
  La3+  La56  1  -0.00172991  0.16262889  0.62625682  1
  La3+  La57  1  0.00561083  0.50635923  0.63699027  1
  La3+  La58  1  0.50409669  0.50501784  0.85989519  1
  La3+  La59  1  0.49956603  0.16626855  0.86275296  1
  La3+  La60  1  0.50295233  0.83241010  0.88102807  1
  La3+  La61  1  0.50769911  0.51050056  0.88080108  1
  La3+  La62  1  -0.00321598  0.49752158  0.87633438  1
  La3+  La63  1  -0.00224717  0.83195950  0.37158928  1
  La3+  La64  1  0.00063383  0.49460574  0.37193330  1
  La3+  La65  1  -0.00788380  0.17523996  0.37656228  1
  La3+  La66  1  0.49737719  0.82991167  0.37020827  1
  La3+  La67  1  0.00134405  0.50633778  0.61540367  1
  La3+  La68  1  0.00543946  0.83253109  0.61957384  1
  La3+  La69  1  -0.00160556  0.16421440  0.89004942  1
  La3+  La70  1  0.00083491  0.83205046  0.88772824  1
  La3+  La71  1  -0.00015979  0.83828075  0.63945190  1
  La3+  La72  1  0.75001127  0.55502170  0.76740959  1
  La3+  La73  1  0.75046194  0.54389467  0.00475907  1
  La3+  La74  1  0.24978376  0.20514676  -0.01553925  1
  La3+  La75  1  0.25012575  0.55289695  0.76066798  1
  La3+  La76  1  0.74983023  0.83236216  0.73799971  1
  La3+  La77  1  0.74980145  0.20575673  0.01724169  1
  La3+  La78  1  0.75048733  0.49226787  0.29367719  1
  La3+  La79  1  0.25023043  0.86944421  0.21157223  1
  La3+  La80  1  0.25001257  0.78859391  0.72520021  1
  La3+  La81  1  0.25007753  0.53036070  0.25688150  1
  La3+  La82  1  0.75164213  0.10049680  0.26017891  1
  La3+  La83  1  0.74973261  0.84309426  0.48826212  1
  Ru4+  Ru84  1  -0.00007924  0.00503938  0.00009261  1
  Ru4+  Ru85  1  -0.00168021  0.00083002  0.24953269  1
  Ru4+  Ru86  1  -0.00039185  0.00517489  0.50263652  1
  Ru4+  Ru87  1  0.00123732  0.00066497  0.75644444  1
  Ru4+  Ru88  1  -0.00380287  0.33056882  -0.00759813  1
  Ru4+  Ru89  1  0.00181554  0.33074638  0.24902974  1
  Ru4+  Ru90  1  -0.00175060  0.32854867  0.49403009  1
  Ru4+  Ru91  1  0.00232625  0.33321710  0.74849517  1
  Ru4+  Ru92  1  0.00217306  0.67012814  0.00071738  1
  Ru4+  Ru93  1  -0.00259733  0.66485423  0.25148776  1
  Ru4+  Ru94  1  -0.00481504  0.66586388  0.49679543  1
  Ru4+  Ru95  1  0.00089133  0.67244991  0.75764109  1
  Ru4+  Ru96  1  0.50213440  0.00381521  0.00334828  1
  Ru4+  Ru97  1  0.50282244  0.00065876  0.24585842  1
  Ru4+  Ru98  1  0.49931622  -0.00589515  0.50238469  1
  Ru4+  Ru99  1  0.50069506  0.00096729  0.73953788  1
  Ru4+  Ru100  1  0.49691518  0.33154764  0.00590258  1
  Ru4+  Ru101  1  0.49936439  0.33412108  0.24765028  1
  Ru4+  Ru102  1  0.50289136  0.33291718  0.49835374  1
  Ru4+  Ru103  1  0.50052145  0.32976989  0.74822988  1
  Ru4+  Ru104  1  0.50146311  0.66827192  0.00605815  1
  Ru4+  Ru105  1  0.50034112  0.66435482  0.24633874  1
  Ru4+  Ru106  1  0.50146062  0.66740855  0.50128413  1
  Ru4+  Ru107  1  0.50175024  0.66760764  0.74550734  1
  Ru4+  Ru108  1  0.10985999  0.16609759  -0.00023419  1
  Ru4+  Ru109  1  0.11374019  0.16163155  0.24767114  1
  Ru4+  Ru110  1  0.11348330  0.16141248  0.50125674  1
  Ru4+  Ru111  1  0.11052821  0.17058073  0.74969161  1
  Ru4+  Ru112  1  0.11805785  0.50244022  -0.00018594  1
  Ru4+  Ru113  1  0.11078869  0.49954970  0.25113093  1
  Ru4+  Ru114  1  0.11528628  0.50354528  0.49808733  1
  Ru4+  Ru115  1  0.11308071  0.49721556  0.75176697  1
  Ru4+  Ru116  1  0.11312604  0.83262235  -0.00065139  1
  Ru4+  Ru117  1  0.11084421  0.83698505  0.24957207  1
  Ru4+  Ru118  1  0.11790996  0.83430599  0.49611880  1
  Ru4+  Ru119  1  0.11269460  0.83764069  0.75313929  1
  Ru4+  Ru120  1  0.61218039  0.16761247  -0.00100393  1
  Ru4+  Ru121  1  0.61135430  0.16803595  0.24842688  1
  Ru4+  Ru122  1  0.61348240  0.16873502  0.50041900  1
  Ru4+  Ru123  1  0.61194517  0.16748623  0.74952871  1
  Ru4+  Ru124  1  0.61051225  0.50190693  0.00358157  1
  Ru4+  Ru125  1  0.60934589  0.50230905  0.24876376  1
  Ru4+  Ru126  1  0.60853968  0.49865513  0.50264229  1
  Ru4+  Ru127  1  0.61183090  0.49946514  0.74666875  1
  Ru4+  Ru128  1  0.61332502  0.83446212  -0.00074220  1
  Ru4+  Ru129  1  0.61506048  0.83414650  0.25043510  1
  Ru4+  Ru130  1  0.60915256  0.83246186  0.50363658  1
  Ru4+  Ru131  1  0.61103967  0.83609221  0.74864054  1
  Ru4+  Ru132  1  0.39136890  0.16849595  0.00133440  1
  Ru4+  Ru133  1  0.38616705  0.16273369  0.24738459  1
  Ru4+  Ru134  1  0.38574350  0.16424507  0.49988214  1
  Ru4+  Ru135  1  0.38923626  0.16655152  0.74889617  1
  Ru4+  Ru136  1  0.38429675  0.49652954  0.00238363  1
  Ru4+  Ru137  1  0.39117580  0.49975198  0.24933552  1
  Ru4+  Ru138  1  0.38584281  0.50180501  0.49950576  1
  Ru4+  Ru139  1  0.38886824  0.50122100  0.74924797  1
  Ru4+  Ru140  1  0.38625444  0.83331187  -0.00118294  1
  Ru4+  Ru141  1  0.38805369  0.83162181  0.24813511  1
  Ru4+  Ru142  1  0.38535685  0.82854556  0.49948938  1
  Ru4+  Ru143  1  0.39023180  0.83231684  0.74996127  1
  Ru4+  Ru144  1  0.89055042  0.16889824  0.00113432  1
  Ru4+  Ru145  1  0.89100563  0.16277585  0.24986617  1
  Ru4+  Ru146  1  0.88389124  0.16704679  0.50230016  1
  Ru4+  Ru147  1  0.88622025  0.16568904  0.75035689  1
  Ru4+  Ru148  1  0.88948817  0.50012323  0.00037463  1
  Ru4+  Ru149  1  0.88881270  0.49997715  0.24977048  1
  Ru4+  Ru150  1  0.88521019  0.49905288  0.49807515  1
  Ru4+  Ru151  1  0.88405886  0.49230066  0.75152660  1
  Ru4+  Ru152  1  0.88648243  0.83811815  0.00053482  1
  Ru4+  Ru153  1  0.88457862  0.83367979  0.24978604  1
  Ru4+  Ru154  1  0.88709582  0.83214180  0.49673068  1
  Ru4+  Ru155  1  0.88455599  0.83667966  0.75217922  1
  Ru4+  Ru156  1  0.75019714  0.24795488  0.25972223  1
  Ru4+  Ru157  1  0.74943111  0.98340397  0.48321986  1
  Ru4+  Ru158  1  0.74907248  0.05172105  0.00863391  1
  Ru4+  Ru159  1  0.75011497  0.75711178  -0.02157365  1
  Ru4+  Ru160  1  0.25035216  0.39987040  0.76231216  1
  Ru4+  Ru161  1  0.24953277  0.72286701  0.26717474  1
  Ru4+  Ru162  1  0.25015352  0.41363913  0.49303365  1
  Ru4+  Ru163  1  0.74935018  0.58162895  0.50120879  1
  Ru4+  Ru164  1  0.25006563  0.05976768  0.00483448  1
  Ru4+  Ru165  1  0.75040086  0.08852267  0.73859303  1
  Ru4+  Ru166  1  0.25012109  0.75405687  0.00013834  1
  Ru4+  Ru167  1  0.24965141  0.23985652  0.24521338  1
  Ru4+  Ru168  1  0.74993091  0.71179174  0.53568879  1
  Ru4+  Ru169  1  0.25025035  0.38291974  0.24209816  1
  Ru4+  Ru170  1  0.25056765  0.93108193  0.76119831  1
  Ru4+  Ru171  1  0.74970945  0.61211649  0.23307522  1
  Ru4+  Ru172  1  0.74919629  0.37812556  0.21708221  1
  Ru4+  Ru173  1  0.74978790  0.40207446  0.49555564  1
  Ru4+  Ru174  1  0.25018956  0.08401394  0.74700212  1
  Ru4+  Ru175  1  0.25006550  0.25346647  0.49600203  1
  Ru4+  Ru176  1  0.75003559  0.40371347  0.00188996  1
  Ru4+  Ru177  1  0.24998514  0.25012350  0.74790921  1
  Ru4+  Ru178  1  0.25003931  0.91355105  0.50570269  1
  Ru4+  Ru179  1  0.74895088  0.39777341  0.73680617  1
  O2-  O180  1  0.16601986  0.07978854  0.00048995  1
  O2-  O181  1  0.16665464  0.08054229  0.25201406  1
  O2-  O182  1  0.16902788  0.08290801  0.49530476  1
  O2-  O183  1  0.16475815  0.08294430  0.75086363  1
  O2-  O184  1  0.16659714  0.41634074  -0.00047225  1
  O2-  O185  1  0.17014481  0.41281916  0.25095897  1
  O2-  O186  1  0.16752512  0.41159662  0.49924417  1
  O2-  O187  1  0.16700641  0.41205504  0.74992372  1
  O2-  O188  1  0.16810679  0.74858959  0.00133236  1
  O2-  O189  1  0.16760747  0.74590629  0.24942898  1
  O2-  O190  1  0.16535118  0.74944531  0.50006881  1
  O2-  O191  1  0.16093826  0.74601794  0.75147951  1
  O2-  O192  1  0.66973608  0.08061344  0.00191821  1
  O2-  O193  1  0.66126376  0.07823450  0.25241785  1
  O2-  O194  1  0.66454330  0.08173976  0.49807946  1
  O2-  O195  1  0.66812567  0.08078850  0.75147894  1
  O2-  O196  1  0.66699276  0.41256047  0.00138761  1
  O2-  O197  1  0.66663286  0.41116431  0.24772253  1
  O2-  O198  1  0.66683013  0.41374414  0.49857923  1
  O2-  O199  1  0.66611119  0.41282097  0.74795907  1
  O2-  O200  1  0.66772839  0.74845206  -0.00185990  1
  O2-  O201  1  0.66359347  0.74829750  0.25108861  1
  O2-  O202  1  0.66731011  0.74550150  0.49948306  1
  O2-  O203  1  0.66738085  0.74795195  0.74492864  1
  O2-  O204  1  0.33545318  0.25469116  -0.00458473  1
  O2-  O205  1  0.33216511  0.25232389  0.25113995  1
  O2-  O206  1  0.33139877  0.25362401  0.50020918  1
  O2-  O207  1  0.33357229  0.25384718  0.75093067  1
  O2-  O208  1  0.33645411  0.58418482  0.00053695  1
  O2-  O209  1  0.33544792  0.58730098  0.24840983  1
  O2-  O210  1  0.33694005  0.58424510  0.50061595  1
  O2-  O211  1  0.34124599  0.58851135  0.74959159  1
  O2-  O212  1  0.33581720  0.91995402  -0.00155905  1
  O2-  O213  1  0.33558944  0.92154518  0.25017531  1
  O2-  O214  1  0.33165221  0.91896328  0.50179240  1
  O2-  O215  1  0.33332381  0.92077056  0.75065202  1
  O2-  O216  1  0.83643004  0.25362750  0.00097329  1
  O2-  O217  1  0.83420058  0.25311820  0.24987650  1
  O2-  O218  1  0.83765035  0.25299009  0.49873453  1
  O2-  O219  1  0.83577062  0.25045197  0.74735252  1
  O2-  O220  1  0.83867375  0.58998074  -0.00095333  1
  O2-  O221  1  0.83381161  0.58827457  0.24819462  1
  O2-  O222  1  0.83363249  0.58577800  0.50167230  1
  O2-  O223  1  0.83872095  0.58858888  0.74751086  1
  O2-  O224  1  0.83580339  0.91906349  0.00188750  1
  O2-  O225  1  0.83793324  0.91830961  0.25047393  1
  O2-  O226  1  0.83160679  0.92206443  0.49740744  1
  O2-  O227  1  0.83021632  0.91953465  0.74938995  1
  O2-  O228  1  0.16363536  0.25537801  -0.00055284  1
  O2-  O229  1  0.16658380  0.25223781  0.24970049  1
  O2-  O230  1  0.16817561  0.25135104  0.49952252  1
  O2-  O231  1  0.16811874  0.25363774  0.75130682  1
  O2-  O232  1  0.16504396  0.58500590  0.00057407  1
  O2-  O233  1  0.16508763  0.58785589  0.24963914  1
  O2-  O234  1  0.16442861  0.58547987  0.50001175  1
  O2-  O235  1  0.15955050  0.58850232  0.74822160  1
  O2-  O236  1  0.16260030  0.91756551  -0.00006125  1
  O2-  O237  1  0.16463638  0.92220954  0.25131243  1
  O2-  O238  1  0.16689477  0.92063399  0.49802976  1
  O2-  O239  1  0.16855766  0.92016492  0.75056720  1
  O2-  O240  1  0.66037920  0.25489241  0.00030587  1
  O2-  O241  1  0.66462457  0.25230381  0.24895908  1
  O2-  O242  1  0.66436110  0.25063266  0.49993389  1
  O2-  O243  1  0.66391251  0.25151506  0.74929791  1
  O2-  O244  1  0.66376435  0.58975984  -0.00081227  1
  O2-  O245  1  0.66683169  0.58738985  0.25132755  1
  O2-  O246  1  0.66437506  0.58574956  0.49924396  1
  O2-  O247  1  0.66244851  0.58928211  0.74557443  1
  O2-  O248  1  0.66811572  0.91777241  -0.00061220  1
  O2-  O249  1  0.66755949  0.91640481  0.25217964  1
  O2-  O250  1  0.66784080  0.91959905  0.49709379  1
  O2-  O251  1  0.66970681  0.91931043  0.74849385  1
  O2-  O252  1  0.33349043  0.07931840  -0.00253384  1
  O2-  O253  1  0.33310877  0.08335126  0.24829659  1
  O2-  O254  1  0.33427167  0.08206977  0.50053082  1
  O2-  O255  1  0.33475470  0.08115038  0.74995010  1
  O2-  O256  1  0.33125456  0.41591913  -0.00429792  1
  O2-  O257  1  0.33170758  0.41378292  0.25111308  1
  O2-  O258  1  0.33429728  0.41183768  0.50057927  1
  O2-  O259  1  0.33310523  0.41042026  0.75080746  1
  O2-  O260  1  0.33392551  0.74727860  -0.00066458  1
  O2-  O261  1  0.33084109  0.74702279  0.24931947  1
  O2-  O262  1  0.33315299  0.74896637  0.50190803  1
  O2-  O263  1  0.33777135  0.74672148  0.75291597  1
  O2-  O264  1  0.83157195  0.08032678  0.00261289  1
  O2-  O265  1  0.84323234  0.07644954  0.24985360  1
  O2-  O266  1  0.82830292  0.08120964  0.49719423  1
  O2-  O267  1  0.83362553  0.07936262  0.75034734  1
  O2-  O268  1  0.83371563  0.41462930  0.00164819  1
  O2-  O269  1  0.83172356  0.41148993  0.25111953  1
  O2-  O270  1  0.83309052  0.41305943  0.49907672  1
  O2-  O271  1  0.83060458  0.41254431  0.74602483  1
  O2-  O272  1  0.83103725  0.74842001  -0.00157656  1
  O2-  O273  1  0.83225660  0.75037242  0.24973359  1
  O2-  O274  1  0.83240120  0.74500501  0.50065228  1
  O2-  O275  1  0.83397617  0.74644223  0.74705314  1
  O2-  O276  1  0.44613165  0.24504054  0.27373266  1
  O2-  O277  1  0.95088218  0.76796194  0.76754617  1
  O2-  O278  1  0.95198098  0.42729379  0.98994978  1
  O2-  O279  1  0.45300549  0.57096299  0.26138420  1
  O2-  O280  1  0.05107949  0.43442753  0.01431357  1
  O2-  O281  1  0.45552710  0.90202000  0.01080260  1
  O2-  O282  1  0.04984473  0.57495227  0.24289523  1
  O2-  O283  1  0.44697037  0.09371097  0.01234954  1
  O2-  O284  1  0.54256651  0.44255019  0.21291253  1
  O2-  O285  1  0.54975201  0.23565285  0.76100293  1
  O2-  O286  1  0.95522046  0.23087228  0.76326853  1
  O2-  O287  1  0.94415765  0.42228999  0.23507387  1
  O2-  O288  1  0.94822420  0.76891312  0.01260929  1
  O2-  O289  1  0.04609296  0.11322136  0.45683317  1
  O2-  O290  1  0.45026551  0.23695247  0.73542357  1
  O2-  O291  1  0.95084909  0.23169348  0.23743943  1
  O2-  O292  1  0.05543708  0.41935782  0.22858618  1
  O2-  O293  1  0.05004706  0.76140846  0.74400813  1
  O2-  O294  1  0.95089579  0.42981920  0.48569093  1
  O2-  O295  1  0.95647582  0.10136380  0.99542834  1
  O2-  O296  1  0.04863888  0.57307415  0.76727807  1
  O2-  O297  1  0.45469670  0.90289518  0.26010847  1
  O2-  O298  1  0.54995237  0.88491208  0.45747302  1
  O2-  O299  1  0.53914883  0.11237170  0.27765306  1
  O2-  O300  1  0.94925044  0.09167774  0.48093949  1
  O2-  O301  1  0.95112462  0.57358868  0.50325179  1
  O2-  O302  1  0.54475286  0.23217607  0.51532756  1
  O2-  O303  1  0.05101539  0.42743307  0.51009900  1
  O2-  O304  1  0.94721244  0.56401557  0.76389444  1
  O2-  O305  1  0.44881395  0.42471440  0.75991592  1
  O2-  O306  1  0.04853522  0.90818045  0.50179503  1
  O2-  O307  1  0.95073941  0.10827381  0.50339386  1
  O2-  O308  1  0.05039620  0.23145138  0.24197885  1
  O2-  O309  1  0.54846240  0.42885886  0.73376395  1
  O2-  O310  1  0.94236407  0.76119446  0.54323364  1
  O2-  O311  1  0.94734954  0.08988008  0.01643857  1
  O2-  O312  1  0.04965200  0.76489441  0.48288898  1
  O2-  O313  1  0.04214673  0.78802747  0.03764304  1
  O2-  O314  1  0.46010586  0.44366692  0.96571659  1
  O2-  O315  1  0.95548045  0.57147698  0.00815550  1
  O2-  O316  1  0.53771370  0.11840694  0.99775288  1
  O2-  O317  1  0.94800893  0.43000450  0.70905846  1
  O2-  O318  1  0.54524627  0.56737455  0.50797643  1
  O2-  O319  1  0.45660037  0.88212298  0.53482404  1
  O2-  O320  1  0.46266752  0.87945527  0.49738881  1
  O2-  O321  1  0.04583609  0.76430777  0.26361255  1
  O2-  O322  1  0.95011656  0.57314768  0.24218944  1
  O2-  O323  1  0.44807591  0.42853609  0.24138731  1
  O2-  O324  1  0.56362577  0.92202892  0.02437703  1
  O2-  O325  1  0.94089024  0.41921034  0.70295290  1
  O2-  O326  1  0.93167938  0.25071379  0.06182504  1
  O2-  O327  1  0.93611826  0.74220447  0.22384172  1
  O2-  O328  1  0.07175864  0.05460543  0.56324350  1
  O2-  O329  1  0.06220529  0.73611350  0.46927464  1
  O2-  O330  1  0.06180479  0.40234935  0.02033362  1
  O2-  O331  1  0.43590897  0.73838160  0.47542480  1
  O2-  O332  1  0.56477310  0.59236709  0.77814266  1
  O2-  O333  1  0.06594390  0.93436374  0.67962087  1
  O2-  O334  1  0.92908039  0.06875233  0.96675279  1
  O2-  O335  1  0.57284128  0.39864248  0.29342203  1
  O2-  O336  1  0.93578293  0.72233491  0.40344918  1
  O2-  O337  1  0.56571563  0.40658960  0.97718306  1
  O2-  O338  1  0.43632772  0.06832019  0.22168463  1
  O2-  O339  1  0.93578395  0.92487017  0.52338299  1
  O2-  O340  1  0.06408554  0.26117231  0.67852458  1
  O2-  O341  1  0.56329321  0.07239297  0.72030586  1
  O2-  O342  1  0.56319864  0.74776409  0.78070378  1
  O2-  O343  1  0.93278840  0.39034822  0.83782083  1
  O2-  O344  1  0.57299066  0.06516261  0.20246527  1
  O2-  O345  1  0.43809770  0.73698446  0.72128321  1
  O2-  O346  1  0.43718938  0.25790385  0.02154662  1
  O2-  O347  1  0.57776746  0.05959060  0.96589744  1
  O2-  O348  1  0.93898322  0.41349819  0.22903012  1
  O2-  O349  1  0.93248867  0.92643021  0.72418459  1
  O2-  O350  1  0.06723623  0.91378211  0.81538336  1
  O2-  O351  1  0.93804676  0.59568643  0.77580819  1
  O2-  O352  1  0.56391417  0.92222781  0.22410110  1
  O2-  O353  1  0.94043251  0.26416147  0.92618591  1
  O2-  O354  1  0.57060595  0.94934863  0.55510527  1
  O2-  O355  1  0.56526911  0.73888264  0.52303215  1
  O2-  O356  1  0.42461378  0.97213266  0.43937566  1
  O2-  O357  1  0.06266057  0.06937989  0.21608300  1
  O2-  O358  1  0.42132270  0.39557987  0.05632064  1
  O2-  O359  1  0.94522762  0.75343645  0.54179925  1
  O2-  O360  1  0.56371880  0.40272565  0.53312902  1
  O2-  O361  1  0.05979311  0.41283042  0.22914491  1
  O2-  O362  1  0.06185363  0.26185958  0.81889331  1
  O2-  O363  1  0.07164969  0.71805125  0.93771079  1
  O2-  O364  1  0.56489448  0.59109316  0.02453265  1
  O2-  O365  1  0.56639780  0.59711184  0.22829534  1
  O2-  O366  1  0.05979207  0.25844568  0.97031130  1
  O2-  O367  1  0.92810011  0.07084992  0.53070137  1
  O2-  O368  1  0.43603383  0.92579727  0.72991462  1
  O2-  O369  1  0.43667997  0.73666097  0.21707731  1
  O2-  O370  1  0.44239584  0.25237399  0.27914293  1
  O2-  O371  1  0.56278605  0.92325736  0.72172257  1
  O2-  O372  1  0.74898631  0.32000384  0.93064066  1
  O2-  O373  1  0.25045881  0.67232706  0.83048419  1
  O2-  O374  1  0.25089491  0.66654023  0.65547051  1
  O2-  O375  1  0.24992679  0.67095856  0.09650280  1
  O2-  O376  1  0.24962034  0.66914150  0.38548759  1
  O2-  O377  1  0.75008892  0.66630945  0.85615217  1
  O2-  O378  1  0.74918792  0.32902347  0.10265503  1
  O2-  O379  1  0.74958684  0.69311765  0.32482871  1
  O2-  O380  1  0.74977371  0.32347086  0.81424874  1
  O2-  O381  1  0.74967968  0.33614785  0.59802110  1
  O2-  O382  1  0.75044718  0.00681838  0.13791787  1
  O2-  O383  1  0.75037185  -0.00578737  0.35856902  1
  O2-  O384  1  0.74951132  0.33582721  0.35467291  1
  O2-  O385  1  0.75004738  0.00120979  0.90112322  1
  O2-  O386  1  0.75010979  0.69700891  0.15328761  1
  O2-  O387  1  0.24946373  0.33524651  0.11135897  1
  O2-  O388  1  0.75026643  0.00020975  0.60756800  1
  O2-  O389  1  0.74948074  0.66231883  0.41378116  1
  O2-  O390  1  0.25014981  0.66371572  0.92260640  1
  O2-  O391  1  0.25004832  -0.00451451  0.10170608  1
  O2-  O392  1  0.25053089  0.33033306  0.64770235  1
  O2-  O393  1  0.75037647  0.66820989  0.06768713  1
  O2-  O394  1  0.25078682  0.00201886  0.64816573  1
  O2-  O395  1  0.25054226  0.00951791  0.85502950  1
  O2-  O396  1  0.74979101  0.50020795  0.14166928  1
  O2-  O397  1  0.74985718  0.49533279  0.42463065  1
  O2-  O398  1  0.25010323  0.82925798  0.08086393  1
  O2-  O399  1  0.75005809  0.49138011  0.56652444  1
  O2-  O400  1  0.74997163  0.16077884  0.66177791  1
  O2-  O401  1  0.24996948  0.82830483  0.34731136  1
  O2-  O402  1  0.25007823  0.50585164  0.55852534  1
  O2-  O403  1  0.74986482  0.48303710  0.65344461  1
  O2-  O404  1  0.24996242  0.48325668  0.64144623  1
  O2-  O405  1  0.25013906  0.49264036  0.40426571  1
  O2-  O406  1  0.75025521  0.17382898  0.81225656  1
  O2-  O407  1  0.25010031  0.84111875  0.86230477  1
  O2-  O408  1  0.75003320  0.82701707  0.87582226  1
  O2-  O409  1  0.24995097  0.15987791  0.11724627  1
  O2-  O410  1  0.25004899  0.16745995  0.65729432  1
  O2-  O411  1  0.24985253  0.82627145  0.43444289  1
  O2-  O412  1  0.75018596  0.15313220  0.89794721  1
  O2-  O413  1  0.74966931  0.17890932  0.14926404  1
  O2-  O414  1  0.74992396  0.47655823  0.87946779  1
  O2-  O415  1  0.24995686  0.47700864  0.87337012  1
  O2-  O416  1  0.24995362  0.17652203  0.34036547  1
  O2-  O417  1  0.24966390  0.83976207  0.58792872  1
  O2-  O418  1  0.74957218  0.18372247  0.36934920  1
  O2-  O419  1  0.25005330  0.16646960  0.83865461  1
  O2-  O420  1  0.03379171  0.66498889  0.12225558  1
  O2-  O421  1  0.52371452  0.66322210  0.63041764  1
  O2-  O422  1  0.52652316  0.00206924  0.37553085  1
  O2-  O423  1  0.04600591  0.66584344  0.61694138  1
  O2-  O424  1  0.04255002  0.01806456  0.88987698  1
  O2-  O425  1  0.52288133  0.32705438  0.87630485  1
  O2-  O426  1  0.97541550  0.67115155  0.88133994  1
  O2-  O427  1  0.95878450  0.65340870  0.64340986  1
  O2-  O428  1  0.04540611  0.33085711  0.37979215  1
  O2-  O429  1  0.52444350  0.32702087  0.37938619  1
  O2-  O430  1  0.47355916  0.01198578  0.62006764  1
  O2-  O431  1  0.48267239  0.32760426  0.13212589  1
  O2-  O432  1  0.51911126  0.67144612  0.88238318  1
  O2-  O433  1  0.03215044  0.32303601  0.12669901  1
  O2-  O434  1  0.97402548  0.34007835  0.12849348  1
  O2-  O435  1  0.97914565  0.00882776  0.63517017  1
  O2-  O436  1  0.95678161  -0.01082184  0.86055090  1
  O2-  O437  1  0.51557857  -0.00040932  0.11989060  1
  O2-  O438  1  0.47894786  0.66138942  0.37309798  1
  O2-  O439  1  0.52224613  0.68038421  0.12454823  1
  O2-  O440  1  0.95609546  0.32685225  0.37664777  1
  O2-  O441  1  0.52081775  -0.01028710  0.87071800  1
  O2-  O442  1  0.97214071  0.66448520  0.11871136  1
  O2-  O443  1  0.97431323  0.31899882  0.61213284  1
