# generated using pymatgen
data_La7(Ru4O11)2
_symmetry_space_group_name_H-M   'P 1'
_cell_length_a   23.99162224
_cell_length_b   16.83142749
_cell_length_c   15.42791264
_cell_angle_alpha   89.99895557
_cell_angle_beta   90.00282398
_cell_angle_gamma   90.00308581
_symmetry_Int_Tables_number   1
_chemical_formula_structural   La7(Ru4O11)2
_chemical_formula_sum   'La84 Ru96 O264'
_cell_volume   6229.99552849
_cell_formula_units_Z   12
loop_
 _symmetry_equiv_pos_site_id
 _symmetry_equiv_pos_as_xyz
  1  'x, y, z'
loop_
 _atom_type_symbol
 _atom_type_oxidation_number
  La3+  3.0
  Ru4+  4.0
  O2-  -2.0
loop_
 _atom_site_type_symbol
 _atom_site_label
 _atom_site_symmetry_multiplicity
 _atom_site_fract_x
 _atom_site_fract_y
 _atom_site_fract_z
 _atom_site_occupancy
  La3+  La0  1  0.13782125  -0.00231890  0.12394512  1
  La3+  La1  1  0.13604292  -0.00206677  0.37449356  1
  La3+  La2  1  0.13600609  -0.00103278  0.62372582  1
  La3+  La3  1  0.14431044  -0.00014373  0.87538359  1
  La3+  La4  1  0.13940170  0.33379298  0.12387840  1
  La3+  La5  1  0.14334666  0.33011261  0.37325947  1
  La3+  La6  1  0.13590155  0.33409439  0.62409034  1
  La3+  La7  1  0.14248284  0.32946269  0.87420345  1
  La3+  La8  1  0.14296571  0.66917853  0.12191001  1
  La3+  La9  1  0.14170877  0.66695118  0.37360763  1
  La3+  La10  1  0.14154397  0.66737640  0.62544355  1
  La3+  La11  1  0.14503905  0.67079488  0.87384437  1
  La3+  La12  1  0.64245341  0.00380203  0.12393431  1
  La3+  La13  1  0.64092762  -0.00224332  0.38255310  1
  La3+  La14  1  0.64101545  -0.00127721  0.62122115  1
  La3+  La15  1  0.64065101  0.00269649  0.87735656  1
  La3+  La16  1  0.64031270  0.33438154  0.12230805  1
  La3+  La17  1  0.64130546  0.33616699  0.37920332  1
  La3+  La18  1  0.64308497  0.33983609  0.62408976  1
  La3+  La19  1  0.63907352  0.33804317  0.87138021  1
  La3+  La20  1  0.63736622  0.66444589  0.12820148  1
  La3+  La21  1  0.64420873  0.66698476  0.37471821  1
  La3+  La22  1  0.63967002  0.66774787  0.62349571  1
  La3+  La23  1  0.64932771  0.66615807  0.87415684  1
  La3+  La24  1  0.35925082  -0.00182899  0.12539675  1
  La3+  La25  1  0.36517090  -0.00146349  0.37543158  1
  La3+  La26  1  0.36511867  0.00194178  0.62223247  1
  La3+  La27  1  0.35777032  -0.00186434  0.87600183  1
  La3+  La28  1  0.36109632  0.33298203  0.12310362  1
  La3+  La29  1  0.35887878  0.33366595  0.37375122  1
  La3+  La30  1  0.35721492  0.33751944  0.62843147  1
  La3+  La31  1  0.36062985  0.33382180  0.87969485  1
  La3+  La32  1  0.36210954  0.66722387  0.12740999  1
  La3+  La33  1  0.37174010  0.67246438  0.38012948  1
  La3+  La34  1  0.36995397  0.67772497  0.61558956  1
  La3+  La35  1  0.36113737  0.66999710  0.87330973  1
  La3+  La36  1  0.86228032  0.00312086  0.12319257  1
  La3+  La37  1  0.86014002  -0.00164418  0.38376953  1
  La3+  La38  1  0.85516365  -0.00083461  0.62122335  1
  La3+  La39  1  0.86048785  0.00327414  0.87426528  1
  La3+  La40  1  0.86398976  0.33658502  0.12687876  1
  La3+  La41  1  0.85804072  0.34212668  0.37182347  1
  La3+  La42  1  0.86302876  0.33219666  0.62062809  1
  La3+  La43  1  0.86084221  0.33540507  0.87403240  1
  La3+  La44  1  0.86252619  0.66983548  0.12605532  1
  La3+  La45  1  0.85452628  0.67187536  0.38010071  1
  La3+  La46  1  0.86193398  0.67334809  0.62749134  1
  La3+  La47  1  0.85869203  0.67208064  0.87290767  1
  La3+  La48  1  -0.00244366  0.50358264  0.64097571  1
  La3+  La49  1  0.00081001  0.82785505  0.86588798  1
  La3+  La50  1  0.00009911  0.49314603  0.38354578  1
  La3+  La51  1  -0.00176976  0.83300547  0.37239499  1
  La3+  La52  1  -0.00010598  0.16373960  0.12748455  1
  La3+  La53  1  -0.00685909  0.49982422  0.14937668  1
  La3+  La54  1  0.49676783  0.82750653  0.37602013  1
  La3+  La55  1  0.50241093  0.16156477  0.63141339  1
  La3+  La56  1  0.49893432  0.83415668  0.11460865  1
  La3+  La57  1  0.49850660  0.15644196  0.88868135  1
  La3+  La58  1  -0.00060135  0.50022621  0.62507047  1
  La3+  La59  1  0.49846613  0.16400608  0.12906701  1
  La3+  La60  1  0.49994982  0.50944434  0.62267741  1
  La3+  La61  1  0.00490230  0.17049920  0.36427768  1
  La3+  La62  1  -0.00646891  0.82149374  0.61639422  1
  La3+  La63  1  -0.00315403  0.83860106  0.88420102  1
  La3+  La64  1  0.49530709  0.82392048  0.62511119  1
  La3+  La65  1  0.49699816  0.82520607  0.60839165  1
  La3+  La66  1  0.00231311  0.83710354  0.13051987  1
  La3+  La67  1  0.50412014  0.50102775  0.12761127  1
  La3+  La68  1  0.50289328  0.15840720  0.35957772  1
  La3+  La69  1  -0.00772518  0.49439279  0.13360975  1
  La3+  La70  1  0.50271233  0.50014360  0.37200774  1
  La3+  La71  1  0.50128873  0.17101455  0.61133216  1
  La3+  La72  1  0.74950265  0.78822725  0.04455334  1
  La3+  La73  1  0.75164211  0.22379663  0.75793004  1
  La3+  La74  1  0.25034104  0.82636794  0.23996057  1
  La3+  La75  1  0.75031518  0.49967750  0.47907024  1
  La3+  La76  1  0.25069508  0.83050260  0.76075476  1
  La3+  La77  1  0.25014518  0.19935443  0.25702862  1
  La3+  La78  1  0.75106743  0.17252614  0.30944839  1
  La3+  La79  1  0.75030421  0.16864020  0.00878029  1
  La3+  La80  1  0.75082209  0.54183658  0.02487341  1
  La3+  La81  1  0.24961581  0.16543462  0.74255693  1
  La3+  La82  1  0.25057054  0.16786025  0.01410722  1
  La3+  La83  1  0.24748624  0.78817480  0.50067025  1
  Ru4+  Ru84  1  0.00113075  0.00096556  0.00230391  1
  Ru4+  Ru85  1  0.00150794  -0.00066612  0.24811285  1
  Ru4+  Ru86  1  -0.00448275  0.00920461  0.49379218  1
  Ru4+  Ru87  1  -0.00027454  0.01352177  0.75301386  1
  Ru4+  Ru88  1  0.00156869  0.34150276  -0.01226515  1
  Ru4+  Ru89  1  0.00406184  0.32665802  0.24598477  1
  Ru4+  Ru90  1  0.00468294  0.33522230  0.50781076  1
  Ru4+  Ru91  1  0.00269911  0.32281496  0.75067650  1
  Ru4+  Ru92  1  0.00978995  0.65870719  0.00558123  1
  Ru4+  Ru93  1  0.00024336  0.66493667  0.26405665  1
  Ru4+  Ru94  1  0.00046491  0.66739154  0.49003112  1
  Ru4+  Ru95  1  0.00232965  0.65954161  0.74468235  1
  Ru4+  Ru96  1  0.50378478  -0.01168814  -0.01116153  1
  Ru4+  Ru97  1  0.50034334  0.00181762  0.25063172  1
  Ru4+  Ru98  1  0.50691866  -0.00638633  0.50827717  1
  Ru4+  Ru99  1  0.50200485  -0.00407728  0.75094631  1
  Ru4+  Ru100  1  0.50156481  0.33453104  -0.00450299  1
  Ru4+  Ru101  1  0.49439707  0.33033525  0.25320719  1
  Ru4+  Ru102  1  0.49570177  0.33080279  0.49111638  1
  Ru4+  Ru103  1  0.50463380  0.33666737  0.75823299  1
  Ru4+  Ru104  1  0.49728075  0.66148333  -0.00744403  1
  Ru4+  Ru105  1  0.49912289  0.67823236  0.24817876  1
  Ru4+  Ru106  1  0.49844339  0.66733880  0.50306483  1
  Ru4+  Ru107  1  0.49554289  0.66471995  0.75057291  1
  Ru4+  Ru108  1  0.11075719  0.16589010  -0.00130785  1
  Ru4+  Ru109  1  0.10916085  0.16525919  0.24775226  1
  Ru4+  Ru110  1  0.11107594  0.16543907  0.49971994  1
  Ru4+  Ru111  1  0.10612130  0.16865365  0.75408555  1
  Ru4+  Ru112  1  0.10852920  0.50125804  -0.00605340  1
  Ru4+  Ru113  1  0.11200577  0.50118782  0.24729678  1
  Ru4+  Ru114  1  0.11428407  0.49989112  0.49949454  1
  Ru4+  Ru115  1  0.11071438  0.49472922  0.75694358  1
  Ru4+  Ru116  1  0.11720616  0.83226870  0.00308011  1
  Ru4+  Ru117  1  0.11001572  0.83287209  0.24910053  1
  Ru4+  Ru118  1  0.10778698  0.83140494  0.50120731  1
  Ru4+  Ru119  1  0.11233610  0.83369567  0.74728158  1
  Ru4+  Ru120  1  0.61122455  0.16544165  0.00097028  1
  Ru4+  Ru121  1  0.60940286  0.16217493  0.24937452  1
  Ru4+  Ru122  1  0.61963642  0.16551676  0.49470984  1
  Ru4+  Ru123  1  0.61089842  0.16976083  0.75151737  1
  Ru4+  Ru124  1  0.60916786  0.50029939  0.00046995  1
  Ru4+  Ru125  1  0.61601179  0.49559413  0.25155329  1
  Ru4+  Ru126  1  0.61233343  0.50446816  0.50240111  1
  Ru4+  Ru127  1  0.61103452  0.49704377  0.75222963  1
  Ru4+  Ru128  1  0.60692296  0.83632601  -0.00374717  1
  Ru4+  Ru129  1  0.61343964  0.83034130  0.25139516  1
  Ru4+  Ru130  1  0.61520235  0.83136798  0.49801879  1
  Ru4+  Ru131  1  0.61118730  0.83367505  0.75344688  1
  Ru4+  Ru132  1  0.38893916  0.16559670  -0.00008566  1
  Ru4+  Ru133  1  0.39269762  0.17255026  0.25223931  1
  Ru4+  Ru134  1  0.38557104  0.17377258  0.49908666  1
  Ru4+  Ru135  1  0.38747788  0.16702492  0.75379315  1
  Ru4+  Ru136  1  0.38993206  0.50108878  -0.00144505  1
  Ru4+  Ru137  1  0.38486801  0.49512043  0.25047699  1
  Ru4+  Ru138  1  0.38733577  0.49939592  0.50045924  1
  Ru4+  Ru139  1  0.38924988  0.50132591  0.75219824  1
  Ru4+  Ru140  1  0.38588841  0.83003649  -0.00055346  1
  Ru4+  Ru141  1  0.39227580  0.83446949  0.25764221  1
  Ru4+  Ru142  1  0.38775431  0.83440300  0.49486037  1
  Ru4+  Ru143  1  0.39008998  0.83081175  0.74712161  1
  Ru4+  Ru144  1  0.88920493  0.16451016  0.00216583  1
  Ru4+  Ru145  1  0.88886144  0.16347610  0.24833646  1
  Ru4+  Ru146  1  0.88807139  0.16313811  0.50081443  1
  Ru4+  Ru147  1  0.89653378  0.16775975  0.74929791  1
  Ru4+  Ru148  1  0.89010647  0.49857766  -0.00134041  1
  Ru4+  Ru149  1  0.88273179  0.50442085  0.24765243  1
  Ru4+  Ru150  1  0.88705974  0.50408858  0.50088382  1
  Ru4+  Ru151  1  0.88670764  0.50301609  0.75270518  1
  Ru4+  Ru152  1  0.88504438  0.84067850  0.00502188  1
  Ru4+  Ru153  1  0.88858186  0.83061800  0.24905383  1
  Ru4+  Ru154  1  0.88303067  0.83572053  0.49750120  1
  Ru4+  Ru155  1  0.88118882  0.83562343  0.75009274  1
  Ru4+  Ru156  1  0.74934809  0.28583189  0.23514136  1
  Ru4+  Ru157  1  0.25065280  0.44131886  0.74966094  1
  Ru4+  Ru158  1  0.25026348  0.02337329  0.72397810  1
  Ru4+  Ru159  1  0.24926779  0.25310930  0.50391302  1
  Ru4+  Ru160  1  0.25064242  0.59267354  0.24815937  1
  Ru4+  Ru161  1  0.24993150  0.41806193  -0.00027415  1
  Ru4+  Ru162  1  0.24999158  0.94236579  0.49953442  1
  Ru4+  Ru163  1  0.25028492  0.08414166  0.50279981  1
  Ru4+  Ru164  1  0.25024596  0.30567907  0.77665826  1
  Ru4+  Ru165  1  0.24985035  0.41080531  0.24215959  1
  Ru4+  Ru166  1  0.75049108  0.90206891  0.25599552  1
  Ru4+  Ru167  1  0.74943129  0.90377263  0.72533472  1
  Ru4+  Ru168  1  0.75009343  0.39988224  -0.03287381  1
  Ru4+  Ru169  1  0.25010533  0.40741131  0.50868203  1
  Ru4+  Ru170  1  0.74996355  0.58146494  0.77069487  1
  Ru4+  Ru171  1  0.74991182  0.05801554  0.76400178  1
  Ru4+  Ru172  1  0.25013513  0.05489924  0.25359761  1
  Ru4+  Ru173  1  0.24989553  0.57721555  0.75090828  1
  Ru4+  Ru174  1  0.74945053  0.04975880  0.24760316  1
  Ru4+  Ru175  1  0.25083610  0.58156783  -0.00433969  1
  Ru4+  Ru176  1  0.74968214  0.58743668  0.26559516  1
  Ru4+  Ru177  1  0.74974538  0.92927279  -0.01809545  1
  Ru4+  Ru178  1  0.25108118  0.58489324  0.50709560  1
  Ru4+  Ru179  1  0.25086225  0.90156388  0.00099791  1
  O2-  O180  1  0.17035708  0.08191898  0.00482406  1
  O2-  O181  1  0.16614515  0.07971994  0.25364722  1
  O2-  O182  1  0.16793389  0.08162381  0.50186004  1
  O2-  O183  1  0.16469211  0.07838525  0.74642659  1
  O2-  O184  1  0.16730737  0.41820141  0.00355654  1
  O2-  O185  1  0.16836999  0.41269876  0.24682718  1
  O2-  O186  1  0.16857019  0.41214738  0.50054344  1
  O2-  O187  1  0.17082176  0.41812729  0.74924072  1
  O2-  O188  1  0.16553756  0.74741289  0.00251987  1
  O2-  O189  1  0.16224232  0.74683844  0.24983908  1
  O2-  O190  1  0.15799779  0.74298944  0.49890771  1
  O2-  O191  1  0.17090916  0.74596364  0.74538993  1
  O2-  O192  1  0.66369415  0.08342894  0.00169010  1
  O2-  O193  1  0.66488538  0.07773227  0.25354200  1
  O2-  O194  1  0.66715041  0.07831300  0.49757920  1
  O2-  O195  1  0.66650413  0.08147322  0.75076524  1
  O2-  O196  1  0.66926667  0.41434514  -0.00022033  1
  O2-  O197  1  0.66479367  0.41457616  0.24734757  1
  O2-  O198  1  0.66587315  0.41529592  0.49867584  1
  O2-  O199  1  0.66624651  0.41758658  0.74761060  1
  O2-  O200  1  0.66542369  0.74873924  0.00550883  1
  O2-  O201  1  0.66642513  0.74902462  0.24799068  1
  O2-  O202  1  0.66270599  0.74691610  0.50017074  1
  O2-  O203  1  0.66288425  0.75090549  0.74840649  1
  O2-  O204  1  0.33473221  0.25207279  0.00007246  1
  O2-  O205  1  0.33359737  0.25635885  0.24791942  1
  O2-  O206  1  0.33092304  0.25464081  0.49767183  1
  O2-  O207  1  0.33360734  0.25647928  0.75308551  1
  O2-  O208  1  0.33332104  0.58568726  0.00268098  1
  O2-  O209  1  0.33399174  0.58743338  0.24912757  1
  O2-  O210  1  0.33416461  0.58855830  0.50010687  1
  O2-  O211  1  0.32886949  0.58443296  0.75012302  1
  O2-  O212  1  0.33351127  0.91881313  0.00321931  1
  O2-  O213  1  0.33283682  0.92096576  0.25109934  1
  O2-  O214  1  0.33383283  0.92210501  0.49927165  1
  O2-  O215  1  0.33695202  0.91906751  0.74842975  1
  O2-  O216  1  0.83744369  0.25252208  -0.00105005  1
  O2-  O217  1  0.83521490  0.25699887  0.24970214  1
  O2-  O218  1  0.83637478  0.24619341  0.50510770  1
  O2-  O219  1  0.84286742  0.25712037  0.74735782  1
  O2-  O220  1  0.84005973  0.58848774  0.00423997  1
  O2-  O221  1  0.83071685  0.58739609  0.24990916  1
  O2-  O222  1  0.83458435  0.58744077  0.50336796  1
  O2-  O223  1  0.82940433  0.58894161  0.75044792  1
  O2-  O224  1  0.83254794  0.92239326  -0.00020984  1
  O2-  O225  1  0.83562987  0.91849390  0.25141743  1
  O2-  O226  1  0.83276505  0.91834626  0.49996540  1
  O2-  O227  1  0.83151880  0.91996526  0.74986375  1
  O2-  O228  1  0.16405400  0.24953205  0.00383984  1
  O2-  O229  1  0.16614278  0.25483749  0.24575260  1
  O2-  O230  1  0.16712744  0.25213628  0.50197367  1
  O2-  O231  1  0.16724859  0.25330893  0.74608215  1
  O2-  O232  1  0.17200278  0.57941508  0.00662430  1
  O2-  O233  1  0.16497540  0.58554670  0.24874430  1
  O2-  O234  1  0.16764158  0.58546596  0.50042047  1
  O2-  O235  1  0.16791140  0.58363600  0.74851121  1
  O2-  O236  1  0.16997289  0.91944514  0.00187173  1
  O2-  O237  1  0.16797056  0.92029975  0.25268592  1
  O2-  O238  1  0.16674209  0.92217348  0.50044774  1
  O2-  O239  1  0.16380719  0.92118823  0.74524590  1
  O2-  O240  1  0.66511066  0.25350265  -0.00026534  1
  O2-  O241  1  0.66489175  0.25786318  0.24943098  1
  O2-  O242  1  0.66146071  0.25417621  0.50104422  1
  O2-  O243  1  0.66126882  0.25774718  0.74970003  1
  O2-  O244  1  0.66381831  0.58762210  0.00357030  1
  O2-  O245  1  0.66691375  0.58469886  0.24957962  1
  O2-  O246  1  0.66862970  0.58417268  0.50105855  1
  O2-  O247  1  0.66697981  0.58665830  0.74920124  1
  O2-  O248  1  0.66630868  0.91674464  0.00054313  1
  O2-  O249  1  0.66430468  0.91760556  0.25069988  1
  O2-  O250  1  0.66734960  0.91942498  0.49714958  1
  O2-  O251  1  0.66989386  0.91709780  0.74698558  1
  O2-  O252  1  0.33395507  0.08080896  0.00460384  1
  O2-  O253  1  0.33542756  0.08124680  0.25179206  1
  O2-  O254  1  0.33412679  0.08483583  0.49830300  1
  O2-  O255  1  0.33341422  0.07735408  0.74940513  1
  O2-  O256  1  0.33429682  0.41641430  -0.00098753  1
  O2-  O257  1  0.33295414  0.41311477  0.24672452  1
  O2-  O258  1  0.33317834  0.41470061  0.50255936  1
  O2-  O259  1  0.33284908  0.41790627  0.75446679  1
  O2-  O260  1  0.33496814  0.74654824  0.00238288  1
  O2-  O261  1  0.33919382  0.74693361  0.24953110  1
  O2-  O262  1  0.33520780  0.74473967  0.49763344  1
  O2-  O263  1  0.33071518  0.74490295  0.74877439  1
  O2-  O264  1  0.83394890  0.08260871  -0.00089156  1
  O2-  O265  1  0.83294212  0.07654227  0.25097297  1
  O2-  O266  1  0.83467488  0.08214148  0.49754822  1
  O2-  O267  1  0.83454954  0.08115169  0.75255025  1
  O2-  O268  1  0.82960505  0.41252386  0.00092694  1
  O2-  O269  1  0.83504930  0.41708337  0.24689149  1
  O2-  O270  1  0.83389472  0.41314272  0.50283124  1
  O2-  O271  1  0.83847717  0.41582120  0.74858601  1
  O2-  O272  1  0.83468506  0.74532943  0.00310292  1
  O2-  O273  1  0.83705388  0.74819706  0.24873566  1
  O2-  O274  1  0.83301757  0.74820771  0.50401531  1
  O2-  O275  1  0.83276127  0.74792670  0.74568749  1
  O2-  O276  1  0.95288427  0.23919161  0.73638057  1
  O2-  O277  1  0.94722300  0.09023160  0.76618147  1
  O2-  O278  1  0.44927971  0.09229176  0.74404260  1
  O2-  O279  1  0.54311157  0.22679987  0.79245661  1
  O2-  O280  1  0.44675345  0.76400254  0.98854059  1
  O2-  O281  1  0.45294638  0.42576644  0.76087128  1
  O2-  O282  1  0.95344102  0.75867935  0.75527979  1
  O2-  O283  1  0.55120181  0.56558202  0.26188791  1
  O2-  O284  1  0.54570191  0.42483039  0.25078666  1
  O2-  O285  1  0.53325529  0.89010468  0.72172000  1
  O2-  O286  1  0.45399434  0.56179810  0.49055601  1
  O2-  O287  1  0.94804090  0.76474637  0.98639712  1
  O2-  O288  1  0.44472515  0.75769692  0.51846801  1
  O2-  O289  1  0.45104354  0.91252985  0.47812667  1
  O2-  O290  1  0.03461738  0.12223226  0.99056876  1
  O2-  O291  1  0.05260491  0.43070932  0.53842425  1
  O2-  O292  1  0.44909772  0.56519016  0.26856457  1
  O2-  O293  1  0.04174562  0.42945153  0.04926006  1
  O2-  O294  1  0.44661468  0.24860645  0.73647163  1
  O2-  O295  1  0.95413860  0.75997854  0.02398419  1
  O2-  O296  1  0.53769673  0.76681273  1.00221655  1
  O2-  O297  1  0.53242814  0.89048722  0.95535042  1
  O2-  O298  1  0.54700598  0.75773101  0.74631484  1
  O2-  O299  1  0.45520857  0.76927838  0.49911544  1
  O2-  O300  1  0.45520407  0.08872798  0.01801962  1
  O2-  O301  1  0.95264090  0.43408153  0.50602105  1
  O2-  O302  1  0.45291214  0.56540885  0.99431656  1
  O2-  O303  1  0.54733098  0.23606634  0.23699871  1
  O2-  O304  1  0.96085194  0.22932639  0.50332309  1
  O2-  O305  1  0.54858952  0.23386763  0.01989672  1
  O2-  O306  1  0.04406145  0.90245482  0.51578052  1
  O2-  O307  1  0.95430897  0.43487754  0.26459459  1
  O2-  O308  1  0.44734587  0.24516388  0.98612192  1
  O2-  O309  1  0.45526630  0.57828141  0.23324871  1
  O2-  O310  1  0.05196676  0.09384910  0.75689798  1
  O2-  O311  1  0.05421483  0.23868387  0.48140495  1
  O2-  O312  1  0.04655562  0.56600611  0.75541377  1
  O2-  O313  1  0.54726537  0.56997205  0.75956936  1
  O2-  O314  1  0.54392736  0.42930759  0.51464222  1
  O2-  O315  1  0.46500601  0.21993111  0.46295308  1
  O2-  O316  1  0.95207532  0.76664706  0.48093270  1
  O2-  O317  1  0.04884885  0.76587383  0.99252593  1
  O2-  O318  1  0.54362005  0.43127502  0.49409194  1
  O2-  O319  1  0.01409468  0.54923723  1.00302735  1
  O2-  O320  1  0.45679465  0.08799406  0.51288387  1
  O2-  O321  1  0.95266185  0.23375182  0.24434663  1
  O2-  O322  1  0.55102036  0.09268903  0.76200212  1
  O2-  O323  1  0.95721121  0.09961776  0.44716679  1
  O2-  O324  1  0.43907371  0.92734291  0.28518249  1
  O2-  O325  1  0.93675550  0.06886423  0.02932037  1
  O2-  O326  1  0.43273089  0.24740230  0.17867284  1
  O2-  O327  1  0.92930153  0.28351284  0.45335393  1
  O2-  O328  1  0.05981429  0.42115636  0.54750774  1
  O2-  O329  1  0.93593367  0.74812814  0.78115154  1
  O2-  O330  1  0.56446269  0.40995613  0.98355642  1
  O2-  O331  1  0.93250612  0.05231982  0.57023939  1
  O2-  O332  1  0.55944733  0.59145475  0.03933538  1
  O2-  O333  1  0.56198814  0.91611744  0.52143700  1
  O2-  O334  1  0.56551302  0.40774796  0.77576382  1
  O2-  O335  1  0.93787572  0.06755856  0.22074894  1
  O2-  O336  1  0.43604075  0.26139682  0.32205463  1
  O2-  O337  1  0.43105377  0.28709457  0.56480144  1
  O2-  O338  1  0.06402517  0.92110143  0.02805721  1
  O2-  O339  1  0.06078949  0.41094133  0.21446175  1
  O2-  O340  1  0.06546183  0.25912600  0.78475996  1
  O2-  O341  1  0.56359544  0.59461834  0.51773543  1
  O2-  O342  1  0.43338258  0.07919941  0.52384984  1
  O2-  O343  1  0.06126171  0.41099595  0.81349416  1
  O2-  O344  1  0.94452313  0.75589849  0.47803157  1
  O2-  O345  1  0.43397339  0.58608915  0.72980797  1
  O2-  O346  1  0.06686972  0.06853973  0.47861233  1
  O2-  O347  1  0.06627483  0.73945327  0.76608698  1
  O2-  O348  1  0.43582602  0.74484469  0.77171891  1
  O2-  O349  1  0.56737881  0.27962230  0.67111609  1
  O2-  O350  1  0.56239933  0.08053110  0.51478308  1
  O2-  O351  1  0.43192563  0.73323378  0.46552340  1
  O2-  O352  1  0.08616145  0.61844122  0.97211349  1
  O2-  O353  1  0.06885274  0.41823717  0.69071171  1
  O2-  O354  1  0.58154325  0.93779452  0.80117178  1
  O2-  O355  1  0.06377408  0.39126754  0.39386466  1
  O2-  O356  1  0.93968416  0.40903132  0.27950381  1
  O2-  O357  1  0.07747115  0.06091101  0.97103578  1
  O2-  O358  1  0.93017656  0.58926543  0.68450999  1
  O2-  O359  1  0.93865430  0.92725637  0.46057669  1
  O2-  O360  1  0.55867056  0.59725340  0.27642397  1
  O2-  O361  1  0.07211944  0.37836157  0.94374887  1
  O2-  O362  1  0.93344826  0.40932484  0.97686266  1
  O2-  O363  1  0.06105245  0.59402723  0.53437796  1
  O2-  O364  1  0.57605009  0.72062442  0.95666173  1
  O2-  O365  1  0.55943861  0.74364498  0.28263875  1
  O2-  O366  1  0.93523037  0.59885352  0.21095012  1
  O2-  O367  1  0.92991573  0.58014376  0.81773913  1
  O2-  O368  1  0.56756355  0.95038176  0.06717603  1
  O2-  O369  1  0.06309131  0.25583661  0.21318284  1
  O2-  O370  1  0.93624023  0.92993888  0.77979285  1
  O2-  O371  1  0.06286714  0.92235691  0.22540867  1
  O2-  O372  1  0.74981660  0.32337263  0.07031473  1
  O2-  O373  1  0.74963717  0.01899908  0.05196040  1
  O2-  O374  1  0.24968289  0.33651887  0.10162017  1
  O2-  O375  1  0.24966652  0.33571535  0.63711069  1
  O2-  O376  1  0.74982565  -0.03123474  0.16199489  1
  O2-  O377  1  0.74981724  -0.01049522  0.36083714  1
  O2-  O378  1  0.75004098  0.35585073  0.33776040  1
  O2-  O379  1  0.74959156  0.65900749  0.89531132  1
  O2-  O380  1  0.25116372  0.33287472  0.90188188  1
  O2-  O381  1  0.25091856  0.33277984  0.34284099  1
  O2-  O382  1  0.24907250  0.66430933  0.59786607  1
  O2-  O383  1  0.74985924  0.36751280  0.14902650  1
  O2-  O384  1  0.74999977  -0.00116391  0.64823591  1
  O2-  O385  1  0.25078738  0.66066346  0.90439503  1
  O2-  O386  1  0.25044306  0.00030740  0.14624171  1
  O2-  O387  1  0.75076605  0.33031476  0.42484044  1
  O2-  O388  1  0.25021186  0.00197236  0.93023347  1
  O2-  O389  1  0.74980068  0.66154154  0.14906403  1
  O2-  O390  1  0.24945859  -0.01348333  0.83366778  1
  O2-  O391  1  0.75080851  0.00766915  0.89003001  1
  O2-  O392  1  0.24974168  0.66194097  0.14750570  1
  O2-  O393  1  0.25086725  0.66372111  0.34657540  1
  O2-  O394  1  0.74926387  0.65457180  0.38442814  1
  O2-  O395  1  0.75020336  0.32984705  0.86036946  1
  O2-  O396  1  0.75042069  0.50317395  0.61840662  1
  O2-  O397  1  0.74962877  0.16862868  0.55838605  1
  O2-  O398  1  0.25021754  0.49712579  0.90746437  1
  O2-  O399  1  0.25021901  0.85241716  0.37686515  1
  O2-  O400  1  0.74969395  0.16769629  0.15437168  1
  O2-  O401  1  0.74976659  0.14458005  0.86608867  1
  O2-  O402  1  0.74994443  0.50598527  0.33893286  1
  O2-  O403  1  0.25003599  0.84231529  0.90436199  1
  O2-  O404  1  0.25001180  0.16448052  0.59512115  1
  O2-  O405  1  0.74925496  0.16231878  0.42978328  1
  O2-  O406  1  0.24994876  0.85200814  0.62278225  1
  O2-  O407  1  0.25007011  0.84173654  0.09675167  1
  O2-  O408  1  0.74983510  0.83653237  0.41794646  1
  O2-  O409  1  0.74990167  0.83781427  0.90519760  1
  O2-  O410  1  0.75009020  0.49247373  0.88894394  1
  O2-  O411  1  0.25024409  0.49775260  0.43991410  1
  O2-  O412  1  0.74979917  0.15371103  0.63993608  1
  O2-  O413  1  0.74994572  0.84494073  0.62120385  1
  O2-  O414  1  0.24962656  0.16830710  0.40681620  1
  O2-  O415  1  0.24964676  0.16862170  0.88182874  1
  O2-  O416  1  0.74957792  0.82299612  0.33498618  1
  O2-  O417  1  0.24998277  0.49966035  0.30916478  1
  O2-  O418  1  0.74984938  0.82827436  0.81414454  1
  O2-  O419  1  0.75094893  0.49364214  0.70562469  1
  O2-  O420  1  0.54285885  0.01100845  0.63903198  1
  O2-  O421  1  0.47565407  0.67483328  0.12397019  1
  O2-  O422  1  0.97196077  0.33516334  0.11686944  1
  O2-  O423  1  0.47833091  0.66188662  0.87371822  1
  O2-  O424  1  0.02188236  -0.01401211  0.87559974  1
  O2-  O425  1  0.95439748  0.65056015  0.36514850  1
  O2-  O426  1  0.02191506  0.01505107  0.12551399  1
  O2-  O427  1  0.52917708  0.32699275  0.37351026  1
  O2-  O428  1  0.53965596  0.02543032  0.89076295  1
  O2-  O429  1  0.45145985  -0.00648444  0.87516630  1
  O2-  O430  1  0.03343877  0.30416133  0.63142216  1
  O2-  O431  1  0.45936573  0.66675215  0.62435121  1
  O2-  O432  1  0.47878739  0.35425571  0.11790679  1
  O2-  O433  1  0.47905965  0.66249150  0.36887161  1
  O2-  O434  1  0.45370380  -0.02009498  0.63945938  1
  O2-  O435  1  0.98080343  0.67537537  0.61614742  1
  O2-  O436  1  0.95489426  0.34718493  0.62710447  1
  O2-  O437  1  0.02470053  0.67006371  0.86420577  1
  O2-  O438  1  0.02492659  -0.00780980  0.36675356  1
  O2-  O439  1  0.97368648  0.32590462  0.87214651  1
  O2-  O440  1  0.04756722  0.67269622  0.37484009  1
  O2-  O441  1  0.54513681  0.67633459  0.62789404  1
  O2-  O442  1  0.51908284  0.32726382  0.88111514  1
  O2-  O443  1  0.96905106  0.67005897  0.89715666  1
