# generated using pymatgen
data_La7(Ru4O11)2
_symmetry_space_group_name_H-M   'P 1'
_cell_length_a   23.99574961
_cell_length_b   16.83506342
_cell_length_c   15.43166889
_cell_angle_alpha   90.00034042
_cell_angle_beta   89.99918222
_cell_angle_gamma   89.99500751
_symmetry_Int_Tables_number   1
_chemical_formula_structural   La7(Ru4O11)2
_chemical_formula_sum   'La84 Ru96 O264'
_cell_volume   6233.93074012
_cell_formula_units_Z   12
loop_
 _symmetry_equiv_pos_site_id
 _symmetry_equiv_pos_as_xyz
  1  'x, y, z'
loop_
 _atom_type_symbol
 _atom_type_oxidation_number
  La3+  3.0
  Ru4+  4.0
  O2-  -2.0
loop_
 _atom_site_type_symbol
 _atom_site_label
 _atom_site_symmetry_multiplicity
 _atom_site_fract_x
 _atom_site_fract_y
 _atom_site_fract_z
 _atom_site_occupancy
  La3+  La0  1  0.15126168  0.00060816  0.12182945  1
  La3+  La1  1  0.13135877  0.00367464  0.36849748  1
  La3+  La2  1  0.14576538  0.00809660  0.62829035  1
  La3+  La3  1  0.14030971  -0.00115885  0.87335916  1
  La3+  La4  1  0.14416656  0.34100183  0.12485091  1
  La3+  La5  1  0.13800137  0.33753261  0.37490845  1
  La3+  La6  1  0.14777112  0.33585159  0.63248642  1
  La3+  La7  1  0.14756349  0.33468293  0.87547080  1
  La3+  La8  1  0.14637772  0.65698010  0.12367206  1
  La3+  La9  1  0.14215828  0.66537538  0.37767931  1
  La3+  La10  1  0.15224338  0.66736903  0.63366977  1
  La3+  La11  1  0.14472151  0.66872506  0.87330044  1
  La3+  La12  1  0.64748782  -0.00259113  0.12264224  1
  La3+  La13  1  0.64820480  0.00113409  0.37749674  1
  La3+  La14  1  0.63928464  0.00340784  0.62758297  1
  La3+  La15  1  0.64994719  0.00400730  0.87549978  1
  La3+  La16  1  0.64046091  0.32957200  0.12721261  1
  La3+  La17  1  0.63525005  0.33549189  0.37447180  1
  La3+  La18  1  0.63485461  0.33209522  0.61974641  1
  La3+  La19  1  0.63950760  0.32555768  0.87178332  1
  La3+  La20  1  0.63174608  0.66645528  0.12592664  1
  La3+  La21  1  0.64857336  0.67968890  0.37168026  1
  La3+  La22  1  0.64436735  0.68261167  0.62940600  1
  La3+  La23  1  0.63735329  0.66491731  0.87826205  1
  La3+  La24  1  0.35886356  -0.00145367  0.12754671  1
  La3+  La25  1  0.35741055  0.00227871  0.37250262  1
  La3+  La26  1  0.35551585  -0.00057134  0.63201798  1
  La3+  La27  1  0.35842631  0.00153896  0.87434576  1
  La3+  La28  1  0.34083349  0.33102416  0.12400267  1
  La3+  La29  1  0.36730817  0.33595260  0.37897705  1
  La3+  La30  1  0.36106368  0.33397845  0.62901960  1
  La3+  La31  1  0.34890671  0.33261479  0.87170871  1
  La3+  La32  1  0.37048884  0.65834459  0.12558919  1
  La3+  La33  1  0.35430489  0.66280459  0.36842684  1
  La3+  La34  1  0.35801875  0.67115382  0.63115648  1
  La3+  La35  1  0.35961446  0.66263807  0.87428983  1
  La3+  La36  1  0.85949374  0.00445528  0.11865597  1
  La3+  La37  1  0.86044668  -0.00508016  0.37871565  1
  La3+  La38  1  0.85979509  0.00089443  0.62341125  1
  La3+  La39  1  0.85430761  0.00689991  0.87827504  1
  La3+  La40  1  0.85773775  0.32571402  0.12364539  1
  La3+  La41  1  0.86159008  0.32800988  0.37647315  1
  La3+  La42  1  0.86439365  0.32728564  0.62202851  1
  La3+  La43  1  0.85569516  0.32805993  0.87267827  1
  La3+  La44  1  0.87469620  0.66049397  0.12685329  1
  La3+  La45  1  0.86828369  0.66210416  0.36929553  1
  La3+  La46  1  0.85690729  0.67102716  0.61998229  1
  La3+  La47  1  0.86711345  0.66332929  0.88232873  1
  La3+  La48  1  0.49867160  0.49929759  0.36731645  1
  La3+  La49  1  -0.00575196  0.85126629  0.36017422  1
  La3+  La50  1  -0.00473418  0.50509264  0.38736073  1
  La3+  La51  1  0.50542608  0.83048851  0.37825373  1
  La3+  La52  1  0.00133716  0.48666690  0.89824643  1
  La3+  La53  1  0.50218132  0.83419601  0.35637911  1
  La3+  La54  1  -0.02487112  0.83140754  0.87555589  1
  La3+  La55  1  -0.00018416  0.50602744  0.13271859  1
  La3+  La56  1  0.00417788  0.83139381  0.11793819  1
  La3+  La57  1  0.49996331  0.15315207  0.39122914  1
  La3+  La58  1  -0.01680297  0.17414874  0.37659467  1
  La3+  La59  1  0.49813987  0.16964627  0.13057111  1
  La3+  La60  1  0.49829129  0.15989368  0.11055091  1
  La3+  La61  1  0.00088683  0.50155132  0.36694798  1
  La3+  La62  1  0.49963816  0.15704761  0.40775092  1
  La3+  La63  1  0.50145598  0.83420677  0.86507846  1
  La3+  La64  1  0.00173633  0.84243112  0.61652856  1
  La3+  La65  1  0.49688069  0.50574440  0.13640059  1
  La3+  La66  1  -0.00756514  0.16083810  0.88145590  1
  La3+  La67  1  0.50497973  0.49617262  0.86462722  1
  La3+  La68  1  0.01034053  0.49772338  0.88598764  1
  La3+  La69  1  -0.00194501  0.16011927  0.12132284  1
  La3+  La70  1  -0.01250050  0.84237628  0.36845665  1
  La3+  La71  1  0.49461175  0.50679484  0.85371045  1
  La3+  La72  1  0.25096252  0.49737255  0.74660831  1
  La3+  La73  1  0.24856088  0.16955076  0.26366364  1
  La3+  La74  1  0.24918663  0.89072514  0.53970760  1
  La3+  La75  1  0.75059381  0.88323556  0.75762876  1
  La3+  La76  1  0.74805461  0.54298573  0.27700028  1
  La3+  La77  1  0.74986644  0.13853644  0.01308438  1
  La3+  La78  1  0.75105132  0.15601739  0.26935399  1
  La3+  La79  1  0.24988316  0.16519096  0.75909499  1
  La3+  La80  1  0.75132764  0.49455499  -0.01218404  1
  La3+  La81  1  0.25111684  0.22861678  0.50585693  1
  La3+  La82  1  0.75169534  0.44231227  0.71545913  1
  La3+  La83  1  0.25083549  0.82258346  0.04205062  1
  Ru4+  Ru84  1  0.00835504  -0.01043517  -0.00917558  1
  Ru4+  Ru85  1  0.00182420  0.01019083  0.24252768  1
  Ru4+  Ru86  1  -0.00603497  0.02100499  0.50611277  1
  Ru4+  Ru87  1  0.00304636  -0.00909447  0.75474228  1
  Ru4+  Ru88  1  0.00138730  0.32923517  -0.01166950  1
  Ru4+  Ru89  1  -0.00062669  0.32767183  0.25424289  1
  Ru4+  Ru90  1  0.00776992  0.31769505  0.50511715  1
  Ru4+  Ru91  1  0.00137618  0.32425795  0.76531578  1
  Ru4+  Ru92  1  0.00566936  0.67904308  0.00431395  1
  Ru4+  Ru93  1  0.00200324  0.67444582  0.25157263  1
  Ru4+  Ru94  1  0.00583945  0.67063166  0.50989197  1
  Ru4+  Ru95  1  -0.00730695  0.66025078  0.74619303  1
  Ru4+  Ru96  1  0.50444996  -0.00828578  -0.01452790  1
  Ru4+  Ru97  1  0.49645366  -0.00779556  0.24502076  1
  Ru4+  Ru98  1  0.50180568  -0.00029367  0.51289133  1
  Ru4+  Ru99  1  0.49638084  0.02060455  0.76809961  1
  Ru4+  Ru100  1  0.49998511  0.33304950  -0.01156827  1
  Ru4+  Ru101  1  0.50132201  0.33610476  0.25413451  1
  Ru4+  Ru102  1  0.49874792  0.34219738  0.49571791  1
  Ru4+  Ru103  1  0.50811242  0.32394303  0.74901097  1
  Ru4+  Ru104  1  0.50144542  0.68055752  0.00518407  1
  Ru4+  Ru105  1  0.49705913  0.66893682  0.24570391  1
  Ru4+  Ru106  1  0.50519184  0.65804931  0.51679572  1
  Ru4+  Ru107  1  0.49900155  0.67826759  0.73625644  1
  Ru4+  Ru108  1  0.11385435  0.16331301  -0.00157696  1
  Ru4+  Ru109  1  0.11234549  0.16797317  0.24471550  1
  Ru4+  Ru110  1  0.10953503  0.16274519  0.51068177  1
  Ru4+  Ru111  1  0.10791372  0.16679132  0.75400398  1
  Ru4+  Ru112  1  0.11512579  0.49779187  0.00846154  1
  Ru4+  Ru113  1  0.11786941  0.49846628  0.24880402  1
  Ru4+  Ru114  1  0.11226963  0.49933829  0.49741165  1
  Ru4+  Ru115  1  0.10831820  0.50224810  0.74760034  1
  Ru4+  Ru116  1  0.10540771  0.83575482  -0.00270489  1
  Ru4+  Ru117  1  0.11611140  0.83882782  0.25396203  1
  Ru4+  Ru118  1  0.11125191  0.83410176  0.50410672  1
  Ru4+  Ru119  1  0.10926505  0.84361066  0.74590143  1
  Ru4+  Ru120  1  0.61109256  0.16785448  -0.00285453  1
  Ru4+  Ru121  1  0.61507025  0.16693143  0.25361707  1
  Ru4+  Ru122  1  0.61207320  0.16544911  0.50143179  1
  Ru4+  Ru123  1  0.60655354  0.16384350  0.74559612  1
  Ru4+  Ru124  1  0.61664596  0.48994411  0.00434660  1
  Ru4+  Ru125  1  0.61094084  0.49946913  0.25022610  1
  Ru4+  Ru126  1  0.59662058  0.51437772  0.50220120  1
  Ru4+  Ru127  1  0.60706017  0.49221463  0.73672781  1
  Ru4+  Ru128  1  0.60584781  0.82370839  0.00264829  1
  Ru4+  Ru129  1  0.61127584  0.83986992  0.24344633  1
  Ru4+  Ru130  1  0.61101066  0.83531883  0.50138476  1
  Ru4+  Ru131  1  0.60687998  0.83093219  0.75157830  1
  Ru4+  Ru132  1  0.38627012  0.16643721  -0.00385079  1
  Ru4+  Ru133  1  0.38902791  0.17250061  0.24931118  1
  Ru4+  Ru134  1  0.38480310  0.15573340  0.50132320  1
  Ru4+  Ru135  1  0.39805666  0.15317603  0.74684671  1
  Ru4+  Ru136  1  0.38606417  0.48955647  0.00535388  1
  Ru4+  Ru137  1  0.37947546  0.49915244  0.25037829  1
  Ru4+  Ru138  1  0.38815723  0.49914459  0.50208825  1
  Ru4+  Ru139  1  0.38850077  0.49644470  0.74527949  1
  Ru4+  Ru140  1  0.38607013  0.83363489  0.00162895  1
  Ru4+  Ru141  1  0.38832082  0.84082345  0.24741672  1
  Ru4+  Ru142  1  0.39137589  0.83001259  0.50088119  1
  Ru4+  Ru143  1  0.38427587  0.82850388  0.74962413  1
  Ru4+  Ru144  1  0.88793315  0.16998134  0.00272931  1
  Ru4+  Ru145  1  0.88924391  0.16400035  0.25087543  1
  Ru4+  Ru146  1  0.89233722  0.15540522  0.50614575  1
  Ru4+  Ru147  1  0.89191618  0.15982379  0.74461156  1
  Ru4+  Ru148  1  0.88535314  0.49135913  0.00531337  1
  Ru4+  Ru149  1  0.88331020  0.49249147  0.24564789  1
  Ru4+  Ru150  1  0.89062970  0.49703800  0.50587144  1
  Ru4+  Ru151  1  0.89127691  0.50491830  0.73802582  1
  Ru4+  Ru152  1  0.88402564  0.83447304  0.00487364  1
  Ru4+  Ru153  1  0.88348811  0.83589059  0.24349066  1
  Ru4+  Ru154  1  0.88306220  0.83063163  0.50250027  1
  Ru4+  Ru155  1  0.89320546  0.83251422  0.74334258  1
  Ru4+  Ru156  1  0.24908056  0.42144531  0.50924054  1
  Ru4+  Ru157  1  0.25140607  0.00934321  0.24404219  1
  Ru4+  Ru158  1  0.75072771  0.91616569  0.25563819  1
  Ru4+  Ru159  1  0.75015246  0.63573292  0.05195087  1
  Ru4+  Ru160  1  0.74874070  0.41710059  0.50295775  1
  Ru4+  Ru161  1  0.75242962  0.74024241  0.71445849  1
  Ru4+  Ru162  1  0.24971083  0.75522861  0.25330834  1
  Ru4+  Ru163  1  0.74942480  0.76818680  0.00124785  1
  Ru4+  Ru164  1  0.75047657  0.25106699  0.74739743  1
  Ru4+  Ru165  1  0.25117504  0.56633956  0.50931389  1
  Ru4+  Ru166  1  0.24940602  0.96596160  -0.01301623  1
  Ru4+  Ru167  1  0.75039781  0.24538830  0.50620862  1
  Ru4+  Ru168  1  0.74973739  0.39546257  0.22639403  1
  Ru4+  Ru169  1  0.75100454  0.75555127  0.25365318  1
  Ru4+  Ru170  1  0.25149682  0.74314222  0.51571223  1
  Ru4+  Ru171  1  0.75000731  0.75752253  0.48977265  1
  Ru4+  Ru172  1  0.24936191  0.33420323  0.26553668  1
  Ru4+  Ru173  1  0.24937949  0.07025104  0.51490184  1
  Ru4+  Ru174  1  0.74982607  0.33737562  -0.01376597  1
  Ru4+  Ru175  1  0.25147718  0.68866634  -0.02446527  1
  Ru4+  Ru176  1  0.74868486  0.58398283  0.73485848  1
  Ru4+  Ru177  1  0.75117214  0.57625466  0.50709312  1
  Ru4+  Ru178  1  0.74976187  0.08323242  0.50312209  1
  Ru4+  Ru179  1  0.24810799  0.24961991  -0.01363853  1
  O2-  O180  1  0.16234806  0.08147094  -0.00567199  1
  O2-  O181  1  0.17164437  0.07832968  0.25694726  1
  O2-  O182  1  0.16762446  0.08149266  0.49568871  1
  O2-  O183  1  0.16286579  0.08081579  0.75512371  1
  O2-  O184  1  0.16698869  0.41601089  -0.00007241  1
  O2-  O185  1  0.17125130  0.40964527  0.25035205  1
  O2-  O186  1  0.16422174  0.41429970  0.50281245  1
  O2-  O187  1  0.16975956  0.41767960  0.75580005  1
  O2-  O188  1  0.16785990  0.74697775  -0.00199405  1
  O2-  O189  1  0.16389040  0.74728380  0.24859710  1
  O2-  O190  1  0.16698222  0.74798197  0.49913762  1
  O2-  O191  1  0.15537028  0.75188789  0.75409887  1
  O2-  O192  1  0.66076811  0.07968139  0.00140287  1
  O2-  O193  1  0.66766127  0.08046733  0.25477406  1
  O2-  O194  1  0.66653882  0.08332058  0.50315956  1
  O2-  O195  1  0.66510907  0.08865881  0.74639427  1
  O2-  O196  1  0.67370415  0.40937984  -0.00036495  1
  O2-  O197  1  0.67032463  0.41321822  0.25207099  1
  O2-  O198  1  0.66449196  0.41950615  0.49814802  1
  O2-  O199  1  0.66514402  0.40958042  0.74222943  1
  O2-  O200  1  0.66706704  0.74773843  -0.00061872  1
  O2-  O201  1  0.66841109  0.75373004  0.24194310  1
  O2-  O202  1  0.66794439  0.75034142  0.50228240  1
  O2-  O203  1  0.67152124  0.75477127  0.75772302  1
  O2-  O204  1  0.32999214  0.25009498  -0.00421742  1
  O2-  O205  1  0.32539619  0.25639567  0.26566415  1
  O2-  O206  1  0.34362100  0.25753803  0.50297388  1
  O2-  O207  1  0.33941494  0.24528024  0.74508224  1
  O2-  O208  1  0.33664512  0.58236488  -0.00004210  1
  O2-  O209  1  0.33239107  0.58562869  0.24583087  1
  O2-  O210  1  0.33640351  0.58395640  0.50280676  1
  O2-  O211  1  0.33272231  0.58372782  0.74810117  1
  O2-  O212  1  0.32655634  0.92181895  -0.00102965  1
  O2-  O213  1  0.33082454  0.92399348  0.25126571  1
  O2-  O214  1  0.34048928  0.92256332  0.49696658  1
  O2-  O215  1  0.34026304  0.91875360  0.75209447  1
  O2-  O216  1  0.83095978  0.25129199  -0.00083631  1
  O2-  O217  1  0.83803401  0.25377225  0.25348413  1
  O2-  O218  1  0.83594081  0.24827678  0.49968004  1
  O2-  O219  1  0.83679780  0.25303511  0.74375007  1
  O2-  O220  1  0.83543108  0.58947309  0.00479189  1
  O2-  O221  1  0.83651133  0.58811745  0.24890851  1
  O2-  O222  1  0.83458524  0.58613111  0.49936861  1
  O2-  O223  1  0.83357082  0.58365331  0.74683814  1
  O2-  O224  1  0.83599120  0.91873969  -0.00239886  1
  O2-  O225  1  0.83174610  0.92066351  0.25119543  1
  O2-  O226  1  0.83449952  0.91467254  0.50429228  1
  O2-  O227  1  0.84164749  0.92320436  0.74824261  1
  O2-  O228  1  0.16579846  0.25414041  0.00241704  1
  O2-  O229  1  0.16518980  0.25468879  0.25262878  1
  O2-  O230  1  0.15748921  0.25631134  0.49565727  1
  O2-  O231  1  0.16303983  0.25240594  0.75173965  1
  O2-  O232  1  0.16608062  0.58611705  -0.00447481  1
  O2-  O233  1  0.15981665  0.58827953  0.25268623  1
  O2-  O234  1  0.16868655  0.58299050  0.50189229  1
  O2-  O235  1  0.16874475  0.58116210  0.75420646  1
  O2-  O236  1  0.16842121  0.91740928  -0.00537188  1
  O2-  O237  1  0.16736786  0.92260042  0.25826635  1
  O2-  O238  1  0.15717233  0.92302950  0.49245388  1
  O2-  O239  1  0.16442094  0.91738505  0.75388765  1
  O2-  O240  1  0.66939201  0.25419138  0.00262509  1
  O2-  O241  1  0.66959380  0.25460477  0.25915739  1
  O2-  O242  1  0.66911653  0.25382733  0.49742732  1
  O2-  O243  1  0.67152574  0.24982616  0.74400927  1
  O2-  O244  1  0.66547240  0.58640336  0.00559261  1
  O2-  O245  1  0.66136102  0.59072370  0.24804270  1
  O2-  O246  1  0.67447569  0.58236234  0.50406527  1
  O2-  O247  1  0.66170687  0.58241800  0.74546349  1
  O2-  O248  1  0.65967833  0.91013301  -0.00234890  1
  O2-  O249  1  0.66978693  0.91813578  0.25028853  1
  O2-  O250  1  0.65997861  0.91886775  0.50368010  1
  O2-  O251  1  0.65867510  0.92138296  0.74373865  1
  O2-  O252  1  0.34029133  0.08092830  0.00030441  1
  O2-  O253  1  0.32970219  0.08128723  0.24877879  1
  O2-  O254  1  0.33078729  0.07795922  0.50565102  1
  O2-  O255  1  0.33218386  0.08433472  0.75519833  1
  O2-  O256  1  0.32427879  0.42473134  -0.01148149  1
  O2-  O257  1  0.33131978  0.41168017  0.25826621  1
  O2-  O258  1  0.33056887  0.41369854  0.50440158  1
  O2-  O259  1  0.32681799  0.41655176  0.74898465  1
  O2-  O260  1  0.33465370  0.74298395  -0.00017339  1
  O2-  O261  1  0.33441059  0.74914712  0.24599944  1
  O2-  O262  1  0.33679828  0.74723089  0.50053911  1
  O2-  O263  1  0.33265350  0.74691496  0.75513272  1
  O2-  O264  1  0.83780682  0.08162834  -0.00049945  1
  O2-  O265  1  0.83332207  0.07986437  0.25064782  1
  O2-  O266  1  0.83184041  0.08081921  0.50070759  1
  O2-  O267  1  0.83636844  0.08505465  0.74701845  1
  O2-  O268  1  0.82979007  0.40652611  -0.00102006  1
  O2-  O269  1  0.83094091  0.40803732  0.24999156  1
  O2-  O270  1  0.83475425  0.41333089  0.50030670  1
  O2-  O271  1  0.84453681  0.41111820  0.74502223  1
  O2-  O272  1  0.83130248  0.74823291  0.00164063  1
  O2-  O273  1  0.83392151  0.74605019  0.25401510  1
  O2-  O274  1  0.83197431  0.74501550  0.49633270  1
  O2-  O275  1  0.83439820  0.74826158  0.75026253  1
  O2-  O276  1  0.51410036  0.54320659  0.51772928  1
  O2-  O277  1  0.03670966  0.88007822  0.78256916  1
  O2-  O278  1  0.95134755  0.42489184  0.23063831  1
  O2-  O279  1  0.56173056  0.40885170  0.50018200  1
  O2-  O280  1  0.94218448  0.24967366  0.48946768  1
  O2-  O281  1  0.52333917  0.20862098  0.74759125  1
  O2-  O282  1  0.54662382  0.87739989  0.19413831  1
  O2-  O283  1  0.48921352  0.44901457  0.01720738  1
  O2-  O284  1  0.04925146  0.76783016  0.26578902  1
  O2-  O285  1  0.03538891  0.78447696  0.48485646  1
  O2-  O286  1  0.95437270  0.56393163  0.01541324  1
  O2-  O287  1  0.95686123  0.56887504  0.51760093  1
  O2-  O288  1  0.94602278  0.76414232  0.26090641  1
  O2-  O289  1  0.03551419  0.13139135  0.26129436  1
  O2-  O290  1  0.95795304  0.57316895  0.25978803  1
  O2-  O291  1  0.44707683  0.42982857  0.25427228  1
  O2-  O292  1  0.46085493  0.87567922  0.00239184  1
  O2-  O293  1  0.44930278  0.87662868  0.19193365  1
  O2-  O294  1  0.54481761  0.22783589  0.98909855  1
  O2-  O295  1  0.04981648  0.90546343  0.93677482  1
  O2-  O296  1  0.55171724  0.24490822  0.48869020  1
  O2-  O297  1  0.51326728  0.54373140  0.49953119  1
  O2-  O298  1  0.05169415  0.21621100  0.45998325  1
  O2-  O299  1  0.96162957  0.54489641  0.77628346  1
  O2-  O300  1  0.95289023  0.09257110  0.01051846  1
  O2-  O301  1  0.04447463  0.76601916  0.94789164  1
  O2-  O302  1  0.03943648  0.10551873  0.28789554  1
  O2-  O303  1  0.94862983  0.92332898  0.22175170  1
  O2-  O304  1  0.94857249  0.24577288  0.02089396  1
  O2-  O305  1  0.55776143  0.41640715  0.27094964  1
  O2-  O306  1  0.53395504  0.47680634  0.69940688  1
  O2-  O307  1  0.45537978  0.90361391  0.49424326  1
  O2-  O308  1  0.04439822  0.42917863  0.74939004  1
  O2-  O309  1  0.47403662  0.47003136  0.99698398  1
  O2-  O310  1  0.55105389  0.56600164  0.01867241  1
  O2-  O311  1  0.04043657  0.77741306  0.47529862  1
  O2-  O312  1  0.95033271  0.90361910  0.01988439  1
  O2-  O313  1  0.95117545  0.57429985  0.97807117  1
  O2-  O314  1  0.46864773  0.21728299  0.28109340  1
  O2-  O315  1  0.04765827  0.22611494  0.99552122  1
  O2-  O316  1  0.44525946  0.59592830  0.00806380  1
  O2-  O317  1  0.95715496  0.23468660  0.73951279  1
  O2-  O318  1  0.55209567  0.89648954  0.00090984  1
  O2-  O319  1  0.46305141  0.12943499  0.79746687  1
  O2-  O320  1  0.95404275  0.90124011  0.48883651  1
  O2-  O321  1  0.44716712  0.23085247  0.49748625  1
  O2-  O322  1  0.54669448  0.57539168  0.24844322  1
  O2-  O323  1  0.54845255  0.57044521  0.97985106  1
  O2-  O324  1  0.56442659  0.07146723  0.72349204  1
  O2-  O325  1  0.07306546  0.01397093  0.19744195  1
  O2-  O326  1  0.94106933  0.07658159  0.57511452  1
  O2-  O327  1  0.06169415  0.95769315  0.67002784  1
  O2-  O328  1  0.43491078  0.41183594  0.47914317  1
  O2-  O329  1  0.42380209  0.94032843  0.02274759  1
  O2-  O330  1  0.57700914  0.92657071  0.32021270  1
  O2-  O331  1  0.43412148  0.93453827  0.32469683  1
  O2-  O332  1  0.94563001  0.06240946  0.72788452  1
  O2-  O333  1  0.06286875  0.41025937  0.26573786  1
  O2-  O334  1  0.43268025  0.04832515  0.68966254  1
  O2-  O335  1  0.93582119  0.06956773  0.27170677  1
  O2-  O336  1  0.43950908  0.40388538  0.76567846  1
  O2-  O337  1  0.56519558  0.73967932  0.27282590  1
  O2-  O338  1  0.06385193  0.94309311  0.07160866  1
  O2-  O339  1  0.57443140  0.40493538  0.80724120  1
  O2-  O340  1  0.06805935  0.71434531  0.07917723  1
  O2-  O341  1  0.57211537  0.39993528  0.96796649  1
  O2-  O342  1  0.93660758  0.57777382  0.28020441  1
  O2-  O343  1  0.43993139  0.08220810  0.29187991  1
  O2-  O344  1  0.56253490  0.74264751  0.07730301  1
  O2-  O345  1  0.94211035  0.92193957  0.46250575  1
  O2-  O346  1  0.42873179  0.37378109  0.92161100  1
  O2-  O347  1  0.06228708  0.30302746  0.58152275  1
  O2-  O348  1  0.06348900  0.58977322  0.45296960  1
  O2-  O349  1  0.43502173  0.74057624  0.24224452  1
  O2-  O350  1  0.93937618  0.06601518  0.02655786  1
  O2-  O351  1  0.58395342  0.27963897  0.72447297  1
  O2-  O352  1  0.05681710  0.40730107  0.04004505  1
  O2-  O353  1  0.44177434  0.25444479  0.46879222  1
  O2-  O354  1  0.41330073  0.26316547  0.18432457  1
  O2-  O355  1  0.93458253  0.07062017  0.43154714  1
  O2-  O356  1  0.44166165  0.25068364  0.02167929  1
  O2-  O357  1  0.06349319  0.06730490  0.53146928  1
  O2-  O358  1  0.92979277  0.73459011  0.98139023  1
  O2-  O359  1  0.55911995  0.74217586  0.93113078  1
  O2-  O360  1  0.93489939  0.63505907  0.67449264  1
  O2-  O361  1  0.56159845  0.25318157  0.22391999  1
  O2-  O362  1  0.56275085  0.73978164  0.77896654  1
  O2-  O363  1  0.59376544  0.58863800  0.58657537  1
  O2-  O364  1  0.40466468  0.41900962  0.09036765  1
  O2-  O365  1  0.58889946  0.59574834  0.41512673  1
  O2-  O366  1  0.43543422  0.58746116  0.22813049  1
  O2-  O367  1  0.06506601  0.69166049  0.59422944  1
  O2-  O368  1  0.95180461  0.91334373  0.22031959  1
  O2-  O369  1  0.43975797  0.75006698  0.72994010  1
  O2-  O370  1  0.55732256  0.08159584  0.22991194  1
  O2-  O371  1  0.55945799  0.40865591  0.27607534  1
  O2-  O372  1  0.75058864  -0.00280418  0.82730412  1
  O2-  O373  1  0.75046952  0.66867660  0.93690842  1
  O2-  O374  1  0.25105812  0.65719963  0.43400057  1
  O2-  O375  1  0.25250424  0.65279801  0.60303898  1
  O2-  O376  1  0.24239699  0.33048570  0.13950363  1
  O2-  O377  1  0.75065051  0.33259100  0.60144438  1
  O2-  O378  1  0.75103700  0.00025757  0.92058576  1
  O2-  O379  1  0.75078065  0.66563239  0.16997658  1
  O2-  O380  1  0.75057663  0.00874848  0.17667243  1
  O2-  O381  1  0.75144118  0.00193017  0.08523957  1
  O2-  O382  1  0.75322994  0.66169916  0.40169302  1
  O2-  O383  1  0.74995612  0.33761273  0.84841904  1
  O2-  O384  1  0.24714122  0.00683812  0.87681316  1
  O2-  O385  1  0.75019226  0.67146452  0.81050278  1
  O2-  O386  1  0.74980672  0.00753702  0.59769630  1
  O2-  O387  1  0.24909033  0.65892242  0.86037566  1
  O2-  O388  1  0.24908427  0.33168419  0.39677835  1
  O2-  O389  1  0.25072688  0.34598027  0.62386058  1
  O2-  O390  1  0.24758989  0.33506667  0.89868434  1
  O2-  O391  1  0.24834681  0.65849250  0.29641131  1
  O2-  O392  1  0.25038074  0.00116781  0.62789973  1
  O2-  O393  1  0.25364452  0.00316927  0.11558851  1
  O2-  O394  1  0.75103923  0.00894435  0.40032055  1
  O2-  O395  1  0.75103505  0.33284952  0.11359373  1
  O2-  O396  1  0.75075473  0.48597369  0.14201134  1
  O2-  O397  1  0.74980952  0.18017114  0.13940450  1
  O2-  O398  1  0.25046869  0.83381595  0.89533706  1
  O2-  O399  1  0.24933828  0.14808281  0.03807841  1
  O2-  O400  1  0.75058963  0.17375068  0.41367888  1
  O2-  O401  1  0.25050693  0.83634897  0.81084709  1
  O2-  O402  1  0.24930932  0.50270104  0.15613827  1
  O2-  O403  1  0.75181543  0.15196838  0.79464056  1
  O2-  O404  1  0.24823984  0.14541960  0.61788544  1
  O2-  O405  1  0.24785082  0.83918377  0.17753640  1
  O2-  O406  1  0.74893147  0.17964369  0.87606431  1
  O2-  O407  1  0.24970162  0.80424038  0.63813197  1
  O2-  O408  1  0.75002407  0.51349171  0.84375203  1
  O2-  O409  1  0.74941638  0.82641166  0.40099341  1
  O2-  O410  1  0.25128465  0.13214128  0.40218713  1
  O2-  O411  1  0.74999213  0.84586402  0.08201265  1
  O2-  O412  1  0.75181276  0.48978451  0.41127236  1
  O2-  O413  1  0.24940088  0.49405216  0.42093128  1
  O2-  O414  1  0.24897512  0.17672493  0.89963614  1
  O2-  O415  1  0.75191287  0.83510636  0.17188631  1
  O2-  O416  1  0.25041199  0.82276742  0.41416979  1
  O2-  O417  1  0.24972122  0.84254128  0.32413244  1
  O2-  O418  1  0.25042717  0.16809547  0.12201514  1
  O2-  O419  1  0.24990029  0.49429398  0.33266530  1
  O2-  O420  1  0.01900979  0.33643893  0.38150944  1
  O2-  O421  1  0.52293375  -0.01232869  0.62270667  1
  O2-  O422  1  0.51419440  0.31318908  0.86943480  1
  O2-  O423  1  0.54807964  0.01330638  0.08819297  1
  O2-  O424  1  0.97653274  0.66840884  0.12784448  1
  O2-  O425  1  0.45320625  -0.01438759  0.87170259  1
  O2-  O426  1  0.98053197  0.66970053  0.86659477  1
  O2-  O427  1  0.48480465  0.33756956  0.12832672  1
  O2-  O428  1  0.52137047  0.01829927  0.39020743  1
  O2-  O429  1  0.44876425  0.64854892  0.60076387  1
  O2-  O430  1  0.97029224  0.00914850  0.87809033  1
  O2-  O431  1  0.53824449  0.69363774  0.63103006  1
  O2-  O432  1  0.97744990  0.67054807  0.38332868  1
  O2-  O433  1  0.47079881  0.66547825  0.87040016  1
  O2-  O434  1  0.48114377  0.66893227  0.12100600  1
  O2-  O435  1  0.45393288  0.02982663  0.13913760  1
  O2-  O436  1  0.95120847  0.33962652  0.87520814  1
  O2-  O437  1  0.52454783  0.33307843  0.61894790  1
  O2-  O438  1  0.54213642  0.34301585  0.09984536  1
  O2-  O439  1  0.54856217  -0.00303218  0.87412152  1
  O2-  O440  1  0.46653540  0.33088193  0.62803910  1
  O2-  O441  1  0.48520103  0.33416427  0.37585147  1
  O2-  O442  1  0.04883954  0.33543108  0.87435387  1
  O2-  O443  1  0.50001444  0.68124204  0.38419154  1
