# generated using pymatgen
data_La7(Ru4O11)2
_symmetry_space_group_name_H-M   'P 1'
_cell_length_a   23.98989879
_cell_length_b   16.83025262
_cell_length_c   15.42703377
_cell_angle_alpha   89.99905895
_cell_angle_beta   90.00057078
_cell_angle_gamma   90.00015572
_symmetry_Int_Tables_number   1
_chemical_formula_structural   La7(Ru4O11)2
_chemical_formula_sum   'La84 Ru96 O264'
_cell_volume   6228.75832548
_cell_formula_units_Z   12
loop_
 _symmetry_equiv_pos_site_id
 _symmetry_equiv_pos_as_xyz
  1  'x, y, z'
loop_
 _atom_type_symbol
 _atom_type_oxidation_number
  La3+  3.0
  Ru4+  4.0
  O2-  -2.0
loop_
 _atom_site_type_symbol
 _atom_site_label
 _atom_site_symmetry_multiplicity
 _atom_site_fract_x
 _atom_site_fract_y
 _atom_site_fract_z
 _atom_site_occupancy
  La3+  La0  1  0.13818381  -0.00026499  0.12443792  1
  La3+  La1  1  0.13809261  0.00001809  0.37395752  1
  La3+  La2  1  0.14002132  0.00239735  0.62749251  1
  La3+  La3  1  0.13879720  0.00206050  0.87683125  1
  La3+  La4  1  0.13848874  0.33247373  0.12201858  1
  La3+  La5  1  0.13686177  0.33141467  0.37512070  1
  La3+  La6  1  0.13907042  0.33211385  0.62715422  1
  La3+  La7  1  0.14199529  0.33249753  0.87577712  1
  La3+  La8  1  0.14031220  0.66660003  0.12349909  1
  La3+  La9  1  0.13737398  0.66653337  0.37332710  1
  La3+  La10  1  0.13802701  0.66888565  0.62743965  1
  La3+  La11  1  0.13940394  0.66638066  0.87568032  1
  La3+  La12  1  0.63774052  -0.00318428  0.12569634  1
  La3+  La13  1  0.63947710  -0.00191419  0.37301186  1
  La3+  La14  1  0.63774288  -0.00007958  0.62422519  1
  La3+  La15  1  0.63636559  -0.00234158  0.87765479  1
  La3+  La16  1  0.63876446  0.33352289  0.12576747  1
  La3+  La17  1  0.63901414  0.33378010  0.37557050  1
  La3+  La18  1  0.63924129  0.33371398  0.62449124  1
  La3+  La19  1  0.63740169  0.33357289  0.87408266  1
  La3+  La20  1  0.63940266  0.66653849  0.12735883  1
  La3+  La21  1  0.64044589  0.66722874  0.37498662  1
  La3+  La22  1  0.64115055  0.66743145  0.62454947  1
  La3+  La23  1  0.63848496  0.66565919  0.87301884  1
  La3+  La24  1  0.36175705  -0.00056256  0.12464352  1
  La3+  La25  1  0.36204845  -0.00194826  0.37487745  1
  La3+  La26  1  0.36355096  -0.00009623  0.62582917  1
  La3+  La27  1  0.36217101  0.00037352  0.87542841  1
  La3+  La28  1  0.36227080  0.33628976  0.12252754  1
  La3+  La29  1  0.36405662  0.33472146  0.37515117  1
  La3+  La30  1  0.36005205  0.33223548  0.62721286  1
  La3+  La31  1  0.36054026  0.33297467  0.87759763  1
  La3+  La32  1  0.36121743  0.66636384  0.12414776  1
  La3+  La33  1  0.36376488  0.66647073  0.37269863  1
  La3+  La34  1  0.36254484  0.66829391  0.62822250  1
  La3+  La35  1  0.36019129  0.66666333  0.87598956  1
  La3+  La36  1  0.86207569  -0.00217504  0.12658992  1
  La3+  La37  1  0.86095241  -0.00063980  0.37373333  1
  La3+  La38  1  0.86231449  0.00059284  0.62388903  1
  La3+  La39  1  0.86231230  -0.00048429  0.87618577  1
  La3+  La40  1  0.86213616  0.33278765  0.12685531  1
  La3+  La41  1  0.86178061  0.33275513  0.37559832  1
  La3+  La42  1  0.86086656  0.33317986  0.62448247  1
  La3+  La43  1  0.86285791  0.33446799  0.87379619  1
  La3+  La44  1  0.85915277  0.66710954  0.12678601  1
  La3+  La45  1  0.85858954  0.66687553  0.37363658  1
  La3+  La46  1  0.85905770  0.66661338  0.62400363  1
  La3+  La47  1  0.86067233  0.66646740  0.87282617  1
  La3+  La48  1  0.50050696  0.16733448  0.86680445  1
  La3+  La49  1  -0.00013938  0.83454033  0.88669627  1
  La3+  La50  1  0.50269853  0.17032731  0.63679559  1
  La3+  La51  1  -0.00148633  0.16460535  0.13291455  1
  La3+  La52  1  0.49929476  0.16584403  0.36550802  1
  La3+  La53  1  0.00114833  0.49547189  0.37194292  1
  La3+  La54  1  -0.00137524  0.16726225  0.36827495  1
  La3+  La55  1  -0.00192865  0.50097337  0.61849565  1
  La3+  La56  1  0.49825047  0.49727472  0.61299290  1
  La3+  La57  1  -0.00038319  0.83225253  0.86429381  1
  La3+  La58  1  -0.00100526  0.49879210  0.63591634  1
  La3+  La59  1  0.50137179  0.17000286  0.11976621  1
  La3+  La60  1  0.49837244  0.16394028  0.61689665  1
  La3+  La61  1  0.49980019  0.83539173  0.88191464  1
  La3+  La62  1  -0.00072319  0.50118936  0.11629936  1
  La3+  La63  1  0.00074697  0.83480866  0.36764144  1
  La3+  La64  1  0.50449255  0.49861241  0.13572505  1
  La3+  La65  1  0.49983261  0.50108859  0.63507346  1
  La3+  La66  1  0.49703608  0.49722972  0.87327453  1
  La3+  La67  1  -0.00103045  0.16697014  0.63195659  1
  La3+  La68  1  0.00027571  0.16639477  0.86725754  1
  La3+  La69  1  0.50116326  0.83475168  0.11663277  1
  La3+  La70  1  0.49966286  0.50462029  0.11539462  1
  La3+  La71  1  0.49952755  0.16574302  0.38237084  1
  La3+  La72  1  0.75013416  0.16436751  0.02256965  1
  La3+  La73  1  0.25030052  0.44609505  0.76150715  1
  La3+  La74  1  0.25019841  0.16176327  0.25641278  1
  La3+  La75  1  0.24986467  0.53797927  0.21560797  1
  La3+  La76  1  0.24996971  0.20136111  0.77663455  1
  La3+  La77  1  0.74988925  0.46228650  -0.03501049  1
  La3+  La78  1  0.25005915  0.83905742  0.50083186  1
  La3+  La79  1  0.75006353  0.16666102  0.24854085  1
  La3+  La80  1  0.74986756  0.79573015  0.71340822  1
  La3+  La81  1  0.24999572  0.80005816  -0.02283086  1
  La3+  La82  1  0.75008755  0.50149353  0.50154036  1
  La3+  La83  1  0.24961363  0.48864707  0.45502037  1
  Ru4+  Ru84  1  -0.00058175  -0.00012254  -0.00115451  1
  Ru4+  Ru85  1  -0.00086919  -0.00083740  0.24984068  1
  Ru4+  Ru86  1  -0.00014959  -0.00186980  0.49871883  1
  Ru4+  Ru87  1  -0.00090954  -0.00092429  0.75261204  1
  Ru4+  Ru88  1  -0.00275040  0.33214473  0.00121979  1
  Ru4+  Ru89  1  -0.00271293  0.33922419  0.24641682  1
  Ru4+  Ru90  1  -0.00352678  0.32954531  0.50161578  1
  Ru4+  Ru91  1  0.00043217  0.33226220  0.74869458  1
  Ru4+  Ru92  1  -0.00088688  0.66300313  -0.00368024  1
  Ru4+  Ru93  1  0.00017663  0.66787320  0.25230806  1
  Ru4+  Ru94  1  0.00137177  0.66283613  0.50064141  1
  Ru4+  Ru95  1  -0.00305658  0.67266276  0.74981240  1
  Ru4+  Ru96  1  0.49794794  0.00437561  -0.00050012  1
  Ru4+  Ru97  1  0.50184112  -0.00732170  0.24734563  1
  Ru4+  Ru98  1  0.50187814  -0.00820976  0.50409174  1
  Ru4+  Ru99  1  0.49911224  -0.00290038  0.75175164  1
  Ru4+  Ru100  1  0.50321029  0.32820029  -0.00397000  1
  Ru4+  Ru101  1  0.50525887  0.33200504  0.25222827  1
  Ru4+  Ru102  1  0.49832202  0.33532328  0.49696084  1
  Ru4+  Ru103  1  0.49920910  0.33136346  0.75166324  1
  Ru4+  Ru104  1  0.49815489  0.67094942  0.00085430  1
  Ru4+  Ru105  1  0.50079280  0.67211930  0.25362499  1
  Ru4+  Ru106  1  0.50289060  0.66874292  0.49910255  1
  Ru4+  Ru107  1  0.50013018  0.67370363  0.74606548  1
  Ru4+  Ru108  1  0.11470862  0.16552663  -0.00078810  1
  Ru4+  Ru109  1  0.11373019  0.16228535  0.24899085  1
  Ru4+  Ru110  1  0.11159535  0.16783626  0.49988233  1
  Ru4+  Ru111  1  0.11185796  0.16892376  0.74972289  1
  Ru4+  Ru112  1  0.11475494  0.50034418  -0.00081757  1
  Ru4+  Ru113  1  0.11159722  0.50086231  0.25008660  1
  Ru4+  Ru114  1  0.11386933  0.50558984  0.49984217  1
  Ru4+  Ru115  1  0.11544645  0.49622881  0.74971894  1
  Ru4+  Ru116  1  0.11193504  0.83424493  0.00022268  1
  Ru4+  Ru117  1  0.11392935  0.83530377  0.24990400  1
  Ru4+  Ru118  1  0.10887821  0.83394624  0.50121493  1
  Ru4+  Ru119  1  0.11303894  0.83076356  0.74981100  1
  Ru4+  Ru120  1  0.61096694  0.16670108  -0.00104841  1
  Ru4+  Ru121  1  0.61308303  0.16831768  0.24945588  1
  Ru4+  Ru122  1  0.61389363  0.16610153  0.49970696  1
  Ru4+  Ru123  1  0.61143822  0.16698109  0.75026659  1
  Ru4+  Ru124  1  0.61442557  0.49592935  -0.00052548  1
  Ru4+  Ru125  1  0.61446351  0.50194514  0.25043219  1
  Ru4+  Ru126  1  0.61292171  0.50021947  0.49977805  1
  Ru4+  Ru127  1  0.61612425  0.49964034  0.75024522  1
  Ru4+  Ru128  1  0.61607288  0.83122147  0.00052486  1
  Ru4+  Ru129  1  0.61180653  0.83318560  0.25100233  1
  Ru4+  Ru130  1  0.61046509  0.83122479  0.50130642  1
  Ru4+  Ru131  1  0.60999220  0.83050223  0.74932554  1
  Ru4+  Ru132  1  0.38489725  0.16658829  -0.00062638  1
  Ru4+  Ru133  1  0.38635376  0.16652580  0.24956456  1
  Ru4+  Ru134  1  0.38532200  0.17072387  0.49955231  1
  Ru4+  Ru135  1  0.38763073  0.16940845  0.75018409  1
  Ru4+  Ru136  1  0.38255956  0.50275290  -0.00136481  1
  Ru4+  Ru137  1  0.38680838  0.50396019  0.25164177  1
  Ru4+  Ru138  1  0.38945035  0.49868534  0.49830989  1
  Ru4+  Ru139  1  0.38826588  0.49892687  0.74968342  1
  Ru4+  Ru140  1  0.38777596  0.83366215  0.00070171  1
  Ru4+  Ru141  1  0.38804993  0.83360576  0.25105052  1
  Ru4+  Ru142  1  0.39151000  0.83463196  0.49896368  1
  Ru4+  Ru143  1  0.38824336  0.83287248  0.74956818  1
  Ru4+  Ru144  1  0.88973710  0.16633453  -0.00071144  1
  Ru4+  Ru145  1  0.88748638  0.16520267  0.24967203  1
  Ru4+  Ru146  1  0.88680570  0.16849596  0.50017513  1
  Ru4+  Ru147  1  0.88804081  0.16711688  0.74960320  1
  Ru4+  Ru148  1  0.88925833  0.49833856  -0.00047205  1
  Ru4+  Ru149  1  0.88440465  0.49921062  0.24943752  1
  Ru4+  Ru150  1  0.88746545  0.50016278  0.50006330  1
  Ru4+  Ru151  1  0.88590098  0.50074207  0.75043203  1
  Ru4+  Ru152  1  0.88694964  0.83459832  -0.00043225  1
  Ru4+  Ru153  1  0.88571102  0.83310826  0.24839377  1
  Ru4+  Ru154  1  0.88342248  0.83412102  0.49980526  1
  Ru4+  Ru155  1  0.88902099  0.83226336  0.75081510  1
  Ru4+  Ru156  1  0.25018494  0.71918401  0.49499254  1
  Ru4+  Ru157  1  0.24998242  0.28422231  0.26498905  1
  Ru4+  Ru158  1  0.24973925  0.96258494  0.49981686  1
  Ru4+  Ru159  1  0.25041905  0.59815269  0.74800368  1
  Ru4+  Ru160  1  0.75013825  0.41972164  0.25448155  1
  Ru4+  Ru161  1  0.24986007  0.24233175  0.50418086  1
  Ru4+  Ru162  1  0.24987899  0.09514452  0.50243799  1
  Ru4+  Ru163  1  0.25018402  0.60157583  0.51460157  1
  Ru4+  Ru164  1  0.74977890  0.59377179  0.00198325  1
  Ru4+  Ru165  1  0.75017254  0.25631391  0.74637335  1
  Ru4+  Ru166  1  0.25002767  0.40908332  0.25915855  1
  Ru4+  Ru167  1  0.25000433  0.37342070  0.52320113  1
  Ru4+  Ru168  1  0.74970656  0.08084172  0.75075647  1
  Ru4+  Ru169  1  0.75009761  0.29339262  -0.01394940  1
  Ru4+  Ru170  1  0.75022390  0.93393110  0.76437727  1
  Ru4+  Ru171  1  0.25003693  0.06249306  0.74365187  1
  Ru4+  Ru172  1  0.24984837  0.03795407  0.26634560  1
  Ru4+  Ru173  1  0.75012703  0.75606265  0.00307360  1
  Ru4+  Ru174  1  0.24989502  0.93584533  -0.00788828  1
  Ru4+  Ru175  1  0.24992358  0.75284653  0.24516802  1
  Ru4+  Ru176  1  0.75009766  0.08343568  0.49979341  1
  Ru4+  Ru177  1  0.74988027  0.91136845  0.49715317  1
  Ru4+  Ru178  1  0.24977363  0.91351893  0.75047517  1
  Ru4+  Ru179  1  0.75016817  0.03540580  -0.00669321  1
  O2-  O180  1  0.16678721  0.08172062  0.00069588  1
  O2-  O181  1  0.16654639  0.07931635  0.25001234  1
  O2-  O182  1  0.16708050  0.08143469  0.50003766  1
  O2-  O183  1  0.16708114  0.07974357  0.75043519  1
  O2-  O184  1  0.16719044  0.41550519  0.00039412  1
  O2-  O185  1  0.16644675  0.41319858  0.24967731  1
  O2-  O186  1  0.16736240  0.41133331  0.50061376  1
  O2-  O187  1  0.16505921  0.41221460  0.74946726  1
  O2-  O188  1  0.16677583  0.74622821  0.00158035  1
  O2-  O189  1  0.16923947  0.74727591  0.25135261  1
  O2-  O190  1  0.16431458  0.74655061  0.49957662  1
  O2-  O191  1  0.16614803  0.74897604  0.74950641  1
  O2-  O192  1  0.66629920  0.07875496  0.00056794  1
  O2-  O193  1  0.66844388  0.08000654  0.24887164  1
  O2-  O194  1  0.66674725  0.08037126  0.50054323  1
  O2-  O195  1  0.66721181  0.07961829  0.75019027  1
  O2-  O196  1  0.66597530  0.41238398  -0.00004783  1
  O2-  O197  1  0.66777260  0.41268000  0.25070809  1
  O2-  O198  1  0.66674596  0.41237930  0.49957973  1
  O2-  O199  1  0.66695978  0.41390083  0.75047012  1
  O2-  O200  1  0.66745841  0.74729727  0.00046382  1
  O2-  O201  1  0.66574632  0.74936311  0.24979699  1
  O2-  O202  1  0.66771771  0.74980203  0.49888379  1
  O2-  O203  1  0.66657115  0.74846797  0.75133484  1
  O2-  O204  1  0.33281517  0.25133713  -0.00050703  1
  O2-  O205  1  0.33349723  0.25415006  0.25025801  1
  O2-  O206  1  0.33235652  0.25243589  0.50045655  1
  O2-  O207  1  0.33558500  0.25317473  0.74916193  1
  O2-  O208  1  0.33359832  0.58503799  0.00079557  1
  O2-  O209  1  0.33398616  0.58750546  0.25233232  1
  O2-  O210  1  0.33492196  0.58754306  0.50009439  1
  O2-  O211  1  0.33265793  0.58724085  0.75016862  1
  O2-  O212  1  0.33259498  0.92024737  -0.00089566  1
  O2-  O213  1  0.33333681  0.91826648  0.25055421  1
  O2-  O214  1  0.33485425  0.92118074  0.50067902  1
  O2-  O215  1  0.33152196  0.91846953  0.74902427  1
  O2-  O216  1  0.83340285  0.25501621  -0.00023711  1
  O2-  O217  1  0.83121639  0.25466326  0.24997868  1
  O2-  O218  1  0.83244504  0.25174019  0.50019953  1
  O2-  O219  1  0.83090909  0.25331512  0.75027892  1
  O2-  O220  1  0.83419863  0.58684364  -0.00066442  1
  O2-  O221  1  0.83313852  0.58343188  0.25019178  1
  O2-  O222  1  0.83378672  0.58669060  0.50026833  1
  O2-  O223  1  0.83498169  0.58382251  0.75027819  1
  O2-  O224  1  0.83317996  0.91969655  0.00039158  1
  O2-  O225  1  0.83257353  0.91792737  0.25008700  1
  O2-  O226  1  0.83275804  0.91826323  0.50026244  1
  O2-  O227  1  0.83323569  0.92118115  0.75059203  1
  O2-  O228  1  0.16529287  0.25148511  0.00038590  1
  O2-  O229  1  0.16523710  0.25417759  0.25038681  1
  O2-  O230  1  0.16855268  0.25171174  0.50014117  1
  O2-  O231  1  0.16454869  0.25252018  0.74923017  1
  O2-  O232  1  0.16587222  0.58441158  0.00088832  1
  O2-  O233  1  0.16641498  0.58728973  0.25155781  1
  O2-  O234  1  0.16546680  0.58743131  0.49963398  1
  O2-  O235  1  0.16765328  0.58590653  0.74981453  1
  O2-  O236  1  0.16642316  0.92002975  -0.00038921  1
  O2-  O237  1  0.16610824  0.91806860  0.25061973  1
  O2-  O238  1  0.16699371  0.92033288  0.49908224  1
  O2-  O239  1  0.16896594  0.91877009  0.74922450  1
  O2-  O240  1  0.66741138  0.25481915  -0.00030760  1
  O2-  O241  1  0.66823974  0.25372085  0.25062786  1
  O2-  O242  1  0.66705942  0.25364040  0.49956061  1
  O2-  O243  1  0.66803217  0.25375294  0.75009641  1
  O2-  O244  1  0.66645343  0.58767940  -0.00009001  1
  O2-  O245  1  0.66542351  0.58411600  0.24995147  1
  O2-  O246  1  0.66662009  0.58601395  0.49908949  1
  O2-  O247  1  0.66703675  0.58326876  0.75130584  1
  O2-  O248  1  0.66727148  0.91937391  0.00077794  1
  O2-  O249  1  0.66829612  0.91872190  0.24822213  1
  O2-  O250  1  0.66737508  0.91830925  0.50056705  1
  O2-  O251  1  0.66626915  0.92074114  0.75044574  1
  O2-  O252  1  0.33515537  0.08194518  0.00055719  1
  O2-  O253  1  0.33323388  0.07907950  0.24996040  1
  O2-  O254  1  0.33247305  0.07994839  0.50037666  1
  O2-  O255  1  0.33318274  0.07875696  0.74928509  1
  O2-  O256  1  0.33335826  0.41559775  -0.00007756  1
  O2-  O257  1  0.33356235  0.41410555  0.25075081  1
  O2-  O258  1  0.33281724  0.41242526  0.50123429  1
  O2-  O259  1  0.33696204  0.41298765  0.74924580  1
  O2-  O260  1  0.33488096  0.74587884  0.00020566  1
  O2-  O261  1  0.33187378  0.74732268  0.25128597  1
  O2-  O262  1  0.33596439  0.74616898  0.49971407  1
  O2-  O263  1  0.33393839  0.74861510  0.74997769  1
  O2-  O264  1  0.83316105  0.07825923  -0.00022581  1
  O2-  O265  1  0.83277834  0.07980068  0.25004765  1
  O2-  O266  1  0.83294261  0.08055109  0.49986883  1
  O2-  O267  1  0.83327670  0.08053723  0.75075660  1
  O2-  O268  1  0.83256480  0.41236452  0.00021166  1
  O2-  O269  1  0.83167067  0.41417013  0.24994962  1
  O2-  O270  1  0.83314845  0.41269939  0.49988173  1
  O2-  O271  1  0.83260425  0.41373644  0.75065054  1
  O2-  O272  1  0.83210461  0.74739415  -0.00036580  1
  O2-  O273  1  0.83232806  0.75073860  0.25127641  1
  O2-  O274  1  0.83106123  0.74931138  0.50115102  1
  O2-  O275  1  0.83503317  0.74731076  0.75073640  1
  O2-  O276  1  0.04641364  0.23558298  0.26867488  1
  O2-  O277  1  0.45128447  0.76636121  0.26432979  1
  O2-  O278  1  0.03779516  0.88638469  0.71748409  1
  O2-  O279  1  0.04541502  0.10111410  0.51320296  1
  O2-  O280  1  0.04562263  0.56678470  0.01455033  1
  O2-  O281  1  0.96954383  0.78816699  0.24590338  1
  O2-  O282  1  0.95737584  0.77742941  0.52787519  1
  O2-  O283  1  0.04393481  0.56764007  0.74028845  1
  O2-  O284  1  0.04778090  0.23765300  0.22947960  1
  O2-  O285  1  0.54878720  0.56714239  0.51247795  1
  O2-  O286  1  0.95672246  0.56005725  0.27411081  1
  O2-  O287  1  0.04448998  0.23458752  0.01502070  1
  O2-  O288  1  0.94681296  0.24909712  0.22583089  1
  O2-  O289  1  0.45268580  0.42875234  0.01872997  1
  O2-  O290  1  0.04583331  0.42959658  0.26181854  1
  O2-  O291  1  0.45075530  0.89848990  0.48581561  1
  O2-  O292  1  0.45225004  0.57256146  0.98460453  1
  O2-  O293  1  0.45285280  0.56962317  0.48475890  1
  O2-  O294  1  0.46079116  0.22807618  0.22226620  1
  O2-  O295  1  0.04766663  0.57053206  0.26414661  1
  O2-  O296  1  0.45437670  0.76467762  0.73656859  1
  O2-  O297  1  0.45526820  0.56772135  0.25645786  1
  O2-  O298  1  0.54636719  0.42916682  0.76413030  1
  O2-  O299  1  0.54809942  0.90294482  0.98526557  1
  O2-  O300  1  0.95464386  0.43522384  0.76315104  1
  O2-  O301  1  0.45427666  0.76533046  0.01291763  1
  O2-  O302  1  0.03980759  0.55849104  0.76593230  1
  O2-  O303  1  0.53940654  0.56233394  0.78010638  1
  O2-  O304  1  0.03881865  0.77920726  0.03157413  1
  O2-  O305  1  0.54772904  0.76561591  0.26122693  1
  O2-  O306  1  0.44427678  0.24851311  0.95954537  1
  O2-  O307  1  0.44309802  0.08128981  0.20114843  1
  O2-  O308  1  0.04524514  0.10090422  0.73802994  1
  O2-  O309  1  0.02320467  0.87625799  0.51712442  1
  O2-  O310  1  0.45458206  0.43186921  0.97989912  1
  O2-  O311  1  0.54581263  0.23603127  0.51021010  1
  O2-  O312  1  0.54927454  0.56741988  0.98329255  1
  O2-  O313  1  0.45558140  0.09973582  0.49898094  1
  O2-  O314  1  0.54203176  0.10825015  0.22286433  1
  O2-  O315  1  0.54576332  0.90202561  0.76514516  1
  O2-  O316  1  0.45357379  0.09824741  0.73875017  1
  O2-  O317  1  0.45550779  0.09950138  0.49622129  1
  O2-  O318  1  0.05182797  0.75883029  0.51491217  1
  O2-  O319  1  0.45048472  0.42772172  0.23506471  1
  O2-  O320  1  0.96304352  0.78404811  0.49104707  1
  O2-  O321  1  0.05298669  0.42091815  0.53289556  1
  O2-  O322  1  0.54848838  0.90178053  0.51604743  1
  O2-  O323  1  0.45290221  0.56932533  0.24717117  1
  O2-  O324  1  0.07255217  0.40457730  0.44713220  1
  O2-  O325  1  0.06776412  0.59744688  0.80155970  1
  O2-  O326  1  0.56397549  0.73753012  0.94140320  1
  O2-  O327  1  0.93429703  0.26071384  0.72206567  1
  O2-  O328  1  0.94322442  0.24750087  0.22512027  1
  O2-  O329  1  0.56413509  0.26531475  0.21788533  1
  O2-  O330  1  0.56525759  0.73838382  0.52705715  1
  O2-  O331  1  0.56178872  0.92895764  0.96829685  1
  O2-  O332  1  0.56401525  0.73551750  0.05766507  1
  O2-  O333  1  0.92950645  0.59784143  0.20739987  1
  O2-  O334  1  0.93604892  0.73653025  0.96614587  1
  O2-  O335  1  0.43303085  0.92748763  0.77895358  1
  O2-  O336  1  0.56421528  0.26356466  0.96731605  1
  O2-  O337  1  0.91990796  0.72204725  0.21064195  1
  O2-  O338  1  0.45193996  0.09116717  0.20835909  1
  O2-  O339  1  0.43461171  0.40492812  0.47385466  1
  O2-  O340  1  0.56562458  0.73963565  0.72358576  1
  O2-  O341  1  0.93447231  0.07177124  0.52874646  1
  O2-  O342  1  0.56444348  0.92722771  0.27690444  1
  O2-  O343  1  0.06438758  0.40317390  0.05161055  1
  O2-  O344  1  0.93512122  0.40556804  0.97270792  1
  O2-  O345  1  0.93692863  0.93283282  0.21809199  1
  O2-  O346  1  0.43002036  0.27389772  0.07496650  1
  O2-  O347  1  0.06325749  0.06933002  0.96677158  1
  O2-  O348  1  0.57275463  0.06646819  0.29532598  1
  O2-  O349  1  0.93453192  0.40592014  0.27866836  1
  O2-  O350  1  0.42628762  0.26933397  0.29548077  1
  O2-  O351  1  0.42499529  0.06736028  0.31869190  1
  O2-  O352  1  0.56246111  0.59514246  0.96860966  1
  O2-  O353  1  0.07064293  0.94269713  0.80157269  1
  O2-  O354  1  0.06606106  0.40724691  0.95521675  1
  O2-  O355  1  0.91873943  0.71254444  0.45261422  1
  O2-  O356  1  0.06682309  0.60327466  0.68904219  1
  O2-  O357  1  0.57255879  0.60228506  0.70581318  1
  O2-  O358  1  0.05307332  0.42070806  0.53318329  1
  O2-  O359  1  0.06552158  0.40637767  0.72039885  1
  O2-  O360  1  0.07294851  0.73008499  0.95571892  1
  O2-  O361  1  0.06898354  0.94036006  0.42995076  1
  O2-  O362  1  0.43575985  0.59778959  0.71755400  1
  O2-  O363  1  0.45205224  0.23470749  0.95761039  1
  O2-  O364  1  0.07981222  0.94481391  0.55808011  1
  O2-  O365  1  0.43720570  0.40245866  0.21592197  1
  O2-  O366  1  0.06583813  0.25949377  0.47046551  1
  O2-  O367  1  0.06664411  0.74074183  0.20388893  1
  O2-  O368  1  0.43575276  0.93169842  0.03351051  1
  O2-  O369  1  0.06505093  0.73647532  0.30217416  1
  O2-  O370  1  0.93479822  0.25981378  0.47077879  1
  O2-  O371  1  0.06332881  0.06802624  0.21757127  1
  O2-  O372  1  0.24996325  0.33341288  0.84338461  1
  O2-  O373  1  0.24995731  0.33358254  0.07097010  1
  O2-  O374  1  0.25006830  0.01050723  0.07984548  1
  O2-  O375  1  0.74999554  0.66687587  0.82514598  1
  O2-  O376  1  0.24993287  0.66701820  0.15810032  1
  O2-  O377  1  0.75002801  0.67364326  0.91479244  1
  O2-  O378  1  0.75036277  0.67005760  0.65531497  1
  O2-  O379  1  0.75010653  0.33635041  0.09884917  1
  O2-  O380  1  0.74995886  0.66676970  0.17550379  1
  O2-  O381  1  0.75009235  0.00321318  0.66825999  1
  O2-  O382  1  0.25012611  0.66579732  0.92336412  1
  O2-  O383  1  0.75000859  -0.00342625  0.57323248  1
  O2-  O384  1  0.75012271  0.67339371  0.08784787  1
  O2-  O385  1  0.24985999  0.32916030  0.40142517  1
  O2-  O386  1  0.25014224  0.00815996  0.39244076  1
  O2-  O387  1  0.24984984  0.33596100  0.15687174  1
  O2-  O388  1  0.24990833  0.67569145  0.83351381  1
  O2-  O389  1  0.25014476  0.00826561  0.60706401  1
  O2-  O390  1  0.25011765  0.33499760  0.65085645  1
  O2-  O391  1  0.25000468  -0.00327005  0.84835000  1
  O2-  O392  1  0.24994991  0.67010228  0.65242822  1
  O2-  O393  1  0.75002471  0.66701797  0.34487150  1
  O2-  O394  1  0.75005498  -0.00039867  0.40572627  1
  O2-  O395  1  0.25002278  -0.01309888  0.16473347  1
  O2-  O396  1  0.24994231  0.49903807  0.94278809  1
  O2-  O397  1  0.75004076  0.16865512  0.81886380  1
  O2-  O398  1  0.24996515  0.83447969  0.11222214  1
  O2-  O399  1  0.74989363  0.17458744  0.44062824  1
  O2-  O400  1  0.75008637  0.83959526  0.93241859  1
  O2-  O401  1  0.74993671  0.16985034  0.58158055  1
  O2-  O402  1  0.24990953  0.16497077  0.90606118  1
  O2-  O403  1  0.75006550  0.16617857  0.36257296  1
  O2-  O404  1  0.75001219  0.49876569  0.62279314  1
  O2-  O405  1  0.25004833  0.16670412  0.38495563  1
  O2-  O406  1  0.25001803  0.16680911  0.05912115  1
  O2-  O407  1  0.24999449  0.51482502  0.65814927  1
  O2-  O408  1  0.25002913  0.16123182  0.63406563  1
  O2-  O409  1  0.24991581  0.51240832  0.86167396  1
  O2-  O410  1  0.75000180  0.16644725  0.66835936  1
  O2-  O411  1  0.25003846  0.49765564  0.33750164  1
  O2-  O412  1  0.74996077  0.50350456  0.09407307  1
  O2-  O413  1  0.74998003  0.16677014  0.13714413  1
  O2-  O414  1  0.74993288  0.16869143  0.90194088  1
  O2-  O415  1  0.75005183  0.83768165  0.84406637  1
  O2-  O416  1  0.25001151  0.16713489  0.13784230  1
  O2-  O417  1  0.74995216  0.50341101  0.18430131  1
  O2-  O418  1  0.74993488  0.49619789  0.37191169  1
  O2-  O419  1  0.25002813  0.49631557  0.57921957  1
  O2-  O420  1  0.47422766  0.33737390  0.86636621  1
  O2-  O421  1  0.47184304  0.66677675  0.12609526  1
  O2-  O422  1  0.47109745  -0.00588876  0.38114286  1
  O2-  O423  1  0.47417218  0.00400051  0.87821675  1
  O2-  O424  1  0.96974791  0.33358883  0.37643930  1
  O2-  O425  1  0.97177602  0.66538630  0.11419245  1
  O2-  O426  1  0.02794875  0.32914951  0.36910425  1
  O2-  O427  1  0.02202137  0.66880280  0.87388270  1
  O2-  O428  1  0.47303752  -0.00060643  0.62555787  1
  O2-  O429  1  0.47730506  0.33264374  0.37656540  1
  O2-  O430  1  0.97207055  0.00011692  0.37527397  1
  O2-  O431  1  0.02971860  0.32789990  0.86725490  1
  O2-  O432  1  0.96533949  0.33783260  0.62101659  1
  O2-  O433  1  0.03253210  0.32411329  0.62757307  1
  O2-  O434  1  0.97247120  0.66371803  0.62727100  1
  O2-  O435  1  0.96920992  -0.00245782  0.62870111  1
  O2-  O436  1  0.52949655  0.00048767  0.38431833  1
  O2-  O437  1  0.02954971  0.66083132  0.12088623  1
  O2-  O438  1  0.02698193  0.00569953  0.62980106  1
  O2-  O439  1  0.52712508  0.66518466  0.37626922  1
  O2-  O440  1  0.52822706  0.33414341  0.62517791  1
  O2-  O441  1  0.97530522  0.66391378  0.37239192  1
  O2-  O442  1  0.96987505  0.32795665  0.87083572  1
  O2-  O443  1  0.52023582  0.66392457  0.61998456  1
