# generated using pymatgen
data_La7(Ru4O11)2
_symmetry_space_group_name_H-M   'P 1'
_cell_length_a   23.99079189
_cell_length_b   16.83099801
_cell_length_c   15.42769876
_cell_angle_alpha   89.99830042
_cell_angle_beta   89.99960878
_cell_angle_gamma   89.99932524
_symmetry_Int_Tables_number   1
_chemical_formula_structural   La7(Ru4O11)2
_chemical_formula_sum   'La84 Ru96 O264'
_cell_volume   6229.53459730
_cell_formula_units_Z   12
loop_
 _symmetry_equiv_pos_site_id
 _symmetry_equiv_pos_as_xyz
  1  'x, y, z'
loop_
 _atom_type_symbol
 _atom_type_oxidation_number
  La3+  3.0
  Ru4+  4.0
  O2-  -2.0
loop_
 _atom_site_type_symbol
 _atom_site_label
 _atom_site_symmetry_multiplicity
 _atom_site_fract_x
 _atom_site_fract_y
 _atom_site_fract_z
 _atom_site_occupancy
  La3+  La0  1  0.13981531  -0.00060050  0.12581130  1
  La3+  La1  1  0.13711709  -0.00269571  0.37548109  1
  La3+  La2  1  0.14313374  0.00027609  0.62983146  1
  La3+  La3  1  0.14032055  0.00015616  0.87103145  1
  La3+  La4  1  0.14041067  0.33561178  0.12755349  1
  La3+  La5  1  0.13738534  0.33497706  0.37298188  1
  La3+  La6  1  0.14002091  0.33563348  0.62579187  1
  La3+  La7  1  0.14170928  0.33416451  0.87314911  1
  La3+  La8  1  0.13989788  0.66726918  0.12372639  1
  La3+  La9  1  0.14144649  0.66490563  0.37401496  1
  La3+  La10  1  0.14103972  0.66266998  0.62797892  1
  La3+  La11  1  0.14094217  0.66463794  0.86821568  1
  La3+  La12  1  0.63549775  0.00093839  0.12469852  1
  La3+  La13  1  0.63715753  0.00265890  0.37402136  1
  La3+  La14  1  0.63452550  -0.00137780  0.62479577  1
  La3+  La15  1  0.63435131  -0.00228919  0.87510401  1
  La3+  La16  1  0.64045367  0.33340197  0.12353613  1
  La3+  La17  1  0.63812736  0.33061661  0.37148421  1
  La3+  La18  1  0.63826264  0.33478473  0.62538827  1
  La3+  La19  1  0.64160179  0.33320487  0.87567271  1
  La3+  La20  1  0.63774329  0.66682449  0.12386725  1
  La3+  La21  1  0.63714498  0.66424851  0.37091371  1
  La3+  La22  1  0.63483405  0.66417853  0.62630287  1
  La3+  La23  1  0.63667193  0.66792445  0.87981140  1
  La3+  La24  1  0.36225362  -0.00048450  0.12728963  1
  La3+  La25  1  0.36239397  -0.00213712  0.37466376  1
  La3+  La26  1  0.35648856  -0.00087434  0.62764417  1
  La3+  La27  1  0.36035162  -0.00005915  0.87160519  1
  La3+  La28  1  0.36051738  0.33449503  0.12627574  1
  La3+  La29  1  0.36321752  0.33565090  0.37443061  1
  La3+  La30  1  0.36230692  0.33540274  0.62595897  1
  La3+  La31  1  0.35974864  0.33480803  0.87374719  1
  La3+  La32  1  0.36273528  0.66676486  0.12433386  1
  La3+  La33  1  0.36277230  0.66436531  0.37694236  1
  La3+  La34  1  0.35972281  0.66481658  0.62295023  1
  La3+  La35  1  0.35854919  0.66580819  0.87033853  1
  La3+  La36  1  0.86305393  0.00199142  0.12555259  1
  La3+  La37  1  0.86259850  0.00317822  0.37379397  1
  La3+  La38  1  0.86552365  -0.00054608  0.62580709  1
  La3+  La39  1  0.86512595  -0.00097674  0.87421257  1
  La3+  La40  1  0.85587120  0.33203079  0.12212301  1
  La3+  La41  1  0.86361833  0.33190082  0.37080541  1
  La3+  La42  1  0.86381248  0.33329695  0.62532481  1
  La3+  La43  1  0.86115374  0.33508396  0.87757952  1
  La3+  La44  1  0.86034890  0.66407563  0.11973408  1
  La3+  La45  1  0.86055374  0.66590057  0.37143727  1
  La3+  La46  1  0.86088250  0.66642696  0.62710393  1
  La3+  La47  1  0.86304467  0.66422031  0.88194715  1
  La3+  La48  1  0.50266998  0.50158386  0.86613555  1
  La3+  La49  1  0.00034503  0.83080236  0.87172668  1
  La3+  La50  1  0.49518954  0.16181130  0.37354057  1
  La3+  La51  1  -0.00578695  0.50960525  0.11991310  1
  La3+  La52  1  0.00162490  0.49973083  0.62006367  1
  La3+  La53  1  0.50315867  0.83742743  0.62296186  1
  La3+  La54  1  -0.00378377  0.16162174  0.87446368  1
  La3+  La55  1  0.00196735  0.49743847  0.87955643  1
  La3+  La56  1  0.50177893  0.16452325  0.12109147  1
  La3+  La57  1  0.00168164  0.82975113  0.63564702  1
  La3+  La58  1  0.50055438  0.16728012  0.63236871  1
  La3+  La59  1  0.49829857  0.82984093  0.12891272  1
  La3+  La60  1  -0.00015999  0.83029297  0.13308473  1
  La3+  La61  1  0.50013349  0.83012995  0.86797915  1
  La3+  La62  1  0.50059133  0.50220224  0.13117395  1
  La3+  La63  1  0.00050840  0.16689486  0.61343412  1
  La3+  La64  1  0.00039657  0.16927740  0.11746114  1
  La3+  La65  1  0.49899888  0.82995191  0.36179935  1
  La3+  La66  1  0.49757621  0.16934373  0.87612019  1
  La3+  La67  1  0.00126458  0.83905361  0.61570536  1
  La3+  La68  1  0.50181416  0.49625139  0.36987133  1
  La3+  La69  1  0.00758976  0.49658873  0.37685950  1
  La3+  La70  1  -0.00380323  0.82801082  0.36474250  1
  La3+  La71  1  0.50368735  0.83472411  0.38250484  1
  La3+  La72  1  0.74965896  0.82862992  0.43668943  1
  La3+  La73  1  0.74964118  0.82915949  0.24165174  1
  La3+  La74  1  0.25007752  0.83100040  0.28931535  1
  La3+  La75  1  0.25082577  0.22093822  0.26625798  1
  La3+  La76  1  0.24995151  0.79085565  -0.05072294  1
  La3+  La77  1  0.25009147  0.46231659  0.00175404  1
  La3+  La78  1  0.25005481  0.12300800  -0.04535231  1
  La3+  La79  1  0.74974590  0.81718080  0.80798768  1
  La3+  La80  1  0.75002048  0.21435116  -0.01984892  1
  La3+  La81  1  0.75010276  0.22796785  0.75899138  1
  La3+  La82  1  0.75038641  0.53226414  0.79566502  1
  La3+  La83  1  0.25026385  0.20030562  0.51469364  1
  Ru4+  Ru84  1  0.00259190  0.00001326  -0.00260977  1
  Ru4+  Ru85  1  -0.00039574  0.00339925  0.25027227  1
  Ru4+  Ru86  1  0.00029642  -0.00052188  0.50015819  1
  Ru4+  Ru87  1  0.00341753  0.00703702  0.75211876  1
  Ru4+  Ru88  1  -0.00021358  0.33209045  -0.00070715  1
  Ru4+  Ru89  1  0.00189418  0.33041236  0.25356083  1
  Ru4+  Ru90  1  -0.00096994  0.33097540  0.49875447  1
  Ru4+  Ru91  1  0.00044160  0.33160299  0.75076249  1
  Ru4+  Ru92  1  0.00340064  0.67145278  0.00159038  1
  Ru4+  Ru93  1  -0.00252583  0.66468011  0.24906359  1
  Ru4+  Ru94  1  0.00728739  0.67398921  0.49811392  1
  Ru4+  Ru95  1  -0.00383727  0.67232525  0.75011625  1
  Ru4+  Ru96  1  0.49827276  0.00476524  0.00328490  1
  Ru4+  Ru97  1  0.49834857  0.00056445  0.25081427  1
  Ru4+  Ru98  1  0.50020924  0.00133576  0.49732559  1
  Ru4+  Ru99  1  0.49585256  0.00440164  0.74594091  1
  Ru4+  Ru100  1  0.50457694  0.33270073  -0.00631169  1
  Ru4+  Ru101  1  0.49539493  0.33611229  0.25086170  1
  Ru4+  Ru102  1  0.49728144  0.33522545  0.49856051  1
  Ru4+  Ru103  1  0.49966748  0.33262029  0.75238286  1
  Ru4+  Ru104  1  0.49584382  0.66190196  0.00405326  1
  Ru4+  Ru105  1  0.49835231  0.66479027  0.25029077  1
  Ru4+  Ru106  1  0.50673767  0.66338443  0.50146296  1
  Ru4+  Ru107  1  0.50047603  0.66239525  0.75022253  1
  Ru4+  Ru108  1  0.11043824  0.16398636  0.00031905  1
  Ru4+  Ru109  1  0.11084747  0.16590913  0.24971721  1
  Ru4+  Ru110  1  0.10990632  0.16877168  0.49859404  1
  Ru4+  Ru111  1  0.11376838  0.16578130  0.74749932  1
  Ru4+  Ru112  1  0.11196693  0.50031276  -0.00012152  1
  Ru4+  Ru113  1  0.11404881  0.49737223  0.25114683  1
  Ru4+  Ru114  1  0.11486117  0.50293972  0.50020821  1
  Ru4+  Ru115  1  0.11647223  0.49693016  0.74993133  1
  Ru4+  Ru116  1  0.11059947  0.83272911  0.00105745  1
  Ru4+  Ru117  1  0.11282555  0.83496556  0.25089557  1
  Ru4+  Ru118  1  0.11404565  0.83549917  0.49966390  1
  Ru4+  Ru119  1  0.11549889  0.83278922  0.75166303  1
  Ru4+  Ru120  1  0.61061563  0.16705218  -0.00067469  1
  Ru4+  Ru121  1  0.61781586  0.16327081  0.24974312  1
  Ru4+  Ru122  1  0.61179888  0.16738402  0.50125202  1
  Ru4+  Ru123  1  0.61119942  0.16849061  0.74866218  1
  Ru4+  Ru124  1  0.61617729  0.49999371  -0.00090604  1
  Ru4+  Ru125  1  0.61404856  0.50279616  0.24965675  1
  Ru4+  Ru126  1  0.61239362  0.50043573  0.50129098  1
  Ru4+  Ru127  1  0.60972854  0.50220261  0.74857593  1
  Ru4+  Ru128  1  0.61883097  0.83094341  -0.00046160  1
  Ru4+  Ru129  1  0.61421021  0.83882229  0.25061104  1
  Ru4+  Ru130  1  0.61021919  0.83150441  0.49896194  1
  Ru4+  Ru131  1  0.61426960  0.82689642  0.74643612  1
  Ru4+  Ru132  1  0.38574406  0.16153151  0.00134632  1
  Ru4+  Ru133  1  0.38859675  0.16507900  0.24975239  1
  Ru4+  Ru134  1  0.38943881  0.16871407  0.50015273  1
  Ru4+  Ru135  1  0.38514560  0.16593812  0.74899706  1
  Ru4+  Ru136  1  0.38872751  0.49959674  -0.00062934  1
  Ru4+  Ru137  1  0.38372288  0.49391809  0.24945661  1
  Ru4+  Ru138  1  0.38494672  0.49630078  0.50084338  1
  Ru4+  Ru139  1  0.38605772  0.50022131  0.74982618  1
  Ru4+  Ru140  1  0.38848097  0.83181149  0.00067479  1
  Ru4+  Ru141  1  0.38816580  0.83294903  0.24920071  1
  Ru4+  Ru142  1  0.38317661  0.83907725  0.50043726  1
  Ru4+  Ru143  1  0.38504344  0.83375383  0.75072960  1
  Ru4+  Ru144  1  0.88982823  0.16902573  0.00032998  1
  Ru4+  Ru145  1  0.88583293  0.16709563  0.24953204  1
  Ru4+  Ru146  1  0.88958390  0.16677588  0.49911761  1
  Ru4+  Ru147  1  0.89062406  0.16556413  0.74903634  1
  Ru4+  Ru148  1  0.88273693  0.49764586  -0.00008305  1
  Ru4+  Ru149  1  0.88430685  0.50112624  0.24896372  1
  Ru4+  Ru150  1  0.88345483  0.49582529  0.49915133  1
  Ru4+  Ru151  1  0.88994634  0.49980543  0.74860447  1
  Ru4+  Ru152  1  0.88667771  0.82991010  -0.00077852  1
  Ru4+  Ru153  1  0.88911704  0.83112305  0.24938929  1
  Ru4+  Ru154  1  0.88908025  0.83664580  0.49977681  1
  Ru4+  Ru155  1  0.88566724  0.82644237  0.75020713  1
  Ru4+  Ru156  1  0.25010039  0.60635939  -0.01257487  1
  Ru4+  Ru157  1  0.24997112  0.24173790  0.74737998  1
  Ru4+  Ru158  1  0.24964888  0.06667871  0.26176236  1
  Ru4+  Ru159  1  0.74996108  0.06703222  0.02227597  1
  Ru4+  Ru160  1  0.24987346  0.92973781  -0.00164410  1
  Ru4+  Ru161  1  0.75005223  0.08129933  0.74546761  1
  Ru4+  Ru162  1  0.24990176  0.41927941  0.49859229  1
  Ru4+  Ru163  1  0.74991466  0.70157353  0.72626665  1
  Ru4+  Ru164  1  0.75023959  0.39754251  0.73975336  1
  Ru4+  Ru165  1  0.75008399  0.96431569  0.22044465  1
  Ru4+  Ru166  1  0.75041265  0.91052723  0.01191736  1
  Ru4+  Ru167  1  0.24961093  0.26225259  0.00024721  1
  Ru4+  Ru168  1  0.75006857  0.71072037  0.51572838  1
  Ru4+  Ru169  1  0.75022223  0.26167876  0.49059237  1
  Ru4+  Ru170  1  0.74963727  0.58064984  0.48936942  1
  Ru4+  Ru171  1  0.24994145  0.06147612  0.48903161  1
  Ru4+  Ru172  1  0.75004235  0.93505707  0.73167720  1
  Ru4+  Ru173  1  0.25016570  0.75054496  0.50337025  1
  Ru4+  Ru174  1  0.75019267  0.42374890  0.23995835  1
  Ru4+  Ru175  1  0.75019961  0.08754449  0.49509477  1
  Ru4+  Ru176  1  0.24983858  0.57497273  0.25498310  1
  Ru4+  Ru177  1  0.74999275  0.68957560  0.22950781  1
  Ru4+  Ru178  1  0.74963057  0.40723676  0.49355235  1
  Ru4+  Ru179  1  0.74999008  0.94653035  0.52843592  1
  O2-  O180  1  0.16515435  0.07881902  0.00164788  1
  O2-  O181  1  0.16560622  0.08145356  0.25141622  1
  O2-  O182  1  0.16578594  0.08047419  0.49886821  1
  O2-  O183  1  0.16579409  0.08355744  0.75292565  1
  O2-  O184  1  0.16474721  0.41186453  0.00108333  1
  O2-  O185  1  0.16643641  0.41640067  0.25020254  1
  O2-  O186  1  0.16882282  0.41458425  0.49853238  1
  O2-  O187  1  0.16830519  0.41679713  0.74738109  1
  O2-  O188  1  0.16644921  0.74627920  -0.00085521  1
  O2-  O189  1  0.16579347  0.74742651  0.24924618  1
  O2-  O190  1  0.16620964  0.74819296  0.49950141  1
  O2-  O191  1  0.16700855  0.74904596  0.74939955  1
  O2-  O192  1  0.66651907  0.07862403  0.00048572  1
  O2-  O193  1  0.66545694  0.08072760  0.24899640  1
  O2-  O194  1  0.66587506  0.08163822  0.50059752  1
  O2-  O195  1  0.66715222  0.07971249  0.75143950  1
  O2-  O196  1  0.66788818  0.41722730  -0.00070075  1
  O2-  O197  1  0.66711917  0.41429041  0.25243496  1
  O2-  O198  1  0.66611296  0.41394418  0.49881336  1
  O2-  O199  1  0.66603752  0.41380383  0.75086972  1
  O2-  O200  1  0.66722705  0.74923768  -0.00036393  1
  O2-  O201  1  0.66755809  0.74418736  0.25048980  1
  O2-  O202  1  0.66642222  0.74456802  0.49942732  1
  O2-  O203  1  0.66802141  0.74531896  0.74939467  1
  O2-  O204  1  0.33389868  0.25242401  -0.00084348  1
  O2-  O205  1  0.33839260  0.25649225  0.25253387  1
  O2-  O206  1  0.33535800  0.25602569  0.49885068  1
  O2-  O207  1  0.33230434  0.25260636  0.74873888  1
  O2-  O208  1  0.33278040  0.58646926  -0.00087172  1
  O2-  O209  1  0.33285719  0.58563395  0.24983863  1
  O2-  O210  1  0.33450348  0.58501110  0.49888702  1
  O2-  O211  1  0.33553458  0.58421131  0.74726297  1
  O2-  O212  1  0.33462896  0.92013482  -0.00112416  1
  O2-  O213  1  0.33079067  0.92026322  0.25233557  1
  O2-  O214  1  0.33368559  0.92020656  0.49951994  1
  O2-  O215  1  0.33228812  0.91713043  0.75013509  1
  O2-  O216  1  0.83708488  0.25391208  -0.00146775  1
  O2-  O217  1  0.83495184  0.25163418  0.25252702  1
  O2-  O218  1  0.83328911  0.25450434  0.50031732  1
  O2-  O219  1  0.84026239  0.25542089  0.74821854  1
  O2-  O220  1  0.83398566  0.58426583  -0.00219794  1
  O2-  O221  1  0.83415289  0.58572346  0.24997400  1
  O2-  O222  1  0.83095058  0.58597417  0.50045662  1
  O2-  O223  1  0.83426305  0.58722416  0.74873433  1
  O2-  O224  1  0.83407945  0.91901156  0.00326082  1
  O2-  O225  1  0.83463758  0.92182160  0.25043197  1
  O2-  O226  1  0.83356966  0.92148678  0.49896569  1
  O2-  O227  1  0.83398148  0.92168320  0.74982735  1
  O2-  O228  1  0.16469469  0.25187582  0.00063482  1
  O2-  O229  1  0.16376055  0.25555759  0.25226990  1
  O2-  O230  1  0.16646345  0.25561791  0.50002435  1
  O2-  O231  1  0.16752339  0.25147993  0.74915314  1
  O2-  O232  1  0.16727182  0.58629711  -0.00121723  1
  O2-  O233  1  0.16782916  0.58553946  0.24828882  1
  O2-  O234  1  0.16701676  0.58395883  0.49822551  1
  O2-  O235  1  0.16525385  0.58304938  0.74852632  1
  O2-  O236  1  0.16498312  0.91989907  -0.00108189  1
  O2-  O237  1  0.16831382  0.91897944  0.25181774  1
  O2-  O238  1  0.16722500  0.91806540  0.49726839  1
  O2-  O239  1  0.16763951  0.91709276  0.75138215  1
  O2-  O240  1  0.66235494  0.25513695  0.00008756  1
  O2-  O241  1  0.66634873  0.25310614  0.25212541  1
  O2-  O242  1  0.66870491  0.25391356  0.49859419  1
  O2-  O243  1  0.66087269  0.25523945  0.74788569  1
  O2-  O244  1  0.66517222  0.58575101  -0.00244864  1
  O2-  O245  1  0.66798270  0.58525601  0.25124277  1
  O2-  O246  1  0.66753817  0.58602070  0.49857642  1
  O2-  O247  1  0.66797256  0.58706544  0.74969472  1
  O2-  O248  1  0.66659575  0.91873205  0.00203882  1
  O2-  O249  1  0.66684908  0.92271841  0.25021061  1
  O2-  O250  1  0.66847498  0.92248161  0.50020523  1
  O2-  O251  1  0.66615101  0.92092411  0.75075343  1
  O2-  O252  1  0.33571331  0.07911146  0.00151890  1
  O2-  O253  1  0.33139972  0.08009950  0.25228917  1
  O2-  O254  1  0.33288840  0.07943928  0.49881343  1
  O2-  O255  1  0.33500358  0.08154999  0.75124853  1
  O2-  O256  1  0.33621729  0.41071450  -0.00108391  1
  O2-  O257  1  0.33412043  0.41488162  0.25161472  1
  O2-  O258  1  0.32969472  0.41643729  0.49907472  1
  O2-  O259  1  0.33425221  0.41472773  0.74838870  1
  O2-  O260  1  0.33309692  0.74631654  -0.00066125  1
  O2-  O261  1  0.33456710  0.74678648  0.25073641  1
  O2-  O262  1  0.33262086  0.74691862  0.49944399  1
  O2-  O263  1  0.33334753  0.74966016  0.74812721  1
  O2-  O264  1  0.83312655  0.07848195  0.00107493  1
  O2-  O265  1  0.83529438  0.08088169  0.24998140  1
  O2-  O266  1  0.83435698  0.08123301  0.50023548  1
  O2-  O267  1  0.83354045  0.07929768  0.74964970  1
  O2-  O268  1  0.83461407  0.41478823  -0.00253799  1
  O2-  O269  1  0.82881888  0.41567421  0.25349022  1
  O2-  O270  1  0.83228023  0.41079849  0.50063230  1
  O2-  O271  1  0.83342196  0.41213489  0.74960477  1
  O2-  O272  1  0.83327635  0.74940349  -0.00008569  1
  O2-  O273  1  0.83124915  0.74650791  0.24910257  1
  O2-  O274  1  0.83287299  0.74407149  0.49954815  1
  O2-  O275  1  0.83240526  0.74443294  0.74987508  1
  O2-  O276  1  0.45472818  0.09720861  0.00973164  1
  O2-  O277  1  0.95150146  0.90364436  0.72892003  1
  O2-  O278  1  0.45052352  0.56604662  0.48040725  1
  O2-  O279  1  0.45278052  0.57069523  0.27092915  1
  O2-  O280  1  0.96560765  0.54831457  0.49609277  1
  O2-  O281  1  0.45286951  0.76476180  0.48102826  1
  O2-  O282  1  0.45043178  0.57145276  0.23165568  1
  O2-  O283  1  0.45572404  0.57269861  0.51825450  1
  O2-  O284  1  0.04850051  0.57183456  0.73555212  1
  O2-  O285  1  0.95339787  0.90080923  0.76797086  1
  O2-  O286  1  0.95536848  0.90125485  0.01697297  1
  O2-  O287  1  0.03715141  0.88793097  0.46262304  1
  O2-  O288  1  0.45023687  0.10002518  0.75894417  1
  O2-  O289  1  0.54599686  0.90089585  0.01832008  1
  O2-  O290  1  0.54396768  0.75900591  0.98581596  1
  O2-  O291  1  0.45047801  0.23286416  0.23604221  1
  O2-  O292  1  0.45006093  0.23530670  0.01712981  1
  O2-  O293  1  0.45276374  0.57321197  0.76404892  1
  O2-  O294  1  0.54230198  0.11252485  0.78217491  1
  O2-  O295  1  0.95344978  0.90416793  0.26084559  1
  O2-  O296  1  0.95370580  0.10043857  0.99192240  1
  O2-  O297  1  0.55052359  0.09614398  0.48865895  1
  O2-  O298  1  0.03637771  0.44659289  0.02858388  1
  O2-  O299  1  0.95575494  0.09661263  0.23397797  1
  O2-  O300  1  0.45409043  0.42838106  0.76484411  1
  O2-  O301  1  0.54897282  0.23454996  0.23326974  1
  O2-  O302  1  0.54850797  0.23629058  0.27260159  1
  O2-  O303  1  0.54684198  0.76659825  0.23790779  1
  O2-  O304  1  0.95378523  0.76349846  0.51091561  1
  O2-  O305  1  0.45643419  0.24074008  0.97957312  1
  O2-  O306  1  0.03722948  0.43864933  0.71841143  1
  O2-  O307  1  0.95151410  0.56699563  0.98504978  1
  O2-  O308  1  0.54006606  0.44077017  0.00936306  1
  O2-  O309  1  0.54628604  0.90104598  0.97907209  1
  O2-  O310  1  0.45400691  0.76594505  0.52021666  1
  O2-  O311  1  0.45106059  0.09769410  0.49260220  1
  O2-  O312  1  0.96434040  0.55109749  0.50185155  1
  O2-  O313  1  0.96615152  0.44597829  0.26520425  1
  O2-  O314  1  0.03806045  0.21914881  0.77804651  1
  O2-  O315  1  0.54856499  0.90076238  0.76364508  1
  O2-  O316  1  0.96051654  0.44901778  0.25865318  1
  O2-  O317  1  0.54734278  0.57676911  0.01512542  1
  O2-  O318  1  0.04672123  0.76422910  0.26122717  1
  O2-  O319  1  0.53986617  0.44101598  1.00912813  1
  O2-  O320  1  0.53480174  0.22979704  0.46461328  1
  O2-  O321  1  0.95333807  0.23012481  0.48916683  1
  O2-  O322  1  0.03605628  0.22123910  0.28388140  1
  O2-  O323  1  0.45386233  0.43004071  0.24214918  1
  O2-  O324  1  0.43657872  0.74428303  0.02579021  1
  O2-  O325  1  0.93883632  0.59382177  0.96800980  1
  O2-  O326  1  0.06200162  0.07497285  0.71594905  1
  O2-  O327  1  0.06264343  0.59735929  0.71838014  1
  O2-  O328  1  0.06426145  0.59484612  0.03421245  1
  O2-  O329  1  0.06300022  0.93222597  0.28270791  1
  O2-  O330  1  0.07479199  0.40160215  0.79988785  1
  O2-  O331  1  0.93713809  0.07223865  0.67895932  1
  O2-  O332  1  0.93893831  0.73961511  0.96512004  1
  O2-  O333  1  0.92594651  0.61902228  0.57450555  1
  O2-  O334  1  0.06345426  0.59590927  0.28355308  1
  O2-  O335  1  0.56396158  0.59297148  0.21633388  1
  O2-  O336  1  0.93442251  0.74113684  0.22151607  1
  O2-  O337  1  0.56150003  0.74170019  0.71511853  1
  O2-  O338  1  0.06230560  0.73823445  0.78417423  1
  O2-  O339  1  0.07353383  0.26496836  0.20527179  1
  O2-  O340  1  0.43102647  0.41230097  0.05567465  1
  O2-  O341  1  0.43593443  0.92170792  0.22296635  1
  O2-  O342  1  0.43769644  0.73879961  0.78283730  1
  O2-  O343  1  0.56489437  0.92487245  0.47537709  1
  O2-  O344  1  0.06268727  0.92733147  0.71974453  1
  O2-  O345  1  0.06185381  0.06887306  0.06894021  1
  O2-  O346  1  0.57549017  0.06174495  0.70051352  1
  O2-  O347  1  0.43646931  0.92723275  0.68307108  1
  O2-  O348  1  0.56161760  0.74245771  0.22000437  1
  O2-  O349  1  0.43494362  0.07616335  0.22192452  1
  O2-  O350  1  0.07239551  0.27770920  0.68785392  1
  O2-  O351  1  0.43567961  0.40484942  0.93609852  1
  O2-  O352  1  0.43438597  0.25923825  0.72391552  1
  O2-  O353  1  0.07092264  0.94932610  0.55866838  1
  O2-  O354  1  0.56388597  0.59333640  0.71826602  1
  O2-  O355  1  0.07713715  0.39561427  0.95048498  1
  O2-  O356  1  0.57922904  0.27219471  0.55022340  1
  O2-  O357  1  0.06406258  0.26463968  0.46860060  1
  O2-  O358  1  0.06365242  0.59805694  0.53227002  1
  O2-  O359  1  0.06577169  0.40471860  0.28738490  1
  O2-  O360  1  0.91409028  0.38421776  0.20029733  1
  O2-  O361  1  0.56375468  0.92610226  0.77854105  1
  O2-  O362  1  0.91944110  0.60917907  0.43704634  1
  O2-  O363  1  0.43383339  0.40442343  0.52387432  1
  O2-  O364  1  0.43343998  0.92158250  0.80775409  1
  O2-  O365  1  0.06392499  0.07084007  0.93208915  1
  O2-  O366  1  0.57309664  0.37931324  0.94648988  1
  O2-  O367  1  0.93342118  0.07758314  0.80961001  1
  O2-  O368  1  0.43513054  0.59074966  0.02608810  1
  O2-  O369  1  0.56438079  0.59681145  0.53014775  1
  O2-  O370  1  0.06142548  0.74160719  0.03312175  1
  O2-  O371  1  0.56582257  0.74474402  0.97392967  1
  O2-  O372  1  0.24997548  0.33045019  0.17483988  1
  O2-  O373  1  0.24993861  0.66872179  0.85931761  1
  O2-  O374  1  0.75006464  0.00849834  0.63649614  1
  O2-  O375  1  0.25035743  0.00249733  0.67152475  1
  O2-  O376  1  0.74964945  0.00292161  0.82762327  1
  O2-  O377  1  0.74997232  0.01864777  0.31715506  1
  O2-  O378  1  0.24986960  0.66464151  0.33995382  1
  O2-  O379  1  0.24995443  -0.01034158  0.17137293  1
  O2-  O380  1  0.75005024  -0.00266318  0.42394242  1
  O2-  O381  1  0.74957809  0.66427375  0.35641323  1
  O2-  O382  1  0.25007219  0.01355011  0.08159475  1
  O2-  O383  1  0.74962152  0.33103386  0.17190768  1
  O2-  O384  1  0.75011183  0.33333012  0.85068076  1
  O2-  O385  1  0.74987339  0.67139858  0.10766492  1
  O2-  O386  1  0.25016910  0.67256712  0.59017377  1
  O2-  O387  1  0.74967422  0.33363325  0.08096010  1
  O2-  O388  1  0.24995280  0.33466172  0.82306005  1
  O2-  O389  1  0.75014019  0.66379099  0.85095417  1
  O2-  O390  1  0.25013305  -0.00957553  0.58248239  1
  O2-  O391  1  0.24994193  0.34314990  0.91475782  1
  O2-  O392  1  0.24991640  0.34458701  0.08554936  1
  O2-  O393  1  0.24997839  0.00028761  0.89837875  1
  O2-  O394  1  0.24983563  0.66849228  0.09548670  1
  O2-  O395  1  0.74972906  -0.00737315  0.93534852  1
  O2-  O396  1  0.75005233  0.83555879  0.57750785  1
  O2-  O397  1  0.24976411  0.14391988  0.16022928  1
  O2-  O398  1  0.74992656  0.17546786  0.56576685  1
  O2-  O399  1  0.75002988  0.16851132  0.40697012  1
  O2-  O400  1  0.74973498  0.49089673  0.65927291  1
  O2-  O401  1  0.75007155  0.16539050  0.18576456  1
  O2-  O402  1  0.74994787  0.83131080  0.66873542  1
  O2-  O403  1  0.25011044  0.17843034  0.07766638  1
  O2-  O404  1  0.75018216  0.83389890  0.93404218  1
  O2-  O405  1  0.24999381  0.17150299  0.83086246  1
  O2-  O406  1  0.24981046  0.14597254  0.38252971  1
  O2-  O407  1  0.24997729  0.17061605  0.65848102  1
  O2-  O408  1  0.24999590  0.82998603  0.42310878  1
  O2-  O409  1  0.74984295  0.49674594  0.40553864  1
  O2-  O410  1  0.25011915  0.84242080  0.07674371  1
  O2-  O411  1  0.75000589  0.15685770  0.10254016  1
  O2-  O412  1  0.25003106  0.51347307  0.87994924  1
  O2-  O413  1  0.75006748  0.14419334  0.86387978  1
  O2-  O414  1  0.24991710  0.51298543  0.13268475  1
  O2-  O415  1  0.75030821  0.49532118  0.10082610  1
  O2-  O416  1  0.24991968  0.50338230  0.33529095  1
  O2-  O417  1  0.75007420  0.49829786  0.57109303  1
  O2-  O418  1  0.25001218  0.83248281  0.16188805  1
  O2-  O419  1  0.74994100  0.15261335  0.65048901  1
  O2-  O420  1  0.52345173  -0.00602872  0.61606399  1
  O2-  O421  1  0.47650679  0.66979973  0.13083619  1
  O2-  O422  1  0.45617857  -0.00353032  0.37489549  1
  O2-  O423  1  0.97467230  0.66110738  0.12252284  1
  O2-  O424  1  0.52544214  0.66238481  0.87202971  1
  O2-  O425  1  0.97597633  -0.00999909  0.88308447  1
  O2-  O426  1  0.95688621  0.33519196  0.87671776  1
  O2-  O427  1  0.97634171  0.67311194  0.36710682  1
  O2-  O428  1  0.47051233  0.32664052  0.13177291  1
  O2-  O429  1  0.54154334  0.00339296  0.36190557  1
  O2-  O430  1  0.47335433  0.66931218  0.37274732  1
  O2-  O431  1  0.52988763  0.34030150  0.63419705  1
  O2-  O432  1  0.46345109  -0.00555518  0.11444208  1
  O2-  O433  1  0.47233318  0.33403182  0.37604685  1
  O2-  O434  1  0.97237671  0.33435786  0.37511301  1
  O2-  O435  1  0.03741279  0.33855224  0.11991911  1
  O2-  O436  1  0.03081879  0.31879121  0.87674853  1
  O2-  O437  1  0.53311157  0.00599556  0.88451885  1
  O2-  O438  1  0.54219413  0.00410600  0.12858024  1
  O2-  O439  1  0.53652583  0.33299806  0.12747572  1
  O2-  O440  1  0.96175986  0.32315451  0.11134003  1
  O2-  O441  1  0.97164953  0.33371679  0.62473816  1
  O2-  O442  1  0.46972661  0.00541049  0.88477646  1
  O2-  O443  1  0.47247415  0.33057499  0.62321005  1
