# generated using pymatgen
data_La7(Ru4O11)2
_symmetry_space_group_name_H-M   'P 1'
_cell_length_a   23.99020216
_cell_length_b   16.83025311
_cell_length_c   15.42664256
_cell_angle_alpha   89.99903780
_cell_angle_beta   89.99989298
_cell_angle_gamma   90.00037905
_symmetry_Int_Tables_number   1
_chemical_formula_structural   La7(Ru4O11)2
_chemical_formula_sum   'La84 Ru96 O264'
_cell_volume   6228.67931750
_cell_formula_units_Z   12
loop_
 _symmetry_equiv_pos_site_id
 _symmetry_equiv_pos_as_xyz
  1  'x, y, z'
loop_
 _atom_type_symbol
 _atom_type_oxidation_number
  La3+  3.0
  Ru4+  4.0
  O2-  -2.0
loop_
 _atom_site_type_symbol
 _atom_site_label
 _atom_site_symmetry_multiplicity
 _atom_site_fract_x
 _atom_site_fract_y
 _atom_site_fract_z
 _atom_site_occupancy
  La3+  La0  1  0.13717972  -0.00036750  0.12558494  1
  La3+  La1  1  0.13822234  -0.00078422  0.37551044  1
  La3+  La2  1  0.13812430  -0.00177150  0.62470873  1
  La3+  La3  1  0.13842298  -0.00044606  0.87415142  1
  La3+  La4  1  0.13703439  0.33554634  0.12638016  1
  La3+  La5  1  0.13914441  0.33501972  0.37500147  1
  La3+  La6  1  0.13969913  0.33558674  0.62510710  1
  La3+  La7  1  0.13720899  0.33578535  0.87291941  1
  La3+  La8  1  0.13742821  0.66606031  0.12565570  1
  La3+  La9  1  0.14072797  0.66620145  0.37763081  1
  La3+  La10  1  0.14105143  0.66581021  0.62408208  1
  La3+  La11  1  0.13855007  0.66449270  0.87191527  1
  La3+  La12  1  0.64374444  0.00245453  0.12148852  1
  La3+  La13  1  0.64161175  0.00190963  0.37605855  1
  La3+  La14  1  0.64025661  0.00072331  0.62673857  1
  La3+  La15  1  0.64082811  0.00146388  0.87522716  1
  La3+  La16  1  0.64004071  0.33078080  0.12125753  1
  La3+  La17  1  0.63726350  0.33399089  0.37662956  1
  La3+  La18  1  0.63995301  0.33552605  0.62806637  1
  La3+  La19  1  0.64116795  0.33094997  0.87312133  1
  La3+  La20  1  0.63728231  0.66614138  0.12296237  1
  La3+  La21  1  0.63895823  0.66601579  0.37516785  1
  La3+  La22  1  0.64004734  0.66525633  0.62415073  1
  La3+  La23  1  0.64126120  0.66283971  0.87675446  1
  La3+  La24  1  0.36374524  -0.00198480  0.12495761  1
  La3+  La25  1  0.36371384  0.00003822  0.37632701  1
  La3+  La26  1  0.36420857  0.00101068  0.62465156  1
  La3+  La27  1  0.36338007  -0.00161516  0.87388910  1
  La3+  La28  1  0.36397869  0.33428785  0.12555049  1
  La3+  La29  1  0.36248369  0.33379991  0.37425433  1
  La3+  La30  1  0.36060291  0.33512666  0.62534042  1
  La3+  La31  1  0.36236709  0.33382380  0.87288762  1
  La3+  La32  1  0.36206433  0.66619002  0.12577015  1
  La3+  La33  1  0.35891371  0.66640396  0.37847062  1
  La3+  La34  1  0.35962638  0.66611870  0.62373916  1
  La3+  La35  1  0.36241543  0.66583505  0.87340576  1
  La3+  La36  1  0.85816308  0.00000966  0.12288371  1
  La3+  La37  1  0.86252003  -0.00157881  0.37597101  1
  La3+  La38  1  0.85962891  -0.00097943  0.62489355  1
  La3+  La39  1  0.85835149  0.00137991  0.87508757  1
  La3+  La40  1  0.86145014  0.33232331  0.12179764  1
  La3+  La41  1  0.86172005  0.33384639  0.37813343  1
  La3+  La42  1  0.85779079  0.33605258  0.62564666  1
  La3+  La43  1  0.86068368  0.33283652  0.87216574  1
  La3+  La44  1  0.86229491  0.66656607  0.12076315  1
  La3+  La45  1  0.86615630  0.66270921  0.38495573  1
  La3+  La46  1  0.86335916  0.66200331  0.61893738  1
  La3+  La47  1  0.86162844  0.66637740  0.87728708  1
  La3+  La48  1  0.00439980  0.17220968  0.36951709  1
  La3+  La49  1  -0.00197459  0.83334903  0.11812889  1
  La3+  La50  1  0.50227607  0.83521080  0.11628126  1
  La3+  La51  1  0.49750352  0.16452560  0.38398313  1
  La3+  La52  1  -0.00208772  0.16840085  0.61717806  1
  La3+  La53  1  0.50012738  0.50035220  0.13354088  1
  La3+  La54  1  -0.00339279  0.50598580  0.36862461  1
  La3+  La55  1  -0.00298934  0.50322111  0.63131401  1
  La3+  La56  1  0.49711532  0.50357052  0.37283341  1
  La3+  La57  1  0.49421279  0.82779251  0.13319978  1
  La3+  La58  1  0.00469225  0.83328192  0.88659653  1
  La3+  La59  1  0.00245903  0.16320595  0.13417374  1
  La3+  La60  1  0.50167965  0.16332100  0.13390153  1
  La3+  La61  1  -0.00002914  0.16718031  0.63954504  1
  La3+  La62  1  0.00076763  0.16926696  0.88708842  1
  La3+  La63  1  -0.00116030  0.83690605  0.86912498  1
  La3+  La64  1  0.49684638  0.83617848  0.87208544  1
  La3+  La65  1  0.49956003  0.16544139  0.61903269  1
  La3+  La66  1  -0.00014753  0.16766805  0.38763301  1
  La3+  La67  1  0.00218815  0.50053658  0.38869740  1
  La3+  La68  1  0.49888019  0.16896073  0.11242027  1
  La3+  La69  1  0.00015972  0.83281740  0.38698597  1
  La3+  La70  1  -0.00233328  0.83521284  0.13494217  1
  La3+  La71  1  0.49745229  0.83387905  0.38395109  1
  La3+  La72  1  0.24973322  0.45595203  0.00829063  1
  La3+  La73  1  0.24994782  0.86779793  -0.00251975  1
  La3+  La74  1  0.24944575  0.16498143  0.23525610  1
  La3+  La75  1  0.25039232  0.86086243  0.25214716  1
  La3+  La76  1  0.25032186  0.17676984  -0.00472464  1
  La3+  La77  1  0.75026288  0.83331560  0.51955302  1
  La3+  La78  1  0.75022212  0.87203362  0.24615447  1
  La3+  La79  1  0.74985045  0.12771808  0.28179381  1
  La3+  La80  1  0.25006126  0.19693450  0.50217140  1
  La3+  La81  1  0.75008043  0.13079464  0.50435551  1
  La3+  La82  1  0.74952465  0.49789384  0.25660413  1
  La3+  La83  1  0.25012616  0.13687625  0.74410861  1
  Ru4+  Ru84  1  0.00049564  0.00169795  0.00045034  1
  Ru4+  Ru85  1  0.00056850  -0.00094308  0.24918624  1
  Ru4+  Ru86  1  -0.00268286  -0.00385087  0.50147084  1
  Ru4+  Ru87  1  0.00194700  -0.00539424  0.74899214  1
  Ru4+  Ru88  1  -0.00167986  0.33599175  -0.00217554  1
  Ru4+  Ru89  1  0.00256310  0.33171151  0.24405539  1
  Ru4+  Ru90  1  0.00181311  0.33095944  0.50036040  1
  Ru4+  Ru91  1  0.00225980  0.33615037  0.75667158  1
  Ru4+  Ru92  1  0.00219575  0.65627330  -0.00077634  1
  Ru4+  Ru93  1  0.00143644  0.66623923  0.25273054  1
  Ru4+  Ru94  1  -0.00075970  0.66458619  0.49925831  1
  Ru4+  Ru95  1  0.00116521  0.66089223  0.75226643  1
  Ru4+  Ru96  1  0.50290106  0.00569645  -0.00448600  1
  Ru4+  Ru97  1  0.49620039  0.00009925  0.25213197  1
  Ru4+  Ru98  1  0.50172818  -0.00543120  0.50536355  1
  Ru4+  Ru99  1  0.49900357  0.00265575  0.74954366  1
  Ru4+  Ru100  1  0.50408825  0.33359211  -0.00702366  1
  Ru4+  Ru101  1  0.50277227  0.33823754  0.25252772  1
  Ru4+  Ru102  1  0.49915686  0.33605579  0.49913862  1
  Ru4+  Ru103  1  0.49923686  0.33612331  0.75591001  1
  Ru4+  Ru104  1  0.49998539  0.66356890  -0.00256247  1
  Ru4+  Ru105  1  0.50130886  0.66832247  0.24970472  1
  Ru4+  Ru106  1  0.49751426  0.66561972  0.50167812  1
  Ru4+  Ru107  1  0.50360366  0.66672432  0.75311533  1
  Ru4+  Ru108  1  0.11034247  0.16830307  -0.00011544  1
  Ru4+  Ru109  1  0.10955008  0.16663288  0.24960792  1
  Ru4+  Ru110  1  0.11187312  0.16984172  0.50011026  1
  Ru4+  Ru111  1  0.11118072  0.16810128  0.75016413  1
  Ru4+  Ru112  1  0.11162828  0.49934742  0.00021307  1
  Ru4+  Ru113  1  0.11400403  0.49840160  0.24954993  1
  Ru4+  Ru114  1  0.11352825  0.50195950  0.50090248  1
  Ru4+  Ru115  1  0.11426764  0.49879487  0.74994597  1
  Ru4+  Ru116  1  0.11264200  0.83561862  0.00069481  1
  Ru4+  Ru117  1  0.11164531  0.83261461  0.25115772  1
  Ru4+  Ru118  1  0.11312717  0.83247446  0.50096329  1
  Ru4+  Ru119  1  0.11251763  0.83317615  0.74898988  1
  Ru4+  Ru120  1  0.61453108  0.16801634  -0.00109504  1
  Ru4+  Ru121  1  0.61259223  0.16597846  0.25113613  1
  Ru4+  Ru122  1  0.61117773  0.16440018  0.49962661  1
  Ru4+  Ru123  1  0.61363509  0.16637038  0.75019551  1
  Ru4+  Ru124  1  0.61163018  0.49834996  -0.00072450  1
  Ru4+  Ru125  1  0.61084015  0.49913193  0.24938293  1
  Ru4+  Ru126  1  0.61457900  0.49988763  0.49994120  1
  Ru4+  Ru127  1  0.61039162  0.49923762  0.74939415  1
  Ru4+  Ru128  1  0.61489798  0.83578697  -0.00060282  1
  Ru4+  Ru129  1  0.61168398  0.83081689  0.25242279  1
  Ru4+  Ru130  1  0.61356887  0.83414366  0.50017697  1
  Ru4+  Ru131  1  0.61193150  0.83148701  0.74955938  1
  Ru4+  Ru132  1  0.38892588  0.16680091  0.00046414  1
  Ru4+  Ru133  1  0.38532037  0.16154966  0.25193128  1
  Ru4+  Ru134  1  0.38651153  0.17079580  0.50005466  1
  Ru4+  Ru135  1  0.38935238  0.16688253  0.75035884  1
  Ru4+  Ru136  1  0.38869347  0.50189044  -0.00114804  1
  Ru4+  Ru137  1  0.38739441  0.49836823  0.24991925  1
  Ru4+  Ru138  1  0.38713689  0.50162871  0.50050119  1
  Ru4+  Ru139  1  0.38436611  0.50022035  0.74988350  1
  Ru4+  Ru140  1  0.38538995  0.82885378  -0.00179603  1
  Ru4+  Ru141  1  0.38895641  0.83328662  0.25051254  1
  Ru4+  Ru142  1  0.38849634  0.83124313  0.50082849  1
  Ru4+  Ru143  1  0.38860844  0.83259144  0.75007429  1
  Ru4+  Ru144  1  0.88521860  0.16601356  0.00015440  1
  Ru4+  Ru145  1  0.88710503  0.16588695  0.24869998  1
  Ru4+  Ru146  1  0.88840503  0.16567778  0.49932349  1
  Ru4+  Ru147  1  0.88294261  0.16834003  0.75181264  1
  Ru4+  Ru148  1  0.88809469  0.50082024  0.00079389  1
  Ru4+  Ru149  1  0.88866855  0.50150933  0.25025127  1
  Ru4+  Ru150  1  0.88637843  0.50360134  0.50200364  1
  Ru4+  Ru151  1  0.88690286  0.49961604  0.74863100  1
  Ru4+  Ru152  1  0.88313801  0.83703857  0.00060748  1
  Ru4+  Ru153  1  0.88908145  0.83609255  0.24994602  1
  Ru4+  Ru154  1  0.88840551  0.83369773  0.50023010  1
  Ru4+  Ru155  1  0.88476727  0.83582630  0.74869434  1
  Ru4+  Ru156  1  0.75059645  0.74481882  0.25261006  1
  Ru4+  Ru157  1  0.75019638  0.74826880  0.75082670  1
  Ru4+  Ru158  1  0.25016618  0.91216778  0.75007636  1
  Ru4+  Ru159  1  0.75009640  0.92141047  0.75058728  1
  Ru4+  Ru160  1  0.24978899  0.59438949  0.00024169  1
  Ru4+  Ru161  1  0.75021456  0.37969100  0.22191319  1
  Ru4+  Ru162  1  0.24990824  0.27617932  0.74567194  1
  Ru4+  Ru163  1  0.24976450  0.04154694  0.27877830  1
  Ru4+  Ru164  1  0.24976301  0.42201754  0.50735458  1
  Ru4+  Ru165  1  0.74975560  0.75148892  -0.00408431  1
  Ru4+  Ru166  1  0.24973362  0.05093704  -0.01091943  1
  Ru4+  Ru167  1  0.75005168  0.25503040  0.23574382  1
  Ru4+  Ru168  1  0.75009191  0.57673109  0.75372845  1
  Ru4+  Ru169  1  0.25002744  0.75066619  0.74599267  1
  Ru4+  Ru170  1  0.75023492  0.62058396  0.24846684  1
  Ru4+  Ru171  1  0.25027365  0.72086856  0.25676650  1
  Ru4+  Ru172  1  0.25006642  0.91568174  0.50023093  1
  Ru4+  Ru173  1  0.25004147  0.30294969  -0.00026381  1
  Ru4+  Ru174  1  0.25020515  0.57606276  0.25550378  1
  Ru4+  Ru175  1  0.75020912  0.26155604  0.50517961  1
  Ru4+  Ru176  1  0.74974406  0.41383629  -0.00449129  1
  Ru4+  Ru177  1  0.24950120  0.73736798  -0.00077519  1
  Ru4+  Ru178  1  0.25002776  0.05497825  0.50100077  1
  Ru4+  Ru179  1  0.24955906  0.29604904  0.23527737  1
  O2-  O180  1  0.16546519  0.07811153  -0.00028039  1
  O2-  O181  1  0.16655023  0.07809225  0.25035224  1
  O2-  O182  1  0.16763472  0.07880467  0.50051694  1
  O2-  O183  1  0.16677822  0.07778048  0.75024346  1
  O2-  O184  1  0.16369217  0.41098741  0.00017804  1
  O2-  O185  1  0.16748274  0.41438470  0.24746973  1
  O2-  O186  1  0.16877867  0.41447802  0.50019578  1
  O2-  O187  1  0.16718890  0.41496251  0.74929132  1
  O2-  O188  1  0.16714297  0.74567082  0.00117449  1
  O2-  O189  1  0.16781851  0.74687452  0.24876009  1
  O2-  O190  1  0.16543097  0.74928875  0.50051859  1
  O2-  O191  1  0.16757836  0.74821553  0.75099171  1
  O2-  O192  1  0.66579963  0.08205519  -0.00096746  1
  O2-  O193  1  0.66657533  0.08007931  0.25027399  1
  O2-  O194  1  0.66725274  0.08015063  0.50047428  1
  O2-  O195  1  0.66649097  0.08159687  0.74942108  1
  O2-  O196  1  0.66886026  0.41503386  -0.00051077  1
  O2-  O197  1  0.66631945  0.41252597  0.25157116  1
  O2-  O198  1  0.66525361  0.41423880  0.49931623  1
  O2-  O199  1  0.66527989  0.41581771  0.74946807  1
  O2-  O200  1  0.66779905  0.74738639  0.00199302  1
  O2-  O201  1  0.66711123  0.74599664  0.24907071  1
  O2-  O202  1  0.66876815  0.74815777  0.50104068  1
  O2-  O203  1  0.66832172  0.74866892  0.74980958  1
  O2-  O204  1  0.33281921  0.25548736  0.00023037  1
  O2-  O205  1  0.33391033  0.25502575  0.24879910  1
  O2-  O206  1  0.33473750  0.25366401  0.49936433  1
  O2-  O207  1  0.33224457  0.25300151  0.74885160  1
  O2-  O208  1  0.33419658  0.58654744  0.00006954  1
  O2-  O209  1  0.33235881  0.58671710  0.24882320  1
  O2-  O210  1  0.33446422  0.58379078  0.50053956  1
  O2-  O211  1  0.33488350  0.58498432  0.75075197  1
  O2-  O212  1  0.33442109  0.92039496  0.00069101  1
  O2-  O213  1  0.33296866  0.92136750  0.25054870  1
  O2-  O214  1  0.33127317  0.91869032  0.49982268  1
  O2-  O215  1  0.33128078  0.91943472  0.75069013  1
  O2-  O216  1  0.83248494  0.25251337  0.00071168  1
  O2-  O217  1  0.83389334  0.25312733  0.24904331  1
  O2-  O218  1  0.83231028  0.25294419  0.49997285  1
  O2-  O219  1  0.83203500  0.25115573  0.75140358  1
  O2-  O220  1  0.83462394  0.58449674  0.00149289  1
  O2-  O221  1  0.83562792  0.58756024  0.24949924  1
  O2-  O222  1  0.83181699  0.58526163  0.49857409  1
  O2-  O223  1  0.83237846  0.58628981  0.74992341  1
  O2-  O224  1  0.83336580  0.91811154  -0.00004299  1
  O2-  O225  1  0.83466033  0.92102162  0.25139569  1
  O2-  O226  1  0.83181631  0.91968474  0.49875327  1
  O2-  O227  1  0.83362772  0.91777930  0.75018809  1
  O2-  O228  1  0.16590087  0.25475165  0.00093387  1
  O2-  O229  1  0.16664982  0.25540631  0.24866106  1
  O2-  O230  1  0.16593706  0.25327024  0.49989915  1
  O2-  O231  1  0.16712972  0.25309877  0.74929522  1
  O2-  O232  1  0.16598757  0.58699496  0.00043403  1
  O2-  O233  1  0.16803329  0.58603769  0.24795608  1
  O2-  O234  1  0.16552321  0.58459863  0.50124201  1
  O2-  O235  1  0.16500122  0.58459181  0.74991957  1
  O2-  O236  1  0.16554025  0.92070590  -0.00058771  1
  O2-  O237  1  0.16727668  0.92031433  0.25017368  1
  O2-  O238  1  0.16943863  0.91922022  0.49972022  1
  O2-  O239  1  0.16782624  0.91968540  0.75051225  1
  O2-  O240  1  0.66747906  0.25090957  -0.00030405  1
  O2-  O241  1  0.66659216  0.25341488  0.25099764  1
  O2-  O242  1  0.66625497  0.25452944  0.49961459  1
  O2-  O243  1  0.66561648  0.25031435  0.74898510  1
  O2-  O244  1  0.66511742  0.58393752  0.00232944  1
  O2-  O245  1  0.66457957  0.58667619  0.24926189  1
  O2-  O246  1  0.66605405  0.58515940  0.49912417  1
  O2-  O247  1  0.66781183  0.58539906  0.74952436  1
  O2-  O248  1  0.66650658  0.91741525  -0.00048566  1
  O2-  O249  1  0.66761974  0.92006746  0.25053133  1
  O2-  O250  1  0.66845416  0.91961562  0.50094617  1
  O2-  O251  1  0.66674790  0.91825419  0.74975104  1
  O2-  O252  1  0.33498518  0.07819082  -0.00037638  1
  O2-  O253  1  0.33236130  0.07881194  0.24986248  1
  O2-  O254  1  0.33197393  0.07944459  0.50011489  1
  O2-  O255  1  0.33299001  0.07918612  0.75014485  1
  O2-  O256  1  0.33452198  0.41135631  0.00130431  1
  O2-  O257  1  0.33393814  0.41374931  0.24912748  1
  O2-  O258  1  0.33269473  0.41435143  0.49974428  1
  O2-  O259  1  0.33472221  0.41487403  0.74933406  1
  O2-  O260  1  0.33293268  0.74657608  0.00063439  1
  O2-  O261  1  0.33232691  0.74567081  0.24936825  1
  O2-  O262  1  0.33355995  0.74898802  0.50036964  1
  O2-  O263  1  0.33278190  0.74753593  0.75089829  1
  O2-  O264  1  0.83478037  0.08233010  -0.00046647  1
  O2-  O265  1  0.83276794  0.07982972  0.25186548  1
  O2-  O266  1  0.83321650  0.07860597  0.49913196  1
  O2-  O267  1  0.83292127  0.08185742  0.74999652  1
  O2-  O268  1  0.83278374  0.41385390  -0.00021140  1
  O2-  O269  1  0.83335480  0.41199702  0.24842101  1
  O2-  O270  1  0.83371066  0.41580675  0.49896228  1
  O2-  O271  1  0.83451339  0.41622321  0.75070280  1
  O2-  O272  1  0.83234547  0.74751575  0.00209070  1
  O2-  O273  1  0.83409609  0.74520135  0.24993192  1
  O2-  O274  1  0.83199501  0.74652362  0.49954977  1
  O2-  O275  1  0.83174098  0.74725869  0.75094605  1
  O2-  O276  1  0.44770677  0.76422420  0.51417115  1
  O2-  O277  1  0.05495578  0.75271814  0.05027080  1
  O2-  O278  1  0.95553614  0.77119168  0.77286425  1
  O2-  O279  1  0.96093770  0.10649223  0.27924662  1
  O2-  O280  1  0.45292258  0.90391793  0.01818272  1
  O2-  O281  1  0.95007197  0.57183184  0.48344434  1
  O2-  O282  1  0.94650016  0.24931900  0.79795087  1
  O2-  O283  1  0.45080569  0.90331588  0.51545903  1
  O2-  O284  1  0.44895926  0.76469986  0.73559525  1
  O2-  O285  1  0.45211443  0.23764378  0.22971833  1
  O2-  O286  1  0.04651271  0.09615948  0.51321781  1
  O2-  O287  1  0.54607026  0.09915104  0.26474118  1
  O2-  O288  1  0.45408939  0.43456472  0.03145904  1
  O2-  O289  1  0.54715077  0.76379873  0.01031884  1
  O2-  O290  1  0.04630432  0.09707608  0.98787829  1
  O2-  O291  1  0.45449691  0.57028611  0.98604813  1
  O2-  O292  1  0.95376444  0.90481778  0.99025138  1
  O2-  O293  1  0.54678385  0.09748499  0.74278185  1
  O2-  O294  1  0.45173071  0.09761417  0.51404816  1
  O2-  O295  1  0.55734024  0.74742894  0.27569632  1
  O2-  O296  1  0.54474288  0.42824594  0.73520011  1
  O2-  O297  1  0.54640400  0.56947986  0.23678760  1
  O2-  O298  1  0.54410282  0.10094869  0.75438189  1
  O2-  O299  1  0.45256752  0.23493639  0.26877695  1
  O2-  O300  1  0.96240929  0.22284095  0.03345317  1
  O2-  O301  1  0.53209811  0.46832946  0.97968009  1
  O2-  O302  1  0.53071245  0.79650637  0.75900260  1
  O2-  O303  1  0.54869812  0.23717412  0.26676483  1
  O2-  O304  1  0.54527027  0.23651909  0.48721259  1
  O2-  O305  1  0.95438737  0.23835483  0.23361991  1
  O2-  O306  1  0.53784464  0.77607419  0.50277863  1
  O2-  O307  1  0.96208135  0.44410302  0.21564451  1
  O2-  O308  1  0.04745857  0.09872565  0.76459798  1
  O2-  O309  1  0.94564557  0.08549221  0.78616870  1
  O2-  O310  1  0.04587441  0.90391433  0.73402027  1
  O2-  O311  1  0.95466000  0.43151480  0.01482148  1
  O2-  O312  1  0.45520587  0.90231370  0.97922693  1
  O2-  O313  1  0.95535143  0.76614841  0.26463015  1
  O2-  O314  1  0.45532551  0.43142591  0.51458585  1
  O2-  O315  1  0.54243956  0.77112742  0.51752381  1
  O2-  O316  1  0.54321408  0.90084034  0.53014424  1
  O2-  O317  1  0.53240512  0.88577476  0.24386357  1
  O2-  O318  1  0.04901514  0.76272923  0.76077925  1
  O2-  O319  1  0.52874922  0.88238401  0.26197520  1
  O2-  O320  1  0.95201128  0.76374909  0.98586733  1
  O2-  O321  1  0.53734258  0.44009649  0.28328111  1
  O2-  O322  1  0.95811769  0.56070164  0.50613281  1
  O2-  O323  1  0.54393882  0.09771407  0.98423843  1
  O2-  O324  1  0.56183249  0.25897116  0.97024578  1
  O2-  O325  1  0.06467490  0.59263973  0.27782158  1
  O2-  O326  1  0.07557490  0.73124334  0.92895487  1
  O2-  O327  1  0.92567326  0.39731423  0.29500899  1
  O2-  O328  1  0.06604486  0.40571361  0.47246774  1
  O2-  O329  1  0.43660536  0.93001268  0.78333105  1
  O2-  O330  1  0.92624472  0.73157558  0.70692488  1
  O2-  O331  1  0.57157071  0.38946589  0.19866832  1
  O2-  O332  1  0.57479014  0.38712764  0.93448456  1
  O2-  O333  1  0.58105654  0.94304294  0.17975605  1
  O2-  O334  1  0.58179257  0.94311182  0.31923686  1
  O2-  O335  1  0.56408112  0.93192562  0.80346814  1
  O2-  O336  1  0.43507536  0.73549608  0.96667440  1
  O2-  O337  1  0.93737671  0.74016660  0.96728387  1
  O2-  O338  1  0.92925613  0.06917383  0.69951995  1
  O2-  O339  1  0.93254429  0.40759763  0.44919107  1
  O2-  O340  1  0.43350033  0.07255126  0.27851462  1
  O2-  O341  1  0.06482792  0.93079341  0.53185975  1
  O2-  O342  1  0.56343404  0.93127071  0.69731001  1
  O2-  O343  1  0.92943566  0.27694119  0.94998904  1
  O2-  O344  1  0.93153784  0.59572001  0.53043874  1
  O2-  O345  1  0.06535483  0.74141352  0.27765149  1
  O2-  O346  1  0.06508669  0.40558647  0.77717773  1
  O2-  O347  1  0.04916299  0.75681469  0.04401529  1
  O2-  O348  1  0.57087039  0.93553082  0.46145939  1
  O2-  O349  1  0.93458375  0.26003961  0.47258040  1
  O2-  O350  1  0.93256767  0.41090173  0.54898382  1
  O2-  O351  1  0.58287936  0.71612002  0.45466253  1
  O2-  O352  1  0.92353068  0.26529581  0.68053646  1
  O2-  O353  1  0.94575457  0.08558976  0.78617031  1
  O2-  O354  1  0.93679489  0.59682193  0.78203953  1
  O2-  O355  1  0.57975323  0.72255965  0.81111026  1
  O2-  O356  1  0.95193154  0.24146373  0.79193843  1
  O2-  O357  1  0.56894366  0.39363091  0.06681857  1
  O2-  O358  1  0.55468191  0.75265565  0.26925841  1
  O2-  O359  1  0.43825042  0.07140003  0.53100633  1
  O2-  O360  1  0.56454470  0.59074304  0.77739589  1
  O2-  O361  1  0.06575043  0.92483603  0.19343276  1
  O2-  O362  1  0.06334278  0.93060675  0.31256776  1
  O2-  O363  1  0.92811181  0.05475583  0.19516756  1
  O2-  O364  1  0.43696401  0.26481839  0.03345289  1
  O2-  O365  1  0.57385942  0.73286189  0.68624682  1
  O2-  O366  1  0.43624635  0.06948825  0.71725181  1
  O2-  O367  1  0.06462214  0.40624413  0.27815036  1
  O2-  O368  1  0.42897414  0.39908116  0.95969096  1
  O2-  O369  1  0.93471049  0.92662702  0.52618659  1
  O2-  O370  1  0.93634865  0.73870427  0.46506572  1
  O2-  O371  1  0.43477835  0.26035597  0.77490866  1
  O2-  O372  1  0.25014912  0.34689628  0.33879970  1
  O2-  O373  1  0.25006334  0.66971685  0.65998380  1
  O2-  O374  1  0.74991756  0.33028079  0.33719880  1
  O2-  O375  1  0.75034437  0.66903309  0.90653311  1
  O2-  O376  1  0.74953800  0.34609660  0.42541863  1
  O2-  O377  1  0.75024767  -0.00052571  0.08077465  1
  O2-  O378  1  0.25002875  0.33055180  0.42795494  1
  O2-  O379  1  0.25011392  -0.01674219  0.08103632  1
  O2-  O380  1  0.25000388  0.33463745  0.84798924  1
  O2-  O381  1  0.74962247  0.34354291  0.58608724  1
  O2-  O382  1  0.74989803  0.33184861  0.67279380  1
  O2-  O383  1  0.75020032  0.66777337  0.13973539  1
  O2-  O384  1  0.75009579  0.66677195  0.65620326  1
  O2-  O385  1  0.25022162  0.66595010  0.89543128  1
  O2-  O386  1  0.75014049  0.00027387  0.17173801  1
  O2-  O387  1  0.25011729  0.66819580  0.39592002  1
  O2-  O388  1  0.25014430  -0.01152503  0.17316118  1
  O2-  O389  1  0.24989531  0.66619029  0.10344919  1
  O2-  O390  1  0.24996506  -0.01051745  0.89188042  1
  O2-  O391  1  0.25011518  0.33295981  0.59268138  1
  O2-  O392  1  0.75010724  0.66635304  0.35865691  1
  O2-  O393  1  0.75004886  -0.00273727  0.84206489  1
  O2-  O394  1  0.75061206  0.33545474  0.09255963  1
  O2-  O395  1  0.74975115  -0.00134052  0.65511795  1
  O2-  O396  1  0.25006781  0.16418674  0.36603400  1
  O2-  O397  1  0.24999965  0.50024431  0.81333680  1
  O2-  O398  1  0.75012319  0.83306847  0.66275599  1
  O2-  O399  1  0.75000163  0.16655499  0.06914710  1
  O2-  O400  1  0.75001501  0.16704263  0.91443910  1
  O2-  O401  1  0.74980471  0.50018240  0.44798396  1
  O2-  O402  1  0.75001730  0.49725332  0.66765638  1
  O2-  O403  1  0.74998493  0.83264613  0.38494607  1
  O2-  O404  1  0.75003691  0.50208893  0.58528346  1
  O2-  O405  1  0.75015790  0.50677332  0.05409727  1
  O2-  O406  1  0.24989155  0.16584376  0.87044324  1
  O2-  O407  1  0.75010138  0.50307966  0.83891579  1
  O2-  O408  1  0.74985295  0.49917806  0.13500803  1
  O2-  O409  1  0.25007633  0.50941696  0.12807116  1
  O2-  O410  1  0.74988990  0.83268865  0.83052909  1
  O2-  O411  1  0.24990709  0.83483929  0.65861937  1
  O2-  O412  1  0.75010736  0.83526669  0.92307579  1
  O2-  O413  1  0.75029513  0.50019015  0.37135248  1
  O2-  O414  1  0.25009294  0.50810701  0.89468690  1
  O2-  O415  1  0.74993701  0.16688297  0.83486559  1
  O2-  O416  1  0.75003963  0.17038197  0.15205218  1
  O2-  O417  1  0.25005930  0.49757310  0.65359203  1
  O2-  O418  1  0.25000017  0.16496893  0.11474799  1
  O2-  O419  1  0.24997318  0.50417949  0.33715406  1
  O2-  O420  1  0.97257086  0.66573136  0.62525138  1
  O2-  O421  1  0.52615865  0.01216161  0.37658476  1
  O2-  O422  1  0.52727608  0.65816736  0.61974671  1
  O2-  O423  1  0.97188620  0.33594352  0.62406826  1
  O2-  O424  1  0.02565595  0.00463525  0.11995079  1
  O2-  O425  1  0.47676959  0.33266581  0.87119275  1
  O2-  O426  1  0.45895571  0.00161144  0.12896668  1
  O2-  O427  1  0.97230342  0.32502585  0.37206510  1
  O2-  O428  1  0.46888840  0.66359929  0.62500788  1
  O2-  O429  1  0.03486112  0.66501155  0.62514284  1
  O2-  O430  1  0.97156755  -0.00107194  0.37598489  1
  O2-  O431  1  0.53524141  0.00887610  0.11576903  1
  O2-  O432  1  0.52709533  0.66539760  0.12419492  1
  O2-  O433  1  0.52859592  0.65593713  0.37399558  1
  O2-  O434  1  0.02452846  0.66743075  0.38356972  1
  O2-  O435  1  0.02751015  0.33034537  0.88008138  1
  O2-  O436  1  0.03304875  0.32516808  0.37693387  1
  O2-  O437  1  0.46510462  0.66610678  0.37572526  1
  O2-  O438  1  0.47165272  0.33377513  0.37618821  1
  O2-  O439  1  0.02404207  0.65824474  0.86874910  1
  O2-  O440  1  0.97810717  -0.00051817  0.62213851  1
  O2-  O441  1  0.03900467  0.33397336  0.62436649  1
  O2-  O442  1  0.46733747  -0.00361481  0.37618008  1
  O2-  O443  1  0.52151261  0.66562376  0.88263312  1
