# generated using pymatgen
data_La7(Ru4O11)2
_symmetry_space_group_name_H-M   'P 1'
_cell_length_a   23.98948451
_cell_length_b   16.82874196
_cell_length_c   15.42718586
_cell_angle_alpha   89.99889383
_cell_angle_beta   89.99950517
_cell_angle_gamma   89.99970033
_symmetry_Int_Tables_number   1
_chemical_formula_structural   La7(Ru4O11)2
_chemical_formula_sum   'La84 Ru96 O264'
_cell_volume   6228.15308658
_cell_formula_units_Z   12
loop_
 _symmetry_equiv_pos_site_id
 _symmetry_equiv_pos_as_xyz
  1  'x, y, z'
loop_
 _atom_type_symbol
 _atom_type_oxidation_number
  La3+  3.0
  Ru4+  4.0
  O2-  -2.0
loop_
 _atom_site_type_symbol
 _atom_site_label
 _atom_site_symmetry_multiplicity
 _atom_site_fract_x
 _atom_site_fract_y
 _atom_site_fract_z
 _atom_site_occupancy
  La3+  La0  1  0.14054161  -0.00152015  0.12746349  1
  La3+  La1  1  0.13833519  -0.00023455  0.37188480  1
  La3+  La2  1  0.13877974  0.00031569  0.62294363  1
  La3+  La3  1  0.13821773  -0.00025260  0.87634213  1
  La3+  La4  1  0.13867205  0.33363696  0.12604472  1
  La3+  La5  1  0.13787263  0.33249226  0.37540684  1
  La3+  La6  1  0.13867118  0.33222345  0.62490775  1
  La3+  La7  1  0.13863667  0.33429278  0.87479094  1
  La3+  La8  1  0.13804826  0.66630822  0.12501722  1
  La3+  La9  1  0.14298515  0.66719091  0.37596835  1
  La3+  La10  1  0.14032660  0.66530987  0.62285172  1
  La3+  La11  1  0.13795330  0.66512513  0.87584635  1
  La3+  La12  1  0.63861692  -0.00089638  0.12512009  1
  La3+  La13  1  0.63753050  0.00152211  0.37583753  1
  La3+  La14  1  0.63796555  0.00039343  0.62465874  1
  La3+  La15  1  0.63742154  -0.00112113  0.87439962  1
  La3+  La16  1  0.63953281  0.33346191  0.12484992  1
  La3+  La17  1  0.64029574  0.33289951  0.37588957  1
  La3+  La18  1  0.64004267  0.33353014  0.62476982  1
  La3+  La19  1  0.63998343  0.33350297  0.87496746  1
  La3+  La20  1  0.63823985  0.66626429  0.12508781  1
  La3+  La21  1  0.63891672  0.66603689  0.37643005  1
  La3+  La22  1  0.63948448  0.66533321  0.62377165  1
  La3+  La23  1  0.63766398  0.66632935  0.87472235  1
  La3+  La24  1  0.36648352  -0.00188908  0.11800647  1
  La3+  La25  1  0.36052329  -0.00046029  0.37219938  1
  La3+  La26  1  0.36188996  0.00103902  0.62475414  1
  La3+  La27  1  0.36702770  -0.00089789  0.88373341  1
  La3+  La28  1  0.36226392  0.33328631  0.12399110  1
  La3+  La29  1  0.36206294  0.33275492  0.37484871  1
  La3+  La30  1  0.36106407  0.33367960  0.62584464  1
  La3+  La31  1  0.36070501  0.33432796  0.87485274  1
  La3+  La32  1  0.36286383  0.66638571  0.12681189  1
  La3+  La33  1  0.35847776  0.66658282  0.37528291  1
  La3+  La34  1  0.36099515  0.66458783  0.62368449  1
  La3+  La35  1  0.36213854  0.66549741  0.87464071  1
  La3+  La36  1  0.86136629  -0.00149328  0.12499712  1
  La3+  La37  1  0.86181370  -0.00008641  0.37391911  1
  La3+  La38  1  0.86121392  0.00000587  0.62479645  1
  La3+  La39  1  0.86131135  -0.00148839  0.87637578  1
  La3+  La40  1  0.86231221  0.33249936  0.12496414  1
  La3+  La41  1  0.86131679  0.33288317  0.37688310  1
  La3+  La42  1  0.86114940  0.33276938  0.62207653  1
  La3+  La43  1  0.86069787  0.33263231  0.87614829  1
  La3+  La44  1  0.86301436  0.66711224  0.12373390  1
  La3+  La45  1  0.86005079  0.66629384  0.37592079  1
  La3+  La46  1  0.86016963  0.66629286  0.62401483  1
  La3+  La47  1  0.86131762  0.66640329  0.87566654  1
  La3+  La48  1  -0.00032406  0.83284371  0.87058574  1
  La3+  La49  1  0.00199242  0.83891863  0.12032589  1
  La3+  La50  1  0.50193281  0.83602454  0.37750867  1
  La3+  La51  1  -0.00080449  0.16351685  0.87871419  1
  La3+  La52  1  0.49919276  0.83201529  0.61764327  1
  La3+  La53  1  0.00106139  0.83483038  0.38621951  1
  La3+  La54  1  0.50082412  0.83277167  0.12651976  1
  La3+  La55  1  0.00053895  0.50660535  0.87246973  1
  La3+  La56  1  0.50152940  0.49805256  0.11550766  1
  La3+  La57  1  0.00090562  0.16552742  0.38573308  1
  La3+  La58  1  0.49793104  0.83641099  0.10489244  1
  La3+  La59  1  -0.00032509  0.49707213  0.89209988  1
  La3+  La60  1  0.49902200  0.16388825  0.61403402  1
  La3+  La61  1  -0.00097007  0.83331911  0.36396669  1
  La3+  La62  1  0.49881736  0.50095292  0.38571686  1
  La3+  La63  1  0.49804648  0.16439406  0.12838043  1
  La3+  La64  1  0.00022258  0.49735663  0.61224101  1
  La3+  La65  1  0.50029217  0.16647300  0.63605558  1
  La3+  La66  1  0.50098066  0.16729813  0.36781657  1
  La3+  La67  1  0.49900396  0.16513087  0.88415165  1
  La3+  La68  1  -0.00539746  0.49358380  0.62554305  1
  La3+  La69  1  0.00007679  0.83402198  0.63385067  1
  La3+  La70  1  -0.00105343  0.49741787  0.36532090  1
  La3+  La71  1  0.49995942  0.50045831  0.86560201  1
  La3+  La72  1  0.75006277  0.87663111  0.24842869  1
  La3+  La73  1  0.75012706  0.16873610  0.24507472  1
  La3+  La74  1  0.75046573  0.87583796  0.73835123  1
  La3+  La75  1  0.24989603  0.83515492  0.25063766  1
  La3+  La76  1  0.25013939  0.83332579  0.80517008  1
  La3+  La77  1  0.24968584  0.10180408  -0.00168014  1
  La3+  La78  1  0.74986402  0.49837089  0.79202983  1
  La3+  La79  1  0.24958529  0.53633228  0.25166068  1
  La3+  La80  1  0.75013918  0.50105469  0.46525137  1
  La3+  La81  1  0.24982191  0.16771021  0.70526176  1
  La3+  La82  1  0.24962936  0.16356817  0.27946990  1
  La3+  La83  1  0.75001550  0.20744256  0.01969436  1
  Ru4+  Ru84  1  -0.00028147  0.00076056  -0.00337744  1
  Ru4+  Ru85  1  -0.00236893  0.00581213  0.24872069  1
  Ru4+  Ru86  1  0.00100466  0.00187144  0.49871467  1
  Ru4+  Ru87  1  -0.00001595  -0.00270282  0.75243005  1
  Ru4+  Ru88  1  0.00049924  0.33906525  0.00207465  1
  Ru4+  Ru89  1  0.00004731  0.33235232  0.24972028  1
  Ru4+  Ru90  1  0.00191255  0.32602752  0.50268508  1
  Ru4+  Ru91  1  0.00055441  0.32622393  0.74740607  1
  Ru4+  Ru92  1  -0.00110404  0.66668539  0.00129266  1
  Ru4+  Ru93  1  -0.00008925  0.66603883  0.24701336  1
  Ru4+  Ru94  1  0.00140215  0.67062454  0.50032234  1
  Ru4+  Ru95  1  -0.00264639  0.66766263  0.75098898  1
  Ru4+  Ru96  1  0.49614545  0.00062323  -0.00161075  1
  Ru4+  Ru97  1  0.50337021  0.00358338  0.24966609  1
  Ru4+  Ru98  1  0.49659560  -0.00390972  0.50304149  1
  Ru4+  Ru99  1  0.50053865  -0.00105994  0.75018736  1
  Ru4+  Ru100  1  0.49922692  0.33252600  0.00295338  1
  Ru4+  Ru101  1  0.49976387  0.33427750  0.24853617  1
  Ru4+  Ru102  1  0.50078988  0.33570783  0.49921401  1
  Ru4+  Ru103  1  0.50091063  0.33592943  0.75065249  1
  Ru4+  Ru104  1  0.49973622  0.66794113  -0.00087044  1
  Ru4+  Ru105  1  0.50322174  0.66836777  0.25267062  1
  Ru4+  Ru106  1  0.49880001  0.66393320  0.50124081  1
  Ru4+  Ru107  1  0.49968136  0.66689210  0.74807535  1
  Ru4+  Ru108  1  0.11196146  0.16623035  0.00084538  1
  Ru4+  Ru109  1  0.11108001  0.16652518  0.24978396  1
  Ru4+  Ru110  1  0.11228079  0.16642299  0.50043006  1
  Ru4+  Ru111  1  0.11118127  0.16851096  0.74884520  1
  Ru4+  Ru112  1  0.11622949  0.49546140  0.00056953  1
  Ru4+  Ru113  1  0.11183230  0.50018087  0.24928816  1
  Ru4+  Ru114  1  0.11404850  0.50048037  0.49942273  1
  Ru4+  Ru115  1  0.11611732  0.50106782  0.75040768  1
  Ru4+  Ru116  1  0.11337745  0.83580354  0.00078622  1
  Ru4+  Ru117  1  0.11459083  0.82966469  0.24924774  1
  Ru4+  Ru118  1  0.11311126  0.83225892  0.50076535  1
  Ru4+  Ru119  1  0.11103622  0.83345845  0.74985346  1
  Ru4+  Ru120  1  0.61188536  0.16776634  -0.00022447  1
  Ru4+  Ru121  1  0.61214848  0.16731766  0.24985706  1
  Ru4+  Ru122  1  0.61599941  0.17035300  0.50005922  1
  Ru4+  Ru123  1  0.61304117  0.16654615  0.75030899  1
  Ru4+  Ru124  1  0.61293142  0.49943074  0.00038886  1
  Ru4+  Ru125  1  0.61203239  0.50001039  0.24996489  1
  Ru4+  Ru126  1  0.61130275  0.49942493  0.50066127  1
  Ru4+  Ru127  1  0.61033365  0.49872309  0.74959107  1
  Ru4+  Ru128  1  0.61304091  0.83478624  -0.00040450  1
  Ru4+  Ru129  1  0.61285962  0.83265470  0.25135473  1
  Ru4+  Ru130  1  0.61312352  0.83268383  0.50026025  1
  Ru4+  Ru131  1  0.61055500  0.83512653  0.75088613  1
  Ru4+  Ru132  1  0.38928249  0.16599540  0.00045283  1
  Ru4+  Ru133  1  0.38788213  0.16730772  0.24945478  1
  Ru4+  Ru134  1  0.38778945  0.16720771  0.50037206  1
  Ru4+  Ru135  1  0.38938953  0.16670237  0.75092628  1
  Ru4+  Ru136  1  0.38675898  0.49807885  0.00053088  1
  Ru4+  Ru137  1  0.38439080  0.49558865  0.25152490  1
  Ru4+  Ru138  1  0.38613934  0.50171576  0.49947528  1
  Ru4+  Ru139  1  0.38667114  0.50116476  0.75010608  1
  Ru4+  Ru140  1  0.38755016  0.83629052  -0.00185094  1
  Ru4+  Ru141  1  0.38413121  0.83089534  0.24972591  1
  Ru4+  Ru142  1  0.38529963  0.83311881  0.50078565  1
  Ru4+  Ru143  1  0.38931129  0.83358205  0.75070765  1
  Ru4+  Ru144  1  0.88528871  0.16203423  0.00033025  1
  Ru4+  Ru145  1  0.88760682  0.16807928  0.24864300  1
  Ru4+  Ru146  1  0.88713950  0.16969338  0.50033902  1
  Ru4+  Ru147  1  0.88833482  0.16786327  0.74887495  1
  Ru4+  Ru148  1  0.88672986  0.49940439  0.00111518  1
  Ru4+  Ru149  1  0.88814532  0.49941400  0.24951670  1
  Ru4+  Ru150  1  0.88378195  0.50376393  0.49861727  1
  Ru4+  Ru151  1  0.88587727  0.50109410  0.74920344  1
  Ru4+  Ru152  1  0.88399061  0.83735117  -0.00226037  1
  Ru4+  Ru153  1  0.88808375  0.83439933  0.25040657  1
  Ru4+  Ru154  1  0.88786451  0.83277854  0.49968766  1
  Ru4+  Ru155  1  0.88854341  0.83575694  0.74987515  1
  Ru4+  Ru156  1  0.24987555  0.39415383  0.26093257  1
  Ru4+  Ru157  1  0.75036940  0.91351729  0.49991757  1
  Ru4+  Ru158  1  0.25017951  0.95213482  0.73901678  1
  Ru4+  Ru159  1  0.75000060  0.57903139  0.24820595  1
  Ru4+  Ru160  1  0.24997572  0.08713187  0.49874671  1
  Ru4+  Ru161  1  0.24977421  0.71437479  0.73620818  1
  Ru4+  Ru162  1  0.25011325  0.57844541  0.00264500  1
  Ru4+  Ru163  1  0.25006275  0.42271150  0.74901042  1
  Ru4+  Ru164  1  0.74999451  0.72383352  0.25755081  1
  Ru4+  Ru165  1  0.24999596  0.42443268  0.50338477  1
  Ru4+  Ru166  1  0.24989171  0.24650940  0.49517618  1
  Ru4+  Ru167  1  0.75021525  0.75203023  0.50041422  1
  Ru4+  Ru168  1  0.74979169  0.74797077  0.00573781  1
  Ru4+  Ru169  1  0.75005250  0.72114507  0.74924315  1
  Ru4+  Ru170  1  0.75016146  0.42261368  -0.00092422  1
  Ru4+  Ru171  1  0.74992607  0.57939606  -0.00077788  1
  Ru4+  Ru172  1  0.24986843  0.75325737  0.00266928  1
  Ru4+  Ru173  1  0.75009577  0.08132160  0.74437291  1
  Ru4+  Ru174  1  0.74998140  0.25358642  0.74263256  1
  Ru4+  Ru175  1  0.75015223  0.07888486  0.50307931  1
  Ru4+  Ru176  1  0.75040371  0.05649338  -0.00441113  1
  Ru4+  Ru177  1  0.24965694  0.91545267  0.49870824  1
  Ru4+  Ru178  1  0.75021084  0.41780026  0.25091465  1
  Ru4+  Ru179  1  0.24997013  0.26436310  -0.00259415  1
  O2-  O180  1  0.16432567  0.07945139  0.00086011  1
  O2-  O181  1  0.16688532  0.08253582  0.24962512  1
  O2-  O182  1  0.16780381  0.08132640  0.49981007  1
  O2-  O183  1  0.16850374  0.08161577  0.75103019  1
  O2-  O184  1  0.16656914  0.41530210  -0.00032775  1
  O2-  O185  1  0.16727889  0.41370836  0.25100049  1
  O2-  O186  1  0.16819997  0.41416257  0.49933252  1
  O2-  O187  1  0.16679603  0.41438983  0.74983125  1
  O2-  O188  1  0.16793942  0.74818972  0.00082378  1
  O2-  O189  1  0.16795479  0.74776881  0.24784673  1
  O2-  O190  1  0.16606340  0.74825177  0.50015137  1
  O2-  O191  1  0.16716615  0.74552278  0.75001076  1
  O2-  O192  1  0.66761789  0.07995016  0.00069629  1
  O2-  O193  1  0.66862329  0.07881499  0.24991507  1
  O2-  O194  1  0.66783463  0.08082607  0.50028567  1
  O2-  O195  1  0.66812894  0.08014791  0.74978125  1
  O2-  O196  1  0.66772156  0.41513364  -0.00014903  1
  O2-  O197  1  0.66682368  0.41471199  0.24976030  1
  O2-  O198  1  0.66743612  0.41423771  0.49961781  1
  O2-  O199  1  0.66736089  0.41446865  0.75120542  1
  O2-  O200  1  0.66792143  0.74644991  0.00029105  1
  O2-  O201  1  0.66750693  0.74621992  0.25049051  1
  O2-  O202  1  0.66758954  0.74836507  0.49987720  1
  O2-  O203  1  0.66692920  0.74624279  0.74967772  1
  O2-  O204  1  0.33360392  0.25252102  -0.00018481  1
  O2-  O205  1  0.33315668  0.25316367  0.25020653  1
  O2-  O206  1  0.33323110  0.25300533  0.49880495  1
  O2-  O207  1  0.33302743  0.25353827  0.75027375  1
  O2-  O208  1  0.33250025  0.58699039  0.00088734  1
  O2-  O209  1  0.33265870  0.58578317  0.24729645  1
  O2-  O210  1  0.33395399  0.58491889  0.49969098  1
  O2-  O211  1  0.33418046  0.58468651  0.75048811  1
  O2-  O212  1  0.33120522  0.91852542  0.00058557  1
  O2-  O213  1  0.33269746  0.91750399  0.25040917  1
  O2-  O214  1  0.33339010  0.91909144  0.49959859  1
  O2-  O215  1  0.33437096  0.92110457  0.75036531  1
  O2-  O216  1  0.83450670  0.25469619  -0.00064419  1
  O2-  O217  1  0.83335859  0.25127667  0.25061161  1
  O2-  O218  1  0.83204664  0.25116626  0.49888996  1
  O2-  O219  1  0.83327177  0.25195869  0.75093822  1
  O2-  O220  1  0.83211613  0.58580842  -0.00031890  1
  O2-  O221  1  0.83288605  0.58555735  0.24976677  1
  O2-  O222  1  0.83224324  0.58527483  0.49988762  1
  O2-  O223  1  0.83216018  0.58614168  0.75042774  1
  O2-  O224  1  0.83211312  0.91868089  0.00026665  1
  O2-  O225  1  0.83403216  0.92184283  0.25041178  1
  O2-  O226  1  0.83029860  0.91975366  0.49997648  1
  O2-  O227  1  0.83506830  0.92161824  0.75014066  1
  O2-  O228  1  0.16701160  0.25234806  -0.00092609  1
  O2-  O229  1  0.16794291  0.25211953  0.25044148  1
  O2-  O230  1  0.16753624  0.25226165  0.49977285  1
  O2-  O231  1  0.16666396  0.25183969  0.75033200  1
  O2-  O232  1  0.16769229  0.58644435  0.00147717  1
  O2-  O233  1  0.16630855  0.58598563  0.24833313  1
  O2-  O234  1  0.16606791  0.58507222  0.49975799  1
  O2-  O235  1  0.16794708  0.58478936  0.74901769  1
  O2-  O236  1  0.16788523  0.91767573  -0.00041047  1
  O2-  O237  1  0.16823403  0.91749624  0.24954452  1
  O2-  O238  1  0.16857406  0.91953617  0.49976483  1
  O2-  O239  1  0.16545889  0.92040273  0.75043072  1
  O2-  O240  1  0.66470169  0.25360075  -0.00009737  1
  O2-  O241  1  0.66550731  0.25265891  0.24988406  1
  O2-  O242  1  0.66672979  0.25193284  0.50014984  1
  O2-  O243  1  0.66773482  0.25246506  0.75058457  1
  O2-  O244  1  0.66814598  0.58595468  -0.00070062  1
  O2-  O245  1  0.66755373  0.58585493  0.24996938  1
  O2-  O246  1  0.66665900  0.58539233  0.50039367  1
  O2-  O247  1  0.66790292  0.58663871  0.75052112  1
  O2-  O248  1  0.66673929  0.91945395  0.00004099  1
  O2-  O249  1  0.66458375  0.92222062  0.24951453  1
  O2-  O250  1  0.66806428  0.91903572  0.50068990  1
  O2-  O251  1  0.66584190  0.92232743  0.74969607  1
  O2-  O252  1  0.33584830  0.07937364  0.00032416  1
  O2-  O253  1  0.33442339  0.08100350  0.24980811  1
  O2-  O254  1  0.33172453  0.07991772  0.49953827  1
  O2-  O255  1  0.33297755  0.07982711  0.74992626  1
  O2-  O256  1  0.33369467  0.41493538  -0.00000247  1
  O2-  O257  1  0.33299438  0.41284127  0.25061105  1
  O2-  O258  1  0.33281635  0.41338566  0.49862584  1
  O2-  O259  1  0.33322798  0.41408300  0.75003841  1
  O2-  O260  1  0.33297591  0.74844744  0.00102847  1
  O2-  O261  1  0.33206683  0.74799692  0.24818711  1
  O2-  O262  1  0.33208584  0.74859958  0.49966952  1
  O2-  O263  1  0.33414710  0.74576680  0.75043146  1
  O2-  O264  1  0.83249366  0.08106608  0.00003399  1
  O2-  O265  1  0.83115568  0.08008422  0.25090632  1
  O2-  O266  1  0.83247927  0.08057393  0.50005006  1
  O2-  O267  1  0.83141679  0.08068057  0.74979144  1
  O2-  O268  1  0.83191133  0.41456397  -0.00066995  1
  O2-  O269  1  0.83289217  0.41460544  0.24975555  1
  O2-  O270  1  0.83220521  0.41438167  0.49923482  1
  O2-  O271  1  0.83128808  0.41437573  0.75234581  1
  O2-  O272  1  0.83188865  0.74730762  0.00131999  1
  O2-  O273  1  0.83299406  0.74606982  0.25000630  1
  O2-  O274  1  0.83245619  0.74818945  0.50033933  1
  O2-  O275  1  0.83232509  0.74569282  0.75039893  1
  O2-  O276  1  0.54568134  0.57011484  0.76294091  1
  O2-  O277  1  0.45895285  0.89482654  0.99156870  1
  O2-  O278  1  0.95329695  0.23259000  0.02026850  1
  O2-  O279  1  0.45807411  0.56238192  0.24202079  1
  O2-  O280  1  0.03926280  0.10650156  0.02994254  1
  O2-  O281  1  0.45211560  0.90397629  0.01619204  1
  O2-  O282  1  0.54658080  0.57222426  0.49058402  1
  O2-  O283  1  0.45156195  0.42980574  0.76472617  1
  O2-  O284  1  0.54916908  0.76243978  0.48709707  1
  O2-  O285  1  0.45043796  0.42521360  0.26601995  1
  O2-  O286  1  0.04317018  0.56758966  0.02087982  1
  O2-  O287  1  0.45058106  0.09549997  0.01532529  1
  O2-  O288  1  0.45808643  0.56245975  0.24169795  1
  O2-  O289  1  0.45311933  0.90328843  0.27119001  1
  O2-  O290  1  0.45491862  0.09876387  0.26408285  1
  O2-  O291  1  0.54493788  0.90423207  0.51469560  1
  O2-  O292  1  0.95746558  0.77034661  0.03399620  1
  O2-  O293  1  0.54435574  0.56913145  0.51037483  1
  O2-  O294  1  0.54921010  0.90336952  0.23728392  1
  O2-  O295  1  0.95770295  0.44053654  0.78138657  1
  O2-  O296  1  0.54796813  0.56614295  0.98646161  1
  O2-  O297  1  0.95161038  0.23266179  0.73876029  1
  O2-  O298  1  0.45801059  0.77768146  0.47147881  1
  O2-  O299  1  0.54589403  0.23539716  0.51189557  1
  O2-  O300  1  0.55086613  0.56994970  0.23581626  1
  O2-  O301  1  0.04642709  0.90215791  0.26341758  1
  O2-  O302  1  0.04889222  0.42840002  0.76200642  1
  O2-  O303  1  0.03354932  0.11280789  0.74430640  1
  O2-  O304  1  0.95489328  0.76563537  0.76386077  1
  O2-  O305  1  0.95116117  0.23650082  0.98138307  1
  O2-  O306  1  0.03876230  0.56113994  0.71599974  1
  O2-  O307  1  0.54802095  0.43126392  0.73649843  1
  O2-  O308  1  0.04503719  0.56748997  0.48454026  1
  O2-  O309  1  0.45098237  0.90481450  0.23206331  1
  O2-  O310  1  0.54738630  0.09696958  0.48241332  1
  O2-  O311  1  0.95282605  0.43252522  0.51151395  1
  O2-  O312  1  0.54549782  0.42704647  0.48450012  1
  O2-  O313  1  0.95428452  0.43289901  0.23576735  1
  O2-  O314  1  0.45386388  0.76338682  0.23917044  1
  O2-  O315  1  0.54789109  0.09402451  0.98556700  1
  O2-  O316  1  0.54557490  0.23773294  0.98563025  1
  O2-  O317  1  0.45768442  0.10434761  0.99062224  1
  O2-  O318  1  0.04845507  0.23922881  0.73543088  1
  O2-  O319  1  0.54836819  0.42847162  0.26571854  1
  O2-  O320  1  0.96768833  0.11869845  0.24533167  1
  O2-  O321  1  0.04884289  0.57109384  0.98280765  1
  O2-  O322  1  0.04444591  0.22810571  0.97047073  1
  O2-  O323  1  0.45194743  0.56647739  0.01345013  1
  O2-  O324  1  0.56501015  0.25988629  0.72236160  1
  O2-  O325  1  0.06338612  0.26342055  0.53087327  1
  O2-  O326  1  0.93691401  0.73531314  0.28308410  1
  O2-  O327  1  0.56252974  0.07091670  0.46916886  1
  O2-  O328  1  0.06436793  0.40291337  0.30728392  1
  O2-  O329  1  0.93446568  0.92708546  0.47188674  1
  O2-  O330  1  0.93626336  0.59749036  0.43722299  1
  O2-  O331  1  0.06553456  0.07404353  0.27974565  1
  O2-  O332  1  0.93502412  0.06976615  0.80952933  1
  O2-  O333  1  0.07020049  0.27514649  0.04756289  1
  O2-  O334  1  0.43360116  0.92983789  0.96686628  1
  O2-  O335  1  0.43422649  0.26143182  0.02734249  1
  O2-  O336  1  0.06556655  0.92492480  0.52910730  1
  O2-  O337  1  0.06400832  0.92320391  0.27957845  1
  O2-  O338  1  0.56407263  0.40171158  0.03199557  1
  O2-  O339  1  0.93781769  0.41058525  0.53226100  1
  O2-  O340  1  0.56357962  0.07019313  0.18796281  1
  O2-  O341  1  0.07770261  0.05661312  0.71441132  1
  O2-  O342  1  0.06345496  0.59773187  0.30982368  1
  O2-  O343  1  0.92536100  0.39401961  0.70187784  1
  O2-  O344  1  0.06686656  0.74437196  0.80643843  1
  O2-  O345  1  0.43266318  0.06902452  0.96462667  1
  O2-  O346  1  0.93319060  0.59189794  0.55649001  1
  O2-  O347  1  0.93994890  0.74755907  0.04676659  1
  O2-  O348  1  0.06396853  0.40530134  0.19183649  1
  O2-  O349  1  0.93211999  0.07420581  0.69790799  1
  O2-  O350  1  0.06319289  0.26204188  0.21928949  1
  O2-  O351  1  0.07106211  0.06486973  0.95716719  1
  O2-  O352  1  0.06490936  0.92510753  0.02971475  1
  O2-  O353  1  0.06531691  0.07463441  0.47205710  1
  O2-  O354  1  0.42681273  0.72756238  0.54639799  1
  O2-  O355  1  0.92885728  0.72311901  0.92534502  1
  O2-  O356  1  0.42238734  0.61092492  0.29167883  1
  O2-  O357  1  0.93688935  0.92974479  0.96694497  1
  O2-  O358  1  0.07456215  0.60367155  0.79828515  1
  O2-  O359  1  0.43475290  0.07180645  0.52777954  1
  O2-  O360  1  0.56343147  0.92864277  0.78208562  1
  O2-  O361  1  0.06380270  0.59747555  0.19052466  1
  O2-  O362  1  0.06457732  0.73674459  0.68800257  1
  O2-  O363  1  0.93680904  0.40248724  0.03083410  1
  O2-  O364  1  0.92244873  0.05734469  0.21319327  1
  O2-  O365  1  0.06359957  0.40320517  0.46651391  1
  O2-  O366  1  0.93531121  0.92419771  0.22026020  1
  O2-  O367  1  0.93664331  0.26565354  0.21821459  1
  O2-  O368  1  0.56482291  0.73678081  0.28315662  1
  O2-  O369  1  0.93516858  0.25994573  0.52714223  1
  O2-  O370  1  0.56381900  0.06907034  0.31214568  1
  O2-  O371  1  0.56337531  0.07215426  0.78319092  1
  O2-  O372  1  0.25005107  0.33013123  0.82420181  1
  O2-  O373  1  0.24985147  0.65846818  0.64152470  1
  O2-  O374  1  0.74992035  0.66875473  0.40678404  1
  O2-  O375  1  0.25005316  -0.00391602  0.92608402  1
  O2-  O376  1  0.74979788  0.66994214  0.59375708  1
  O2-  O377  1  0.25012958  0.01347095  0.83675760  1
  O2-  O378  1  0.25022771  0.65319572  0.83074211  1
  O2-  O379  1  0.25005361  0.32374708  0.17039896  1
  O2-  O380  1  0.25007409  0.00932669  0.64148844  1
  O2-  O381  1  0.74983314  0.33158622  0.65818303  1
  O2-  O382  1  0.25013158  0.33041814  0.68125154  1
  O2-  O383  1  0.24995920  0.66585222  0.34212071  1
  O2-  O384  1  0.25018643  -0.00082843  0.32618655  1
  O2-  O385  1  0.25008839  0.66841207  0.93237553  1
  O2-  O386  1  0.25018092  0.33272063  0.56848291  1
  O2-  O387  1  0.25023191  0.00117320  0.42149323  1
  O2-  O388  1  0.74995938  0.66289449  0.15126115  1
  O2-  O389  1  0.74994146  0.33174952  0.17742010  1
  O2-  O390  1  0.24995083  0.34403152  0.91719217  1
  O2-  O391  1  0.74988359  0.33520400  0.34192294  1
  O2-  O392  1  0.74997634  0.33400561  0.07251304  1
  O2-  O393  1  0.25004432  0.34481180  0.08085640  1
  O2-  O394  1  0.75008653  0.33493351  0.90639680  1
  O2-  O395  1  0.25002494  -0.00032977  0.15449874  1
  O2-  O396  1  0.24999499  0.16710283  0.40076048  1
  O2-  O397  1  0.75006386  0.50073686  0.66734561  1
  O2-  O398  1  0.24983467  0.18500767  0.90085006  1
  O2-  O399  1  0.24976606  0.16215803  0.16274579  1
  O2-  O400  1  0.75001597  0.16722829  0.81628040  1
  O2-  O401  1  0.75000579  0.82731987  0.61038622  1
  O2-  O402  1  0.24991036  0.83341672  0.65509054  1
  O2-  O403  1  0.24995142  0.50326986  0.83065566  1
  O2-  O404  1  0.74993402  0.17223780  0.44594596  1
  O2-  O405  1  0.74988503  0.15808282  0.90337968  1
  O2-  O406  1  0.25004065  0.49596047  0.58803474  1
  O2-  O407  1  0.74995641  0.82659306  0.38093156  1
  O2-  O408  1  0.75009177  0.49929990  0.58377544  1
  O2-  O409  1  0.74986672  0.82595020  0.11976449  1
  O2-  O410  1  0.24987442  0.18831075  0.08751737  1
  O2-  O411  1  0.75001074  0.83894082  0.94389889  1
  O2-  O412  1  0.74996465  0.50153032  0.33488709  1
  O2-  O413  1  0.25010909  0.82926585  0.56474106  1
  O2-  O414  1  0.74997379  0.15962403  0.12765823  1
  O2-  O415  1  0.24980093  0.16401717  0.82272218  1
  O2-  O416  1  0.25009765  0.16725963  0.58384696  1
  O2-  O417  1  0.24994559  0.49688726  0.92088769  1
  O2-  O418  1  0.74986454  0.82390407  0.85918263  1
  O2-  O419  1  0.75009577  0.16487001  0.36410881  1
  O2-  O420  1  0.47148353  0.00096077  0.12690265  1
  O2-  O421  1  0.02275140  0.66806951  0.88445676  1
  O2-  O422  1  0.02816256  0.33400692  0.87531675  1
  O2-  O423  1  0.98027860  0.33124611  0.62606862  1
  O2-  O424  1  0.96565154  0.00382922  0.37142986  1
  O2-  O425  1  0.96996209  -0.00581255  0.61944051  1
  O2-  O426  1  0.47418765  0.33603588  0.12891264  1
  O2-  O427  1  0.46106552  0.66805777  0.12060638  1
  O2-  O428  1  0.53889143  0.66860200  0.12313836  1
  O2-  O429  1  0.97137464  -0.00208074  0.11523714  1
  O2-  O430  1  0.47544166  0.66851240  0.37861741  1
  O2-  O431  1  0.03012656  -0.00236531  0.38074820  1
  O2-  O432  1  0.47602510  0.66362856  0.63313112  1
  O2-  O433  1  0.97308513  0.66300205  0.13096400  1
  O2-  O434  1  0.97405168  0.67148782  0.63072141  1
  O2-  O435  1  0.97206078  0.33257583  0.37543087  1
  O2-  O436  1  0.46378256  0.66663615  0.87458940  1
  O2-  O437  1  0.46198152  0.33203819  0.62439983  1
  O2-  O438  1  0.47327697  -0.00386502  0.63029900  1
  O2-  O439  1  0.02605181  -0.00522441  0.86907526  1
  O2-  O440  1  0.53559703  0.66975990  0.87531908  1
  O2-  O441  1  0.02773297  -0.00232758  0.62251195  1
  O2-  O442  1  0.53445811  0.33541880  0.62015295  1
  O2-  O443  1  0.03042254  0.00080313  0.13076859  1
