# generated using pymatgen
data_La7(Ru4O11)2
_symmetry_space_group_name_H-M   'P 1'
_cell_length_a   23.99530079
_cell_length_b   16.83560341
_cell_length_c   15.43287920
_cell_angle_alpha   89.99670010
_cell_angle_beta   89.99915298
_cell_angle_gamma   89.99600698
_symmetry_Int_Tables_number   1
_chemical_formula_structural   La7(Ru4O11)2
_chemical_formula_sum   'La84 Ru96 O264'
_cell_volume   6234.50302454
_cell_formula_units_Z   12
loop_
 _symmetry_equiv_pos_site_id
 _symmetry_equiv_pos_as_xyz
  1  'x, y, z'
loop_
 _atom_type_symbol
 _atom_type_oxidation_number
  La3+  3.0
  Ru4+  4.0
  O2-  -2.0
loop_
 _atom_site_type_symbol
 _atom_site_label
 _atom_site_symmetry_multiplicity
 _atom_site_fract_x
 _atom_site_fract_y
 _atom_site_fract_z
 _atom_site_occupancy
  La3+  La0  1  0.13714015  0.00363872  0.12222750  1
  La3+  La1  1  0.14387318  0.00121019  0.38351971  1
  La3+  La2  1  0.14624931  0.00634316  0.61946995  1
  La3+  La3  1  0.14640585  0.00788102  0.87620065  1
  La3+  La4  1  0.12836635  0.33827524  0.11634674  1
  La3+  La5  1  0.13278043  0.32781368  0.37434530  1
  La3+  La6  1  0.13954942  0.33606042  0.62544915  1
  La3+  La7  1  0.14804590  0.32640674  0.87405011  1
  La3+  La8  1  0.13875761  0.66378773  0.12430449  1
  La3+  La9  1  0.14511304  0.67531070  0.37932447  1
  La3+  La10  1  0.14375289  0.67045759  0.62718508  1
  La3+  La11  1  0.13960777  0.66549905  0.87781385  1
  La3+  La12  1  0.64338506  -0.00719191  0.12648818  1
  La3+  La13  1  0.63521755  -0.00505647  0.37648147  1
  La3+  La14  1  0.64490751  -0.00211740  0.62363324  1
  La3+  La15  1  0.63394718  -0.00118231  0.87874318  1
  La3+  La16  1  0.63848854  0.33793684  0.12630782  1
  La3+  La17  1  0.64708927  0.33647618  0.37575255  1
  La3+  La18  1  0.63980782  0.33395240  0.62268390  1
  La3+  La19  1  0.63928231  0.33491190  0.88178283  1
  La3+  La20  1  0.64679840  0.66013180  0.12267743  1
  La3+  La21  1  0.63877673  0.66183035  0.37627005  1
  La3+  La22  1  0.64324365  0.65790160  0.62482279  1
  La3+  La23  1  0.64501881  0.66372051  0.87710103  1
  La3+  La24  1  0.36064731  0.01275805  0.11651957  1
  La3+  La25  1  0.35017123  0.00141269  0.38056474  1
  La3+  La26  1  0.35506241  0.00360485  0.62316339  1
  La3+  La27  1  0.36055156  0.00709584  0.87888506  1
  La3+  La28  1  0.36853532  0.33825458  0.12582881  1
  La3+  La29  1  0.35927522  0.32463426  0.37367343  1
  La3+  La30  1  0.36646147  0.32990254  0.62617362  1
  La3+  La31  1  0.36406713  0.33231688  0.87640645  1
  La3+  La32  1  0.36654507  0.66344224  0.12139946  1
  La3+  La33  1  0.36187643  0.66775456  0.37838458  1
  La3+  La34  1  0.36953413  0.66451249  0.62049348  1
  La3+  La35  1  0.35979920  0.66542609  0.88010489  1
  La3+  La36  1  0.86688108  0.00333392  0.13060382  1
  La3+  La37  1  0.86485541  -0.00027967  0.37198624  1
  La3+  La38  1  0.85632334  -0.00625458  0.62463540  1
  La3+  La39  1  0.86619437  -0.00080793  0.87184578  1
  La3+  La40  1  0.85825920  0.33239895  0.12747740  1
  La3+  La41  1  0.85925855  0.33448031  0.37733878  1
  La3+  La42  1  0.85333837  0.33262752  0.62386396  1
  La3+  La43  1  0.86175768  0.33348601  0.87572767  1
  La3+  La44  1  0.85678106  0.66135666  0.11803572  1
  La3+  La45  1  0.85789654  0.66376893  0.37592386  1
  La3+  La46  1  0.85738649  0.65895271  0.62944860  1
  La3+  La47  1  0.86281329  0.65352150  0.87763589  1
  La3+  La48  1  0.49663595  0.49517809  0.36756955  1
  La3+  La49  1  0.51135645  0.83742133  0.64710913  1
  La3+  La50  1  0.00005655  0.16766618  0.11697879  1
  La3+  La51  1  -0.00531292  0.84226199  0.36696295  1
  La3+  La52  1  -0.01411094  0.50301008  0.12495157  1
  La3+  La53  1  0.51157697  0.82675786  0.62809370  1
  La3+  La54  1  0.50517198  0.49699374  0.10694027  1
  La3+  La55  1  0.50055684  0.83344507  0.13805853  1
  La3+  La56  1  0.00074715  0.83510533  0.86087892  1
  La3+  La57  1  0.50851183  0.81965441  0.38693641  1
  La3+  La58  1  -0.01217960  0.51493154  0.10666627  1
  La3+  La59  1  -0.00257665  0.16823124  0.61526358  1
  La3+  La60  1  0.50298477  0.49278439  0.38768323  1
  La3+  La61  1  0.00669129  0.51245681  0.88013656  1
  La3+  La62  1  0.49693671  0.16717189  0.10730837  1
  La3+  La63  1  0.49257963  0.17075114  0.86702743  1
  La3+  La64  1  0.49935282  0.82287673  0.88076273  1
  La3+  La65  1  -0.00121736  0.16680414  0.87001123  1
  La3+  La66  1  0.00075026  0.16511151  0.34701448  1
  La3+  La67  1  0.00158111  0.49387937  0.62981057  1
  La3+  La68  1  -0.01001133  0.48941993  0.36382887  1
  La3+  La69  1  0.49707878  0.83538443  0.11754699  1
  La3+  La70  1  0.50026556  0.16955750  0.09197603  1
  La3+  La71  1  -0.00326585  0.82861578  0.11822850  1
  La3+  La72  1  0.24974832  0.80288904  0.71915281  1
  La3+  La73  1  0.25257203  0.88103434  -0.01348920  1
  La3+  La74  1  0.25082084  0.22246539  0.24777683  1
  La3+  La75  1  0.74809056  0.08442482  0.77357233  1
  La3+  La76  1  0.25199167  0.49217822  -0.01352393  1
  La3+  La77  1  0.24929639  0.84603807  0.51922318  1
  La3+  La78  1  0.74770972  0.09259859  0.47778772  1
  La3+  La79  1  0.24879795  0.81050167  0.25727905  1
  La3+  La80  1  0.74994336  0.84247164  0.54408884  1
  La3+  La81  1  0.24787403  0.47289069  0.49899905  1
  La3+  La82  1  0.24857443  0.46862290  0.73812793  1
  La3+  La83  1  0.25031849  0.49484573  0.24444654  1
  Ru4+  Ru84  1  0.00781745  -0.01236816  0.00442395  1
  Ru4+  Ru85  1  0.00028073  -0.01163788  0.24068323  1
  Ru4+  Ru86  1  -0.00845036  -0.00108679  0.50894505  1
  Ru4+  Ru87  1  0.00506395  -0.01788975  0.74419278  1
  Ru4+  Ru88  1  0.00182524  0.34049998  -0.00209318  1
  Ru4+  Ru89  1  0.00164041  0.33155425  0.25260179  1
  Ru4+  Ru90  1  0.00198199  0.32395234  0.49027577  1
  Ru4+  Ru91  1  0.00442494  0.33850876  0.74355076  1
  Ru4+  Ru92  1  0.00091431  0.67346842  0.01450406  1
  Ru4+  Ru93  1  0.00708428  0.66706465  0.24888525  1
  Ru4+  Ru94  1  0.01445419  0.66508429  0.50205195  1
  Ru4+  Ru95  1  0.00355162  0.67504462  0.74788088  1
  Ru4+  Ru96  1  0.51078866  -0.00578060  -0.00141956  1
  Ru4+  Ru97  1  0.48556718  -0.00108450  0.25531377  1
  Ru4+  Ru98  1  0.49548451  0.01168834  0.49821207  1
  Ru4+  Ru99  1  0.49753887  0.00850141  0.73062207  1
  Ru4+  Ru100  1  0.49962845  0.33943301  -0.00513588  1
  Ru4+  Ru101  1  0.50236725  0.33222338  0.23442342  1
  Ru4+  Ru102  1  0.50146230  0.33022493  0.51840513  1
  Ru4+  Ru103  1  0.49888171  0.32399249  0.73602670  1
  Ru4+  Ru104  1  0.49732022  0.66477312  -0.01398946  1
  Ru4+  Ru105  1  0.50176775  0.67059739  0.24924784  1
  Ru4+  Ru106  1  0.50453168  0.67185315  0.50494107  1
  Ru4+  Ru107  1  0.49935812  0.65896678  0.75949204  1
  Ru4+  Ru108  1  0.11324204  0.16714025  -0.00149779  1
  Ru4+  Ru109  1  0.11058354  0.16924296  0.24939288  1
  Ru4+  Ru110  1  0.10925343  0.17221460  0.51191142  1
  Ru4+  Ru111  1  0.11161956  0.16362891  0.74984939  1
  Ru4+  Ru112  1  0.11538706  0.50244638  -0.01169755  1
  Ru4+  Ru113  1  0.11524002  0.50534907  0.25984950  1
  Ru4+  Ru114  1  0.10557600  0.50563345  0.50125062  1
  Ru4+  Ru115  1  0.10754284  0.50171434  0.75339894  1
  Ru4+  Ru116  1  0.10505708  0.84234733  0.00057885  1
  Ru4+  Ru117  1  0.10378615  0.83477084  0.25306597  1
  Ru4+  Ru118  1  0.10548572  0.83160365  0.50142124  1
  Ru4+  Ru119  1  0.10425407  0.84409688  0.74996358  1
  Ru4+  Ru120  1  0.61071019  0.15808050  -0.00403214  1
  Ru4+  Ru121  1  0.61394974  0.18024392  0.25567458  1
  Ru4+  Ru122  1  0.60146672  0.16689195  0.50083610  1
  Ru4+  Ru123  1  0.60543544  0.17115784  0.74972721  1
  Ru4+  Ru124  1  0.61276994  0.49755021  -0.00329036  1
  Ru4+  Ru125  1  0.61711107  0.50357969  0.24940939  1
  Ru4+  Ru126  1  0.61625722  0.50550541  0.50427904  1
  Ru4+  Ru127  1  0.61649710  0.50450939  0.75242877  1
  Ru4+  Ru128  1  0.60556264  0.83568376  0.00169717  1
  Ru4+  Ru129  1  0.60973652  0.83257178  0.25172503  1
  Ru4+  Ru130  1  0.61228875  0.82837300  0.49709276  1
  Ru4+  Ru131  1  0.61278696  0.83495509  0.75492380  1
  Ru4+  Ru132  1  0.37946468  0.16818183  -0.00144957  1
  Ru4+  Ru133  1  0.39583248  0.16151982  0.26127034  1
  Ru4+  Ru134  1  0.38948125  0.16284236  0.50023071  1
  Ru4+  Ru135  1  0.38876312  0.16413902  0.74886561  1
  Ru4+  Ru136  1  0.39006750  0.50156991  -0.00433508  1
  Ru4+  Ru137  1  0.38819296  0.49185596  0.25507504  1
  Ru4+  Ru138  1  0.38710599  0.49213016  0.50573086  1
  Ru4+  Ru139  1  0.39072685  0.49847826  0.75174549  1
  Ru4+  Ru140  1  0.39768996  0.83252571  -0.00124099  1
  Ru4+  Ru141  1  0.39278866  0.83867104  0.24330718  1
  Ru4+  Ru142  1  0.38855416  0.83738375  0.48611693  1
  Ru4+  Ru143  1  0.38680582  0.83591902  0.75325123  1
  Ru4+  Ru144  1  0.88676476  0.16554142  0.00233091  1
  Ru4+  Ru145  1  0.88317151  0.17606507  0.24452689  1
  Ru4+  Ru146  1  0.89338242  0.16585954  0.49995986  1
  Ru4+  Ru147  1  0.88434710  0.16430626  0.75157555  1
  Ru4+  Ru148  1  0.88317465  0.48829567  -0.01009132  1
  Ru4+  Ru149  1  0.88108056  0.50296894  0.25723422  1
  Ru4+  Ru150  1  0.88360662  0.49673574  0.49981855  1
  Ru4+  Ru151  1  0.88556767  0.49299166  0.74653647  1
  Ru4+  Ru152  1  0.88579255  0.83127760  -0.00015973  1
  Ru4+  Ru153  1  0.89010030  0.83087041  0.24872511  1
  Ru4+  Ru154  1  0.89054944  0.83795783  0.50048956  1
  Ru4+  Ru155  1  0.88613020  0.83387975  0.74996778  1
  Ru4+  Ru156  1  0.24993603  0.21071720  0.75313717  1
  Ru4+  Ru157  1  0.75039635  0.75199428  0.23631328  1
  Ru4+  Ru158  1  0.74988843  0.89755592  -0.01645720  1
  Ru4+  Ru159  1  0.25228559  0.33693290  0.72013067  1
  Ru4+  Ru160  1  0.74936159  0.27036587  0.48909219  1
  Ru4+  Ru161  1  0.75033207  0.43452148  0.27734673  1
  Ru4+  Ru162  1  0.25107010  0.67904035  0.20363508  1
  Ru4+  Ru163  1  0.74860692  0.75844983  0.00089525  1
  Ru4+  Ru164  1  0.74963962  0.74144465  0.74741612  1
  Ru4+  Ru165  1  0.25130870  0.60804424  0.76107754  1
  Ru4+  Ru166  1  0.75157498  0.08088519  0.00830751  1
  Ru4+  Ru167  1  0.24762781  0.08450483  0.24989826  1
  Ru4+  Ru168  1  0.74883700  0.27737304  0.75494891  1
  Ru4+  Ru169  1  0.74949718  0.26945472  0.00701792  1
  Ru4+  Ru170  1  0.74777826  0.42533425  0.74570480  1
  Ru4+  Ru171  1  0.24954136  0.72921340  0.02477327  1
  Ru4+  Ru172  1  0.24935176  0.95091038  0.26514235  1
  Ru4+  Ru173  1  0.24946634  0.94006968  0.76406527  1
  Ru4+  Ru174  1  0.25071352  0.20788885  0.51260331  1
  Ru4+  Ru175  1  0.25148880  0.61452980  0.50160761  1
  Ru4+  Ru176  1  0.75098869  0.90677439  0.24626238  1
  Ru4+  Ru177  1  0.74969971  0.09248314  0.25402114  1
  Ru4+  Ru178  1  0.24949602  0.23762271  -0.00370981  1
  Ru4+  Ru179  1  0.25080175  0.33732669  0.50090269  1
  O2-  O180  1  0.16394691  0.08283361  0.00338989  1
  O2-  O181  1  0.16428634  0.08412462  0.24982743  1
  O2-  O182  1  0.16362952  0.08858023  0.49797811  1
  O2-  O183  1  0.16223595  0.08143027  0.74725255  1
  O2-  O184  1  0.16776188  0.41260865  0.00513612  1
  O2-  O185  1  0.16295387  0.41325590  0.24888927  1
  O2-  O186  1  0.15814563  0.41294298  0.49693648  1
  O2-  O187  1  0.15845158  0.41227705  0.75072103  1
  O2-  O188  1  0.16390753  0.75170767  0.00202845  1
  O2-  O189  1  0.16278887  0.74500583  0.24630320  1
  O2-  O190  1  0.16760065  0.75670028  0.49965465  1
  O2-  O191  1  0.15741059  0.75288127  0.75433564  1
  O2-  O192  1  0.66887712  0.07758831  -0.00139649  1
  O2-  O193  1  0.66253421  0.08296733  0.25308371  1
  O2-  O194  1  0.65523039  0.07725785  0.49945771  1
  O2-  O195  1  0.65344137  0.07744441  0.75092323  1
  O2-  O196  1  0.66702501  0.41720677  0.00304243  1
  O2-  O197  1  0.67068325  0.41478990  0.24871910  1
  O2-  O198  1  0.66193949  0.41608946  0.50359988  1
  O2-  O199  1  0.66332230  0.41481908  0.75178629  1
  O2-  O200  1  0.66715882  0.75035565  -0.00006751  1
  O2-  O201  1  0.66309840  0.74740165  0.24831977  1
  O2-  O202  1  0.66636199  0.74480595  0.50263287  1
  O2-  O203  1  0.66470962  0.74460913  0.75041360  1
  O2-  O204  1  0.32823913  0.25573678  -0.00419371  1
  O2-  O205  1  0.34163338  0.25302445  0.24522401  1
  O2-  O206  1  0.33269012  0.24788685  0.50593686  1
  O2-  O207  1  0.32953331  0.24819250  0.74926783  1
  O2-  O208  1  0.33239685  0.58448292  0.00569285  1
  O2-  O209  1  0.33958547  0.58544226  0.24688212  1
  O2-  O210  1  0.33541356  0.58803707  0.50003927  1
  O2-  O211  1  0.33453116  0.59018393  0.74764051  1
  O2-  O212  1  0.34205190  0.92558036  0.00046979  1
  O2-  O213  1  0.33028964  0.92122988  0.24708042  1
  O2-  O214  1  0.33339691  0.91770301  0.50750620  1
  O2-  O215  1  0.33165977  0.92039522  0.75180439  1
  O2-  O216  1  0.83357901  0.25526171  0.00391051  1
  O2-  O217  1  0.83262564  0.25350045  0.25137224  1
  O2-  O218  1  0.83240043  0.25277414  0.49059189  1
  O2-  O219  1  0.83531753  0.25421382  0.75269170  1
  O2-  O220  1  0.83740006  0.58110477  -0.00363349  1
  O2-  O221  1  0.83275448  0.58921573  0.25548359  1
  O2-  O222  1  0.83731826  0.58883703  0.50122913  1
  O2-  O223  1  0.83883980  0.58318600  0.75148374  1
  O2-  O224  1  0.83485289  0.91740108  -0.00353909  1
  O2-  O225  1  0.83664980  0.91937704  0.24788079  1
  O2-  O226  1  0.83079259  0.91678112  0.49626941  1
  O2-  O227  1  0.83471180  0.91784215  0.75977308  1
  O2-  O228  1  0.16966872  0.25195348  0.00187309  1
  O2-  O229  1  0.16324447  0.26111355  0.24442629  1
  O2-  O230  1  0.17103103  0.25210129  0.49865048  1
  O2-  O231  1  0.16830712  0.24689226  0.74660809  1
  O2-  O232  1  0.16825896  0.58498881  0.00280554  1
  O2-  O233  1  0.17142344  0.58512475  0.24174013  1
  O2-  O234  1  0.17052844  0.58902538  0.49643738  1
  O2-  O235  1  0.16795291  0.58796869  0.75344404  1
  O2-  O236  1  0.16393782  0.92591158  0.00442076  1
  O2-  O237  1  0.16494016  0.92296603  0.24854059  1
  O2-  O238  1  0.16215096  0.91720059  0.50016942  1
  O2-  O239  1  0.16787457  0.91832715  0.74583396  1
  O2-  O240  1  0.66294852  0.25162211  0.00558267  1
  O2-  O241  1  0.66957320  0.24921823  0.23943330  1
  O2-  O242  1  0.66424130  0.25470961  0.49861589  1
  O2-  O243  1  0.66437082  0.25682905  0.75126758  1
  O2-  O244  1  0.66457173  0.58513423  -0.00112729  1
  O2-  O245  1  0.66852400  0.58728170  0.25245951  1
  O2-  O246  1  0.67021644  0.58639991  0.49747272  1
  O2-  O247  1  0.67019448  0.58050449  0.74844861  1
  O2-  O248  1  0.66709861  0.91471916  -0.00537931  1
  O2-  O249  1  0.66832666  0.91725586  0.25373688  1
  O2-  O250  1  0.66602513  0.91896556  0.49741317  1
  O2-  O251  1  0.66155482  0.91967488  0.75541596  1
  O2-  O252  1  0.33091278  0.08202675  -0.00826376  1
  O2-  O253  1  0.33065461  0.08730175  0.24387664  1
  O2-  O254  1  0.33361710  0.08618897  0.50460330  1
  O2-  O255  1  0.33995959  0.08084295  0.75107321  1
  O2-  O256  1  0.33651358  0.41161229  0.00078575  1
  O2-  O257  1  0.32941541  0.40830956  0.24923989  1
  O2-  O258  1  0.33545605  0.40513583  0.50263578  1
  O2-  O259  1  0.34006383  0.40829982  0.74993724  1
  O2-  O260  1  0.33306319  0.74770046  0.00412840  1
  O2-  O261  1  0.33870838  0.74545222  0.24830587  1
  O2-  O262  1  0.33637687  0.75221971  0.50262376  1
  O2-  O263  1  0.33936850  0.74488191  0.74815191  1
  O2-  O264  1  0.83647567  0.07837310  0.00084016  1
  O2-  O265  1  0.83361079  0.08359699  0.24980218  1
  O2-  O266  1  0.83855640  0.07669418  0.49236845  1
  O2-  O267  1  0.84218528  0.07338286  0.75220419  1
  O2-  O268  1  0.82998040  0.41263576  0.00039276  1
  O2-  O269  1  0.83145358  0.41267374  0.25097121  1
  O2-  O270  1  0.83053615  0.41766227  0.49975131  1
  O2-  O271  1  0.82803553  0.41716726  0.76004045  1
  O2-  O272  1  0.82982472  0.74938215  -0.00480104  1
  O2-  O273  1  0.83544494  0.74563352  0.25041618  1
  O2-  O274  1  0.83635128  0.74779128  0.50297023  1
  O2-  O275  1  0.83534190  0.74505067  0.75247335  1
  O2-  O276  1  0.46415367  0.88154347  0.28621551  1
  O2-  O277  1  0.04467513  0.54220554  0.22096148  1
  O2-  O278  1  0.04688406  0.91657729  0.48283156  1
  O2-  O279  1  0.05477472  0.23580287  0.44986363  1
  O2-  O280  1  0.44731739  0.09871906  0.48476081  1
  O2-  O281  1  0.44765620  0.09250248  0.00369942  1
  O2-  O282  1  0.45242444  0.43006355  0.20845890  1
  O2-  O283  1  0.54808391  0.08637725  0.49714512  1
  O2-  O284  1  0.04845184  0.44004546  0.02171310  1
  O2-  O285  1  0.94714476  0.57360859  0.73445751  1
  O2-  O286  1  0.45213491  0.87905819  0.54465405  1
  O2-  O287  1  0.54268230  0.10088993  0.74589902  1
  O2-  O288  1  0.95476588  0.89722000  0.98188261  1
  O2-  O289  1  0.44747742  0.24700283  0.27538961  1
  O2-  O290  1  0.54382636  0.21594594  0.21046239  1
  O2-  O291  1  0.54941089  0.91072995  0.48219374  1
  O2-  O292  1  0.94714668  0.23488328  0.73220435  1
  O2-  O293  1  0.94827252  0.89895297  0.74943531  1
  O2-  O294  1  0.02906825  0.54458034  0.47067627  1
  O2-  O295  1  0.04427574  0.09566944  0.99072541  1
  O2-  O296  1  0.95025616  0.09816820  0.23284494  1
  O2-  O297  1  0.04961665  0.23973925  0.76824757  1
  O2-  O298  1  0.96616316  0.09998832  0.45811915  1
  O2-  O299  1  0.45587728  0.43083705  0.51079637  1
  O2-  O300  1  0.54609649  0.23808878  0.97795009  1
  O2-  O301  1  0.55669867  0.08265926  0.94066300  1
  O2-  O302  1  0.95043624  0.24642548  0.76906943  1
  O2-  O303  1  0.45761531  0.57705533  0.50788804  1
  O2-  O304  1  0.54786748  0.24639770  0.51197371  1
  O2-  O305  1  0.04120147  0.87565956  0.69239020  1
  O2-  O306  1  0.45279007  0.43386564  0.99565512  1
  O2-  O307  1  0.03219663  0.77684524  0.46543508  1
  O2-  O308  1  0.94677499  0.56702269  0.98137669  1
  O2-  O309  1  0.03986153  0.44754686  1.01292695  1
  O2-  O310  1  0.97618916  0.43555066  0.78010607  1
  O2-  O311  1  0.94950067  0.57987383  0.77304436  1
  O2-  O312  1  0.45690862  0.76775214  0.74693995  1
  O2-  O313  1  0.94712532  0.57616469  0.26024242  1
  O2-  O314  1  0.55211549  0.08850483  0.49594995  1
  O2-  O315  1  0.94846528  0.09288929  0.76039934  1
  O2-  O316  1  0.44268248  0.57309867  0.47630131  1
  O2-  O317  1  0.55173793  0.57468555  0.01198198  1
  O2-  O318  1  0.44424483  0.56882384  0.76125592  1
  O2-  O319  1  0.95310295  0.23119140  0.45243599  1
  O2-  O320  1  0.46202749  0.09928933  0.20813356  1
  O2-  O321  1  0.53734404  0.54891120  0.75184436  1
  O2-  O322  1  0.94660098  0.42132249  0.24189262  1
  O2-  O323  1  0.95437168  0.23359396  0.00520162  1
  O2-  O324  1  0.94361073  0.06184371  0.77875605  1
  O2-  O325  1  0.06360287  0.92193475  0.08435521  1
  O2-  O326  1  0.57935150  0.27141734  0.31458329  1
  O2-  O327  1  0.07296498  0.95385640  0.80039275  1
  O2-  O328  1  0.56251282  0.41865163  0.22721730  1
  O2-  O329  1  0.43419487  0.59429994  0.98472805  1
  O2-  O330  1  0.06287052  0.59881124  0.78264033  1
  O2-  O331  1  0.43970064  0.92327406  0.73436607  1
  O2-  O332  1  0.91658522  0.40528948  0.68852526  1
  O2-  O333  1  0.06379058  0.26072968  0.27141237  1
  O2-  O334  1  0.93865296  0.74595437  0.01719870  1
  O2-  O335  1  0.58178798  0.08977716  0.09633753  1
  O2-  O336  1  0.93938505  0.59614363  0.96169282  1
  O2-  O337  1  0.43105102  0.25800479  0.01172704  1
  O2-  O338  1  0.42743565  0.93929672  0.17209437  1
  O2-  O339  1  0.06347731  0.60541551  0.96777178  1
  O2-  O340  1  0.56124401  0.26364684  0.78914385  1
  O2-  O341  1  0.55225140  0.07610734  0.93912445  1
  O2-  O342  1  0.43281662  0.25701882  0.77125101  1
  O2-  O343  1  0.56178946  0.58810957  0.27241440  1
  O2-  O344  1  0.42799822  0.05342668  0.32202020  1
  O2-  O345  1  0.08082366  0.58993980  0.56964742  1
  O2-  O346  1  0.93357266  0.90741439  0.57130341  1
  O2-  O347  1  0.93994465  0.40074553  0.92754673  1
  O2-  O348  1  0.07893715  0.73681888  0.56178176  1
  O2-  O349  1  0.06029640  0.25075781  0.44077658  1
  O2-  O350  1  0.44135957  0.07618041  0.03753855  1
  O2-  O351  1  0.06325641  0.25580417  0.02493523  1
  O2-  O352  1  0.56237073  0.93040570  0.28496947  1
  O2-  O353  1  0.91789211  0.25366686  0.57325870  1
  O2-  O354  1  0.06034042  0.07247059  0.53521740  1
  O2-  O355  1  0.93168022  0.92223404  0.43259819  1
  O2-  O356  1  0.44619782  0.42954047  0.20549552  1
  O2-  O357  1  0.05920064  0.92578824  0.93571134  1
  O2-  O358  1  0.56415416  0.40325325  0.96274134  1
  O2-  O359  1  0.93967390  0.41464063  0.47917432  1
  O2-  O360  1  0.07353540  0.25486823  0.59951272  1
  O2-  O361  1  0.06699664  0.36470074  0.90434330  1
  O2-  O362  1  0.57670908  0.61333829  0.76964465  1
  O2-  O363  1  0.93962431  0.25731259  0.21099493  1
  O2-  O364  1  0.92004471  0.07796588  0.57081901  1
  O2-  O365  1  0.93329740  0.07147444  0.23362194  1
  O2-  O366  1  0.42788905  0.94128671  0.42907277  1
  O2-  O367  1  0.56391199  0.59929220  0.53491217  1
  O2-  O368  1  0.93227234  0.39820582  0.07341622  1
  O2-  O369  1  0.43867316  0.73828513  0.46269390  1
  O2-  O370  1  0.42529849  0.40815494  0.35652619  1
  O2-  O371  1  0.08159329  0.60901645  0.31357163  1
  O2-  O372  1  0.75059621  0.33910727  0.34783691  1
  O2-  O373  1  0.75027497  0.66069889  0.16455537  1
  O2-  O374  1  0.25096862  0.65044041  0.32598895  1
  O2-  O375  1  0.74985707  0.66311827  0.07325023  1
  O2-  O376  1  0.24453135  -0.00080021  0.38046089  1
  O2-  O377  1  0.24914538  0.66001629  0.92897489  1
  O2-  O378  1  0.75078421  0.67276939  0.65226782  1
  O2-  O379  1  0.24962300  0.67657043  0.67668549  1
  O2-  O380  1  0.74896831  0.33876926  0.64230102  1
  O2-  O381  1  0.25185781  0.00587692  0.86534935  1
  O2-  O382  1  0.24842233  -0.01628309  0.58237825  1
  O2-  O383  1  0.75059342  -0.00961619  0.57531564  1
  O2-  O384  1  0.74933536  0.33450512  0.89951253  1
  O2-  O385  1  0.24934897  0.01292928  0.66822897  1
  O2-  O386  1  0.24956902  0.69554725  0.84462603  1
  O2-  O387  1  0.74998315  -0.00664835  0.66715365  1
  O2-  O388  1  0.75120372  0.68017961  0.85427496  1
  O2-  O389  1  0.25240366  0.33253773  0.86187634  1
  O2-  O390  1  0.74973121  0.00156389  0.34740835  1
  O2-  O391  1  0.75142422  -0.01813048  0.05966488  1
  O2-  O392  1  0.25207285  0.69415033  0.40626945  1
  O2-  O393  1  0.75119582  -0.00241058  0.90009340  1
  O2-  O394  1  0.74933334  0.00163433  0.18518359  1
  O2-  O395  1  0.25118010  0.71094676  0.56674762  1
  O2-  O396  1  0.24966006  0.84361077  0.85316835  1
  O2-  O397  1  0.74920094  0.20155219  0.40399969  1
  O2-  O398  1  0.75056733  0.49922606  0.17504487  1
  O2-  O399  1  0.24953210  0.17108296  0.85930371  1
  O2-  O400  1  0.75006006  0.83195748  0.68634810  1
  O2-  O401  1  0.25069375  0.53784215  0.61953676  1
  O2-  O402  1  0.25115873  0.17608987  0.39720100  1
  O2-  O403  1  0.75059917  0.19329692  0.56805961  1
  O2-  O404  1  0.75001561  0.20023266  0.83344577  1
  O2-  O405  1  0.74971107  0.48827752  0.37213882  1
  O2-  O406  1  0.25154762  0.84355053  0.38827499  1
  O2-  O407  1  0.75067414  0.82397499  0.32336646  1
  O2-  O408  1  0.25121899  0.53000996  0.85781108  1
  O2-  O409  1  0.24921670  0.50364694  0.11535048  1
  O2-  O410  1  0.75080721  0.18910467  0.68567568  1
  O2-  O411  1  0.74973785  0.18954121  0.28119220  1
  O2-  O412  1  0.25093823  0.51006103  0.37471637  1
  O2-  O413  1  0.25015091  0.17453143  0.09622433  1
  O2-  O414  1  0.74969070  0.17363810  0.95457866  1
  O2-  O415  1  0.24979611  0.17587932  0.63729230  1
  O2-  O416  1  0.75029101  0.49316881  0.09082930  1
  O2-  O417  1  0.74979822  0.83143331  0.41072345  1
  O2-  O418  1  0.74973300  0.49362423  0.66265691  1
  O2-  O419  1  0.25004581  0.81305678  0.11252049  1
  O2-  O420  1  0.52309535  0.35733720  0.39633390  1
  O2-  O421  1  0.45763812  0.01921405  0.61914459  1
  O2-  O422  1  0.01013477  0.66628831  0.63465597  1
  O2-  O423  1  0.54826872  0.33425549  0.10519455  1
  O2-  O424  1  0.04773754  0.68182919  0.12185128  1
  O2-  O425  1  0.55070014  -0.02519133  0.63790847  1
  O2-  O426  1  0.95472699  0.66577143  0.14029512  1
  O2-  O427  1  0.99387974  0.34603080  0.61751964  1
  O2-  O428  1  0.47261411  0.67223852  0.12416156  1
  O2-  O429  1  0.52897755  0.67748924  0.38128415  1
  O2-  O430  1  0.52432380  -0.02592597  0.13165197  1
  O2-  O431  1  0.98555422  0.00367743  0.35330713  1
  O2-  O432  1  0.98627167  0.01239287  0.63814211  1
  O2-  O433  1  0.47480338  0.67245495  0.62935293  1
  O2-  O434  1  0.47683062  0.33827280  0.87270242  1
  O2-  O435  1  0.45551018  0.32460168  0.62945918  1
  O2-  O436  1  0.54805547  0.68942240  0.89323211  1
  O2-  O437  1  0.45483705  0.68382136  0.86969981  1
  O2-  O438  1  0.97406329  -0.00035476  0.11922714  1
  O2-  O439  1  0.46189122  0.31059810  0.12728406  1
  O2-  O440  1  0.97626793  0.33665510  0.36945579  1
  O2-  O441  1  0.00504182  0.67926296  0.37388846  1
  O2-  O442  1  0.02772352  0.33438100  0.13453336  1
  O2-  O443  1  0.54703148  0.34562000  0.63516634  1
