# generated using pymatgen
data_La7(Ru4O11)2
_symmetry_space_group_name_H-M   'P 1'
_cell_length_a   23.99353378
_cell_length_b   16.83406591
_cell_length_c   15.43142988
_cell_angle_alpha   90.00185909
_cell_angle_beta   89.99749086
_cell_angle_gamma   90.00084867
_symmetry_Int_Tables_number   1
_chemical_formula_structural   La7(Ru4O11)2
_chemical_formula_sum   'La84 Ru96 O264'
_cell_volume   6232.88922019
_cell_formula_units_Z   12
loop_
 _symmetry_equiv_pos_site_id
 _symmetry_equiv_pos_as_xyz
  1  'x, y, z'
loop_
 _atom_type_symbol
 _atom_type_oxidation_number
  La3+  3.0
  Ru4+  4.0
  O2-  -2.0
loop_
 _atom_site_type_symbol
 _atom_site_label
 _atom_site_symmetry_multiplicity
 _atom_site_fract_x
 _atom_site_fract_y
 _atom_site_fract_z
 _atom_site_occupancy
  La3+  La0  1  0.13889779  -0.00811811  0.12885790  1
  La3+  La1  1  0.13970140  -0.00805558  0.36823086  1
  La3+  La2  1  0.14427170  0.00029042  0.62735315  1
  La3+  La3  1  0.13629573  -0.00150804  0.87445441  1
  La3+  La4  1  0.14729450  0.33288870  0.12733915  1
  La3+  La5  1  0.13381350  0.33645321  0.37352350  1
  La3+  La6  1  0.13910542  0.33499068  0.62305388  1
  La3+  La7  1  0.13531418  0.33424176  0.87443841  1
  La3+  La8  1  0.14209459  0.67313183  0.13150660  1
  La3+  La9  1  0.15457499  0.66860072  0.37772573  1
  La3+  La10  1  0.14196976  0.66630054  0.62251982  1
  La3+  La11  1  0.13920996  0.66721814  0.87221194  1
  La3+  La12  1  0.63523050  0.00003998  0.12694393  1
  La3+  La13  1  0.64107934  -0.00709805  0.38195710  1
  La3+  La14  1  0.63855613  -0.00659133  0.63097867  1
  La3+  La15  1  0.64501208  0.00240480  0.87884488  1
  La3+  La16  1  0.63440019  0.34103505  0.12665886  1
  La3+  La17  1  0.63761808  0.32868786  0.38339581  1
  La3+  La18  1  0.63593277  0.33306098  0.62216272  1
  La3+  La19  1  0.63987950  0.33966350  0.87130346  1
  La3+  La20  1  0.63263563  0.67242770  0.12516381  1
  La3+  La21  1  0.63699075  0.66752925  0.38085888  1
  La3+  La22  1  0.63858356  0.66352749  0.62550363  1
  La3+  La23  1  0.63365662  0.66694043  0.87003216  1
  La3+  La24  1  0.35801756  -0.00839919  0.12520378  1
  La3+  La25  1  0.36278254  -0.00714196  0.37306246  1
  La3+  La26  1  0.36149187  -0.00106757  0.62570227  1
  La3+  La27  1  0.36435483  -0.00325369  0.87646176  1
  La3+  La28  1  0.36782227  0.33717774  0.12553813  1
  La3+  La29  1  0.36824964  0.33531062  0.37475230  1
  La3+  La30  1  0.36241366  0.33645500  0.62589677  1
  La3+  La31  1  0.36563136  0.33780829  0.87583870  1
  La3+  La32  1  0.36106129  0.66890977  0.13265261  1
  La3+  La33  1  0.34928594  0.67054607  0.37683646  1
  La3+  La34  1  0.36253580  0.66425558  0.62000510  1
  La3+  La35  1  0.36677643  0.66698851  0.87270966  1
  La3+  La36  1  0.85771932  -0.00042023  0.12492043  1
  La3+  La37  1  0.85797830  -0.00518045  0.37955273  1
  La3+  La38  1  0.86282668  -0.00267509  0.62251307  1
  La3+  La39  1  0.86273975  -0.00243526  0.86976630  1
  La3+  La40  1  0.87277961  0.34346389  0.10790400  1
  La3+  La41  1  0.85908035  0.33085952  0.37599353  1
  La3+  La42  1  0.85496829  0.33650655  0.62548956  1
  La3+  La43  1  0.86807105  0.34464439  0.87927462  1
  La3+  La44  1  0.86364438  0.67224822  0.12867009  1
  La3+  La45  1  0.85605030  0.66797837  0.37711887  1
  La3+  La46  1  0.85549757  0.66081971  0.62321801  1
  La3+  La47  1  0.86045189  0.66351315  0.87355826  1
  La3+  La48  1  0.00244127  0.82512033  0.86085437  1
  La3+  La49  1  0.49141550  0.16763850  0.13630961  1
  La3+  La50  1  0.00397633  0.49275663  0.37372558  1
  La3+  La51  1  -0.00679594  0.15782201  0.37902454  1
  La3+  La52  1  -0.00186363  0.83988395  0.61031452  1
  La3+  La53  1  0.49612729  0.16814125  0.86179635  1
  La3+  La54  1  0.49840205  0.49703738  0.12016672  1
  La3+  La55  1  0.49176409  0.17642157  0.12284792  1
  La3+  La56  1  -0.00557843  0.84332243  0.13694442  1
  La3+  La57  1  0.00528100  0.15127352  0.87859346  1
  La3+  La58  1  0.50137547  0.16168228  0.88141330  1
  La3+  La59  1  0.50165610  0.16048144  0.61144818  1
  La3+  La60  1  0.00265504  0.83385599  0.63005398  1
  La3+  La61  1  -0.00013108  0.83275896  0.88083530  1
  La3+  La62  1  0.00451214  0.16164862  0.89719932  1
  La3+  La63  1  -0.00342481  0.16761318  0.63367824  1
  La3+  La64  1  -0.00099187  0.84555834  0.11586612  1
  La3+  La65  1  -0.01074372  0.50356428  0.87988416  1
  La3+  La66  1  0.00918912  0.83459848  0.36607062  1
  La3+  La67  1  0.00042037  0.48655610  0.12482223  1
  La3+  La68  1  0.00058360  0.50268431  0.61952328  1
  La3+  La69  1  0.00304933  0.48640579  0.10821950  1
  La3+  La70  1  -0.00233376  0.15665238  0.39392400  1
  La3+  La71  1  0.00231348  0.17219243  0.13489278  1
  La3+  La72  1  0.74863821  0.83589032  0.00208988  1
  La3+  La73  1  0.24947668  0.79369604  0.74658236  1
  La3+  La74  1  0.74897656  0.54849359  0.28724887  1
  La3+  La75  1  0.24935684  0.52673550  0.04331563  1
  La3+  La76  1  0.75170138  0.15048628  -0.00499062  1
  La3+  La77  1  0.25012122  0.55173079  0.26463215  1
  La3+  La78  1  0.25052846  0.20812278  0.51869573  1
  La3+  La79  1  0.75204581  0.11116617  0.28014531  1
  La3+  La80  1  0.25161964  0.20146504  0.30282574  1
  La3+  La81  1  0.24877793  0.08107192  -0.00882441  1
  La3+  La82  1  0.24938303  0.45644287  0.75879213  1
  La3+  La83  1  0.74912146  0.56201131  0.03197857  1
  Ru4+  Ru84  1  -0.00301006  0.01196154  -0.00467963  1
  Ru4+  Ru85  1  -0.00464474  0.00343824  0.26577456  1
  Ru4+  Ru86  1  -0.00198710  0.00059289  0.49922203  1
  Ru4+  Ru87  1  0.00229619  0.00785592  0.74524209  1
  Ru4+  Ru88  1  -0.00153021  0.33773094  -0.00373757  1
  Ru4+  Ru89  1  -0.00823156  0.33143196  0.25162187  1
  Ru4+  Ru90  1  0.00810761  0.33301769  0.50080926  1
  Ru4+  Ru91  1  -0.00506010  0.33048339  0.74864711  1
  Ru4+  Ru92  1  0.00099148  0.65946520  -0.01183444  1
  Ru4+  Ru93  1  0.00402695  0.66602611  0.25865400  1
  Ru4+  Ru94  1  0.00032601  0.66703213  0.50170071  1
  Ru4+  Ru95  1  0.00198392  0.66786727  0.75473297  1
  Ru4+  Ru96  1  0.49953985  -0.00678173  0.00976242  1
  Ru4+  Ru97  1  0.49845439  -0.00636141  0.23664620  1
  Ru4+  Ru98  1  0.49803526  -0.00392552  0.49311615  1
  Ru4+  Ru99  1  0.49816722  -0.01068288  0.73966544  1
  Ru4+  Ru100  1  0.50780595  0.33221090  0.00600555  1
  Ru4+  Ru101  1  0.49883425  0.33780933  0.26068935  1
  Ru4+  Ru102  1  0.49847569  0.34321867  0.49671212  1
  Ru4+  Ru103  1  0.50415568  0.33707324  0.74037558  1
  Ru4+  Ru104  1  0.50487672  0.66965102  -0.00673090  1
  Ru4+  Ru105  1  0.49639208  0.67086778  0.25106167  1
  Ru4+  Ru106  1  0.49996131  0.66950998  0.49963403  1
  Ru4+  Ru107  1  0.50429158  0.65967044  0.74277547  1
  Ru4+  Ru108  1  0.10793951  0.16726766  0.00229432  1
  Ru4+  Ru109  1  0.11009701  0.17106411  0.24634106  1
  Ru4+  Ru110  1  0.10871327  0.16883113  0.50203199  1
  Ru4+  Ru111  1  0.11327178  0.16117251  0.75080398  1
  Ru4+  Ru112  1  0.10775649  0.49680641  -0.00023497  1
  Ru4+  Ru113  1  0.11293657  0.50627050  0.24926440  1
  Ru4+  Ru114  1  0.11513724  0.50093761  0.50200084  1
  Ru4+  Ru115  1  0.10792259  0.50061060  0.74526031  1
  Ru4+  Ru116  1  0.11767968  0.83550669  -0.00338209  1
  Ru4+  Ru117  1  0.11470346  0.82344876  0.25324638  1
  Ru4+  Ru118  1  0.11410899  0.83388717  0.50099697  1
  Ru4+  Ru119  1  0.10427761  0.83478444  0.74949683  1
  Ru4+  Ru120  1  0.61162455  0.17258057  0.00154979  1
  Ru4+  Ru121  1  0.60837644  0.15830109  0.26187465  1
  Ru4+  Ru122  1  0.61366769  0.16113897  0.49558736  1
  Ru4+  Ru123  1  0.61273294  0.17661889  0.74590297  1
  Ru4+  Ru124  1  0.60935417  0.50659584  -0.00396271  1
  Ru4+  Ru125  1  0.60855709  0.49915124  0.24928058  1
  Ru4+  Ru126  1  0.60784312  0.50434843  0.50458127  1
  Ru4+  Ru127  1  0.60741037  0.50067063  0.74655805  1
  Ru4+  Ru128  1  0.61210002  0.83057217  0.00289880  1
  Ru4+  Ru129  1  0.61429306  0.82971644  0.25015136  1
  Ru4+  Ru130  1  0.61136564  0.83193774  0.50081674  1
  Ru4+  Ru131  1  0.61091072  0.83984658  0.74820634  1
  Ru4+  Ru132  1  0.38525517  0.16470059  0.00102007  1
  Ru4+  Ru133  1  0.38941531  0.16465133  0.25123863  1
  Ru4+  Ru134  1  0.39056140  0.16639243  0.49989402  1
  Ru4+  Ru135  1  0.38606408  0.16237985  0.74703024  1
  Ru4+  Ru136  1  0.38948113  0.50635589  -0.00066888  1
  Ru4+  Ru137  1  0.39103461  0.49988501  0.25126565  1
  Ru4+  Ru138  1  0.39505005  0.50401864  0.49695031  1
  Ru4+  Ru139  1  0.39415989  0.49960257  0.74511064  1
  Ru4+  Ru140  1  0.39470457  0.83476055  -0.00290113  1
  Ru4+  Ru141  1  0.39374294  0.83508528  0.24890410  1
  Ru4+  Ru142  1  0.39434363  0.82960897  0.49734067  1
  Ru4+  Ru143  1  0.39124015  0.83650193  0.74995041  1
  Ru4+  Ru144  1  0.89388892  0.16558751  0.00136119  1
  Ru4+  Ru145  1  0.89069283  0.16633918  0.24882363  1
  Ru4+  Ru146  1  0.88466855  0.16861700  0.50028359  1
  Ru4+  Ru147  1  0.88458447  0.17106588  0.74454930  1
  Ru4+  Ru148  1  0.88804514  0.50236675  -0.00267590  1
  Ru4+  Ru149  1  0.89272331  0.49544886  0.24940054  1
  Ru4+  Ru150  1  0.88687237  0.50374875  0.50402623  1
  Ru4+  Ru151  1  0.88594793  0.49716301  0.75543330  1
  Ru4+  Ru152  1  0.88350833  0.83236554  -0.00248105  1
  Ru4+  Ru153  1  0.88280914  0.82679340  0.25195261  1
  Ru4+  Ru154  1  0.88532749  0.83217036  0.49995746  1
  Ru4+  Ru155  1  0.88414764  0.83018018  0.74783773  1
  Ru4+  Ru156  1  0.74967525  0.91440984  0.26085800  1
  Ru4+  Ru157  1  0.74889534  0.06782297  0.72530050  1
  Ru4+  Ru158  1  0.75051054  0.40409782  0.24323911  1
  Ru4+  Ru159  1  0.74965508  0.26998618  0.27765358  1
  Ru4+  Ru160  1  0.24968021  0.06999694  0.48864611  1
  Ru4+  Ru161  1  0.24935106  0.94011546  0.76774956  1
  Ru4+  Ru162  1  0.25010697  0.40477780  0.26241483  1
  Ru4+  Ru163  1  0.24997679  0.23838449  0.73529647  1
  Ru4+  Ru164  1  0.24992048  0.59855840  0.74268478  1
  Ru4+  Ru165  1  0.25186296  0.77433360  0.00594010  1
  Ru4+  Ru166  1  0.25128112  0.40313770  -0.01141186  1
  Ru4+  Ru167  1  0.24996203  0.24363121  -0.00496938  1
  Ru4+  Ru168  1  0.74938530  0.10177091  0.49894120  1
  Ru4+  Ru169  1  0.74900838  0.74712887  0.73435234  1
  Ru4+  Ru170  1  0.25134139  0.42032825  0.48789854  1
  Ru4+  Ru171  1  0.74976723  0.42160660  -0.00775434  1
  Ru4+  Ru172  1  0.75104216  0.26845900  0.73035084  1
  Ru4+  Ru173  1  0.75041616  0.28821976  0.00176247  1
  Ru4+  Ru174  1  0.74935723  0.41754605  0.49092682  1
  Ru4+  Ru175  1  0.25186233  0.64594457  -0.03995003  1
  Ru4+  Ru176  1  0.74974747  0.74631783  0.50197558  1
  Ru4+  Ru177  1  0.75231772  0.01218015  -0.03707258  1
  Ru4+  Ru178  1  0.25086695  0.89334428  0.47345059  1
  Ru4+  Ru179  1  0.24995935  0.05138646  0.23649588  1
  O2-  O180  1  0.15703899  0.07544485  -0.00277549  1
  O2-  O181  1  0.16534976  0.07951450  0.25124114  1
  O2-  O182  1  0.16346539  0.08110455  0.49863610  1
  O2-  O183  1  0.16282649  0.08004148  0.75258919  1
  O2-  O184  1  0.16836010  0.41221032  -0.00661154  1
  O2-  O185  1  0.16717844  0.41711730  0.25339930  1
  O2-  O186  1  0.16812287  0.41378095  0.49651025  1
  O2-  O187  1  0.15589813  0.40943277  0.75139212  1
  O2-  O188  1  0.16883737  0.74917790  -0.00068669  1
  O2-  O189  1  0.17086422  0.74874708  0.24562530  1
  O2-  O190  1  0.16588897  0.74846027  0.50498477  1
  O2-  O191  1  0.16200216  0.74515503  0.74957719  1
  O2-  O192  1  0.66700633  0.08061924  0.00422641  1
  O2-  O193  1  0.66494952  0.07593047  0.24272330  1
  O2-  O194  1  0.66938449  0.08271112  0.50150876  1
  O2-  O195  1  0.66698427  0.08116131  0.74662650  1
  O2-  O196  1  0.66681175  0.41726475  0.00045915  1
  O2-  O197  1  0.66852074  0.41380697  0.25600128  1
  O2-  O198  1  0.66612111  0.41546805  0.49943813  1
  O2-  O199  1  0.66250129  0.41638113  0.74606244  1
  O2-  O200  1  0.66532237  0.74620635  0.00015063  1
  O2-  O201  1  0.66251018  0.74675578  0.25106471  1
  O2-  O202  1  0.66528208  0.74932007  0.49843704  1
  O2-  O203  1  0.66551338  0.75065656  0.74970955  1
  O2-  O204  1  0.33639522  0.25631210  0.00021181  1
  O2-  O205  1  0.33845274  0.25246389  0.25120892  1
  O2-  O206  1  0.33687334  0.25613325  0.49645085  1
  O2-  O207  1  0.33489936  0.25304313  0.74883666  1
  O2-  O208  1  0.33459643  0.59176353  -0.00075672  1
  O2-  O209  1  0.33806885  0.58702847  0.24905416  1
  O2-  O210  1  0.33800932  0.58496227  0.49990217  1
  O2-  O211  1  0.33270526  0.58619820  0.75347875  1
  O2-  O212  1  0.33503233  0.91645057  -0.00275942  1
  O2-  O213  1  0.33656321  0.91775890  0.25108250  1
  O2-  O214  1  0.33292771  0.91413558  0.49766550  1
  O2-  O215  1  0.32952512  0.91846733  0.75088229  1
  O2-  O216  1  0.83404990  0.25820294  -0.00292389  1
  O2-  O217  1  0.83267741  0.25521749  0.25071339  1
  O2-  O218  1  0.83670092  0.25327242  0.50210168  1
  O2-  O219  1  0.83094686  0.25614284  0.75195514  1
  O2-  O220  1  0.83708633  0.59158904  0.00120679  1
  O2-  O221  1  0.84000339  0.58751537  0.24779421  1
  O2-  O222  1  0.83442976  0.58416625  0.49829571  1
  O2-  O223  1  0.83626198  0.58701146  0.74824146  1
  O2-  O224  1  0.83272575  0.92142524  -0.00550512  1
  O2-  O225  1  0.83440186  0.91949726  0.25230057  1
  O2-  O226  1  0.83077692  0.92001560  0.49910851  1
  O2-  O227  1  0.83555007  0.92251627  0.75149840  1
  O2-  O228  1  0.16275414  0.25131645  -0.00475773  1
  O2-  O229  1  0.16854533  0.24859797  0.25998726  1
  O2-  O230  1  0.16608417  0.25662927  0.49561696  1
  O2-  O231  1  0.16585405  0.25189000  0.74663531  1
  O2-  O232  1  0.16085524  0.58625372  0.00321201  1
  O2-  O233  1  0.16091662  0.59151337  0.24831191  1
  O2-  O234  1  0.16395363  0.58559870  0.50351699  1
  O2-  O235  1  0.16486013  0.58635933  0.75031978  1
  O2-  O236  1  0.16869187  0.92135930  -0.00425548  1
  O2-  O237  1  0.16179941  0.91274888  0.24981019  1
  O2-  O238  1  0.16826209  0.91687640  0.49727804  1
  O2-  O239  1  0.16776974  0.91892333  0.75426848  1
  O2-  O240  1  0.66692652  0.25799113  0.00071928  1
  O2-  O241  1  0.66205496  0.25285398  0.25601640  1
  O2-  O242  1  0.66187264  0.25205426  0.50172617  1
  O2-  O243  1  0.67005819  0.25652368  0.74574126  1
  O2-  O244  1  0.66428916  0.59371869  -0.00354064  1
  O2-  O245  1  0.66125848  0.59077621  0.24990526  1
  O2-  O246  1  0.66429922  0.58141712  0.49732232  1
  O2-  O247  1  0.66308811  0.58674998  0.75048564  1
  O2-  O248  1  0.66369559  0.91761671  -0.00031056  1
  O2-  O249  1  0.66460973  0.91814058  0.25050212  1
  O2-  O250  1  0.66758941  0.91500360  0.50269300  1
  O2-  O251  1  0.67091620  0.91142489  0.74401117  1
  O2-  O252  1  0.33891015  0.07526623  0.00265392  1
  O2-  O253  1  0.33318690  0.07854889  0.25264256  1
  O2-  O254  1  0.33492466  0.08047153  0.49707940  1
  O2-  O255  1  0.33709649  0.08091341  0.75119132  1
  O2-  O256  1  0.33509752  0.41490378  -0.00209896  1
  O2-  O257  1  0.33250815  0.41647298  0.25080643  1
  O2-  O258  1  0.33598461  0.41531544  0.49677564  1
  O2-  O259  1  0.34042959  0.41137675  0.75268525  1
  O2-  O260  1  0.33523416  0.75247487  -0.00070407  1
  O2-  O261  1  0.33963516  0.75139353  0.24770062  1
  O2-  O262  1  0.33583371  0.74963689  0.50214489  1
  O2-  O263  1  0.33980997  0.74559456  0.75123249  1
  O2-  O264  1  0.83737913  0.07653591  -0.00306835  1
  O2-  O265  1  0.84420503  0.07622743  0.24529453  1
  O2-  O266  1  0.83054903  0.08014964  0.49847515  1
  O2-  O267  1  0.83074354  0.08003489  0.74938193  1
  O2-  O268  1  0.83306376  0.41694479  0.00092003  1
  O2-  O269  1  0.83201772  0.41399636  0.25020395  1
  O2-  O270  1  0.83385723  0.41547925  0.49884107  1
  O2-  O271  1  0.83316515  0.41609245  0.74904626  1
  O2-  O272  1  0.83061067  0.74391748  0.00193543  1
  O2-  O273  1  0.83185655  0.74443744  0.25054347  1
  O2-  O274  1  0.83493866  0.74636047  0.49824082  1
  O2-  O275  1  0.83253012  0.74513667  0.74936828  1
  O2-  O276  1  0.44935731  0.24170454  0.51700592  1
  O2-  O277  1  0.44400424  0.91283294  0.48745158  1
  O2-  O278  1  0.44778539  0.75371263  0.48200419  1
  O2-  O279  1  0.45199669  0.90611054  0.99081035  1
  O2-  O280  1  0.44619783  0.42686522  0.01312742  1
  O2-  O281  1  0.04512853  0.56342211  0.49667450  1
  O2-  O282  1  0.95259206  0.22431039  0.79789735  1
  O2-  O283  1  0.03968336  0.43071870  0.23859283  1
  O2-  O284  1  0.95480045  0.24068694  0.49455850  1
  O2-  O285  1  0.55284582  0.42527201  0.51133253  1
  O2-  O286  1  0.05078983  0.23871251  0.76193089  1
  O2-  O287  1  0.95195405  0.43466750  1.00239464  1
  O2-  O288  1  0.03381554  0.22528541  0.28266195  1
  O2-  O289  1  0.53204351  0.88923881  0.71258712  1
  O2-  O290  1  0.94963580  0.90269314  0.26578305  1
  O2-  O291  1  0.54839329  0.57136312  0.73460902  1
  O2-  O292  1  0.45328056  0.90405004  0.24090377  1
  O2-  O293  1  0.55400547  0.41863890  0.23189658  1
  O2-  O294  1  0.05153675  0.75116525  0.20251174  1
  O2-  O295  1  0.94692298  0.91376536  0.98176942  1
  O2-  O296  1  0.55153904  0.23616842  0.48249543  1
  O2-  O297  1  0.45043192  0.57980569  0.23318435  1
  O2-  O298  1  0.45678038  0.22729656  0.26299915  1
  O2-  O299  1  0.55361855  0.42213540  0.01653021  1
  O2-  O300  1  0.45253772  0.23833017  0.00157638  1
  O2-  O301  1  0.55028289  0.25313036  0.51693602  1
  O2-  O302  1  0.45425952  0.75847792  0.23817253  1
  O2-  O303  1  0.53521466  0.88822523  0.51041713  1
  O2-  O304  1  0.94890802  0.75757068  0.02027798  1
  O2-  O305  1  0.95339755  0.89963123  0.74548016  1
  O2-  O306  1  0.44622291  0.42093933  0.49419443  1
  O2-  O307  1  0.45311884  0.75209141  0.98836147  1
  O2-  O308  1  0.05270702  0.90231059  0.23691361  1
  O2-  O309  1  0.05396058  0.91304403  0.00486229  1
  O2-  O310  1  0.95571045  0.56507084  0.74824109  1
  O2-  O311  1  0.54476267  0.09848398  0.75435814  1
  O2-  O312  1  0.45150461  0.57849470  0.00932861  1
  O2-  O313  1  0.53737498  0.87264706  0.74573104  1
  O2-  O314  1  0.94115539  0.41962463  0.01785699  1
  O2-  O315  1  0.04524987  0.09205106  0.25194511  1
  O2-  O316  1  0.54817934  0.09516175  0.20711590  1
  O2-  O317  1  0.05164153  0.75751170  0.99286327  1
  O2-  O318  1  0.54887881  0.42382681  0.73780298  1
  O2-  O319  1  0.05125590  0.42209989  0.94545416  1
  O2-  O320  1  0.45145919  0.57962705  0.48357694  1
  O2-  O321  1  0.45446463  0.23498253  0.73191699  1
  O2-  O322  1  0.55468018  0.75697665  0.49036972  1
  O2-  O323  1  0.04475719  0.76733578  0.50607145  1
  O2-  O324  1  0.93732629  0.40778943  0.18206006  1
  O2-  O325  1  0.55662682  0.08658244  0.20029593  1
  O2-  O326  1  0.93730453  0.73151070  0.21538955  1
  O2-  O327  1  0.43287669  0.40806771  0.27238101  1
  O2-  O328  1  0.93683553  0.91819106  0.51971020  1
  O2-  O329  1  0.56189642  0.26018119  0.66876667  1
  O2-  O330  1  0.56199861  0.41188389  0.02752948  1
  O2-  O331  1  0.55657469  0.41114378  0.22721050  1
  O2-  O332  1  0.43348307  0.59357651  0.73373401  1
  O2-  O333  1  0.56313914  0.07951859  0.98157205  1
  O2-  O334  1  0.05927709  0.07465648  0.03756376  1
  O2-  O335  1  0.44218242  0.59124067  0.22425302  1
  O2-  O336  1  0.56353290  0.59939383  0.53197413  1
  O2-  O337  1  0.93910267  0.59424674  0.53515409  1
  O2-  O338  1  0.93603768  0.25525378  0.28637934  1
  O2-  O339  1  0.56691622  0.72881782  0.71762586  1
  O2-  O340  1  0.06683552  0.24540377  0.57394705  1
  O2-  O341  1  0.93202759  0.40315950  0.95898090  1
  O2-  O342  1  0.58944954  0.95891755  0.79308395  1
  O2-  O343  1  0.06811332  0.24223798  0.42705635  1
  O2-  O344  1  0.93244721  0.41570551  0.32817174  1
  O2-  O345  1  0.05788079  0.92614687  0.20870175  1
  O2-  O346  1  0.57383129  0.94347932  0.54142988  1
  O2-  O347  1  0.06467234  0.41121200  0.47700380  1
  O2-  O348  1  0.93307027  0.07876062  0.73244854  1
  O2-  O349  1  0.56172395  0.26413073  0.80703071  1
  O2-  O350  1  0.94145522  0.25764909  0.03258637  1
  O2-  O351  1  0.56114202  0.07548649  0.48814589  1
  O2-  O352  1  0.56703872  0.58607906  0.06568527  1
  O2-  O353  1  0.08227503  0.42219846  0.08657444  1
  O2-  O354  1  0.58450550  0.08637424  0.34093416  1
  O2-  O355  1  0.06198396  0.41783868  0.22651493  1
  O2-  O356  1  0.43613302  0.39460116  0.02048638  1
  O2-  O357  1  0.05757003  0.74227622  0.18714957  1
  O2-  O358  1  0.05638298  0.40746444  0.93443903  1
  O2-  O359  1  0.43728787  0.07588124  0.97498345  1
  O2-  O360  1  0.56366005  0.25408252  0.08346831  1
  O2-  O361  1  0.92911669  0.27476333  0.67275038  1
  O2-  O362  1  0.93668247  0.59205185  0.97884523  1
  O2-  O363  1  0.56496050  0.58510374  0.93465030  1
  O2-  O364  1  0.42742240  0.91213666  0.81474973  1
  O2-  O365  1  0.08391708  0.26327406  0.18622137  1
  O2-  O366  1  0.56092201  0.26277488  0.94260117  1
  O2-  O367  1  0.43010138  0.92362447  0.68555249  1
  O2-  O368  1  0.94004866  0.40558412  0.78535999  1
  O2-  O369  1  0.93734342  0.08313949  0.52534689  1
  O2-  O370  1  0.08207982  0.75307951  0.34497841  1
  O2-  O371  1  0.43785960  0.39940071  0.71936585  1
  O2-  O372  1  0.75091395  0.67226945  0.40150595  1
  O2-  O373  1  0.24985625  0.33676787  0.67398025  1
  O2-  O374  1  0.75028046  0.67363762  0.60608986  1
  O2-  O375  1  0.75066016  0.32930744  0.88004903  1
  O2-  O376  1  0.74912843  0.33416488  0.39498307  1
  O2-  O377  1  0.24998225  0.65888579  0.17364921  1
  O2-  O378  1  0.75103909  -0.01834364  0.07216086  1
  O2-  O379  1  0.74975749  -0.00801503  0.36237354  1
  O2-  O380  1  0.75022429  0.33906362  0.11306601  1
  O2-  O381  1  0.25085684  -0.00565258  0.39161967  1
  O2-  O382  1  0.25078223  0.33306548  0.55467028  1
  O2-  O383  1  0.75127423  0.00029875  0.19375635  1
  O2-  O384  1  0.24989110  0.67877102  0.65019103  1
  O2-  O385  1  0.25022193  -0.02029450  0.56166079  1
  O2-  O386  1  0.25133126  0.67591415  0.83912670  1
  O2-  O387  1  0.25107279  0.31154125  0.20635761  1
  O2-  O388  1  0.25074046  0.01926777  0.69274201  1
  O2-  O389  1  0.25092427  0.32053581  0.90991819  1
  O2-  O390  1  0.25111634  0.32728332  0.08107950  1
  O2-  O391  1  0.25191427  0.65373858  0.35176596  1
  O2-  O392  1  0.24962157  0.33028055  0.79775450  1
  O2-  O393  1  0.24813564  0.00061075  0.11670346  1
  O2-  O394  1  0.25037437  0.33062595  0.37131328  1
  O2-  O395  1  0.24961775  0.67718401  0.08231521  1
  O2-  O396  1  0.75065625  0.83611916  0.65910137  1
  O2-  O397  1  0.24962047  0.51412825  0.89037432  1
  O2-  O398  1  0.75071043  0.84704490  0.79053618  1
  O2-  O399  1  0.75064029  0.15796444  0.59788939  1
  O2-  O400  1  0.75014626  0.48566635  0.14805827  1
  O2-  O401  1  0.75027666  0.49873501  0.41765259  1
  O2-  O402  1  0.75022277  0.17316437  0.41056853  1
  O2-  O403  1  0.24991207  0.14963537  0.80692664  1
  O2-  O404  1  0.75040015  0.13802354  0.12927518  1
  O2-  O405  1  0.74806016  0.20979472  0.17630765  1
  O2-  O406  1  0.75039781  0.82068831  0.87127806  1
  O2-  O407  1  0.75075768  0.49566442  0.90074002  1
  O2-  O408  1  0.24998655  0.52183107  0.63965276  1
  O2-  O409  1  0.25021953  0.18474239  0.09227637  1
  O2-  O410  1  0.24896959  0.14535566  0.17591569  1
  O2-  O411  1  0.74932077  0.81465033  0.21978217  1
  O2-  O412  1  0.24964190  0.50891464  0.54699866  1
  O2-  O413  1  0.75037207  0.49963063  0.81382852  1
  O2-  O414  1  0.74865195  0.16867239  0.86356698  1
  O2-  O415  1  0.75024706  0.83338195  0.57116167  1
  O2-  O416  1  0.25029185  0.17872495  0.89085147  1
  O2-  O417  1  0.24960401  0.84606827  0.37401924  1
  O2-  O418  1  0.75070252  0.83300624  0.13341901  1
  O2-  O419  1  0.74963028  0.16706665  0.77720317  1
  O2-  O420  1  0.02087023  0.35546352  0.63183339  1
  O2-  O421  1  0.96468038  -0.00949674  0.63003086  1
  O2-  O422  1  0.47517064  0.67370230  0.62093895  1
  O2-  O423  1  0.52437257  0.67793127  0.13517442  1
  O2-  O424  1  0.04684221  -0.00379154  0.38900117  1
  O2-  O425  1  0.01171077  0.65163652  0.37823387  1
  O2-  O426  1  0.47332437  0.32830533  0.13508775  1
  O2-  O427  1  0.95467063  0.68835138  0.86331561  1
  O2-  O428  1  0.52645288  -0.00399221  0.88764258  1
  O2-  O429  1  0.47966642  0.32862733  0.37457381  1
  O2-  O430  1  0.01009067  0.32139412  0.12273860  1
  O2-  O431  1  0.05274529  0.00050541  0.61728789  1
  O2-  O432  1  0.45369546  0.01590497  0.12722126  1
  O2-  O433  1  0.52355118  -0.02417145  0.36826943  1
  O2-  O434  1  0.52674551  0.66325522  0.36364405  1
  O2-  O435  1  0.02604573  0.66619233  0.63229678  1
  O2-  O436  1  0.51806122  0.67750710  0.86463543  1
  O2-  O437  1  0.46853114  0.00973949  0.36432915  1
  O2-  O438  1  0.01695114  0.34378338  0.36775175  1
  O2-  O439  1  0.04706735  0.65720447  0.86894635  1
  O2-  O440  1  0.47093128  0.01175402  0.86648111  1
  O2-  O441  1  0.54288732  -0.02804554  0.11005087  1
  O2-  O442  1  0.95250910  0.01072964  0.37716053  1
  O2-  O443  1  0.47660000  0.01972242  0.61570900  1
