# generated using pymatgen
data_La7(Ru4O11)2
_symmetry_space_group_name_H-M   'P 1'
_cell_length_a   23.99128205
_cell_length_b   16.83275791
_cell_length_c   15.42900749
_cell_angle_alpha   90.00075345
_cell_angle_beta   90.00161612
_cell_angle_gamma   90.00093167
_symmetry_Int_Tables_number   1
_chemical_formula_structural   La7(Ru4O11)2
_chemical_formula_sum   'La84 Ru96 O264'
_cell_volume   6230.84178193
_cell_formula_units_Z   12
loop_
 _symmetry_equiv_pos_site_id
 _symmetry_equiv_pos_as_xyz
  1  'x, y, z'
loop_
 _atom_type_symbol
 _atom_type_oxidation_number
  La3+  3.0
  Ru4+  4.0
  O2-  -2.0
loop_
 _atom_site_type_symbol
 _atom_site_label
 _atom_site_symmetry_multiplicity
 _atom_site_fract_x
 _atom_site_fract_y
 _atom_site_fract_z
 _atom_site_occupancy
  La3+  La0  1  0.13570871  0.00154923  0.12691962  1
  La3+  La1  1  0.13916071  0.00317916  0.37927471  1
  La3+  La2  1  0.14905036  0.00324994  0.62923255  1
  La3+  La3  1  0.13730635  0.00337721  0.86743900  1
  La3+  La4  1  0.13819050  0.33185330  0.12083341  1
  La3+  La5  1  0.13991543  0.33027331  0.37933479  1
  La3+  La6  1  0.14364753  0.33401204  0.62414678  1
  La3+  La7  1  0.14162530  0.33204058  0.87274216  1
  La3+  La8  1  0.13716582  0.66041817  0.12744849  1
  La3+  La9  1  0.13861068  0.66726722  0.37810021  1
  La3+  La10  1  0.13629220  0.66361610  0.62699346  1
  La3+  La11  1  0.13750618  0.66500046  0.87354126  1
  La3+  La12  1  0.63856644  -0.00368431  0.12294195  1
  La3+  La13  1  0.64290276  0.00106022  0.37668530  1
  La3+  La14  1  0.64064253  0.00318575  0.62471344  1
  La3+  La15  1  0.63800968  0.00683096  0.87052080  1
  La3+  La16  1  0.64275340  0.33565711  0.11865290  1
  La3+  La17  1  0.63512266  0.33358239  0.37598647  1
  La3+  La18  1  0.64228948  0.33145631  0.62151323  1
  La3+  La19  1  0.63704026  0.33234568  0.87799676  1
  La3+  La20  1  0.63638664  0.66548452  0.12702001  1
  La3+  La21  1  0.63751977  0.66598600  0.37310603  1
  La3+  La22  1  0.64192168  0.66169165  0.62402119  1
  La3+  La23  1  0.63779639  0.66879919  0.87377249  1
  La3+  La24  1  0.36525655  -0.00012576  0.12894007  1
  La3+  La25  1  0.36736427  0.00424693  0.37913895  1
  La3+  La26  1  0.35446323  0.00309814  0.62675648  1
  La3+  La27  1  0.36141574  0.00168353  0.87000596  1
  La3+  La28  1  0.36050989  0.33259666  0.12278161  1
  La3+  La29  1  0.35748519  0.33000472  0.37980723  1
  La3+  La30  1  0.35524872  0.33229904  0.62494009  1
  La3+  La31  1  0.35993832  0.33238366  0.87026559  1
  La3+  La32  1  0.36892853  0.66658357  0.12478866  1
  La3+  La33  1  0.36558311  0.66633129  0.37597389  1
  La3+  La34  1  0.36441048  0.66507516  0.63011368  1
  La3+  La35  1  0.36018138  0.66576536  0.87174305  1
  La3+  La36  1  0.85599359  0.00104570  0.12672364  1
  La3+  La37  1  0.85434467  0.00220555  0.37634189  1
  La3+  La38  1  0.86540912  -0.00694162  0.63179654  1
  La3+  La39  1  0.86881527  -0.00251519  0.86985175  1
  La3+  La40  1  0.86280272  0.33451814  0.11836193  1
  La3+  La41  1  0.86218131  0.33340744  0.37822254  1
  La3+  La42  1  0.85550882  0.33545440  0.62230139  1
  La3+  La43  1  0.86383193  0.33322154  0.88140128  1
  La3+  La44  1  0.86244474  0.66762655  0.12763961  1
  La3+  La45  1  0.86209628  0.66687412  0.37228589  1
  La3+  La46  1  0.86087901  0.66491983  0.62513869  1
  La3+  La47  1  0.86157141  0.66576422  0.87455969  1
  La3+  La48  1  -0.00439427  0.83686577  0.86956549  1
  La3+  La49  1  0.49851954  0.16338336  0.62816470  1
  La3+  La50  1  0.50532660  0.84182778  0.87556887  1
  La3+  La51  1  0.50032694  0.16562940  0.38843737  1
  La3+  La52  1  -0.00033314  0.82976977  0.13359893  1
  La3+  La53  1  0.00011851  0.17113954  0.63019197  1
  La3+  La54  1  0.00313478  0.83234369  0.11196699  1
  La3+  La55  1  0.50135314  0.16355765  0.86688036  1
  La3+  La56  1  -0.00082395  0.83426619  0.36627118  1
  La3+  La57  1  0.00066077  0.16912951  0.87661211  1
  La3+  La58  1  0.00330425  0.82789917  0.38646872  1
  La3+  La59  1  0.50685758  0.83728460  0.89193255  1
  La3+  La60  1  0.50081495  0.16622941  0.12373822  1
  La3+  La61  1  0.50438967  0.50745500  0.12832099  1
  La3+  La62  1  0.49864812  0.49993036  0.87478063  1
  La3+  La63  1  -0.00271461  0.83715377  0.85288317  1
  La3+  La64  1  0.50071510  0.83240203  0.13645297  1
  La3+  La65  1  -0.00034577  0.49220482  0.11868453  1
  La3+  La66  1  -0.00267875  0.49848860  0.87353660  1
  La3+  La67  1  0.49863671  0.83291335  0.38464733  1
  La3+  La68  1  0.50226649  0.48647626  0.62076729  1
  La3+  La69  1  -0.00254553  0.83765446  0.62428352  1
  La3+  La70  1  0.00082545  0.49911554  0.62780078  1
  La3+  La71  1  -0.00060700  0.16697025  0.60908741  1
  La3+  La72  1  0.25114817  0.42490016  -0.03723645  1
  La3+  La73  1  0.25077929  0.88878713  0.27839749  1
  La3+  La74  1  0.25120938  0.84675181  -0.02439720  1
  La3+  La75  1  0.75055009  0.12721214  0.71651628  1
  La3+  La76  1  0.25043412  0.44258412  0.52826157  1
  La3+  La77  1  0.24947626  0.20180202  0.20571688  1
  La3+  La78  1  0.25016044  0.88435857  0.51787502  1
  La3+  La79  1  0.24956324  0.49001742  0.29122497  1
  La3+  La80  1  0.74969466  0.88116159  0.45727661  1
  La3+  La81  1  0.75059913  0.83741639  0.00866187  1
  La3+  La82  1  0.75017487  0.13172955  0.24117730  1
  La3+  La83  1  0.75094034  0.53788042  0.74786461  1
  Ru4+  Ru84  1  0.00085174  0.00658191  -0.00165001  1
  Ru4+  Ru85  1  0.00351644  0.00763969  0.24659413  1
  Ru4+  Ru86  1  0.00200743  0.00402146  0.50203247  1
  Ru4+  Ru87  1  -0.00159527  0.00294084  0.75259613  1
  Ru4+  Ru88  1  0.00020947  0.32718649  0.00183874  1
  Ru4+  Ru89  1  0.00204718  0.33451973  0.25476862  1
  Ru4+  Ru90  1  -0.00017253  0.33030023  0.50307716  1
  Ru4+  Ru91  1  0.00056644  0.33415255  0.75052267  1
  Ru4+  Ru92  1  -0.00731731  0.66114151  0.00208764  1
  Ru4+  Ru93  1  -0.00261250  0.66236175  0.25280557  1
  Ru4+  Ru94  1  0.00019297  0.66118051  0.50045560  1
  Ru4+  Ru95  1  0.00150644  0.66236525  0.74942816  1
  Ru4+  Ru96  1  0.49857427  0.00070712  -0.00282263  1
  Ru4+  Ru97  1  0.50736290  0.00138757  0.25680377  1
  Ru4+  Ru98  1  0.50064306  -0.00551508  0.50121358  1
  Ru4+  Ru99  1  0.49809510  -0.00792466  0.74630006  1
  Ru4+  Ru100  1  0.49868171  0.33085550  0.00120462  1
  Ru4+  Ru101  1  0.49872908  0.33889211  0.25642741  1
  Ru4+  Ru102  1  0.49948960  0.33853068  0.49144785  1
  Ru4+  Ru103  1  0.49984405  0.33165353  0.75801383  1
  Ru4+  Ru104  1  0.49669483  0.67258765  -0.00251667  1
  Ru4+  Ru105  1  0.49373349  0.66653316  0.25130224  1
  Ru4+  Ru106  1  0.50324055  0.66913748  0.49623300  1
  Ru4+  Ru107  1  0.49774851  0.66234524  0.73704317  1
  Ru4+  Ru108  1  0.11091052  0.17015242  0.00119015  1
  Ru4+  Ru109  1  0.10458823  0.16828427  0.24869638  1
  Ru4+  Ru110  1  0.11472048  0.16639654  0.50112213  1
  Ru4+  Ru111  1  0.11367908  0.16441478  0.75058956  1
  Ru4+  Ru112  1  0.11017132  0.49767002  -0.00069155  1
  Ru4+  Ru113  1  0.10923808  0.49599299  0.25292328  1
  Ru4+  Ru114  1  0.10786831  0.49881411  0.49950788  1
  Ru4+  Ru115  1  0.11527287  0.49819107  0.74949240  1
  Ru4+  Ru116  1  0.11052978  0.83488545  -0.00183161  1
  Ru4+  Ru117  1  0.11004061  0.83213049  0.25070353  1
  Ru4+  Ru118  1  0.10993384  0.83554629  0.50009600  1
  Ru4+  Ru119  1  0.11359593  0.83542087  0.74942841  1
  Ru4+  Ru120  1  0.61520775  0.16956344  0.00285267  1
  Ru4+  Ru121  1  0.61230532  0.16955292  0.24631531  1
  Ru4+  Ru122  1  0.61591912  0.16447570  0.49809820  1
  Ru4+  Ru123  1  0.61276940  0.17464936  0.74826642  1
  Ru4+  Ru124  1  0.61596475  0.49260712  -0.00079839  1
  Ru4+  Ru125  1  0.61305826  0.49600142  0.25047328  1
  Ru4+  Ru126  1  0.61311142  0.49620065  0.49823723  1
  Ru4+  Ru127  1  0.60953173  0.50466031  0.75137477  1
  Ru4+  Ru128  1  0.61088997  0.83736593  0.00134905  1
  Ru4+  Ru129  1  0.61544020  0.83552766  0.24718350  1
  Ru4+  Ru130  1  0.60803690  0.82591793  0.50250080  1
  Ru4+  Ru131  1  0.61424578  0.83355399  0.74838164  1
  Ru4+  Ru132  1  0.38773772  0.16907143  0.00067689  1
  Ru4+  Ru133  1  0.38628844  0.17419792  0.24869906  1
  Ru4+  Ru134  1  0.38235517  0.16678008  0.50432338  1
  Ru4+  Ru135  1  0.38850906  0.17030990  0.75052203  1
  Ru4+  Ru136  1  0.39029957  0.49890521  -0.00065649  1
  Ru4+  Ru137  1  0.39339893  0.49721118  0.25342548  1
  Ru4+  Ru138  1  0.39221256  0.50052718  0.50039991  1
  Ru4+  Ru139  1  0.38470397  0.50093206  0.75218140  1
  Ru4+  Ru140  1  0.39247689  0.83430263  -0.00086491  1
  Ru4+  Ru141  1  0.38591921  0.82739700  0.24993487  1
  Ru4+  Ru142  1  0.38997500  0.83311394  0.49995330  1
  Ru4+  Ru143  1  0.38772115  0.83436984  0.74730454  1
  Ru4+  Ru144  1  0.88669012  0.16343450  0.00389514  1
  Ru4+  Ru145  1  0.88864128  0.16556608  0.24865135  1
  Ru4+  Ru146  1  0.88742857  0.17074286  0.49960529  1
  Ru4+  Ru147  1  0.88926872  0.16957766  0.74956734  1
  Ru4+  Ru148  1  0.88539655  0.50280390  -0.00146894  1
  Ru4+  Ru149  1  0.89005049  0.49950948  0.25121478  1
  Ru4+  Ru150  1  0.88716964  0.49889723  0.50154903  1
  Ru4+  Ru151  1  0.89309863  0.50001513  0.74920833  1
  Ru4+  Ru152  1  0.88668170  0.83220356  -0.00384324  1
  Ru4+  Ru153  1  0.88223063  0.83434372  0.24884228  1
  Ru4+  Ru154  1  0.88756477  0.83301254  0.50402358  1
  Ru4+  Ru155  1  0.88625007  0.83381730  0.74785871  1
  Ru4+  Ru156  1  0.74988819  0.73545989  0.48897939  1
  Ru4+  Ru157  1  0.75049552  0.42269519  0.24771568  1
  Ru4+  Ru158  1  0.25043823  0.73920117  0.52159117  1
  Ru4+  Ru159  1  0.25067100  0.60676779  0.21618977  1
  Ru4+  Ru160  1  0.25009912  0.71947994  0.01710028  1
  Ru4+  Ru161  1  0.75044343  0.26036841  0.76601475  1
  Ru4+  Ru162  1  0.74997435  0.69881954  0.02355208  1
  Ru4+  Ru163  1  0.25027073  0.07625276  0.25982091  1
  Ru4+  Ru164  1  0.75034347  0.27643448  0.24223529  1
  Ru4+  Ru165  1  0.24922661  0.74277989  0.25880136  1
  Ru4+  Ru166  1  0.25025918  0.58901505  0.53163725  1
  Ru4+  Ru167  1  0.75134525  0.97568832  -0.02102014  1
  Ru4+  Ru168  1  0.75012674  0.74933957  0.76264314  1
  Ru4+  Ru169  1  0.74938770  0.91930687  0.75788189  1
  Ru4+  Ru170  1  0.24969818  0.25193194  0.73787599  1
  Ru4+  Ru171  1  0.24974526  0.35576790  0.27536603  1
  Ru4+  Ru172  1  0.74997163  0.56854744  0.49771439  1
  Ru4+  Ru173  1  0.75034745  0.57572910  0.24796708  1
  Ru4+  Ru174  1  0.24980153  0.97740293  -0.03594890  1
  Ru4+  Ru175  1  0.25009859  0.10664836  -0.00200649  1
  Ru4+  Ru176  1  0.24973289  0.74741909  0.73536612  1
  Ru4+  Ru177  1  0.75092791  0.39837461  0.75460013  1
  Ru4+  Ru178  1  0.25040267  0.58085268  -0.01758129  1
  Ru4+  Ru179  1  0.74960310  0.56530339  0.00076338  1
  O2-  O180  1  0.16597374  0.08236765  -0.00020863  1
  O2-  O181  1  0.16435233  0.08105850  0.25028534  1
  O2-  O182  1  0.16219349  0.08093625  0.50040537  1
  O2-  O183  1  0.16703707  0.08271020  0.75205811  1
  O2-  O184  1  0.16231679  0.41133470  -0.00045802  1
  O2-  O185  1  0.16522827  0.41190076  0.25049278  1
  O2-  O186  1  0.16143036  0.41313354  0.49695123  1
  O2-  O187  1  0.16597174  0.41492719  0.75209798  1
  O2-  O188  1  0.16658832  0.74322884  -0.00094601  1
  O2-  O189  1  0.16517354  0.74585782  0.25099357  1
  O2-  O190  1  0.16845020  0.74629840  0.50440437  1
  O2-  O191  1  0.16516430  0.74688454  0.74660840  1
  O2-  O192  1  0.66298582  0.08044462  -0.00077365  1
  O2-  O193  1  0.66138552  0.07992793  0.25144515  1
  O2-  O194  1  0.66534863  0.08388172  0.50122471  1
  O2-  O195  1  0.66196600  0.08068265  0.74950251  1
  O2-  O196  1  0.66700727  0.41412381  -0.00309747  1
  O2-  O197  1  0.66940197  0.41411878  0.25136261  1
  O2-  O198  1  0.66565804  0.41423937  0.49714150  1
  O2-  O199  1  0.66815276  0.41370160  0.75154701  1
  O2-  O200  1  0.66492361  0.74402976  0.00308676  1
  O2-  O201  1  0.66344868  0.74538707  0.25001527  1
  O2-  O202  1  0.66795997  0.74656058  0.49600412  1
  O2-  O203  1  0.66897590  0.75012508  0.75279430  1
  O2-  O204  1  0.33672905  0.25187244  0.00097412  1
  O2-  O205  1  0.33438705  0.25459284  0.24928694  1
  O2-  O206  1  0.33617578  0.25232362  0.50062762  1
  O2-  O207  1  0.32962030  0.25124549  0.74886759  1
  O2-  O208  1  0.33554710  0.58686368  0.00019241  1
  O2-  O209  1  0.33585864  0.58802234  0.24818413  1
  O2-  O210  1  0.33483512  0.58601233  0.50068348  1
  O2-  O211  1  0.33340886  0.58411749  0.74517484  1
  O2-  O212  1  0.33615682  0.92405253  0.00144623  1
  O2-  O213  1  0.34115222  0.92377854  0.24817983  1
  O2-  O214  1  0.33976403  0.92170751  0.49991477  1
  O2-  O215  1  0.33732332  0.91743882  0.75214223  1
  O2-  O216  1  0.83611161  0.25256433  -0.00224828  1
  O2-  O217  1  0.83032307  0.25450322  0.25290628  1
  O2-  O218  1  0.83280813  0.25240200  0.49394452  1
  O2-  O219  1  0.83439556  0.25352917  0.75125132  1
  O2-  O220  1  0.83096211  0.58520972  -0.00141341  1
  O2-  O221  1  0.83168623  0.58518760  0.24957455  1
  O2-  O222  1  0.83185942  0.58508465  0.49762600  1
  O2-  O223  1  0.83780657  0.58926400  0.75090300  1
  O2-  O224  1  0.83378282  0.92240459  -0.00261890  1
  O2-  O225  1  0.83411609  0.91810567  0.25433138  1
  O2-  O226  1  0.83783988  0.92039045  0.50240189  1
  O2-  O227  1  0.83121095  0.91784994  0.75011490  1
  O2-  O228  1  0.16488656  0.25154617  -0.00067792  1
  O2-  O229  1  0.16479248  0.25361878  0.25181744  1
  O2-  O230  1  0.16191568  0.25190103  0.49894042  1
  O2-  O231  1  0.16704137  0.25206993  0.74871328  1
  O2-  O232  1  0.16507028  0.58692203  -0.00294787  1
  O2-  O233  1  0.16795789  0.58648224  0.24874292  1
  O2-  O234  1  0.16543573  0.58646402  0.50239359  1
  O2-  O235  1  0.16127260  0.58706883  0.74964569  1
  O2-  O236  1  0.16340882  0.92263069  0.00134097  1
  O2-  O237  1  0.16198003  0.92363263  0.24879815  1
  O2-  O238  1  0.16067294  0.92219918  0.50100062  1
  O2-  O239  1  0.16536043  0.91739537  0.75106052  1
  O2-  O240  1  0.66657297  0.25068673  -0.00294225  1
  O2-  O241  1  0.67047366  0.25245213  0.25444200  1
  O2-  O242  1  0.66374503  0.25468622  0.49670674  1
  O2-  O243  1  0.66844526  0.25410955  0.75111778  1
  O2-  O244  1  0.66724478  0.58531788  0.00092436  1
  O2-  O245  1  0.66809729  0.58706924  0.24778296  1
  O2-  O246  1  0.66626984  0.58387147  0.49547490  1
  O2-  O247  1  0.66664539  0.58654652  0.75141190  1
  O2-  O248  1  0.67004203  0.92062578  -0.00060277  1
  O2-  O249  1  0.66567447  0.91693138  0.25043740  1
  O2-  O250  1  0.66059177  0.91740781  0.50107831  1
  O2-  O251  1  0.66774694  0.91921607  0.74978707  1
  O2-  O252  1  0.33422449  0.08101930  0.00136030  1
  O2-  O253  1  0.33471380  0.07871276  0.24886622  1
  O2-  O254  1  0.33226551  0.08179797  0.50160043  1
  O2-  O255  1  0.33784176  0.08444135  0.75242639  1
  O2-  O256  1  0.34212915  0.41066591  0.00286328  1
  O2-  O257  1  0.33241799  0.41307608  0.24768345  1
  O2-  O258  1  0.34007252  0.41331065  0.49762273  1
  O2-  O259  1  0.33435611  0.41649995  0.74921128  1
  O2-  O260  1  0.33514206  0.74408617  0.00241303  1
  O2-  O261  1  0.33245380  0.74706750  0.25105544  1
  O2-  O262  1  0.33471509  0.74587163  0.50165213  1
  O2-  O263  1  0.33164849  0.74884326  0.74694535  1
  O2-  O264  1  0.83289188  0.08159699  -0.00270645  1
  O2-  O265  1  0.83875456  0.08032876  0.25288251  1
  O2-  O266  1  0.83982942  0.08368634  0.50091918  1
  O2-  O267  1  0.83761460  0.07434805  0.75105786  1
  O2-  O268  1  0.83193521  0.41591353  -0.00348697  1
  O2-  O269  1  0.83294938  0.41393405  0.25015032  1
  O2-  O270  1  0.83608512  0.41465464  0.49648430  1
  O2-  O271  1  0.83417946  0.41311757  0.75323078  1
  O2-  O272  1  0.83176926  0.74415401  -0.00018726  1
  O2-  O273  1  0.83211082  0.74566968  0.25291151  1
  O2-  O274  1  0.83195154  0.74566571  0.49820077  1
  O2-  O275  1  0.83589731  0.74787188  0.74994744  1
  O2-  O276  1  0.95469886  0.10152492  0.75782763  1
  O2-  O277  1  0.55317833  0.57975323  0.69772922  1
  O2-  O278  1  0.04922714  0.42196809  0.26756729  1
  O2-  O279  1  0.53686843  0.90110674  0.99673723  1
  O2-  O280  1  0.45312539  0.09252117  0.22978067  1
  O2-  O281  1  0.55025994  0.56600366  0.98151126  1
  O2-  O282  1  0.45088641  0.57014478  0.26373207  1
  O2-  O283  1  0.45190008  0.10092401  0.26803695  1
  O2-  O284  1  0.45445307  0.89958824  0.74417147  1
  O2-  O285  1  0.45590928  0.57741825  0.51740240  1
  O2-  O286  1  0.44240929  0.08240904  0.47577334  1
  O2-  O287  1  0.53348496  0.21744348  0.25745959  1
  O2-  O288  1  0.05095700  0.76226258  0.95157017  1
  O2-  O289  1  0.94862657  0.23304776  0.00961371  1
  O2-  O290  1  0.04451597  0.56561120  0.21636264  1
  O2-  O291  1  0.96737007  0.21631270  0.45807617  1
  O2-  O292  1  0.95366454  0.76077306  0.72799170  1
  O2-  O293  1  0.44839802  0.42278248  0.51295008  1
  O2-  O294  1  0.45261634  0.90972754  0.22880332  1
  O2-  O295  1  0.45145912  0.89690046  0.26564459  1
  O2-  O296  1  0.54586129  0.57088178  0.24815715  1
  O2-  O297  1  0.45686534  0.55289866  0.71033821  1
  O2-  O298  1  0.53527334  0.77053461  0.77383282  1
  O2-  O299  1  0.54970976  0.43386966  0.48896441  1
  O2-  O300  1  0.55044235  0.09961818  0.73817677  1
  O2-  O301  1  0.45736060  0.24069957  0.51309430  1
  O2-  O302  1  0.04664985  0.56622548  0.49053687  1
  O2-  O303  1  0.94641224  0.57076201  0.23833122  1
  O2-  O304  1  0.54636437  0.90040920  0.48787159  1
  O2-  O305  1  0.05006723  0.23840269  0.00914692  1
  O2-  O306  1  0.94794742  0.42540117  0.00993085  1
  O2-  O307  1  0.95684970  0.22786961  0.28122764  1
  O2-  O308  1  0.52580806  0.79641979  0.75154637  1
  O2-  O309  1  0.53295546  0.88766351  0.02030467  1
  O2-  O310  1  0.95494171  0.90201699  0.48775732  1
  O2-  O311  1  0.54699214  0.57092366  0.02027453  1
  O2-  O312  1  0.05187943  0.24291120  0.23968608  1
  O2-  O313  1  0.95499519  0.90196844  0.99167399  1
  O2-  O314  1  0.04728243  0.09511139  0.98169499  1
  O2-  O315  1  0.53747630  0.21970380  0.27628563  1
  O2-  O316  1  0.04740892  0.09435383  0.23932053  1
  O2-  O317  1  0.54665441  0.76342335  0.01897647  1
  O2-  O318  1  0.54567952  0.57058915  0.25116336  1
  O2-  O319  1  0.94823625  0.90540235  0.73619925  1
  O2-  O320  1  0.46070521  0.43382093  0.21046632  1
  O2-  O321  1  0.94879965  0.42537001  0.24034851  1
  O2-  O322  1  0.96013280  0.90029535  0.75699521  1
  O2-  O323  1  0.04708004  0.57053782  0.00443076  1
  O2-  O324  1  0.56536312  0.41029383  0.21568869  1
  O2-  O325  1  0.43921718  0.40834304  0.78452646  1
  O2-  O326  1  0.06439889  0.40556863  0.02193625  1
  O2-  O327  1  0.55905635  0.06986927  0.72029138  1
  O2-  O328  1  0.58003680  0.28191393  0.18568943  1
  O2-  O329  1  0.93748425  0.74395811  0.27732345  1
  O2-  O330  1  0.93810368  0.74340536  0.47446411  1
  O2-  O331  1  0.06754975  0.72909574  0.09112808  1
  O2-  O332  1  0.06562452  0.74188261  0.47600688  1
  O2-  O333  1  0.93502586  0.07068638  0.06676087  1
  O2-  O334  1  0.93553238  0.74456718  0.02664812  1
  O2-  O335  1  0.56367198  0.07009961  0.46582624  1
  O2-  O336  1  0.44329345  0.08481389  0.47594638  1
  O2-  O337  1  0.06264621  0.41027186  0.72509347  1
  O2-  O338  1  0.56080958  0.25996077  0.03243922  1
  O2-  O339  1  0.56246711  0.26258391  0.67473331  1
  O2-  O340  1  0.55984910  0.73628132  0.56426860  1
  O2-  O341  1  0.93286579  0.58323867  0.93348817  1
  O2-  O342  1  0.58473910  0.71030027  0.69992059  1
  O2-  O343  1  0.56709277  0.92507210  0.77587892  1
  O2-  O344  1  0.58333117  0.93006481  0.92250977  1
  O2-  O345  1  0.56062272  0.92055193  0.05153130  1
  O2-  O346  1  0.43766273  0.26212380  0.67925613  1
  O2-  O347  1  0.43526396  0.74165398  0.22344458  1
  O2-  O348  1  0.93216690  0.08119941  0.93955113  1
  O2-  O349  1  0.06388699  0.92407542  0.22431223  1
  O2-  O350  1  0.92823297  0.93122498  0.78010872  1
  O2-  O351  1  0.56378472  0.73770224  0.42724304  1
  O2-  O352  1  0.42771961  0.38207480  0.31179751  1
  O2-  O353  1  0.93937806  0.41355247  0.02015295  1
  O2-  O354  1  0.93907899  0.92894687  0.21666973  1
  O2-  O355  1  0.06196340  0.92513285  0.78333014  1
  O2-  O356  1  0.92863159  0.26571810  0.21459784  1
  O2-  O357  1  0.43664653  0.25426787  0.82232166  1
  O2-  O358  1  0.93618103  0.59290986  0.53827202  1
  O2-  O359  1  0.06126818  0.40429450  0.52500409  1
  O2-  O360  1  0.05438098  0.75529718  0.94743759  1
  O2-  O361  1  0.57544914  0.58362236  0.83267528  1
  O2-  O362  1  0.42423120  0.60031864  0.80469709  1
  O2-  O363  1  0.43330358  0.73618998  0.71585914  1
  O2-  O364  1  0.07637061  0.60134226  0.28916389  1
  O2-  O365  1  0.93177572  0.58498522  0.06560367  1
  O2-  O366  1  0.56178366  0.92734157  0.28289466  1
  O2-  O367  1  0.55783061  0.57307437  0.69752183  1
  O2-  O368  1  0.56155925  0.41035921  0.77596262  1
  O2-  O369  1  0.56621701  0.24846402  0.81579691  1
  O2-  O370  1  0.92958328  0.27968681  0.56228633  1
  O2-  O371  1  0.06224393  0.07345920  0.78216240  1
  O2-  O372  1  0.25006856  0.32606714  0.15902950  1
  O2-  O373  1  0.25076001  0.01756039  0.08195631  1
  O2-  O374  1  0.24916645  0.33987246  0.39609891  1
  O2-  O375  1  0.74985956  0.33274738  0.64717529  1
  O2-  O376  1  0.24937799  0.00085908  0.43274138  1
  O2-  O377  1  0.25015379  -0.00621926  0.34325194  1
  O2-  O378  1  0.75046281  -0.00199976  0.67090355  1
  O2-  O379  1  0.25005557  0.65386699  0.32574501  1
  O2-  O380  1  0.24919568  0.65957623  0.79266619  1
  O2-  O381  1  0.74992928  -0.00433724  0.57907448  1
  O2-  O382  1  0.75092071  0.66223351  0.69500625  1
  O2-  O383  1  0.25020200  -0.01151618  0.17809004  1
  O2-  O384  1  0.75010609  -0.00139889  0.17737340  1
  O2-  O385  1  0.75016121  0.65686582  0.57073396  1
  O2-  O386  1  0.24999218  0.67106799  0.91045318  1
  O2-  O387  1  0.74932585  0.01630332  0.08797925  1
  O2-  O388  1  0.75015262  0.65904501  0.89062629  1
  O2-  O389  1  0.24963001  0.32894169  0.61034730  1
  O2-  O390  1  0.24939741  0.32704393  0.84043285  1
  O2-  O391  1  0.24967499  0.66339036  0.43930467  1
  O2-  O392  1  0.75068304  -0.00176539  0.39684330  1
  O2-  O393  1  0.24918178  -0.00641026  0.64454022  1
  O2-  O394  1  0.25013033  0.65925540  0.11391957  1
  O2-  O395  1  0.25046339  0.33354612  0.06848716  1
  O2-  O396  1  0.74965673  0.17206417  0.59665515  1
  O2-  O397  1  0.74988971  0.50452649  0.09625758  1
  O2-  O398  1  0.24977051  0.16249436  0.34641672  1
  O2-  O399  1  0.75020465  0.83203621  0.68060341  1
  O2-  O400  1  0.75008683  0.50263918  0.59062890  1
  O2-  O401  1  0.24929979  0.51114336  0.07303766  1
  O2-  O402  1  0.25075248  0.81293012  0.17078191  1
  O2-  O403  1  0.25011426  0.51637281  0.41588303  1
  O2-  O404  1  0.75002173  0.82509306  0.59044317  1
  O2-  O405  1  0.24973824  0.17399859  0.60758654  1
  O2-  O406  1  0.24991496  0.82275434  0.85350961  1
  O2-  O407  1  0.24978636  0.81073758  0.39112947  1
  O2-  O408  1  0.75006215  0.50104428  0.34547246  1
  O2-  O409  1  0.24840033  0.85158958  0.10072384  1
  O2-  O410  1  0.25011943  0.85087892  0.77339170  1
  O2-  O411  1  0.24984999  0.16572288  0.43282969  1
  O2-  O412  1  0.25003868  0.16480709  0.90640415  1
  O2-  O413  1  0.24966107  0.51535724  0.64095424  1
  O2-  O414  1  0.75008896  0.82648410  0.14291736  1
  O2-  O415  1  0.25024665  0.49497475  0.15815767  1
  O2-  O416  1  0.75009150  0.18084103  0.85590536  1
  O2-  O417  1  0.24994208  0.52185581  0.87364947  1
  O2-  O418  1  0.75021753  0.83540858  0.84694999  1
  O2-  O419  1  0.74991726  0.17584768  0.11329495  1
  O2-  O420  1  0.02801230  0.66772159  0.62591918  1
  O2-  O421  1  0.96743636  0.65286639  0.37708304  1
  O2-  O422  1  0.53590573  0.02419595  0.86699764  1
  O2-  O423  1  0.97595877  0.67387474  0.86472137  1
  O2-  O424  1  0.45509664  0.68165382  0.89586622  1
  O2-  O425  1  0.52056127  0.34154453  0.88922261  1
  O2-  O426  1  0.47213756  0.67239898  0.37901960  1
  O2-  O427  1  0.47501432  -0.00420860  0.37553301  1
  O2-  O428  1  0.02500073  -0.00327776  0.11692186  1
  O2-  O429  1  0.02662205  -0.00422224  0.37677198  1
  O2-  O430  1  0.54119816  0.68336891  0.89348828  1
  O2-  O431  1  0.52492788  0.01259839  0.13220815  1
  O2-  O432  1  0.97911521  0.67665632  0.13533627  1
  O2-  O433  1  0.47291285  0.00175776  0.62549733  1
  O2-  O434  1  0.47494252  0.66219821  0.11904040  1
  O2-  O435  1  0.97412246  0.33321211  0.87170861  1
  O2-  O436  1  0.03222640  0.33276895  0.12729520  1
  O2-  O437  1  0.98341606  -0.00414945  0.87465480  1
  O2-  O438  1  0.02232814  0.31716126  0.62885130  1
  O2-  O439  1  0.45197810  -0.00096313  0.88406528  1
  O2-  O440  1  0.97449757  0.33493547  0.12378685  1
  O2-  O441  1  0.97278866  0.00368215  0.62281354  1
  O2-  O442  1  0.52869799  0.33152171  0.37930823  1
  O2-  O443  1  0.02881807  0.67546722  0.37561884  1
