# generated using pymatgen
data_La7(Ru4O11)2
_symmetry_space_group_name_H-M   'P 1'
_cell_length_a   23.99369370
_cell_length_b   16.83457481
_cell_length_c   15.43020369
_cell_angle_alpha   89.99697837
_cell_angle_beta   89.99919756
_cell_angle_gamma   89.99959417
_symmetry_Int_Tables_number   1
_chemical_formula_structural   La7(Ru4O11)2
_chemical_formula_sum   'La84 Ru96 O264'
_cell_volume   6232.62389834
_cell_formula_units_Z   12
loop_
 _symmetry_equiv_pos_site_id
 _symmetry_equiv_pos_as_xyz
  1  'x, y, z'
loop_
 _atom_type_symbol
 _atom_type_oxidation_number
  La3+  3.0
  Ru4+  4.0
  O2-  -2.0
loop_
 _atom_site_type_symbol
 _atom_site_label
 _atom_site_symmetry_multiplicity
 _atom_site_fract_x
 _atom_site_fract_y
 _atom_site_fract_z
 _atom_site_occupancy
  La3+  La0  1  0.13159209  0.00524850  0.11630469  1
  La3+  La1  1  0.13600856  -0.00003011  0.37314475  1
  La3+  La2  1  0.14653550  -0.00301558  0.63162759  1
  La3+  La3  1  0.13499981  0.00201105  0.87887936  1
  La3+  La4  1  0.13861672  0.33143825  0.12563305  1
  La3+  La5  1  0.13604522  0.33090567  0.38059629  1
  La3+  La6  1  0.13787180  0.33934783  0.62822110  1
  La3+  La7  1  0.14178598  0.33983489  0.87087561  1
  La3+  La8  1  0.14331404  0.66819286  0.12671209  1
  La3+  La9  1  0.13271700  0.66754181  0.36947500  1
  La3+  La10  1  0.14610774  0.66811683  0.62908494  1
  La3+  La11  1  0.14518420  0.66452211  0.86947583  1
  La3+  La12  1  0.64927788  -0.00209172  0.12753052  1
  La3+  La13  1  0.64906379  -0.00176905  0.37866646  1
  La3+  La14  1  0.64857962  0.00525156  0.61903600  1
  La3+  La15  1  0.63840906  -0.00280456  0.87833277  1
  La3+  La16  1  0.63872000  0.33124773  0.12261968  1
  La3+  La17  1  0.63730539  0.32936449  0.37577064  1
  La3+  La18  1  0.65038454  0.33019950  0.62397391  1
  La3+  La19  1  0.64090196  0.32847294  0.87018347  1
  La3+  La20  1  0.63876878  0.66843554  0.12628958  1
  La3+  La21  1  0.64414020  0.66988538  0.37927039  1
  La3+  La22  1  0.64152727  0.66640973  0.61908758  1
  La3+  La23  1  0.63332288  0.66549984  0.87688897  1
  La3+  La24  1  0.37119274  -0.00187373  0.12592580  1
  La3+  La25  1  0.36457469  -0.01043162  0.37036608  1
  La3+  La26  1  0.35509278  0.00554386  0.62471638  1
  La3+  La27  1  0.35534473  -0.00416417  0.87556128  1
  La3+  La28  1  0.36792203  0.32825804  0.12400940  1
  La3+  La29  1  0.36535243  0.32954262  0.37587891  1
  La3+  La30  1  0.36515985  0.33514127  0.62510787  1
  La3+  La31  1  0.35281712  0.34463317  0.87400584  1
  La3+  La32  1  0.35818946  0.66964297  0.13028542  1
  La3+  La33  1  0.37065794  0.66561336  0.37668243  1
  La3+  La34  1  0.36313219  0.66246957  0.62272483  1
  La3+  La35  1  0.35537661  0.66396989  0.86775011  1
  La3+  La36  1  0.85721290  -0.00264488  0.12638102  1
  La3+  La37  1  0.85085731  -0.00664898  0.37834960  1
  La3+  La38  1  0.85209844  0.00047980  0.61967888  1
  La3+  La39  1  0.86634957  0.00360699  0.87436853  1
  La3+  La40  1  0.86414502  0.33429837  0.12178868  1
  La3+  La41  1  0.86405684  0.32931966  0.37743752  1
  La3+  La42  1  0.85773431  0.32812781  0.62551948  1
  La3+  La43  1  0.85674483  0.33679786  0.87779470  1
  La3+  La44  1  0.86148003  0.67131924  0.12764817  1
  La3+  La45  1  0.85966119  0.66742112  0.37966899  1
  La3+  La46  1  0.86295757  0.66519964  0.62316079  1
  La3+  La47  1  0.86818899  0.66716939  0.86981062  1
  La3+  La48  1  0.48708927  0.16620578  0.87159889  1
  La3+  La49  1  0.00127337  0.50137777  0.12279982  1
  La3+  La50  1  0.50493297  0.83053971  0.35613198  1
  La3+  La51  1  0.49900377  0.50144651  0.61641479  1
  La3+  La52  1  0.50111832  0.83868909  0.62924459  1
  La3+  La53  1  0.00993824  0.16206793  0.62082866  1
  La3+  La54  1  0.49535288  0.50368228  0.37422466  1
  La3+  La55  1  0.00148727  0.16229779  0.60267654  1
  La3+  La56  1  -0.00330381  0.82865670  0.37136333  1
  La3+  La57  1  0.00124983  0.17233826  0.11639185  1
  La3+  La58  1  0.49317419  0.82182435  0.88491762  1
  La3+  La59  1  -0.00463116  0.16977431  0.36957098  1
  La3+  La60  1  0.50099315  0.82682622  0.34060581  1
  La3+  La61  1  -0.00166265  0.16642047  0.88099627  1
  La3+  La62  1  0.49770979  0.50219883  0.87408111  1
  La3+  La63  1  0.51374476  0.18527795  0.59693486  1
  La3+  La64  1  0.00052522  0.83624148  0.63230362  1
  La3+  La65  1  0.50690002  0.16219163  0.14282674  1
  La3+  La66  1  -0.00306844  0.83215170  0.87301725  1
  La3+  La67  1  -0.00672652  0.49406041  0.88489314  1
  La3+  La68  1  0.00888092  0.16069212  0.12666174  1
  La3+  La69  1  -0.00143845  0.82619467  0.61298095  1
  La3+  La70  1  0.50481709  0.16347287  0.12672273  1
  La3+  La71  1  -0.00401969  0.49352956  0.37063360  1
  La3+  La72  1  0.25081530  0.13023614  0.74190393  1
  La3+  La73  1  0.75033462  0.15672707  0.51208513  1
  La3+  La74  1  0.24995784  0.54195799  0.47062281  1
  La3+  La75  1  0.75057653  0.49780034  0.54711596  1
  La3+  La76  1  0.75136262  0.78638916  -0.02246285  1
  La3+  La77  1  0.25215017  0.54920012  0.23759320  1
  La3+  La78  1  0.24943163  0.83537055  0.46144241  1
  La3+  La79  1  0.75120518  0.48150204  0.23500945  1
  La3+  La80  1  0.24944388  0.20230119  0.27104795  1
  La3+  La81  1  0.24868532  0.48920290  -0.01520780  1
  La3+  La82  1  0.24819414  0.88652545  0.04209260  1
  La3+  La83  1  0.74853723  0.83459247  0.69374979  1
  Ru4+  Ru84  1  -0.00286909  -0.00896314  0.00441841  1
  Ru4+  Ru85  1  0.00097395  -0.00235133  0.25178453  1
  Ru4+  Ru86  1  0.00021501  0.00393043  0.48989028  1
  Ru4+  Ru87  1  0.00310948  0.00248186  0.75131471  1
  Ru4+  Ru88  1  0.00492727  0.33021909  -0.01635404  1
  Ru4+  Ru89  1  0.00225703  0.33757763  0.25525380  1
  Ru4+  Ru90  1  0.00253181  0.33398932  0.50809787  1
  Ru4+  Ru91  1  -0.00110412  0.33905206  0.73804037  1
  Ru4+  Ru92  1  0.00470800  0.67065346  -0.00401584  1
  Ru4+  Ru93  1  0.00172455  0.67012717  0.25025256  1
  Ru4+  Ru94  1  0.00947417  0.65730407  0.48668779  1
  Ru4+  Ru95  1  0.00270000  0.65817930  0.76685369  1
  Ru4+  Ru96  1  0.49980217  0.00127454  -0.01246264  1
  Ru4+  Ru97  1  0.49850881  0.00454873  0.25972215  1
  Ru4+  Ru98  1  0.49601073  0.00108959  0.51516975  1
  Ru4+  Ru99  1  0.51634574  -0.00229425  0.75044317  1
  Ru4+  Ru100  1  0.49700985  0.33405689  0.00875780  1
  Ru4+  Ru101  1  0.49599717  0.34085014  0.24748461  1
  Ru4+  Ru102  1  0.49253605  0.33277853  0.49794313  1
  Ru4+  Ru103  1  0.50262805  0.31382985  0.74228969  1
  Ru4+  Ru104  1  0.49964390  0.66457117  -0.00453512  1
  Ru4+  Ru105  1  0.50051243  0.66273183  0.25382673  1
  Ru4+  Ru106  1  0.50644454  0.67666248  0.50239368  1
  Ru4+  Ru107  1  0.49780399  0.66309260  0.75147761  1
  Ru4+  Ru108  1  0.11989955  0.17101227  -0.00200073  1
  Ru4+  Ru109  1  0.10989181  0.16145379  0.25168269  1
  Ru4+  Ru110  1  0.11557949  0.16527902  0.49565277  1
  Ru4+  Ru111  1  0.11129707  0.16869769  0.75335147  1
  Ru4+  Ru112  1  0.10593081  0.49894196  0.00048743  1
  Ru4+  Ru113  1  0.10865864  0.49796014  0.24856558  1
  Ru4+  Ru114  1  0.10878473  0.50188417  0.50391739  1
  Ru4+  Ru115  1  0.11369081  0.49603379  0.75180765  1
  Ru4+  Ru116  1  0.10662676  0.83531935  -0.00019272  1
  Ru4+  Ru117  1  0.11466407  0.83524347  0.24901981  1
  Ru4+  Ru118  1  0.11337583  0.83693805  0.49685117  1
  Ru4+  Ru119  1  0.11934886  0.83436822  0.75550784  1
  Ru4+  Ru120  1  0.61264245  0.16331914  0.00105721  1
  Ru4+  Ru121  1  0.61213892  0.16495134  0.25359934  1
  Ru4+  Ru122  1  0.61116867  0.16536338  0.49793401  1
  Ru4+  Ru123  1  0.60943079  0.16391852  0.75207268  1
  Ru4+  Ru124  1  0.60980314  0.49765140  -0.00055655  1
  Ru4+  Ru125  1  0.60829059  0.50449895  0.24685549  1
  Ru4+  Ru126  1  0.61234039  0.50190286  0.50088814  1
  Ru4+  Ru127  1  0.60751653  0.49943447  0.75291764  1
  Ru4+  Ru128  1  0.60549617  0.83743987  0.00575692  1
  Ru4+  Ru129  1  0.61516555  0.83606243  0.24630499  1
  Ru4+  Ru130  1  0.61259643  0.82883368  0.50190009  1
  Ru4+  Ru131  1  0.60772152  0.84005417  0.74805305  1
  Ru4+  Ru132  1  0.38817774  0.16087474  -0.00271888  1
  Ru4+  Ru133  1  0.38862225  0.16682245  0.25268607  1
  Ru4+  Ru134  1  0.38912179  0.15597244  0.49024905  1
  Ru4+  Ru135  1  0.38920484  0.17415859  0.75269816  1
  Ru4+  Ru136  1  0.39230173  0.50121556  -0.00337619  1
  Ru4+  Ru137  1  0.39308583  0.50030800  0.25143700  1
  Ru4+  Ru138  1  0.38544813  0.49666044  0.49936951  1
  Ru4+  Ru139  1  0.38601474  0.50024591  0.75350054  1
  Ru4+  Ru140  1  0.38809913  0.83270589  0.00257031  1
  Ru4+  Ru141  1  0.38384324  0.83142366  0.24907323  1
  Ru4+  Ru142  1  0.38967389  0.84055159  0.50101430  1
  Ru4+  Ru143  1  0.38250931  0.83530769  0.75088266  1
  Ru4+  Ru144  1  0.88725152  0.16958975  -0.00153945  1
  Ru4+  Ru145  1  0.88436520  0.17211519  0.24835434  1
  Ru4+  Ru146  1  0.88731056  0.16664008  0.49719587  1
  Ru4+  Ru147  1  0.88555536  0.17209013  0.75344662  1
  Ru4+  Ru148  1  0.88521290  0.50476261  0.00254752  1
  Ru4+  Ru149  1  0.88949255  0.50090769  0.24957930  1
  Ru4+  Ru150  1  0.88424476  0.49484422  0.50085210  1
  Ru4+  Ru151  1  0.89077045  0.49969103  0.74972082  1
  Ru4+  Ru152  1  0.89088125  0.83328499  0.00016235  1
  Ru4+  Ru153  1  0.88542485  0.83082919  0.24841812  1
  Ru4+  Ru154  1  0.87858892  0.83077924  0.49821026  1
  Ru4+  Ru155  1  0.88242185  0.83920363  0.75504890  1
  Ru4+  Ru156  1  0.75067672  0.93884483  -0.00496228  1
  Ru4+  Ru157  1  0.74901276  0.57735551  0.76804441  1
  Ru4+  Ru158  1  0.24860318  0.90968227  0.25033093  1
  Ru4+  Ru159  1  0.74957778  0.41015398  -0.00948135  1
  Ru4+  Ru160  1  0.25105375  0.23091023  0.50748597  1
  Ru4+  Ru161  1  0.25044806  0.40898399  0.23577391  1
  Ru4+  Ru162  1  0.74945167  0.71094427  0.77701360  1
  Ru4+  Ru163  1  0.24929944  0.28469144  0.74134543  1
  Ru4+  Ru164  1  0.25111168  0.21315109  0.01469721  1
  Ru4+  Ru165  1  0.75084998  0.10071297  0.25064731  1
  Ru4+  Ru166  1  0.24991125  0.97985405  0.48501427  1
  Ru4+  Ru167  1  0.74941488  0.41361733  0.75061286  1
  Ru4+  Ru168  1  0.24982671  0.70188772  0.50425708  1
  Ru4+  Ru169  1  0.74964309  0.60670268  -0.02830284  1
  Ru4+  Ru170  1  0.74956343  0.95705040  0.77845120  1
  Ru4+  Ru171  1  0.24989603  0.06405248  0.23537727  1
  Ru4+  Ru172  1  0.25034390  0.34528055  0.00115149  1
  Ru4+  Ru173  1  0.75117165  0.09248574  -0.01365560  1
  Ru4+  Ru174  1  0.74956753  0.34154322  0.24775023  1
  Ru4+  Ru175  1  0.74999166  0.63996533  0.25017416  1
  Ru4+  Ru176  1  0.75017032  0.23022057  0.00238341  1
  Ru4+  Ru177  1  0.25017457  0.75347500  -0.02188634  1
  Ru4+  Ru178  1  0.25053331  0.62435063  0.00359291  1
  Ru4+  Ru179  1  0.24960842  0.40682853  0.52846434  1
  O2-  O180  1  0.16842626  0.08013918  -0.00395413  1
  O2-  O181  1  0.16563826  0.07743693  0.24845360  1
  O2-  O182  1  0.16277041  0.07783353  0.49880772  1
  O2-  O183  1  0.16570531  0.07757409  0.75890300  1
  O2-  O184  1  0.16472317  0.41028008  0.00312807  1
  O2-  O185  1  0.16432050  0.41410078  0.24657417  1
  O2-  O186  1  0.16718538  0.41584909  0.49983392  1
  O2-  O187  1  0.16851918  0.41544624  0.74875090  1
  O2-  O188  1  0.16476685  0.74962201  -0.00069336  1
  O2-  O189  1  0.16793041  0.75254952  0.25681767  1
  O2-  O190  1  0.16628795  0.74296168  0.49491558  1
  O2-  O191  1  0.16579684  0.74727619  0.75069946  1
  O2-  O192  1  0.67211696  0.08458206  -0.00659314  1
  O2-  O193  1  0.67041003  0.08366267  0.25479029  1
  O2-  O194  1  0.66686091  0.08472857  0.49440164  1
  O2-  O195  1  0.66375959  0.08653043  0.74982828  1
  O2-  O196  1  0.66731522  0.41224243  -0.00207955  1
  O2-  O197  1  0.66453384  0.40958668  0.25306798  1
  O2-  O198  1  0.66547438  0.41422126  0.49528525  1
  O2-  O199  1  0.66460202  0.41574509  0.75163893  1
  O2-  O200  1  0.66227859  0.74467612  0.00169478  1
  O2-  O201  1  0.66068452  0.74562105  0.24929799  1
  O2-  O202  1  0.66652800  0.74607340  0.49832956  1
  O2-  O203  1  0.66432815  0.74601844  0.75286334  1
  O2-  O204  1  0.32987715  0.24828741  0.00054195  1
  O2-  O205  1  0.33665828  0.25499807  0.25140635  1
  O2-  O206  1  0.33401188  0.24969126  0.50164300  1
  O2-  O207  1  0.32921932  0.25287572  0.74523501  1
  O2-  O208  1  0.33740793  0.58801933  0.00389288  1
  O2-  O209  1  0.34013407  0.59012302  0.25452308  1
  O2-  O210  1  0.33684616  0.58909625  0.49537162  1
  O2-  O211  1  0.33924756  0.58668629  0.74586631  1
  O2-  O212  1  0.33341681  0.92224933  0.00191531  1
  O2-  O213  1  0.32952747  0.91650512  0.24568083  1
  O2-  O214  1  0.32642602  0.92145721  0.49462903  1
  O2-  O215  1  0.33437904  0.91731801  0.74944086  1
  O2-  O216  1  0.83314610  0.25099311  0.00264815  1
  O2-  O217  1  0.83062625  0.25678412  0.25290455  1
  O2-  O218  1  0.82819492  0.25430249  0.49504669  1
  O2-  O219  1  0.83121823  0.24800203  0.74405042  1
  O2-  O220  1  0.83381823  0.58906948  -0.00254731  1
  O2-  O221  1  0.83375822  0.58809667  0.24862847  1
  O2-  O222  1  0.83130395  0.58585777  0.50475041  1
  O2-  O223  1  0.83263658  0.58336386  0.75052738  1
  O2-  O224  1  0.83115514  0.92070753  -0.00225238  1
  O2-  O225  1  0.83899781  0.92004592  0.24715303  1
  O2-  O226  1  0.83537878  0.91811060  0.49930377  1
  O2-  O227  1  0.83053206  0.92461311  0.75381326  1
  O2-  O228  1  0.17199597  0.25542979  -0.00093858  1
  O2-  O229  1  0.15874527  0.25639641  0.24865432  1
  O2-  O230  1  0.16790408  0.25209583  0.50267961  1
  O2-  O231  1  0.16694080  0.25467240  0.74922523  1
  O2-  O232  1  0.16451636  0.58896487  0.00166067  1
  O2-  O233  1  0.16581909  0.58928052  0.25240777  1
  O2-  O234  1  0.16347758  0.58731849  0.49599457  1
  O2-  O235  1  0.16072743  0.58411503  0.74783420  1
  O2-  O236  1  0.16333237  0.92440866  -0.00510734  1
  O2-  O237  1  0.16616704  0.92018157  0.25047065  1
  O2-  O238  1  0.16753580  0.92326729  0.49651268  1
  O2-  O239  1  0.16741788  0.92060364  0.75854988  1
  O2-  O240  1  0.66725374  0.24814778  -0.00026322  1
  O2-  O241  1  0.66492664  0.25456430  0.25263991  1
  O2-  O242  1  0.66632408  0.25259808  0.49436948  1
  O2-  O243  1  0.66220338  0.24619808  0.75458157  1
  O2-  O244  1  0.66374145  0.58670475  -0.00317413  1
  O2-  O245  1  0.66842336  0.58716465  0.24863361  1
  O2-  O246  1  0.67002595  0.58446106  0.50026599  1
  O2-  O247  1  0.66499066  0.58473889  0.75321850  1
  O2-  O248  1  0.67075927  0.91640268  -0.00287689  1
  O2-  O249  1  0.66323985  0.91703389  0.25414594  1
  O2-  O250  1  0.66305662  0.91196151  0.49622972  1
  O2-  O251  1  0.66935732  0.92129781  0.75273039  1
  O2-  O252  1  0.32948299  0.08264861  0.00252536  1
  O2-  O253  1  0.33340181  0.07740205  0.24849932  1
  O2-  O254  1  0.33057028  0.08146400  0.50148508  1
  O2-  O255  1  0.33912303  0.08145557  0.75412558  1
  O2-  O256  1  0.33195963  0.41157121  0.00747858  1
  O2-  O257  1  0.33530008  0.41455107  0.24846490  1
  O2-  O258  1  0.33103699  0.41477661  0.49709721  1
  O2-  O259  1  0.33804544  0.41410692  0.74216055  1
  O2-  O260  1  0.33540393  0.74822646  0.00053111  1
  O2-  O261  1  0.33793306  0.74441255  0.25484203  1
  O2-  O262  1  0.33693957  0.74559906  0.49599934  1
  O2-  O263  1  0.33878217  0.74426616  0.74629621  1
  O2-  O264  1  0.83310369  0.08012129  -0.00220197  1
  O2-  O265  1  0.83551061  0.08109690  0.24971160  1
  O2-  O266  1  0.83751916  0.08042671  0.49788199  1
  O2-  O267  1  0.83922119  0.08155256  0.75262405  1
  O2-  O268  1  0.83362556  0.41681117  0.00248784  1
  O2-  O269  1  0.83517111  0.40884506  0.25138226  1
  O2-  O270  1  0.83282805  0.41172843  0.49970933  1
  O2-  O271  1  0.83438969  0.41579258  0.74791330  1
  O2-  O272  1  0.84170371  0.74298557  0.00244146  1
  O2-  O273  1  0.83478831  0.74665260  0.24998382  1
  O2-  O274  1  0.83519254  0.74111674  0.50253518  1
  O2-  O275  1  0.83278635  0.74510800  0.74972638  1
  O2-  O276  1  0.54510308  0.42945741  0.50833368  1
  O2-  O277  1  0.95410879  0.57472064  0.23261301  1
  O2-  O278  1  0.55170899  0.25126368  0.24272749  1
  O2-  O279  1  0.04494181  0.76677361  0.98649866  1
  O2-  O280  1  0.53644585  0.10644553  0.70636023  1
  O2-  O281  1  0.03767740  0.78253673  0.24451478  1
  O2-  O282  1  0.54750571  0.75427766  0.76068920  1
  O2-  O283  1  0.44850559  0.10036186  0.25756854  1
  O2-  O284  1  0.94779052  0.42826127  0.01772460  1
  O2-  O285  1  0.54110313  0.89010406  0.79062653  1
  O2-  O286  1  0.05150280  0.75742258  0.73562948  1
  O2-  O287  1  0.96838126  0.22551225  0.72080288  1
  O2-  O288  1  0.45587412  0.20387286  0.70682926  1
  O2-  O289  1  0.04960738  0.10189101  0.00394643  1
  O2-  O290  1  0.54048083  0.10673269  0.96041003  1
  O2-  O291  1  0.04723454  0.55293218  0.45828295  1
  O2-  O292  1  0.95335710  0.57861555  0.52319218  1
  O2-  O293  1  0.94882698  0.75688385  0.72502400  1
  O2-  O294  1  0.05306250  0.91511821  0.27779190  1
  O2-  O295  1  0.95335708  0.90393435  0.48223397  1
  O2-  O296  1  0.04750827  0.09307082  0.47586895  1
  O2-  O297  1  0.44765438  0.89625175  0.74158167  1
  O2-  O298  1  0.94826159  0.76421304  0.76348554  1
  O2-  O299  1  0.45222841  0.88888508  0.27439286  1
  O2-  O300  1  0.45067552  0.57241316  0.50362441  1
  O2-  O301  1  0.94949258  0.09223484  0.01040861  1
  O2-  O302  1  0.95439106  0.43811064  0.74734062  1
  O2-  O303  1  0.95517653  0.57087396  0.01142332  1
  O2-  O304  1  0.94479570  0.56828932  0.48800908  1
  O2-  O305  1  0.05098351  0.24549335  0.47301864  1
  O2-  O306  1  0.54113913  0.11271415  0.30279301  1
  O2-  O307  1  0.44840194  0.24119233  0.04192000  1
  O2-  O308  1  0.04590557  0.23807391  0.26410042  1
  O2-  O309  1  0.46566671  0.87030799  0.47068084  1
  O2-  O310  1  0.94775321  0.91149811  0.74130551  1
  O2-  O311  1  0.95271193  0.42679651  0.24729800  1
  O2-  O312  1  0.95140851  0.09448563  0.76620415  1
  O2-  O313  1  0.94710241  0.76087497  0.23075976  1
  O2-  O314  1  0.54792769  0.43213068  0.26666267  1
  O2-  O315  1  0.04676821  0.76671494  0.49106100  1
  O2-  O316  1  0.44585189  0.08904712  0.54969336  1
  O2-  O317  1  0.46058221  0.88240802  1.02205948  1
  O2-  O318  1  0.55038669  0.23900736  0.80748279  1
  O2-  O319  1  0.95216100  0.09448308  0.23820901  1
  O2-  O320  1  0.44703536  0.08962367  0.04346535  1
  O2-  O321  1  0.46053262  0.89453079  0.24945451  1
  O2-  O322  1  0.55186096  0.91640503  0.95140629  1
  O2-  O323  1  0.94898563  0.90462457  0.52095889  1
  O2-  O324  1  0.93676606  0.92129114  0.97817289  1
  O2-  O325  1  0.56230728  0.58893510  0.53813985  1
  O2-  O326  1  0.93547055  0.25630208  0.52152359  1
  O2-  O327  1  0.44038460  0.24727289  0.05531710  1
  O2-  O328  1  0.91777251  0.26761002  0.81094197  1
  O2-  O329  1  0.57053886  0.28949983  0.67766918  1
  O2-  O330  1  0.56271816  0.07426227  0.52847190  1
  O2-  O331  1  0.58477425  0.07099178  0.06204186  1
  O2-  O332  1  0.06379009  0.40677505  0.46294056  1
  O2-  O333  1  0.56372584  0.74604513  0.57336563  1
  O2-  O334  1  0.42818054  0.93901891  0.97139670  1
  O2-  O335  1  0.44310917  0.09716799  0.55077283  1
  O2-  O336  1  0.57139085  0.05689385  0.81771210  1
  O2-  O337  1  0.57886219  0.05915159  0.20630189  1
  O2-  O338  1  0.56036693  0.41193122  0.02588162  1
  O2-  O339  1  0.06299729  0.41164680  0.73147836  1
  O2-  O340  1  0.43521762  0.25399970  0.47489748  1
  O2-  O341  1  0.42870348  0.29954682  0.79172867  1
  O2-  O342  1  0.06584737  0.62580156  0.57181248  1
  O2-  O343  1  0.93867265  0.39951304  0.03644354  1
  O2-  O344  1  0.06016585  0.58259219  0.27274503  1
  O2-  O345  1  0.06159117  0.08097555  0.02982941  1
  O2-  O346  1  0.43029955  0.27045503  0.91320291  1
  O2-  O347  1  0.43761485  0.59954479  0.51968549  1
  O2-  O348  1  0.43629383  0.26066433  0.22745321  1
  O2-  O349  1  0.56010535  0.74494440  0.42424431  1
  O2-  O350  1  0.06119740  0.92595718  0.01913480  1
  O2-  O351  1  0.05915363  0.91647011  0.28244248  1
  O2-  O352  1  0.93779342  0.26121912  0.21180714  1
  O2-  O353  1  0.41161710  0.09198968  0.90146249  1
  O2-  O354  1  0.42731217  0.93543105  0.27264032  1
  O2-  O355  1  0.55959822  0.91793656  0.93734333  1
  O2-  O356  1  0.56272329  0.73674596  0.96800490  1
  O2-  O357  1  0.93917779  0.59011277  0.77397572  1
  O2-  O358  1  0.58504741  0.89946150  0.09520038  1
  O2-  O359  1  0.56150689  0.59770510  0.21822503  1
  O2-  O360  1  0.56292229  0.25915778  0.03676704  1
  O2-  O361  1  0.43441479  0.41370503  0.52612981  1
  O2-  O362  1  0.41801944  0.93478544  0.55586129  1
  O2-  O363  1  0.44298479  0.41641492  0.96504009  1
  O2-  O364  1  0.05482482  0.25157570  0.46715562  1
  O2-  O365  1  0.06401884  0.92186082  0.72760110  1
  O2-  O366  1  0.07668652  0.72323746  0.22155207  1
  O2-  O367  1  0.55913346  0.91883626  0.52578318  1
  O2-  O368  1  0.41735837  0.08675710  0.40693111  1
  O2-  O369  1  0.43890170  0.08245334  0.05378854  1
  O2-  O370  1  0.06493310  0.07728003  0.72971353  1
  O2-  O371  1  0.57595983  0.94162856  0.68023185  1
  O2-  O372  1  0.24985703  0.32631723  0.44068745  1
  O2-  O373  1  0.75205314  0.00052464  0.57903996  1
  O2-  O374  1  0.24939424  -0.00242221  0.68325198  1
  O2-  O375  1  0.25072317  0.31592361  0.61180095  1
  O2-  O376  1  0.25138529  0.64944689  0.13612348  1
  O2-  O377  1  0.25168500  0.66568737  0.87446123  1
  O2-  O378  1  0.24957559  -0.01059116  0.14088532  1
  O2-  O379  1  0.75066022  0.00693201  0.41708596  1
  O2-  O380  1  0.74927160  0.32325746  0.80439125  1
  O2-  O381  1  0.75095705  0.65874495  0.65075810  1
  O2-  O382  1  0.75135225  0.01375929  0.67114700  1
  O2-  O383  1  0.74942819  0.67071997  0.36441328  1
  O2-  O384  1  0.24889349  -0.01040934  0.35177299  1
  O2-  O385  1  0.74990231  0.31727297  0.92869650  1
  O2-  O386  1  0.24892298  0.32831028  0.31210329  1
  O2-  O387  1  0.74982595  0.34680322  0.64548561  1
  O2-  O388  1  0.24839837  0.02079825  0.59498619  1
  O2-  O389  1  0.25137305  0.65494464  0.61180157  1
  O2-  O390  1  0.74979658  0.33184013  0.09718595  1
  O2-  O391  1  0.24990975  0.33221207  0.85699513  1
  O2-  O392  1  0.75050354  0.66864428  0.12791090  1
  O2-  O393  1  0.24901767  0.33127173  0.13638330  1
  O2-  O394  1  0.75316689  0.00911161  0.10237953  1
  O2-  O395  1  0.75063813  -0.00109219  0.32471056  1
  O2-  O396  1  0.24981821  0.82901386  0.17173683  1
  O2-  O397  1  0.24937890  0.16895561  0.60358653  1
  O2-  O398  1  0.75020743  0.85115449  0.85145270  1
  O2-  O399  1  0.75102110  0.49451749  0.42673306  1
  O2-  O400  1  0.24914993  0.16074648  0.12632760  1
  O2-  O401  1  0.75126852  0.83041259  0.56977675  1
  O2-  O402  1  0.25069283  0.83754915  0.89863085  1
  O2-  O403  1  0.75060331  0.16262342  0.34353648  1
  O2-  O404  1  0.75020540  0.16019283  0.15522867  1
  O2-  O405  1  0.74999207  0.83387731  0.34571803  1
  O2-  O406  1  0.75068107  0.16117365  0.88808993  1
  O2-  O407  1  0.74982085  0.84492080  0.10352773  1
  O2-  O408  1  0.74810406  0.50738604  0.11300754  1
  O2-  O409  1  0.74879095  0.51421036  0.35031690  1
  O2-  O410  1  0.24932559  0.16515941  0.41372951  1
  O2-  O411  1  0.75047937  0.51388439  0.02986190  1
  O2-  O412  1  0.74969507  0.83484515  0.18729438  1
  O2-  O413  1  0.24909535  0.82887428  0.59603669  1
  O2-  O414  1  0.24991910  0.49090158  0.60708520  1
  O2-  O415  1  0.25141977  0.50160236  0.85939453  1
  O2-  O416  1  0.25078812  0.83160414  0.81348991  1
  O2-  O417  1  0.74977746  0.50596598  0.88914686  1
  O2-  O418  1  0.74980816  0.16829382  0.64092790  1
  O2-  O419  1  0.74962837  0.50547656  0.67759753  1
  O2-  O420  1  0.95871380  0.35491705  0.89344573  1
  O2-  O421  1  0.48162574  0.36022957  0.13297587  1
  O2-  O422  1  0.48377350  -0.00494926  0.64048679  1
  O2-  O423  1  0.98047288  0.00351987  0.87582150  1
  O2-  O424  1  0.04307828  0.68385720  0.37310909  1
  O2-  O425  1  0.02007528  0.00289387  0.13064376  1
  O2-  O426  1  0.96878253  0.33070695  0.38101436  1
  O2-  O427  1  0.95495759  0.34839662  0.63064640  1
  O2-  O428  1  0.47615201  -0.00064200  0.85885183  1
  O2-  O429  1  0.46398232  -0.01414282  0.13913343  1
  O2-  O430  1  0.02237469  0.65467154  0.11796975  1
  O2-  O431  1  0.46949122  0.66655866  0.37491579  1
  O2-  O432  1  0.02246768  0.00161086  0.61657241  1
  O2-  O433  1  0.04924834  0.32347115  0.87558689  1
  O2-  O434  1  0.47724112  0.34773973  0.37040001  1
  O2-  O435  1  0.47247392  0.65916721  0.87297371  1
  O2-  O436  1  0.52018314  -0.00645889  0.12378365  1
  O2-  O437  1  0.47534091  0.33783034  0.62871568  1
  O2-  O438  1  0.95618075  0.68447080  0.89702096  1
  O2-  O439  1  0.95318058  0.67227841  0.37541151  1
  O2-  O440  1  0.04508957  0.31442039  0.62275670  1
  O2-  O441  1  0.04818483  0.65196368  0.87232138  1
  O2-  O442  1  0.49389661  -0.00914715  0.38015637  1
  O2-  O443  1  0.47407179  0.67025480  0.63511354  1
