# generated using pymatgen
data_La7(Ru4O11)2
_symmetry_space_group_name_H-M   'P 1'
_cell_length_a   23.99450072
_cell_length_b   16.83474383
_cell_length_c   15.43058121
_cell_angle_alpha   89.99877052
_cell_angle_beta   90.00372642
_cell_angle_gamma   89.99568115
_symmetry_Int_Tables_number   1
_chemical_formula_structural   La7(Ru4O11)2
_chemical_formula_sum   'La84 Ru96 O264'
_cell_volume   6233.04858327
_cell_formula_units_Z   12
loop_
 _symmetry_equiv_pos_site_id
 _symmetry_equiv_pos_as_xyz
  1  'x, y, z'
loop_
 _atom_type_symbol
 _atom_type_oxidation_number
  La3+  3.0
  Ru4+  4.0
  O2-  -2.0
loop_
 _atom_site_type_symbol
 _atom_site_label
 _atom_site_symmetry_multiplicity
 _atom_site_fract_x
 _atom_site_fract_y
 _atom_site_fract_z
 _atom_site_occupancy
  La3+  La0  1  0.14358889  -0.00514051  0.12053698  1
  La3+  La1  1  0.13771187  -0.00891667  0.37775514  1
  La3+  La2  1  0.13547729  -0.00339078  0.62257211  1
  La3+  La3  1  0.15250617  -0.00245974  0.87606940  1
  La3+  La4  1  0.13741864  0.33616516  0.13004792  1
  La3+  La5  1  0.14056096  0.33896112  0.37252829  1
  La3+  La6  1  0.13540552  0.33691988  0.62489487  1
  La3+  La7  1  0.14392102  0.33585056  0.87126055  1
  La3+  La8  1  0.12747735  0.66512651  0.12451292  1
  La3+  La9  1  0.14003992  0.66085795  0.36814440  1
  La3+  La10  1  0.13484544  0.67015930  0.63344060  1
  La3+  La11  1  0.14360432  0.67811292  0.86949287  1
  La3+  La12  1  0.63542038  0.00684920  0.13128791  1
  La3+  La13  1  0.63640203  0.00402662  0.36941404  1
  La3+  La14  1  0.64514926  0.01345687  0.62619873  1
  La3+  La15  1  0.65147808  0.00900125  0.87518399  1
  La3+  La16  1  0.64302252  0.32521224  0.12330406  1
  La3+  La17  1  0.63450009  0.33423258  0.36917503  1
  La3+  La18  1  0.64493578  0.33147531  0.62347640  1
  La3+  La19  1  0.63050185  0.32695204  0.88105659  1
  La3+  La20  1  0.63498725  0.66339885  0.12723710  1
  La3+  La21  1  0.63931543  0.66353028  0.37219097  1
  La3+  La22  1  0.63563967  0.66733164  0.62600897  1
  La3+  La23  1  0.63309435  0.67097218  0.87470849  1
  La3+  La24  1  0.35270511  -0.00367271  0.12264710  1
  La3+  La25  1  0.35815221  -0.00998475  0.37283867  1
  La3+  La26  1  0.35652289  -0.00232334  0.63096269  1
  La3+  La27  1  0.34534861  -0.00244423  0.87244856  1
  La3+  La28  1  0.36827135  0.34103669  0.13190749  1
  La3+  La29  1  0.35933126  0.33878433  0.36596888  1
  La3+  La30  1  0.35767704  0.33162662  0.62927968  1
  La3+  La31  1  0.35792218  0.33569878  0.87334446  1
  La3+  La32  1  0.36742660  0.67425343  0.12377347  1
  La3+  La33  1  0.35251798  0.66394652  0.37204206  1
  La3+  La34  1  0.35975107  0.66975018  0.63473662  1
  La3+  La35  1  0.35903920  0.67312374  0.87398526  1
  La3+  La36  1  0.85691898  0.00352801  0.12615809  1
  La3+  La37  1  0.85470048  -0.00097383  0.37326041  1
  La3+  La38  1  0.86621648  -0.00206830  0.62848948  1
  La3+  La39  1  0.85583095  -0.00020762  0.87060292  1
  La3+  La40  1  0.86396760  0.32864040  0.13249113  1
  La3+  La41  1  0.86686990  0.32389595  0.36981636  1
  La3+  La42  1  0.85743254  0.33320061  0.62144347  1
  La3+  La43  1  0.86549867  0.32890137  0.87373865  1
  La3+  La44  1  0.86990502  0.66485808  0.12625740  1
  La3+  La45  1  0.85729314  0.65872304  0.37289892  1
  La3+  La46  1  0.86430311  0.66495301  0.62756223  1
  La3+  La47  1  0.86385321  0.66988483  0.87697477  1
  La3+  La48  1  -0.00448582  0.16748976  0.12434253  1
  La3+  La49  1  -0.00736346  0.16395500  0.37232038  1
  La3+  La50  1  0.50465997  0.84864699  0.11961928  1
  La3+  La51  1  0.00106058  0.83537187  0.37566018  1
  La3+  La52  1  0.00395604  0.83405650  0.62439469  1
  La3+  La53  1  -0.00217097  0.83281902  0.87020969  1
  La3+  La54  1  0.00427346  0.83409757  0.10825603  1
  La3+  La55  1  0.50712031  0.15879020  0.10661603  1
  La3+  La56  1  0.48945571  0.50326058  0.37262903  1
  La3+  La57  1  0.50595453  0.49718820  0.62029121  1
  La3+  La58  1  0.49762062  0.49549652  0.63866165  1
  La3+  La59  1  0.49684259  0.16731168  0.37899772  1
  La3+  La60  1  0.00197078  0.49497262  0.87080994  1
  La3+  La61  1  -0.00536658  0.50467540  0.37016264  1
  La3+  La62  1  0.00361428  0.16453954  0.86929002  1
  La3+  La63  1  0.49414740  0.82842896  0.88396965  1
  La3+  La64  1  0.50259200  0.16590382  0.12651368  1
  La3+  La65  1  0.50319710  0.15826392  0.36129777  1
  La3+  La66  1  0.00057424  0.50133294  0.89219559  1
  La3+  La67  1  0.50203802  0.49066407  0.13258285  1
  La3+  La68  1  -0.00267761  0.17581046  0.38916901  1
  La3+  La69  1  0.00934472  0.83102648  0.12707347  1
  La3+  La70  1  0.50077165  0.15749578  0.64076271  1
  La3+  La71  1  0.49266351  0.83323005  0.61299658  1
  La3+  La72  1  0.74882386  0.77259104  0.24438674  1
  La3+  La73  1  0.75042352  0.44367335  0.79907072  1
  La3+  La74  1  0.74738715  0.42409472  0.47292490  1
  La3+  La75  1  0.24879776  0.51721056  0.44491820  1
  La3+  La76  1  0.75060529  0.88485676  -0.02066364  1
  La3+  La77  1  0.74860716  0.55247430  -0.03356521  1
  La3+  La78  1  0.25055716  0.50665479  0.72909653  1
  La3+  La79  1  0.74874805  0.84239165  0.49723495  1
  La3+  La80  1  0.75111507  0.12475242  0.74654772  1
  La3+  La81  1  0.25051896  0.51695516  0.10265869  1
  La3+  La82  1  0.25098792  0.20602443  0.19984245  1
  La3+  La83  1  0.24932031  0.83055655  0.73624433  1
  Ru4+  Ru84  1  0.00503414  0.00399340  0.00024233  1
  Ru4+  Ru85  1  0.00121543  -0.00138517  0.25902158  1
  Ru4+  Ru86  1  -0.00212078  0.00786777  0.50329100  1
  Ru4+  Ru87  1  -0.00090576  0.00408118  0.74280911  1
  Ru4+  Ru88  1  -0.00508449  0.33306820  0.00542506  1
  Ru4+  Ru89  1  0.00316108  0.34192691  0.24372996  1
  Ru4+  Ru90  1  -0.00403195  0.33082463  0.50637094  1
  Ru4+  Ru91  1  -0.00071318  0.32713574  0.74990990  1
  Ru4+  Ru92  1  -0.00303898  0.65848024  0.00791027  1
  Ru4+  Ru93  1  -0.00282445  0.66577207  0.25783595  1
  Ru4+  Ru94  1  0.00407856  0.67204735  0.48778509  1
  Ru4+  Ru95  1  0.00130714  0.65722142  0.74501874  1
  Ru4+  Ru96  1  0.49919395  0.00025935  -0.00657843  1
  Ru4+  Ru97  1  0.49195836  -0.01703500  0.25307139  1
  Ru4+  Ru98  1  0.50343062  -0.00415823  0.49342529  1
  Ru4+  Ru99  1  0.49637164  0.00016357  0.75748270  1
  Ru4+  Ru100  1  0.49805482  0.34554114  0.00311327  1
  Ru4+  Ru101  1  0.51014105  0.33556192  0.23635450  1
  Ru4+  Ru102  1  0.49394901  0.32828590  0.49759828  1
  Ru4+  Ru103  1  0.50061798  0.33230238  0.74512826  1
  Ru4+  Ru104  1  0.50342353  0.66007676  -0.00619153  1
  Ru4+  Ru105  1  0.49285195  0.67876356  0.25915106  1
  Ru4+  Ru106  1  0.50152496  0.67118528  0.49802161  1
  Ru4+  Ru107  1  0.50053142  0.66636926  0.74902805  1
  Ru4+  Ru108  1  0.11341926  0.16212532  -0.00221502  1
  Ru4+  Ru109  1  0.11301768  0.16735618  0.24756292  1
  Ru4+  Ru110  1  0.11424415  0.16824843  0.50346893  1
  Ru4+  Ru111  1  0.11355610  0.16443640  0.75052736  1
  Ru4+  Ru112  1  0.10906538  0.50784647  0.00785324  1
  Ru4+  Ru113  1  0.11728109  0.49768251  0.24928819  1
  Ru4+  Ru114  1  0.11289893  0.50704978  0.50117868  1
  Ru4+  Ru115  1  0.11143570  0.50382297  0.74745816  1
  Ru4+  Ru116  1  0.12330857  0.83749343  -0.00330377  1
  Ru4+  Ru117  1  0.11794625  0.83618765  0.25338210  1
  Ru4+  Ru118  1  0.11729621  0.83186274  0.50103151  1
  Ru4+  Ru119  1  0.11058821  0.85014299  0.75243348  1
  Ru4+  Ru120  1  0.61723010  0.16370631  -0.00527850  1
  Ru4+  Ru121  1  0.61964105  0.17400422  0.24824632  1
  Ru4+  Ru122  1  0.61584658  0.16863868  0.50426236  1
  Ru4+  Ru123  1  0.60649539  0.16829929  0.75389494  1
  Ru4+  Ru124  1  0.60658847  0.50339359  0.00147166  1
  Ru4+  Ru125  1  0.61620872  0.49992108  0.24160949  1
  Ru4+  Ru126  1  0.60618849  0.50332034  0.50679355  1
  Ru4+  Ru127  1  0.61228989  0.49742611  0.75119771  1
  Ru4+  Ru128  1  0.61166208  0.83615482  0.00294515  1
  Ru4+  Ru129  1  0.60807891  0.82864345  0.25545690  1
  Ru4+  Ru130  1  0.60624451  0.83388632  0.49759185  1
  Ru4+  Ru131  1  0.60975723  0.85496467  0.75170207  1
  Ru4+  Ru132  1  0.38359593  0.16408575  -0.00587463  1
  Ru4+  Ru133  1  0.38608467  0.16046989  0.25223370  1
  Ru4+  Ru134  1  0.38555949  0.16731916  0.50251304  1
  Ru4+  Ru135  1  0.39272545  0.15432440  0.75681298  1
  Ru4+  Ru136  1  0.38992883  0.50086418  0.00088748  1
  Ru4+  Ru137  1  0.38293574  0.50509566  0.24649481  1
  Ru4+  Ru138  1  0.38824494  0.50157186  0.50156953  1
  Ru4+  Ru139  1  0.39237619  0.50213003  0.75433238  1
  Ru4+  Ru140  1  0.38039631  0.83520474  -0.00291593  1
  Ru4+  Ru141  1  0.39653695  0.83636432  0.25619255  1
  Ru4+  Ru142  1  0.38747096  0.83645288  0.50035145  1
  Ru4+  Ru143  1  0.38853779  0.83465761  0.74614384  1
  Ru4+  Ru144  1  0.88964296  0.16964688  0.00100476  1
  Ru4+  Ru145  1  0.88085922  0.16490880  0.24850809  1
  Ru4+  Ru146  1  0.89077904  0.16337645  0.50784950  1
  Ru4+  Ru147  1  0.89603214  0.15697372  0.75336019  1
  Ru4+  Ru148  1  0.88786871  0.49614317  0.00349219  1
  Ru4+  Ru149  1  0.88638088  0.50191209  0.25008044  1
  Ru4+  Ru150  1  0.89174085  0.49451087  0.50401849  1
  Ru4+  Ru151  1  0.89044925  0.49602816  0.74230220  1
  Ru4+  Ru152  1  0.88666410  0.83099292  -0.00368773  1
  Ru4+  Ru153  1  0.88753567  0.82880370  0.25731481  1
  Ru4+  Ru154  1  0.89033775  0.83308120  0.49939918  1
  Ru4+  Ru155  1  0.88722801  0.82979182  0.74798553  1
  Ru4+  Ru156  1  0.25002783  0.38683692  0.51008183  1
  Ru4+  Ru157  1  0.24961122  0.23727479  0.00526963  1
  Ru4+  Ru158  1  0.24986098  0.24649104  0.50249360  1
  Ru4+  Ru159  1  0.74939273  0.57738425  0.48270921  1
  Ru4+  Ru160  1  0.74991109  0.70296742  0.52552733  1
  Ru4+  Ru161  1  0.25024271  0.76249005  0.25465462  1
  Ru4+  Ru162  1  0.75102927  0.24344324  0.00162467  1
  Ru4+  Ru163  1  0.24923017  0.05954029  0.25925638  1
  Ru4+  Ru164  1  0.75074246  0.11712764  0.48232232  1
  Ru4+  Ru165  1  0.75027870  0.40210904  0.01092158  1
  Ru4+  Ru166  1  0.75140097  0.98062307  0.54540858  1
  Ru4+  Ru167  1  0.74923748  0.92870725  0.24042289  1
  Ru4+  Ru168  1  0.74849844  0.73590689  0.00121124  1
  Ru4+  Ru169  1  0.75168641  0.08900685  -0.00489210  1
  Ru4+  Ru170  1  0.25134700  0.77052381  0.48462744  1
  Ru4+  Ru171  1  0.25011871  0.07101812  0.49800234  1
  Ru4+  Ru172  1  0.25048999  0.62342590  -0.02457626  1
  Ru4+  Ru173  1  0.75102604  0.42319071  0.25771727  1
  Ru4+  Ru174  1  0.24867557  0.64071404  0.52971091  1
  Ru4+  Ru175  1  0.74775107  0.75972839  0.75365591  1
  Ru4+  Ru176  1  0.74954670  0.59931371  0.75099156  1
  Ru4+  Ru177  1  0.24913268  0.38907707  0.01989473  1
  Ru4+  Ru178  1  0.24959054  0.24565015  0.74450473  1
  Ru4+  Ru179  1  0.75053682  0.26921412  0.75949025  1
  O2-  O180  1  0.16842251  0.08554123  0.00522129  1
  O2-  O181  1  0.16551725  0.07974806  0.25036759  1
  O2-  O182  1  0.16792857  0.07803068  0.49896760  1
  O2-  O183  1  0.16204439  0.08263710  0.74764760  1
  O2-  O184  1  0.16208167  0.41277214  0.00498510  1
  O2-  O185  1  0.16388380  0.41224838  0.24631011  1
  O2-  O186  1  0.16487863  0.40968756  0.50037299  1
  O2-  O187  1  0.16484633  0.41567659  0.74380363  1
  O2-  O188  1  0.16503177  0.74590612  0.00496185  1
  O2-  O189  1  0.16639952  0.74307550  0.24590798  1
  O2-  O190  1  0.17151960  0.75349669  0.49547148  1
  O2-  O191  1  0.16173969  0.75783471  0.74357679  1
  O2-  O192  1  0.66955066  0.08198996  0.00688306  1
  O2-  O193  1  0.66326011  0.08447845  0.25137794  1
  O2-  O194  1  0.67078014  0.08599315  0.48973058  1
  O2-  O195  1  0.66369766  0.08398848  0.75170389  1
  O2-  O196  1  0.66508618  0.41379847  -0.00639684  1
  O2-  O197  1  0.66936891  0.41399062  0.25331932  1
  O2-  O198  1  0.65396955  0.41099619  0.50227975  1
  O2-  O199  1  0.66512667  0.41173844  0.75441701  1
  O2-  O200  1  0.66586660  0.74602253  -0.00111430  1
  O2-  O201  1  0.65949665  0.73986711  0.24631271  1
  O2-  O202  1  0.66362685  0.74578461  0.50101118  1
  O2-  O203  1  0.65975744  0.75086545  0.75174038  1
  O2-  O204  1  0.33391831  0.25185812  0.00362887  1
  O2-  O205  1  0.33428642  0.25633613  0.24834392  1
  O2-  O206  1  0.33463580  0.25155683  0.50051205  1
  O2-  O207  1  0.33784591  0.24909669  0.75118800  1
  O2-  O208  1  0.33233085  0.58989954  0.00438377  1
  O2-  O209  1  0.33339971  0.58951713  0.24074575  1
  O2-  O210  1  0.33428894  0.58839528  0.50497568  1
  O2-  O211  1  0.33349792  0.58606472  0.74835245  1
  O2-  O212  1  0.33529170  0.92116971  0.00138416  1
  O2-  O213  1  0.33588595  0.91149615  0.25650487  1
  O2-  O214  1  0.33514797  0.91843687  0.49901651  1
  O2-  O215  1  0.32934637  0.91704410  0.74672151  1
  O2-  O216  1  0.83462141  0.25227895  0.00125449  1
  O2-  O217  1  0.83204298  0.25481357  0.24822330  1
  O2-  O218  1  0.84161143  0.25209523  0.49402310  1
  O2-  O219  1  0.83633310  0.25080508  0.75144013  1
  O2-  O220  1  0.83209609  0.58940573  0.00802947  1
  O2-  O221  1  0.83693377  0.58492275  0.24282270  1
  O2-  O222  1  0.83711432  0.58128190  0.49984760  1
  O2-  O223  1  0.83527397  0.58635089  0.75406626  1
  O2-  O224  1  0.84065912  0.92485167  0.00385446  1
  O2-  O225  1  0.83464618  0.91507019  0.24431008  1
  O2-  O226  1  0.83149204  0.92142244  0.50054977  1
  O2-  O227  1  0.83937535  0.91633233  0.74973197  1
  O2-  O228  1  0.16503400  0.25114964  0.00605084  1
  O2-  O229  1  0.16627105  0.25504082  0.25091167  1
  O2-  O230  1  0.16497244  0.25247444  0.50147778  1
  O2-  O231  1  0.16477682  0.25310894  0.74714808  1
  O2-  O232  1  0.17680308  0.58838384  0.01323444  1
  O2-  O233  1  0.16980101  0.58400140  0.23869092  1
  O2-  O234  1  0.16543611  0.59035740  0.50299403  1
  O2-  O235  1  0.16910234  0.58664745  0.74773055  1
  O2-  O236  1  0.17149602  0.92018374  0.00200575  1
  O2-  O237  1  0.16789216  0.91851860  0.24771817  1
  O2-  O238  1  0.16692395  0.91945862  0.50050870  1
  O2-  O239  1  0.17054494  0.92357752  0.74122562  1
  O2-  O240  1  0.66872835  0.25084229  -0.00584381  1
  O2-  O241  1  0.67350248  0.25460957  0.25188357  1
  O2-  O242  1  0.66324502  0.25574581  0.49535261  1
  O2-  O243  1  0.66603198  0.25461455  0.75549256  1
  O2-  O244  1  0.66094680  0.58847115  0.00239985  1
  O2-  O245  1  0.66316558  0.58769217  0.24506181  1
  O2-  O246  1  0.66351617  0.58694934  0.49950561  1
  O2-  O247  1  0.66393720  0.58941550  0.75380711  1
  O2-  O248  1  0.66276539  0.92360486  0.00543977  1
  O2-  O249  1  0.66498000  0.91869334  0.24661807  1
  O2-  O250  1  0.66356984  0.91995823  0.49668505  1
  O2-  O251  1  0.67450309  0.91092384  0.75317889  1
  O2-  O252  1  0.33166821  0.08358153  -0.00002410  1
  O2-  O253  1  0.33258277  0.07819911  0.25110772  1
  O2-  O254  1  0.33274848  0.07704481  0.49860059  1
  O2-  O255  1  0.33012283  0.08620698  0.75418476  1
  O2-  O256  1  0.33220204  0.41183854  0.00315426  1
  O2-  O257  1  0.33426194  0.41783972  0.24590691  1
  O2-  O258  1  0.33531817  0.41064890  0.50024358  1
  O2-  O259  1  0.34023791  0.41424784  0.74694056  1
  O2-  O260  1  0.33514361  0.74517547  0.00430094  1
  O2-  O261  1  0.33365043  0.75000418  0.24425184  1
  O2-  O262  1  0.33394022  0.75002215  0.50102067  1
  O2-  O263  1  0.33358709  0.74755527  0.75007813  1
  O2-  O264  1  0.83270960  0.08141712  0.00195519  1
  O2-  O265  1  0.83572459  0.07948984  0.24530201  1
  O2-  O266  1  0.82904929  0.08627061  0.50183401  1
  O2-  O267  1  0.83726426  0.07705692  0.75071085  1
  O2-  O268  1  0.83544299  0.40954263  0.00155096  1
  O2-  O269  1  0.83544186  0.41140190  0.25194567  1
  O2-  O270  1  0.83903120  0.40947257  0.49498987  1
  O2-  O271  1  0.83551068  0.41218594  0.75178909  1
  O2-  O272  1  0.82943011  0.74693584  0.00280732  1
  O2-  O273  1  0.83748808  0.73796538  0.24306739  1
  O2-  O274  1  0.83566349  0.74465653  0.50127676  1
  O2-  O275  1  0.82934353  0.74719618  0.75124088  1
  O2-  O276  1  0.55438913  0.24473053  -0.00072636  1
  O2-  O277  1  0.03190280  0.53445161  0.04700854  1
  O2-  O278  1  0.95117453  0.56701395  0.75092349  1
  O2-  O279  1  0.95334362  0.09898257  0.99277740  1
  O2-  O280  1  0.05030529  0.77019797  0.75865840  1
  O2-  O281  1  0.54617301  0.23931775  0.76596331  1
  O2-  O282  1  0.54732237  0.75646642  0.48158109  1
  O2-  O283  1  0.05111401  0.89922490  0.50615838  1
  O2-  O284  1  0.05041808  0.24457446  0.22776432  1
  O2-  O285  1  0.96248040  0.14168425  0.54783230  1
  O2-  O286  1  0.44580748  0.09182154  -0.00469868  1
  O2-  O287  1  0.54647138  0.43507272  -0.00431678  1
  O2-  O288  1  0.46339784  0.12499805  0.79926775  1
  O2-  O289  1  0.44558467  0.76328036  0.99365325  1
  O2-  O290  1  0.45553797  0.43242672  0.49468704  1
  O2-  O291  1  0.04648245  0.09713379  0.25541746  1
  O2-  O292  1  0.94966478  0.23693075  0.26247106  1
  O2-  O293  1  0.45429987  0.57792275  0.50833094  1
  O2-  O294  1  0.55248523  0.90251997  0.25114460  1
  O2-  O295  1  0.52432071  0.86009008  0.74180925  1
  O2-  O296  1  0.95492974  0.23585649  0.75735837  1
  O2-  O297  1  0.95422760  0.90057222  0.74655876  1
  O2-  O298  1  0.04628827  0.41977671  0.51594431  1
  O2-  O299  1  0.45253659  0.09474811  0.49448425  1
  O2-  O300  1  0.05154487  0.43420246  0.48055097  1
  O2-  O301  1  0.54489992  0.09686565  0.24145923  1
  O2-  O302  1  0.52670958  0.85644059  0.76044973  1
  O2-  O303  1  0.45727760  0.76484305  0.19408506  1
  O2-  O304  1  0.05246313  0.10073930  0.49418007  1
  O2-  O305  1  0.45448673  0.57448847  0.24152131  1
  O2-  O306  1  0.04875842  0.77965548  0.99017956  1
  O2-  O307  1  0.54852890  0.56849180  0.74301039  1
  O2-  O308  1  0.54313910  0.22747036  0.50285333  1
  O2-  O309  1  0.54748912  0.90474709  0.50543661  1
  O2-  O310  1  0.45633049  0.89104510  0.31773760  1
  O2-  O311  1  0.54169156  0.43380778  0.28783996  1
  O2-  O312  1  0.44699175  0.43202415  0.24280091  1
  O2-  O313  1  0.04516109  0.23407874  0.01064057  1
  O2-  O314  1  0.54846909  0.76174931  0.99803694  1
  O2-  O315  1  0.04670831  0.57872942  0.26331658  1
  O2-  O316  1  0.55409640  0.09467352  0.98519457  1
  O2-  O317  1  0.94954123  0.91424655  0.00267850  1
  O2-  O318  1  0.45527873  0.57208499  0.01485478  1
  O2-  O319  1  0.95616233  0.75649078  0.21211823  1
  O2-  O320  1  0.05248397  0.75180229  0.01457766  1
  O2-  O321  1  0.95523411  0.89409638  0.24546426  1
  O2-  O322  1  0.45155601  0.23823989  0.24522352  1
  O2-  O323  1  0.04845583  0.43008410  0.26544800  1
  O2-  O324  1  0.94018098  0.25612395  0.29225857  1
  O2-  O325  1  0.06896770  0.58114900  0.81725914  1
  O2-  O326  1  0.93864768  0.40286988  0.52907658  1
  O2-  O327  1  0.43003252  0.71723632  0.32421617  1
  O2-  O328  1  0.93355197  0.08742871  0.68539406  1
  O2-  O329  1  0.06065520  0.93506070  0.82759261  1
  O2-  O330  1  0.06024539  0.73825723  0.76750273  1
  O2-  O331  1  0.93863875  0.40126574  0.72049945  1
  O2-  O332  1  0.06443820  0.92516464  0.68005262  1
  O2-  O333  1  0.94412421  0.06338956  0.82917382  1
  O2-  O334  1  0.06922084  0.57113771  0.67461354  1
  O2-  O335  1  0.06330929  0.91769440  0.02945549  1
  O2-  O336  1  0.43076864  0.92703106  0.73223873  1
  O2-  O337  1  0.56682733  0.25316272  0.18061465  1
  O2-  O338  1  0.05752974  0.92937215  0.52520934  1
  O2-  O339  1  0.56251378  0.93104501  0.03152645  1
  O2-  O340  1  0.56202480  0.07789790  0.72362901  1
  O2-  O341  1  0.43956752  0.74024963  0.96473054  1
  O2-  O342  1  0.57269540  0.40567274  0.15267644  1
  O2-  O343  1  0.55843429  0.07888026  0.21488312  1
  O2-  O344  1  0.59068870  0.92205772  0.66128045  1
  O2-  O345  1  0.56479564  0.42838018  0.30208977  1
  O2-  O346  1  0.58813792  0.93394947  0.83263159  1
  O2-  O347  1  0.92963088  0.75476922  0.67424018  1
  O2-  O348  1  0.07004732  0.59152832  0.26828243  1
  O2-  O349  1  0.56396230  0.40606901  0.72841948  1
  O2-  O350  1  0.43879877  0.39883242  0.23527744  1
  O2-  O351  1  0.43843375  0.59314127  0.78458612  1
  O2-  O352  1  0.92617251  0.75866572  0.82328014  1
  O2-  O353  1  0.06307350  0.07352533  0.96142528  1
  O2-  O354  1  0.57075578  0.24449932  0.32167626  1
  O2-  O355  1  0.92287496  0.06990515  0.44708559  1
  O2-  O356  1  0.56644914  0.07643583  0.51933757  1
  O2-  O357  1  0.94356137  0.74660731  0.17992672  1
  O2-  O358  1  0.06519765  0.74777601  0.52595692  1
  O2-  O359  1  0.91948318  0.76277739  0.34798571  1
  O2-  O360  1  0.42385069  0.92962539  0.19040712  1
  O2-  O361  1  0.43938733  0.74157271  0.71542846  1
  O2-  O362  1  0.42281453  0.07617374  0.68129332  1
  O2-  O363  1  0.93916084  0.74386320  0.98542125  1
  O2-  O364  1  0.43362466  0.40832065  0.01688147  1
  O2-  O365  1  0.93916579  0.91861576  0.52207632  1
  O2-  O366  1  0.56086612  0.72977100  0.28203498  1
  O2-  O367  1  0.06210216  0.91931205  0.27213712  1
  O2-  O368  1  0.06094308  0.40285591  0.78022892  1
  O2-  O369  1  0.08622430  0.60203310  0.95527144  1
  O2-  O370  1  0.93447570  0.58580458  0.98453396  1
  O2-  O371  1  0.56382913  0.26494024  0.02825585  1
  O2-  O372  1  0.75026157  0.34958891  0.67143427  1
  O2-  O373  1  0.75323336  0.01040611  0.87004158  1
  O2-  O374  1  0.24933911  0.00720546  0.14999381  1
  O2-  O375  1  0.25076294  0.34115800  0.79182108  1
  O2-  O376  1  0.75236006  0.32139261  0.10866439  1
  O2-  O377  1  0.74950100  0.66882776  0.86185182  1
  O2-  O378  1  0.25113133  0.00199670  0.91927071  1
  O2-  O379  1  0.25122766  0.00101372  0.36826169  1
  O2-  O380  1  0.24952391  0.32155157  0.62159289  1
  O2-  O381  1  0.24993370  0.66976193  0.39491954  1
  O2-  O382  1  0.75008326  0.01665655  0.30024013  1
  O2-  O383  1  0.74955403  0.67892999  0.65081743  1
  O2-  O384  1  0.75202657  0.00488710  0.66104239  1
  O2-  O385  1  0.24961331  0.31636225  0.92113703  1
  O2-  O386  1  0.74999401  0.33213229  0.58079317  1
  O2-  O387  1  0.24876551  0.33746963  0.13768297  1
  O2-  O388  1  0.74920615  0.00789376  0.42922468  1
  O2-  O389  1  0.24753712  0.32607918  0.39349489  1
  O2-  O390  1  0.75044513  -0.00094810  0.13405222  1
  O2-  O391  1  0.24983244  -0.00074663  0.82842560  1
  O2-  O392  1  0.25178054  0.66190770  0.86325106  1
  O2-  O393  1  0.25049504  0.66841218  0.64743199  1
  O2-  O394  1  0.74798643  0.67167573  0.39001396  1
  O2-  O395  1  0.75004615  0.33026052  0.89782038  1
  O2-  O396  1  0.24997092  0.15911937  0.58158459  1
  O2-  O397  1  0.25037681  0.49439891  0.32236616  1
  O2-  O398  1  0.75043682  0.51392672  0.58331920  1
  O2-  O399  1  0.75063885  0.16047806  0.37967922  1
  O2-  O400  1  0.74953364  0.50936156  0.67651376  1
  O2-  O401  1  0.24984048  0.83348786  0.86380026  1
  O2-  O402  1  0.75057315  0.50737420  0.18282284  1
  O2-  O403  1  0.75045060  0.17013418  0.90145325  1
  O2-  O404  1  0.75028681  0.81686845  0.85614440  1
  O2-  O405  1  0.24982566  0.82284233  0.08568496  1
  O2-  O406  1  0.25009464  0.50009686  0.95218441  1
  O2-  O407  1  0.75085486  0.50239808  0.34890512  1
  O2-  O408  1  0.74933484  0.82099086  0.10908612  1
  O2-  O409  1  0.24948147  0.15767709  0.33573085  1
  O2-  O410  1  0.25065205  0.48452413  0.59198058  1
  O2-  O411  1  0.24954990  0.49310179  0.86644534  1
  O2-  O412  1  0.24973039  0.15732203  0.67250805  1
  O2-  O413  1  0.74996252  0.82703175  0.66201822  1
  O2-  O414  1  0.25037701  0.16132407  0.42296603  1
  O2-  O415  1  0.74977529  0.48919459  0.09520034  1
  O2-  O416  1  0.24953819  0.83842014  0.16856718  1
  O2-  O417  1  0.75040145  0.85694733  0.35286546  1
  O2-  O418  1  0.74907310  0.16195958  0.58874562  1
  O2-  O419  1  0.24975810  0.82192026  0.34892149  1
  O2-  O420  1  0.52206772  0.33071570  0.61622276  1
  O2-  O421  1  0.45133621  0.32202412  0.38017466  1
  O2-  O422  1  0.04633478  0.68584859  0.37993706  1
  O2-  O423  1  0.02394858  0.68962044  0.88752529  1
  O2-  O424  1  0.02636716  0.67152082  0.13408115  1
  O2-  O425  1  0.54328336  0.34902749  0.41474625  1
  O2-  O426  1  0.96681926  0.64666151  0.59946087  1
  O2-  O427  1  0.47188610  0.31715391  0.12192862  1
  O2-  O428  1  0.98365145  -0.00602761  0.62269183  1
  O2-  O429  1  0.95708435  0.63142535  0.39007645  1
  O2-  O430  1  0.97128290  0.64555425  0.86917677  1
  O2-  O431  1  0.95255935  -0.01177299  0.35091803  1
  O2-  O432  1  0.51759400  0.00807816  0.62657543  1
  O2-  O433  1  0.48119904  0.00997932  0.12160454  1
  O2-  O434  1  0.46400101  -0.01947310  0.60099708  1
  O2-  O435  1  0.52793758  0.00981579  0.37111848  1
  O2-  O436  1  0.97318054  0.33565952  0.88349986  1
  O2-  O437  1  0.02142173  0.01126745  0.13015927  1
  O2-  O438  1  0.97252872  0.33213485  0.12295626  1
  O2-  O439  1  0.52852444  0.66648188  0.87005032  1
  O2-  O440  1  0.52767881  0.66791478  0.62641125  1
  O2-  O441  1  0.04122243  0.00215671  0.39218231  1
  O2-  O442  1  0.02060093  0.67774650  0.62374242  1
  O2-  O443  1  0.50868040  0.00210190  0.87719716  1
