# generated using pymatgen
data_La7(Ru4O11)2
_symmetry_space_group_name_H-M   'P 1'
_cell_length_a   23.99179306
_cell_length_b   16.83239859
_cell_length_c   15.42873031
_cell_angle_alpha   90.00124282
_cell_angle_beta   90.00173028
_cell_angle_gamma   90.00002285
_symmetry_Int_Tables_number   1
_chemical_formula_structural   La7(Ru4O11)2
_chemical_formula_sum   'La84 Ru96 O264'
_cell_volume   6230.72955113
_cell_formula_units_Z   12
loop_
 _symmetry_equiv_pos_site_id
 _symmetry_equiv_pos_as_xyz
  1  'x, y, z'
loop_
 _atom_type_symbol
 _atom_type_oxidation_number
  La3+  3.0
  Ru4+  4.0
  O2-  -2.0
loop_
 _atom_site_type_symbol
 _atom_site_label
 _atom_site_symmetry_multiplicity
 _atom_site_fract_x
 _atom_site_fract_y
 _atom_site_fract_z
 _atom_site_occupancy
  La3+  La0  1  0.14475846  -0.00251944  0.12744664  1
  La3+  La1  1  0.15018420  0.00235548  0.37038655  1
  La3+  La2  1  0.14325903  0.00356081  0.62163271  1
  La3+  La3  1  0.13323595  -0.00070937  0.87702592  1
  La3+  La4  1  0.14303460  0.33453239  0.12219107  1
  La3+  La5  1  0.14050659  0.33429045  0.37740342  1
  La3+  La6  1  0.13798582  0.33565237  0.62428298  1
  La3+  La7  1  0.14068534  0.32999832  0.87652793  1
  La3+  La8  1  0.13872886  0.67112271  0.12777728  1
  La3+  La9  1  0.13710638  0.66609379  0.37921617  1
  La3+  La10  1  0.14087995  0.66204183  0.61981687  1
  La3+  La11  1  0.13980417  0.66596625  0.87157062  1
  La3+  La12  1  0.64821495  -0.00083860  0.12403826  1
  La3+  La13  1  0.64434629  -0.00171213  0.37084327  1
  La3+  La14  1  0.64051813  0.00065613  0.62200260  1
  La3+  La15  1  0.64478532  -0.00262826  0.88096959  1
  La3+  La16  1  0.64484040  0.32697540  0.12214646  1
  La3+  La17  1  0.64261362  0.32667564  0.37719081  1
  La3+  La18  1  0.63799597  0.33596799  0.62677195  1
  La3+  La19  1  0.63865608  0.33509077  0.87331097  1
  La3+  La20  1  0.62869866  0.65932999  0.11206049  1
  La3+  La21  1  0.63853572  0.66890778  0.37641357  1
  La3+  La22  1  0.63420380  0.66495090  0.62182700  1
  La3+  La23  1  0.62865176  0.66206312  0.88461340  1
  La3+  La24  1  0.35709868  -0.00509299  0.12348457  1
  La3+  La25  1  0.35444741  -0.00023261  0.37196191  1
  La3+  La26  1  0.36040008  0.00097316  0.62411292  1
  La3+  La27  1  0.36599569  -0.00166301  0.87928309  1
  La3+  La28  1  0.36731439  0.32396882  0.11758086  1
  La3+  La29  1  0.35853900  0.33505402  0.37643262  1
  La3+  La30  1  0.36051519  0.33403568  0.62624087  1
  La3+  La31  1  0.37290736  0.32052938  0.88880174  1
  La3+  La32  1  0.36186186  0.67135094  0.12689851  1
  La3+  La33  1  0.36174307  0.66628964  0.37340716  1
  La3+  La34  1  0.36166427  0.66087847  0.62193792  1
  La3+  La35  1  0.36105795  0.66699527  0.87587110  1
  La3+  La36  1  0.85017424  -0.00216901  0.12758448  1
  La3+  La37  1  0.85475741  -0.00265519  0.36983847  1
  La3+  La38  1  0.86491442  -0.00015982  0.62311060  1
  La3+  La39  1  0.85910457  0.00157948  0.88139805  1
  La3+  La40  1  0.86214836  0.33459905  0.12238277  1
  La3+  La41  1  0.86254730  0.33222532  0.37380869  1
  La3+  La42  1  0.86069117  0.33452950  0.62712361  1
  La3+  La43  1  0.86190469  0.33346110  0.87420597  1
  La3+  La44  1  0.85978751  0.67103156  0.12568632  1
  La3+  La45  1  0.86245820  0.66728488  0.37509134  1
  La3+  La46  1  0.86525137  0.66653714  0.62367987  1
  La3+  La47  1  0.86048263  0.66760410  0.87651453  1
  La3+  La48  1  0.50294106  0.50111029  0.11780977  1
  La3+  La49  1  0.00205195  0.15964426  0.12698420  1
  La3+  La50  1  0.00209663  0.49403634  0.87068222  1
  La3+  La51  1  0.00018581  0.83165391  0.13048787  1
  La3+  La52  1  -0.00056006  0.82728009  0.36546080  1
  La3+  La53  1  -0.00428835  0.16633672  0.39576251  1
  La3+  La54  1  -0.00600589  0.83987278  0.87651578  1
  La3+  La55  1  0.49740118  0.16611698  0.88078569  1
  La3+  La56  1  0.49865100  0.49778274  0.89100302  1
  La3+  La57  1  0.50291439  0.17089061  0.10676293  1
  La3+  La58  1  0.49418384  0.16725077  0.12407686  1
  La3+  La59  1  -0.00144691  0.16449891  0.10557427  1
  La3+  La60  1  0.49918176  0.83897048  0.12824785  1
  La3+  La61  1  0.00548828  0.18168249  0.62952209  1
  La3+  La62  1  0.50457474  0.82612289  0.36805393  1
  La3+  La63  1  0.49306835  0.82823762  0.87734411  1
  La3+  La64  1  0.49935096  0.16487272  0.36624741  1
  La3+  La65  1  -0.00735148  0.50483590  0.61144456  1
  La3+  La66  1  0.50475664  0.50239631  0.87093326  1
  La3+  La67  1  0.50153303  0.16992561  0.63322119  1
  La3+  La68  1  -0.00309695  0.49809839  0.13716515  1
  La3+  La69  1  -0.00093967  0.49477366  0.89277146  1
  La3+  La70  1  0.50064145  0.16926148  0.38792964  1
  La3+  La71  1  -0.00707852  0.15624744  0.37651993  1
  La3+  La72  1  0.24974281  0.83654342  0.01022932  1
  La3+  La73  1  0.25041091  0.49587447  0.03724667  1
  La3+  La74  1  0.25087693  0.81688004  0.72545157  1
  La3+  La75  1  0.74993929  0.53534537  0.51471629  1
  La3+  La76  1  0.74977892  0.15956952  -0.00983791  1
  La3+  La77  1  0.74995087  0.50619113  -0.01711192  1
  La3+  La78  1  0.25063066  0.19428458  0.79947141  1
  La3+  La79  1  0.74977649  0.20511264  0.52329717  1
  La3+  La80  1  0.74891254  0.50956189  0.24605794  1
  La3+  La81  1  0.74941061  0.87240725  0.51558968  1
  La3+  La82  1  0.74838743  0.76944079  0.76403765  1
  La3+  La83  1  0.25060496  0.16718170  0.52131747  1
  Ru4+  Ru84  1  -0.00034198  -0.00048324  -0.00683185  1
  Ru4+  Ru85  1  -0.00405559  -0.00675157  0.24537459  1
  Ru4+  Ru86  1  0.00657518  -0.02055617  0.50948300  1
  Ru4+  Ru87  1  -0.00095699  0.00097422  0.74843503  1
  Ru4+  Ru88  1  0.00252140  0.32508016  -0.00322444  1
  Ru4+  Ru89  1  0.00282658  0.33540498  0.25427306  1
  Ru4+  Ru90  1  -0.00176280  0.34196165  0.49315603  1
  Ru4+  Ru91  1  0.00358261  0.33365340  0.75337674  1
  Ru4+  Ru92  1  -0.00061858  0.66957430  0.00921129  1
  Ru4+  Ru93  1  0.00116735  0.66568768  0.24714250  1
  Ru4+  Ru94  1  0.00317679  0.66549237  0.49390830  1
  Ru4+  Ru95  1  0.00131670  0.68097086  0.74885256  1
  Ru4+  Ru96  1  0.50140050  0.00088143  -0.00354749  1
  Ru4+  Ru97  1  0.49966739  -0.00243872  0.25130798  1
  Ru4+  Ru98  1  0.50222961  0.00246217  0.49649886  1
  Ru4+  Ru99  1  0.49861105  -0.00004651  0.75328064  1
  Ru4+  Ru100  1  0.49955211  0.32502913  0.00130229  1
  Ru4+  Ru101  1  0.49555495  0.34289308  0.25336460  1
  Ru4+  Ru102  1  0.50273445  0.34025264  0.50159770  1
  Ru4+  Ru103  1  0.49960160  0.33617505  0.74470948  1
  Ru4+  Ru104  1  0.50170710  0.66471035  -0.00128341  1
  Ru4+  Ru105  1  0.49748657  0.66248331  0.24332254  1
  Ru4+  Ru106  1  0.49779101  0.66634906  0.50667365  1
  Ru4+  Ru107  1  0.49997055  0.66603011  0.74841307  1
  Ru4+  Ru108  1  0.11220819  0.16774829  0.00069182  1
  Ru4+  Ru109  1  0.11622426  0.16487147  0.24585131  1
  Ru4+  Ru110  1  0.11204225  0.16932808  0.50144796  1
  Ru4+  Ru111  1  0.10898704  0.16544869  0.75046635  1
  Ru4+  Ru112  1  0.11118877  0.49739817  0.00068693  1
  Ru4+  Ru113  1  0.10967958  0.50062858  0.25150824  1
  Ru4+  Ru114  1  0.10965221  0.50313460  0.49693278  1
  Ru4+  Ru115  1  0.11532212  0.49794752  0.75138006  1
  Ru4+  Ru116  1  0.11063681  0.83219247  0.00093321  1
  Ru4+  Ru117  1  0.11487703  0.83307148  0.24920335  1
  Ru4+  Ru118  1  0.10594751  0.83973687  0.50304716  1
  Ru4+  Ru119  1  0.10741460  0.82949748  0.74373317  1
  Ru4+  Ru120  1  0.61012743  0.16692682  -0.00229268  1
  Ru4+  Ru121  1  0.61688851  0.16641651  0.25117035  1
  Ru4+  Ru122  1  0.60646797  0.16635573  0.49837429  1
  Ru4+  Ru123  1  0.61163312  0.16442282  0.75029862  1
  Ru4+  Ru124  1  0.61511862  0.50414230  0.00173912  1
  Ru4+  Ru125  1  0.60573265  0.48942307  0.24993482  1
  Ru4+  Ru126  1  0.60810698  0.49615500  0.49866797  1
  Ru4+  Ru127  1  0.61393436  0.49551790  0.74948883  1
  Ru4+  Ru128  1  0.61502109  0.83398448  0.00240751  1
  Ru4+  Ru129  1  0.61407745  0.83306645  0.24950436  1
  Ru4+  Ru130  1  0.60889873  0.83517885  0.49820568  1
  Ru4+  Ru131  1  0.61016268  0.83236220  0.74862088  1
  Ru4+  Ru132  1  0.38572075  0.16728895  -0.00252704  1
  Ru4+  Ru133  1  0.38577353  0.16134705  0.24818142  1
  Ru4+  Ru134  1  0.39014343  0.16645158  0.50003773  1
  Ru4+  Ru135  1  0.39162516  0.17151015  0.75400174  1
  Ru4+  Ru136  1  0.38876024  0.49472289  0.00142658  1
  Ru4+  Ru137  1  0.39161988  0.49956557  0.25361546  1
  Ru4+  Ru138  1  0.38585048  0.50333115  0.50367196  1
  Ru4+  Ru139  1  0.38644455  0.49786657  0.74659769  1
  Ru4+  Ru140  1  0.38646929  0.83163891  -0.00005940  1
  Ru4+  Ru141  1  0.38420760  0.83102274  0.25092929  1
  Ru4+  Ru142  1  0.38659789  0.83007211  0.50100113  1
  Ru4+  Ru143  1  0.39176549  0.83332951  0.74998815  1
  Ru4+  Ru144  1  0.89143724  0.15967948  -0.00152226  1
  Ru4+  Ru145  1  0.88159898  0.16475759  0.25017191  1
  Ru4+  Ru146  1  0.88924253  0.16466549  0.49832383  1
  Ru4+  Ru147  1  0.88817771  0.17038223  0.75099091  1
  Ru4+  Ru148  1  0.88497486  0.50340379  0.00165243  1
  Ru4+  Ru149  1  0.88790312  0.49577854  0.25085957  1
  Ru4+  Ru150  1  0.89006607  0.50141726  0.50277571  1
  Ru4+  Ru151  1  0.88671829  0.49529562  0.74830202  1
  Ru4+  Ru152  1  0.88561454  0.83464079  -0.00025316  1
  Ru4+  Ru153  1  0.88616860  0.83799289  0.25195489  1
  Ru4+  Ru154  1  0.89135741  0.83719923  0.49826893  1
  Ru4+  Ru155  1  0.89355038  0.82745542  0.75025424  1
  Ru4+  Ru156  1  0.25026410  0.06955562  0.73490911  1
  Ru4+  Ru157  1  0.25015862  0.75816016  0.50261507  1
  Ru4+  Ru158  1  0.75014069  0.39350795  0.48883823  1
  Ru4+  Ru159  1  0.75009922  0.65100218  0.26454420  1
  Ru4+  Ru160  1  0.25025865  0.90611225  0.49806972  1
  Ru4+  Ru161  1  0.24985677  0.42624497  0.50334068  1
  Ru4+  Ru162  1  0.24974018  0.94237200  0.78172601  1
  Ru4+  Ru163  1  0.25032124  0.32330281  0.73882190  1
  Ru4+  Ru164  1  0.75112342  0.64815391  0.00493888  1
  Ru4+  Ru165  1  0.25045973  0.36286632  -0.00968553  1
  Ru4+  Ru166  1  0.24930618  0.08202701  0.00545178  1
  Ru4+  Ru167  1  0.74967989  0.24935471  0.75242818  1
  Ru4+  Ru168  1  0.74990557  0.57171540  0.74880698  1
  Ru4+  Ru169  1  0.75028239  0.72624601  0.50163297  1
  Ru4+  Ru170  1  0.25000978  0.58582539  0.25777676  1
  Ru4+  Ru171  1  0.25026990  0.67588932  0.71825048  1
  Ru4+  Ru172  1  0.75039852  0.36922257  0.28361252  1
  Ru4+  Ru173  1  0.74953559  0.06531000  0.46475614  1
  Ru4+  Ru174  1  0.25073862  0.24502454  0.23900486  1
  Ru4+  Ru175  1  0.75078088  0.91827612  0.75825939  1
  Ru4+  Ru176  1  0.25019632  0.63515726  0.02047148  1
  Ru4+  Ru177  1  0.75028151  0.09634352  0.75291973  1
  Ru4+  Ru178  1  0.25050269  0.41749914  0.24829440  1
  Ru4+  Ru179  1  0.75045835  0.36312524  -0.03504457  1
  O2-  O180  1  0.16564874  0.07925936  -0.00094381  1
  O2-  O181  1  0.16733904  0.08364760  0.24625666  1
  O2-  O182  1  0.16599568  0.08278138  0.50059709  1
  O2-  O183  1  0.16497328  0.08123123  0.75409051  1
  O2-  O184  1  0.16661910  0.41238508  -0.00191835  1
  O2-  O185  1  0.16579553  0.41521606  0.24842672  1
  O2-  O186  1  0.16552459  0.41566493  0.50157378  1
  O2-  O187  1  0.17083146  0.41397245  0.74619902  1
  O2-  O188  1  0.16375923  0.74697087  0.00015731  1
  O2-  O189  1  0.16438005  0.74642821  0.25061109  1
  O2-  O190  1  0.16708053  0.75207239  0.50023208  1
  O2-  O191  1  0.16664798  0.74696073  0.75230208  1
  O2-  O192  1  0.66238873  0.08074958  -0.00115350  1
  O2-  O193  1  0.66456208  0.08135414  0.25009227  1
  O2-  O194  1  0.66683501  0.07975449  0.49864507  1
  O2-  O195  1  0.66543892  0.08200591  0.75041152  1
  O2-  O196  1  0.66679250  0.41294794  -0.00315912  1
  O2-  O197  1  0.67283788  0.41270183  0.25257002  1
  O2-  O198  1  0.66702764  0.41571911  0.50048215  1
  O2-  O199  1  0.66690719  0.41505966  0.75061282  1
  O2-  O200  1  0.66830754  0.74357714  0.00118745  1
  O2-  O201  1  0.66355638  0.74558269  0.24724072  1
  O2-  O202  1  0.66812264  0.74622932  0.50477884  1
  O2-  O203  1  0.65730302  0.74075537  0.74889583  1
  O2-  O204  1  0.33064007  0.25001380  0.00125896  1
  O2-  O205  1  0.33339961  0.25483396  0.24812186  1
  O2-  O206  1  0.33251718  0.25312971  0.50248077  1
  O2-  O207  1  0.33427044  0.25516970  0.75120983  1
  O2-  O208  1  0.33271971  0.59001820  0.00247157  1
  O2-  O209  1  0.33467639  0.58719512  0.24823734  1
  O2-  O210  1  0.33362945  0.58369544  0.49588131  1
  O2-  O211  1  0.33566541  0.58419443  0.74857940  1
  O2-  O212  1  0.33364711  0.92120013  -0.00283442  1
  O2-  O213  1  0.33608236  0.91885758  0.24816292  1
  O2-  O214  1  0.33068805  0.91887833  0.50109880  1
  O2-  O215  1  0.33159157  0.92174978  0.75060012  1
  O2-  O216  1  0.83851157  0.25058324  -0.00287381  1
  O2-  O217  1  0.83544928  0.25399081  0.25225842  1
  O2-  O218  1  0.83934427  0.25437505  0.49856973  1
  O2-  O219  1  0.83261542  0.24939545  0.75077330  1
  O2-  O220  1  0.83213975  0.58963118  -0.00014191  1
  O2-  O221  1  0.83206217  0.59025365  0.25452109  1
  O2-  O222  1  0.83607661  0.58910490  0.50063355  1
  O2-  O223  1  0.83282772  0.58824665  0.74917040  1
  O2-  O224  1  0.83649566  0.91592334  -0.00133221  1
  O2-  O225  1  0.83211466  0.91388746  0.25026744  1
  O2-  O226  1  0.83691947  0.92163708  0.50242001  1
  O2-  O227  1  0.83687439  0.91872481  0.74949264  1
  O2-  O228  1  0.16365797  0.25101334  0.00185733  1
  O2-  O229  1  0.16777212  0.25286531  0.24990601  1
  O2-  O230  1  0.16989679  0.25337421  0.50298692  1
  O2-  O231  1  0.16688827  0.25585917  0.74844336  1
  O2-  O232  1  0.16746429  0.59027341  0.00124503  1
  O2-  O233  1  0.16741553  0.58662344  0.24947499  1
  O2-  O234  1  0.16697355  0.58368403  0.49679799  1
  O2-  O235  1  0.16632754  0.58313019  0.74781932  1
  O2-  O236  1  0.16366369  0.92135411  -0.00318622  1
  O2-  O237  1  0.16325597  0.91734563  0.24766067  1
  O2-  O238  1  0.16808533  0.91625284  0.50230506  1
  O2-  O239  1  0.16654551  0.91904164  0.75400152  1
  O2-  O240  1  0.66420715  0.25260162  -0.00714232  1
  O2-  O241  1  0.66623633  0.25087256  0.25295449  1
  O2-  O242  1  0.66153750  0.25439391  0.50302106  1
  O2-  O243  1  0.66575297  0.25387659  0.74948941  1
  O2-  O244  1  0.66954520  0.59112723  0.00003176  1
  O2-  O245  1  0.66302441  0.58936274  0.24870889  1
  O2-  O246  1  0.66399209  0.58813252  0.50466114  1
  O2-  O247  1  0.66663897  0.58823635  0.74976242  1
  O2-  O248  1  0.66572696  0.91517128  0.00013370  1
  O2-  O249  1  0.66259014  0.91749970  0.24904385  1
  O2-  O250  1  0.66183705  0.92140230  0.49991191  1
  O2-  O251  1  0.66792226  0.91901858  0.75079974  1
  O2-  O252  1  0.33295153  0.08186671  0.00038089  1
  O2-  O253  1  0.33504824  0.08108595  0.24756491  1
  O2-  O254  1  0.33500239  0.07975165  0.50094277  1
  O2-  O255  1  0.33475040  0.07906029  0.75121755  1
  O2-  O256  1  0.33448943  0.40973818  -0.00102475  1
  O2-  O257  1  0.33326956  0.41571788  0.24740567  1
  O2-  O258  1  0.33250155  0.41675748  0.49850060  1
  O2-  O259  1  0.33053849  0.41341205  0.74800897  1
  O2-  O260  1  0.33253784  0.74606781  0.00202571  1
  O2-  O261  1  0.33153683  0.74669458  0.24892485  1
  O2-  O262  1  0.33383408  0.74940098  0.49974214  1
  O2-  O263  1  0.33612078  0.74476171  0.74923067  1
  O2-  O264  1  0.83215751  0.08134520  -0.00477745  1
  O2-  O265  1  0.83175993  0.08403957  0.25096602  1
  O2-  O266  1  0.83063111  0.08067627  0.50277811  1
  O2-  O267  1  0.83521920  0.08137109  0.75081829  1
  O2-  O268  1  0.83314813  0.41203310  -0.00312490  1
  O2-  O269  1  0.83181859  0.41251692  0.25158900  1
  O2-  O270  1  0.83434174  0.41381923  0.49874572  1
  O2-  O271  1  0.83636641  0.41283040  0.74970640  1
  O2-  O272  1  0.83226879  0.74553848  -0.00096351  1
  O2-  O273  1  0.83664973  0.74795576  0.25052637  1
  O2-  O274  1  0.83450921  0.74647131  0.50277555  1
  O2-  O275  1  0.83856854  0.74229593  0.74559354  1
  O2-  O276  1  0.03106508  0.89212426  0.73918130  1
  O2-  O277  1  0.95261238  0.43021943  0.01773718  1
  O2-  O278  1  0.53725378  0.89651767  0.78363897  1
  O2-  O279  1  0.95638991  0.77114005  0.00707969  1
  O2-  O280  1  0.95761878  0.78287418  0.69833320  1
  O2-  O281  1  0.95296290  0.09793737  0.79986384  1
  O2-  O282  1  0.44584330  0.57802323  0.01926216  1
  O2-  O283  1  0.04514622  0.76583175  0.80371540  1
  O2-  O284  1  0.04720745  0.43253680  0.49850372  1
  O2-  O285  1  0.95248451  0.57164863  0.76068767  1
  O2-  O286  1  0.55426690  0.42419589  0.48445586  1
  O2-  O287  1  0.04683982  0.43179319  0.25760281  1
  O2-  O288  1  0.55542709  0.57973201  0.01296609  1
  O2-  O289  1  0.46277094  0.45051679  0.50664247  1
  O2-  O290  1  0.94955065  0.57177203  0.01103561  1
  O2-  O291  1  0.96325254  0.11477963  0.53297964  1
  O2-  O292  1  0.05296830  0.57133098  0.25969812  1
  O2-  O293  1  0.45529049  0.89978729  0.25690404  1
  O2-  O294  1  0.04797353  0.56919179  0.01121995  1
  O2-  O295  1  0.54369411  0.23371165  0.76684991  1
  O2-  O296  1  0.54034325  0.56528075  0.53324685  1
  O2-  O297  1  0.95318270  0.09723981  0.94965104  1
  O2-  O298  1  0.54357426  0.42190258  0.01058471  1
  O2-  O299  1  0.55365413  0.57391036  0.76013395  1
  O2-  O300  1  0.53027646  0.45371370  0.24415748  1
  O2-  O301  1  0.45104283  0.57742962  0.73289285  1
  O2-  O302  1  0.44599018  0.24156812  0.98376183  1
  O2-  O303  1  0.04457115  0.21476625  0.28195954  1
  O2-  O304  1  0.04395770  0.90127077  0.01540659  1
  O2-  O305  1  0.45533813  0.10213154  0.74115193  1
  O2-  O306  1  0.44728693  0.91213350  0.02809105  1
  O2-  O307  1  0.02233006  0.86463324  0.49164864  1
  O2-  O308  1  0.46430081  0.44005095  0.70753233  1
  O2-  O309  1  0.54539323  0.75704920  0.76469101  1
  O2-  O310  1  0.45063963  0.23650361  0.24678794  1
  O2-  O311  1  0.54638574  0.09361606  0.23981432  1
  O2-  O312  1  0.04946112  0.23259525  0.74497907  1
  O2-  O313  1  0.45372842  0.23050562  0.00560506  1
  O2-  O314  1  0.95619785  0.55448475  0.28006945  1
  O2-  O315  1  0.94995053  0.09658866  0.70884704  1
  O2-  O316  1  0.52668647  0.46662926  0.25669081  1
  O2-  O317  1  0.54811064  0.23603884  0.24224864  1
  O2-  O318  1  0.04396812  0.43602618  0.50545005  1
  O2-  O319  1  0.03594695  0.45552711  0.71661900  1
  O2-  O320  1  0.45140090  0.56850354  0.25695821  1
  O2-  O321  1  0.95055181  0.23764654  0.23270449  1
  O2-  O322  1  0.45857203  0.88582140  0.47273265  1
  O2-  O323  1  0.54642917  0.56497872  0.99428898  1
  O2-  O324  1  0.93867294  0.60109876  0.53395232  1
  O2-  O325  1  0.06892542  0.95904341  0.42016686  1
  O2-  O326  1  0.44153537  0.25510752  0.53141851  1
  O2-  O327  1  0.43574451  0.60189016  0.53476900  1
  O2-  O328  1  0.92736437  0.59452288  0.21100115  1
  O2-  O329  1  0.07103242  0.94348321  0.57044223  1
  O2-  O330  1  0.07061332  0.72151548  0.68238578  1
  O2-  O331  1  0.56639656  0.40479047  0.72783214  1
  O2-  O332  1  0.43054491  0.40087627  0.28771441  1
  O2-  O333  1  0.42571691  0.93287474  0.53850454  1
  O2-  O334  1  0.93900009  0.40167872  0.02903795  1
  O2-  O335  1  0.44556709  0.91446825  0.02880984  1
  O2-  O336  1  0.91923382  0.08055179  0.08369798  1
  O2-  O337  1  0.56644236  0.40881313  0.01868211  1
  O2-  O338  1  0.93608616  0.92200366  0.46930041  1
  O2-  O339  1  0.06868052  0.28483335  0.18143181  1
  O2-  O340  1  0.07275002  0.94955932  0.72063068  1
  O2-  O341  1  0.06228751  0.06796621  0.21695332  1
  O2-  O342  1  0.56785700  0.59974107  0.95921121  1
  O2-  O343  1  0.42916871  0.26897796  0.03153551  1
  O2-  O344  1  0.93838327  0.07740165  0.22998173  1
  O2-  O345  1  0.06375957  0.59128435  0.47795120  1
  O2-  O346  1  0.43753837  0.73950762  0.97773812  1
  O2-  O347  1  0.07243299  0.24570233  0.43143935  1
  O2-  O348  1  0.55960156  0.74561028  0.96540108  1
  O2-  O349  1  0.57827823  0.93624813  0.70282174  1
  O2-  O350  1  0.42557932  0.39586490  0.54150716  1
  O2-  O351  1  0.56215732  0.92949643  0.03655372  1
  O2-  O352  1  0.43294310  0.92408082  0.77506256  1
  O2-  O353  1  0.58354754  0.39258623  0.32497396  1
  O2-  O354  1  0.42281561  0.39737893  0.80011400  1
  O2-  O355  1  0.92682755  0.06102449  0.43006508  1
  O2-  O356  1  0.06760024  0.74211555  0.47456930  1
  O2-  O357  1  0.43645851  0.74089074  0.27334935  1
  O2-  O358  1  0.06129287  0.59501872  0.78954526  1
  O2-  O359  1  0.58517738  0.40010834  0.17435137  1
  O2-  O360  1  0.93660645  0.40128649  0.21680674  1
  O2-  O361  1  0.07389999  0.24998484  0.56841663  1
  O2-  O362  1  0.93299804  0.91447805  0.18502901  1
  O2-  O363  1  0.95085346  0.08692632  0.94702948  1
  O2-  O364  1  0.07719607  0.39159483  0.80353357  1
  O2-  O365  1  0.56394315  0.74454947  0.47329194  1
  O2-  O366  1  0.93481298  0.26240384  0.72679626  1
  O2-  O367  1  0.57015832  0.59530334  0.46086655  1
  O2-  O368  1  0.93234599  0.71935090  0.81522670  1
  O2-  O369  1  0.56468324  0.92960023  0.46321869  1
  O2-  O370  1  0.43413928  0.07502121  0.97451817  1
  O2-  O371  1  0.93985027  0.93145589  0.31940457  1
  O2-  O372  1  0.74891556  0.00010829  0.08001426  1
  O2-  O373  1  0.25119185  -0.00587331  0.63389194  1
  O2-  O374  1  0.74944509  0.00532143  0.92754137  1
  O2-  O375  1  0.75023654  0.33297591  0.84479339  1
  O2-  O376  1  0.25033945  0.00348389  0.42514123  1
  O2-  O377  1  0.75031330  0.31703280  0.18611583  1
  O2-  O378  1  0.24937328  0.69154712  0.91303290  1
  O2-  O379  1  0.25068362  0.67522386  0.59320031  1
  O2-  O380  1  0.74937481  -0.00346433  0.55925785  1
  O2-  O381  1  0.25002511  0.64671898  0.83593438  1
  O2-  O382  1  0.74844609  0.00067894  0.36370385  1
  O2-  O383  1  0.74883864  -0.00081367  0.17019062  1
  O2-  O384  1  0.75023467  0.65869077  0.39684526  1
  O2-  O385  1  0.74971506  0.00737357  0.68161826  1
  O2-  O386  1  0.25037733  0.32206576  0.87724096  1
  O2-  O387  1  0.74915190  0.66970994  0.14054405  1
  O2-  O388  1  0.25133664  -0.00319858  0.33376319  1
  O2-  O389  1  0.75015187  0.00914521  0.83484540  1
  O2-  O390  1  0.25026367  0.33172749  0.11554384  1
  O2-  O391  1  0.25000641  0.33368118  0.44600186  1
  O2-  O392  1  0.24978575  0.00512442  0.09226805  1
  O2-  O393  1  0.75034687  0.33146247  0.60100494  1
  O2-  O394  1  0.75057351  0.32059446  0.06889524  1
  O2-  O395  1  0.25024268  0.32919489  0.31836377  1
  O2-  O396  1  0.74989031  0.15727816  0.39010627  1
  O2-  O397  1  0.24999964  0.49823199  0.89657698  1
  O2-  O398  1  0.75011834  0.50676248  0.83979495  1
  O2-  O399  1  0.25034798  0.15765187  0.30447094  1
  O2-  O400  1  0.75002769  0.81901419  0.38953519  1
  O2-  O401  1  0.75017900  0.84173282  0.64931091  1
  O2-  O402  1  0.24999098  0.17005551  0.39057967  1
  O2-  O403  1  0.75072890  0.49501862  0.11497926  1
  O2-  O404  1  0.75023076  0.50528436  0.65884115  1
  O2-  O405  1  0.24992323  0.50560449  0.17335968  1
  O2-  O406  1  0.75035198  0.48176838  0.38571123  1
  O2-  O407  1  0.74979914  0.16798166  0.65884207  1
  O2-  O408  1  0.74972548  0.17128821  0.84559375  1
  O2-  O409  1  0.25027446  0.83073104  0.40651162  1
  O2-  O410  1  0.24974050  0.15883277  0.92988911  1
  O2-  O411  1  0.25004337  0.50112407  0.34212197  1
  O2-  O412  1  0.74953528  0.16504621  0.11567643  1
  O2-  O413  1  0.24963775  0.82933519  0.13462299  1
  O2-  O414  1  0.24993229  0.49837391  0.81359320  1
  O2-  O415  1  0.24996621  0.84320855  0.86705678  1
  O2-  O416  1  0.24991796  0.16482068  0.65572796  1
  O2-  O417  1  0.75017771  0.85035165  0.86873079  1
  O2-  O418  1  0.25014296  0.49249103  0.58776749  1
  O2-  O419  1  0.74972747  0.83241847  0.30795386  1
  O2-  O420  1  0.52940702  0.67080998  0.35314209  1
  O2-  O421  1  0.47205544  0.00998444  0.37897586  1
  O2-  O422  1  0.95227516  0.33135667  0.38338427  1
  O2-  O423  1  0.45715031  0.35406661  0.14140315  1
  O2-  O424  1  0.95588799  0.67466361  0.37594021  1
  O2-  O425  1  0.95847372  0.67955488  0.12164586  1
  O2-  O426  1  0.51814362  0.31075069  0.38195992  1
  O2-  O427  1  0.03955496  0.34027712  0.36307341  1
  O2-  O428  1  0.02875808  0.33844861  0.63459392  1
  O2-  O429  1  0.03116339  -0.00381492  0.87332276  1
  O2-  O430  1  0.96479806  0.34301433  0.61461756  1
  O2-  O431  1  0.02080447  0.32229698  0.88278676  1
  O2-  O432  1  0.03604071  0.67353176  0.36015308  1
  O2-  O433  1  0.47286866  0.66258175  0.86905931  1
  O2-  O434  1  0.97013711  -0.00939171  0.62358166  1
  O2-  O435  1  0.47093690  0.00784335  0.63352101  1
  O2-  O436  1  0.47955334  0.00182581  0.87207875  1
  O2-  O437  1  0.53011303  0.01195563  0.61533673  1
  O2-  O438  1  0.47020776  0.66372475  0.38766604  1
  O2-  O439  1  0.52511723  0.32474292  0.62222449  1
  O2-  O440  1  0.99160883  -0.00552212  0.11569840  1
  O2-  O441  1  0.04808877  0.67214447  0.13096940  1
  O2-  O442  1  0.53762413  0.30374658  0.10707191  1
  O2-  O443  1  0.47927419  0.33155617  0.87851251  1
