# generated using pymatgen
data_La7(Ru4O11)2
_symmetry_space_group_name_H-M   'P 1'
_cell_length_a   23.98996244
_cell_length_b   16.83054406
_cell_length_c   15.42817337
_cell_angle_alpha   89.99992318
_cell_angle_beta   90.00078025
_cell_angle_gamma   90.00018381
_symmetry_Int_Tables_number   1
_chemical_formula_structural   La7(Ru4O11)2
_chemical_formula_sum   'La84 Ru96 O264'
_cell_volume   6229.34284144
_cell_formula_units_Z   12
loop_
 _symmetry_equiv_pos_site_id
 _symmetry_equiv_pos_as_xyz
  1  'x, y, z'
loop_
 _atom_type_symbol
 _atom_type_oxidation_number
  La3+  3.0
  Ru4+  4.0
  O2-  -2.0
loop_
 _atom_site_type_symbol
 _atom_site_label
 _atom_site_symmetry_multiplicity
 _atom_site_fract_x
 _atom_site_fract_y
 _atom_site_fract_z
 _atom_site_occupancy
  La3+  La0  1  0.13748959  0.00127836  0.12434854  1
  La3+  La1  1  0.13694179  0.00041641  0.37508036  1
  La3+  La2  1  0.13714252  -0.00109021  0.62477457  1
  La3+  La3  1  0.13838986  -0.00223560  0.87527252  1
  La3+  La4  1  0.14173418  0.33393387  0.12825934  1
  La3+  La5  1  0.13927602  0.33165360  0.37321024  1
  La3+  La6  1  0.13718040  0.33263786  0.61931820  1
  La3+  La7  1  0.13701642  0.33498590  0.87776060  1
  La3+  La8  1  0.13721000  0.66472491  0.12211919  1
  La3+  La9  1  0.13861331  0.66838909  0.37750806  1
  La3+  La10  1  0.13764836  0.67149397  0.62238722  1
  La3+  La11  1  0.13944768  0.66693592  0.87826847  1
  La3+  La12  1  0.64012072  0.00180400  0.12521315  1
  La3+  La13  1  0.63916850  -0.00132563  0.37670185  1
  La3+  La14  1  0.63957608  -0.00065166  0.62524746  1
  La3+  La15  1  0.63735689  0.00288114  0.87281185  1
  La3+  La16  1  0.63727312  0.33416682  0.12401022  1
  La3+  La17  1  0.64103396  0.33347944  0.38298854  1
  La3+  La18  1  0.63844351  0.33577804  0.62184873  1
  La3+  La19  1  0.63849184  0.33531012  0.87098189  1
  La3+  La20  1  0.64072871  0.66278137  0.12737334  1
  La3+  La21  1  0.64077474  0.66721274  0.37025718  1
  La3+  La22  1  0.63910595  0.66332333  0.62984772  1
  La3+  La23  1  0.63582914  0.66314864  0.87097867  1
  La3+  La24  1  0.36349791  0.00202720  0.12418996  1
  La3+  La25  1  0.36229901  -0.00048183  0.37685761  1
  La3+  La26  1  0.36397395  -0.00335353  0.62274340  1
  La3+  La27  1  0.36456222  0.00039848  0.87588865  1
  La3+  La28  1  0.35978410  0.33466693  0.12543063  1
  La3+  La29  1  0.35891541  0.33186779  0.37572590  1
  La3+  La30  1  0.36167347  0.33382143  0.61968329  1
  La3+  La31  1  0.36537436  0.33575088  0.87917926  1
  La3+  La32  1  0.36129027  0.66565670  0.12161387  1
  La3+  La33  1  0.36018520  0.66808196  0.37575721  1
  La3+  La34  1  0.35928476  0.66900859  0.62625367  1
  La3+  La35  1  0.36048600  0.66802287  0.87691091  1
  La3+  La36  1  0.86094233  0.00102873  0.12645244  1
  La3+  La37  1  0.86030386  -0.00161623  0.37309317  1
  La3+  La38  1  0.85958010  -0.00014208  0.62532961  1
  La3+  La39  1  0.86218747  0.00185051  0.87442542  1
  La3+  La40  1  0.86229955  0.33392234  0.12547009  1
  La3+  La41  1  0.85769764  0.33461248  0.37908843  1
  La3+  La42  1  0.85672236  0.33414644  0.62373191  1
  La3+  La43  1  0.85932117  0.33526823  0.87221992  1
  La3+  La44  1  0.87223897  0.65724206  0.13438986  1
  La3+  La45  1  0.86229930  0.66016163  0.36602093  1
  La3+  La46  1  0.85946461  0.66573495  0.62799218  1
  La3+  La47  1  0.86377995  0.66358202  0.87450797  1
  La3+  La48  1  0.00063177  0.49875776  0.36467536  1
  La3+  La49  1  0.00096690  0.16523810  0.86551897  1
  La3+  La50  1  -0.00136546  0.83529570  0.39083202  1
  La3+  La51  1  0.50152981  0.49790898  0.11046480  1
  La3+  La52  1  0.50041575  0.83349356  0.63137492  1
  La3+  La53  1  -0.00113316  0.50323594  0.88835638  1
  La3+  La54  1  0.50122699  0.50102569  0.87766390  1
  La3+  La55  1  0.49466491  0.83895067  0.87582470  1
  La3+  La56  1  -0.00000923  0.16454341  0.38163992  1
  La3+  La57  1  -0.00171856  0.16577309  0.62907001  1
  La3+  La58  1  -0.00385695  0.50307045  0.12607250  1
  La3+  La59  1  0.00381186  0.83526167  0.62528387  1
  La3+  La60  1  0.49904241  0.17139324  0.38379675  1
  La3+  La61  1  0.49993837  0.82757221  0.13535254  1
  La3+  La62  1  -0.00170984  0.16838337  0.14200613  1
  La3+  La63  1  -0.00042723  0.16722738  0.88773486  1
  La3+  La64  1  -0.00099160  0.50121183  0.63385168  1
  La3+  La65  1  0.00170898  0.83353218  0.13131519  1
  La3+  La66  1  0.49989737  0.82779624  0.11843451  1
  La3+  La67  1  0.50021934  0.16501592  0.61993929  1
  La3+  La68  1  0.50318689  0.84850471  0.37566670  1
  La3+  La69  1  0.50049571  0.49970677  0.63303498  1
  La3+  La70  1  0.50068041  0.16701861  0.13091744  1
  La3+  La71  1  0.49929321  0.49743684  0.36594460  1
  La3+  La72  1  0.74980394  0.13115954  0.24950505  1
  La3+  La73  1  0.75003457  0.53833280  0.02677063  1
  La3+  La74  1  0.25000166  0.77420985  -0.01086208  1
  La3+  La75  1  0.24982785  0.45776517  0.44202861  1
  La3+  La76  1  0.24984984  0.21145973  0.48150525  1
  La3+  La77  1  0.25029446  0.49960789  0.02186258  1
  La3+  La78  1  0.75056813  0.83202419  0.27053454  1
  La3+  La79  1  0.74920053  0.83058245  0.72220080  1
  La3+  La80  1  0.24870460  0.15753567  0.73051572  1
  La3+  La81  1  0.75086646  0.82431199  -0.03646220  1
  La3+  La82  1  0.24991409  0.78581006  0.29962845  1
  La3+  La83  1  0.25079946  0.51661113  0.77887944  1
  Ru4+  Ru84  1  -0.00091307  -0.00062701  0.00026416  1
  Ru4+  Ru85  1  -0.00095356  0.00035031  0.24679308  1
  Ru4+  Ru86  1  0.00033068  -0.00085669  0.50170864  1
  Ru4+  Ru87  1  0.00073160  -0.00136850  0.74941897  1
  Ru4+  Ru88  1  0.00015423  0.33179887  0.00236702  1
  Ru4+  Ru89  1  0.00062036  0.33428085  0.25426781  1
  Ru4+  Ru90  1  -0.00372294  0.34174733  0.49472026  1
  Ru4+  Ru91  1  -0.00081995  0.33574058  0.75206128  1
  Ru4+  Ru92  1  -0.00171931  0.67816351  0.00096990  1
  Ru4+  Ru93  1  -0.00020561  0.66724965  0.24747317  1
  Ru4+  Ru94  1  -0.00389431  0.65978957  0.50006538  1
  Ru4+  Ru95  1  0.00225184  0.66390788  0.75026218  1
  Ru4+  Ru96  1  0.49800237  0.00415622  0.00081730  1
  Ru4+  Ru97  1  0.50021061  0.00289553  0.25034551  1
  Ru4+  Ru98  1  0.50437533  0.00395805  0.50087586  1
  Ru4+  Ru99  1  0.50274046  0.00054016  0.75215998  1
  Ru4+  Ru100  1  0.50243818  0.32612434  -0.00412649  1
  Ru4+  Ru101  1  0.49821430  0.33417331  0.24888672  1
  Ru4+  Ru102  1  0.49260498  0.33455502  0.49495544  1
  Ru4+  Ru103  1  0.49730557  0.32639198  0.75510386  1
  Ru4+  Ru104  1  0.50230196  0.66082458  -0.00022954  1
  Ru4+  Ru105  1  0.49779435  0.66328485  0.25268002  1
  Ru4+  Ru106  1  0.49828910  0.66953515  0.49829533  1
  Ru4+  Ru107  1  0.49920522  0.67141248  0.75147035  1
  Ru4+  Ru108  1  0.11125847  0.16702653  -0.00013047  1
  Ru4+  Ru109  1  0.11368458  0.17022878  0.24964115  1
  Ru4+  Ru110  1  0.11435588  0.16138394  0.50104642  1
  Ru4+  Ru111  1  0.10985200  0.16363674  0.75054666  1
  Ru4+  Ru112  1  0.11473817  0.49519830  -0.00033507  1
  Ru4+  Ru113  1  0.11346932  0.49773216  0.25141265  1
  Ru4+  Ru114  1  0.11011113  0.49913665  0.49976923  1
  Ru4+  Ru115  1  0.11054045  0.50219812  0.74872743  1
  Ru4+  Ru116  1  0.11011059  0.83479823  -0.00042752  1
  Ru4+  Ru117  1  0.11072194  0.83110414  0.24901450  1
  Ru4+  Ru118  1  0.11632324  0.83816219  0.49988389  1
  Ru4+  Ru119  1  0.11321457  0.83101130  0.75038371  1
  Ru4+  Ru120  1  0.61120521  0.16564025  -0.00001806  1
  Ru4+  Ru121  1  0.61075631  0.16455490  0.24996757  1
  Ru4+  Ru122  1  0.61589506  0.16588296  0.50008169  1
  Ru4+  Ru123  1  0.61346019  0.16175954  0.75164831  1
  Ru4+  Ru124  1  0.61172416  0.50018693  0.00134284  1
  Ru4+  Ru125  1  0.61334216  0.50237558  0.25001259  1
  Ru4+  Ru126  1  0.61688130  0.50051350  0.49919917  1
  Ru4+  Ru127  1  0.61909432  0.49886350  0.74955636  1
  Ru4+  Ru128  1  0.61100462  0.83411356  -0.00036479  1
  Ru4+  Ru129  1  0.61565676  0.83518085  0.24792305  1
  Ru4+  Ru130  1  0.61441095  0.83692430  0.50154986  1
  Ru4+  Ru131  1  0.61085696  0.83590345  0.75016431  1
  Ru4+  Ru132  1  0.38831745  0.16549067  0.00104951  1
  Ru4+  Ru133  1  0.38612251  0.16864057  0.24955516  1
  Ru4+  Ru134  1  0.38929648  0.16744015  0.49981977  1
  Ru4+  Ru135  1  0.39183068  0.16683399  0.75045067  1
  Ru4+  Ru136  1  0.38544029  0.50692405  0.00113828  1
  Ru4+  Ru137  1  0.38607020  0.49766981  0.25031764  1
  Ru4+  Ru138  1  0.38902206  0.49796164  0.49976314  1
  Ru4+  Ru139  1  0.39002191  0.50008589  0.74861981  1
  Ru4+  Ru140  1  0.38438272  0.83771893  -0.00005013  1
  Ru4+  Ru141  1  0.38732929  0.83052682  0.24910210  1
  Ru4+  Ru142  1  0.38552181  0.82739326  0.50172019  1
  Ru4+  Ru143  1  0.38651674  0.82959312  0.75136097  1
  Ru4+  Ru144  1  0.88845361  0.16435351  -0.00035292  1
  Ru4+  Ru145  1  0.88966183  0.16780250  0.25158995  1
  Ru4+  Ru146  1  0.88578393  0.16855460  0.49994878  1
  Ru4+  Ru147  1  0.88528210  0.16653602  0.75049793  1
  Ru4+  Ru148  1  0.88564215  0.49640887  0.00121832  1
  Ru4+  Ru149  1  0.88784000  0.50320207  0.25084040  1
  Ru4+  Ru150  1  0.88669109  0.49814007  0.49789574  1
  Ru4+  Ru151  1  0.88528465  0.49839903  0.74916785  1
  Ru4+  Ru152  1  0.89086524  0.83453118  -0.00140077  1
  Ru4+  Ru153  1  0.88890074  0.83439231  0.25093819  1
  Ru4+  Ru154  1  0.88549557  0.83456427  0.50048803  1
  Ru4+  Ru155  1  0.88522288  0.83657611  0.75199509  1
  Ru4+  Ru156  1  0.74979128  0.96059133  -0.01403747  1
  Ru4+  Ru157  1  0.75026561  0.24438059  -0.00020179  1
  Ru4+  Ru158  1  0.75004195  0.74369103  0.49685991  1
  Ru4+  Ru159  1  0.24996917  0.64572224  0.76029379  1
  Ru4+  Ru160  1  0.75016171  0.56951315  0.49645297  1
  Ru4+  Ru161  1  0.74981320  0.40150711  -0.01000298  1
  Ru4+  Ru162  1  0.24972639  0.94156714  -0.00069793  1
  Ru4+  Ru163  1  0.24987798  0.07718566  0.01123270  1
  Ru4+  Ru164  1  0.75010701  0.07609523  0.50084428  1
  Ru4+  Ru165  1  0.24978811  0.09688177  0.24767320  1
  Ru4+  Ru166  1  0.74983558  0.69771190  0.00607124  1
  Ru4+  Ru167  1  0.25001660  0.39991441  0.71926755  1
  Ru4+  Ru168  1  0.74992991  0.42314664  0.25491969  1
  Ru4+  Ru169  1  0.25013438  0.25848124  0.01028537  1
  Ru4+  Ru170  1  0.24980147  0.57770175  0.24789281  1
  Ru4+  Ru171  1  0.25004282  0.90685902  0.73653567  1
  Ru4+  Ru172  1  0.25062477  0.03290470  0.75700586  1
  Ru4+  Ru173  1  0.25072596  0.27998909  0.74895837  1
  Ru4+  Ru174  1  0.75001141  0.24879782  0.74598329  1
  Ru4+  Ru175  1  0.25023039  0.06450014  0.51868685  1
  Ru4+  Ru176  1  0.24993902  0.61210351  0.50385105  1
  Ru4+  Ru177  1  0.24989444  0.93102378  0.24296129  1
  Ru4+  Ru178  1  0.25017813  0.90711816  0.50807696  1
  Ru4+  Ru179  1  0.74981292  0.28411169  0.25714567  1
  O2-  O180  1  0.16830455  0.08026305  0.00062377  1
  O2-  O181  1  0.16641303  0.08128257  0.24912207  1
  O2-  O182  1  0.16713916  0.07982074  0.50089077  1
  O2-  O183  1  0.16439155  0.07860603  0.74987375  1
  O2-  O184  1  0.16727275  0.41378530  -0.00109241  1
  O2-  O185  1  0.16738286  0.41481503  0.24960741  1
  O2-  O186  1  0.16407489  0.41417761  0.50131706  1
  O2-  O187  1  0.16482754  0.41140842  0.74948117  1
  O2-  O188  1  0.16213910  0.74587846  0.00106801  1
  O2-  O189  1  0.16608883  0.74568299  0.24931199  1
  O2-  O190  1  0.16637589  0.74796886  0.49859140  1
  O2-  O191  1  0.16442745  0.74785949  0.75182011  1
  O2-  O192  1  0.66638970  0.08232912  0.00063891  1
  O2-  O193  1  0.66510854  0.07958021  0.25052992  1
  O2-  O194  1  0.66698925  0.08246440  0.49849251  1
  O2-  O195  1  0.66851505  0.08280483  0.74969362  1
  O2-  O196  1  0.66705343  0.41246967  -0.00071569  1
  O2-  O197  1  0.66835258  0.41325605  0.25086562  1
  O2-  O198  1  0.66496338  0.41595374  0.49944865  1
  O2-  O199  1  0.66579456  0.41476827  0.75207203  1
  O2-  O200  1  0.66750061  0.74442995  -0.00112613  1
  O2-  O201  1  0.66822511  0.74915649  0.24962621  1
  O2-  O202  1  0.66593620  0.74690633  0.49989379  1
  O2-  O203  1  0.66624146  0.74811874  0.75176236  1
  O2-  O204  1  0.33407633  0.25286596  -0.00169068  1
  O2-  O205  1  0.33397045  0.25160021  0.24842224  1
  O2-  O206  1  0.33596539  0.25340117  0.50321417  1
  O2-  O207  1  0.33600676  0.25489369  0.74939363  1
  O2-  O208  1  0.33090567  0.58512337  0.00086462  1
  O2-  O209  1  0.33314004  0.58488547  0.25107366  1
  O2-  O210  1  0.33294836  0.58769936  0.49932724  1
  O2-  O211  1  0.33492780  0.58862935  0.75093249  1
  O2-  O212  1  0.33265279  0.92134621  -0.00118160  1
  O2-  O213  1  0.33410889  0.92108706  0.25107250  1
  O2-  O214  1  0.33424393  0.91822388  0.50069017  1
  O2-  O215  1  0.33440252  0.92019825  0.74934364  1
  O2-  O216  1  0.83233413  0.25283152  0.00032618  1
  O2-  O217  1  0.83150161  0.25358094  0.24907419  1
  O2-  O218  1  0.83373656  0.24946668  0.49908385  1
  O2-  O219  1  0.83102686  0.25150420  0.75121012  1
  O2-  O220  1  0.83488723  0.58793019  0.00040505  1
  O2-  O221  1  0.83138031  0.58528839  0.24815694  1
  O2-  O222  1  0.83382397  0.58721085  0.49948906  1
  O2-  O223  1  0.83523838  0.58458970  0.75148756  1
  O2-  O224  1  0.83267445  0.92123156  -0.00070999  1
  O2-  O225  1  0.83221401  0.91878839  0.25063293  1
  O2-  O226  1  0.83535822  0.91789454  0.50061575  1
  O2-  O227  1  0.83137475  0.91990316  0.74968385  1
  O2-  O228  1  0.16599689  0.25234456  -0.00110719  1
  O2-  O229  1  0.16716525  0.25182430  0.24788645  1
  O2-  O230  1  0.16250162  0.25292745  0.50099284  1
  O2-  O231  1  0.16450579  0.25620643  0.74981471  1
  O2-  O232  1  0.16716086  0.58486073  0.00042358  1
  O2-  O233  1  0.16681938  0.58596218  0.25061782  1
  O2-  O234  1  0.16740558  0.58825060  0.49888358  1
  O2-  O235  1  0.16521263  0.58836626  0.75122154  1
  O2-  O236  1  0.16837956  0.92052711  -0.00066151  1
  O2-  O237  1  0.16539645  0.92000306  0.25018229  1
  O2-  O238  1  0.16823040  0.91901720  0.50092712  1
  O2-  O239  1  0.16642596  0.91906023  0.74918215  1
  O2-  O240  1  0.66681556  0.25128046  -0.00049202  1
  O2-  O241  1  0.66803961  0.25478291  0.25017347  1
  O2-  O242  1  0.66613976  0.24971914  0.49948999  1
  O2-  O243  1  0.66682398  0.25194107  0.75088648  1
  O2-  O244  1  0.66570527  0.58872126  -0.00307456  1
  O2-  O245  1  0.66472410  0.58386976  0.25049356  1
  O2-  O246  1  0.66583727  0.58646425  0.49910848  1
  O2-  O247  1  0.66633758  0.58462203  0.75284565  1
  O2-  O248  1  0.66726083  0.92104020  0.00016800  1
  O2-  O249  1  0.66643403  0.92010286  0.25059488  1
  O2-  O250  1  0.66671501  0.91733448  0.49896333  1
  O2-  O251  1  0.67041363  0.91976146  0.75027145  1
  O2-  O252  1  0.33178315  0.08002991  -0.00103124  1
  O2-  O253  1  0.33343152  0.08081668  0.25038442  1
  O2-  O254  1  0.33409954  0.07839503  0.50161332  1
  O2-  O255  1  0.33642279  0.07848667  0.74923995  1
  O2-  O256  1  0.33339780  0.41533756  -0.00114491  1
  O2-  O257  1  0.33168844  0.41565160  0.24906820  1
  O2-  O258  1  0.33349693  0.41528925  0.50223583  1
  O2-  O259  1  0.33564801  0.41121638  0.74934304  1
  O2-  O260  1  0.33767338  0.74599834  0.00108433  1
  O2-  O261  1  0.33375726  0.74594094  0.25020741  1
  O2-  O262  1  0.33238144  0.74837574  0.49727773  1
  O2-  O263  1  0.33351470  0.74876591  0.74998118  1
  O2-  O264  1  0.83343215  0.08076397  -0.00107674  1
  O2-  O265  1  0.83404811  0.08095040  0.25017802  1
  O2-  O266  1  0.83279500  0.08152165  0.50041987  1
  O2-  O267  1  0.83253572  0.08149863  0.74955119  1
  O2-  O268  1  0.83385640  0.41283535  -0.00005698  1
  O2-  O269  1  0.83412428  0.41559998  0.24993538  1
  O2-  O270  1  0.83629479  0.41659901  0.49965199  1
  O2-  O271  1  0.83178055  0.41603942  0.75212654  1
  O2-  O272  1  0.83470827  0.74421591  0.00144513  1
  O2-  O273  1  0.83431761  0.74660026  0.24750472  1
  O2-  O274  1  0.83347745  0.74731213  0.49971507  1
  O2-  O275  1  0.83012459  0.74780390  0.75090377  1
  O2-  O276  1  0.54937211  0.90492747  0.23178561  1
  O2-  O277  1  0.95991962  0.43882514  0.78952460  1
  O2-  O278  1  0.04550033  0.23528983  0.73767443  1
  O2-  O279  1  0.96002450  0.77175314  0.74742576  1
  O2-  O280  1  0.04853682  0.23595411  0.52150407  1
  O2-  O281  1  0.54826304  0.42828197  0.73677043  1
  O2-  O282  1  0.45182722  0.43266750  0.98791201  1
  O2-  O283  1  0.45647666  0.77560977  0.28887758  1
  O2-  O284  1  0.54569091  0.23693171  0.98617872  1
  O2-  O285  1  0.54070632  0.78013909  0.96394061  1
  O2-  O286  1  0.96079023  0.77263570  0.74652444  1
  O2-  O287  1  0.54653457  0.09500435  0.01445996  1
  O2-  O288  1  0.95098078  0.57429133  0.23463730  1
  O2-  O289  1  0.45042308  0.90350780  0.51674523  1
  O2-  O290  1  0.03977053  0.77896718  0.28994942  1
  O2-  O291  1  0.45378366  0.90257437  0.01111225  1
  O2-  O292  1  0.04553004  0.09474181  0.51500757  1
  O2-  O293  1  0.45109297  0.90462994  0.23742573  1
  O2-  O294  1  0.05020307  0.42795273  0.98993975  1
  O2-  O295  1  0.45613327  0.56653022  0.51434276  1
  O2-  O296  1  0.55008262  0.43371084  0.24013107  1
  O2-  O297  1  0.54610438  0.09863543  0.48780790  1
  O2-  O298  1  0.95062066  0.42980470  0.01131313  1
  O2-  O299  1  0.54631206  0.57139409  0.73844331  1
  O2-  O300  1  0.95034558  0.23397813  0.48572627  1
  O2-  O301  1  0.54974284  0.77039276  0.28523287  1
  O2-  O302  1  0.54775367  0.23499084  0.26607849  1
  O2-  O303  1  0.54869125  0.23770547  0.51425478  1
  O2-  O304  1  0.04572472  0.76448015  0.51416011  1
  O2-  O305  1  0.03575456  0.11638928  0.03568778  1
  O2-  O306  1  0.04953855  0.23729778  0.48237755  1
  O2-  O307  1  0.05009883  0.43173335  0.73584632  1
  O2-  O308  1  0.95441382  0.89974536  0.51098210  1
  O2-  O309  1  0.95609252  0.56163369  0.25852070  1
  O2-  O310  1  0.45135069  0.23397983  0.23805809  1
  O2-  O311  1  0.04768854  0.57140744  0.02108000  1
  O2-  O312  1  0.45963492  0.44204721  0.21346647  1
  O2-  O313  1  0.45507703  0.57168809  0.23769980  1
  O2-  O314  1  0.95048859  0.76702250  0.23838332  1
  O2-  O315  1  0.46434622  0.77472420  0.46346599  1
  O2-  O316  1  0.95325266  0.76822941  0.01363547  1
  O2-  O317  1  0.45499248  0.23299596  0.75848257  1
  O2-  O318  1  0.44965416  0.76526027  0.01422472  1
  O2-  O319  1  0.94785673  0.56754780  0.01547129  1
  O2-  O320  1  0.95447138  0.57001208  0.75984713  1
  O2-  O321  1  0.04795068  0.57479770  0.98204956  1
  O2-  O322  1  0.54791664  0.43249954  0.51762700  1
  O2-  O323  1  0.04611691  0.90392384  0.73760331  1
  O2-  O324  1  0.93656221  0.26277381  0.31791780  1
  O2-  O325  1  0.56617610  0.40800234  0.02586059  1
  O2-  O326  1  0.06285100  0.40922343  0.27461032  1
  O2-  O327  1  0.56568312  0.59018180  0.72359813  1
  O2-  O328  1  0.93356481  0.60019660  0.28419412  1
  O2-  O329  1  0.43693280  0.40625342  0.97460759  1
  O2-  O330  1  0.43717929  0.59382144  0.06709650  1
  O2-  O331  1  0.42389938  0.39423179  0.29952052  1
  O2-  O332  1  0.56405612  0.93167014  0.96937566  1
  O2-  O333  1  0.56133738  0.40497301  0.53204213  1
  O2-  O334  1  0.43327537  0.07417873  0.02774269  1
  O2-  O335  1  0.06382794  0.74132165  0.52502073  1
  O2-  O336  1  0.56731046  0.72330383  0.16955560  1
  O2-  O337  1  0.92353795  0.39820305  0.69814017  1
  O2-  O338  1  0.06791287  0.92036888  0.05788585  1
  O2-  O339  1  0.06362166  0.73725545  0.03059710  1
  O2-  O340  1  0.93780370  0.07037439  0.78421693  1
  O2-  O341  1  0.93708264  0.92730845  0.28542380  1
  O2-  O342  1  0.07069438  0.71808262  0.19390316  1
  O2-  O343  1  0.93723975  0.59894675  0.02530029  1
  O2-  O344  1  0.56303814  0.58956535  0.03178978  1
  O2-  O345  1  0.43601255  0.40894176  0.47311853  1
  O2-  O346  1  0.56332404  0.07380690  0.78111334  1
  O2-  O347  1  0.56528484  0.92460967  0.52718950  1
  O2-  O348  1  0.93627215  0.93130751  0.96728161  1
  O2-  O349  1  0.92150662  0.72732604  0.79275713  1
  O2-  O350  1  0.06787673  0.92163297  0.43861558  1
  O2-  O351  1  0.42820130  0.72179078  0.55956788  1
  O2-  O352  1  0.06334499  0.92271516  0.93350834  1
  O2-  O353  1  0.56299812  0.92546084  0.81640254  1
  O2-  O354  1  0.06348307  0.25615796  0.27660775  1
  O2-  O355  1  0.42881203  0.71971900  0.18879097  1
  O2-  O356  1  0.93242755  0.25491911  0.18923160  1
  O2-  O357  1  0.43768758  0.59635651  0.93251649  1
  O2-  O358  1  0.57189748  0.72278616  0.05132583  1
  O2-  O359  1  0.56155860  0.40331899  0.71730560  1
  O2-  O360  1  0.56648372  0.92168796  0.68968011  1
  O2-  O361  1  0.06494463  0.93046224  0.56845287  1
  O2-  O362  1  0.43810345  0.73559785  0.78217568  1
  O2-  O363  1  0.43633526  0.25698205  0.47414105  1
  O2-  O364  1  0.93641818  0.26280921  0.82111465  1
  O2-  O365  1  0.56254091  0.74675321  0.30641646  1
  O2-  O366  1  0.43717255  0.93156306  0.53054356  1
  O2-  O367  1  0.93679355  0.07464745  0.28419725  1
  O2-  O368  1  0.44015378  0.73945747  0.03748087  1
  O2-  O369  1  0.93180067  0.24967800  0.68816001  1
  O2-  O370  1  0.56210542  0.26331940  0.53249214  1
  O2-  O371  1  0.07224887  0.06080072  0.94020858  1
  O2-  O372  1  0.74978392  0.33082884  0.58314101  1
  O2-  O373  1  0.24994609  0.33552725  0.86079715  1
  O2-  O374  1  0.74966670  0.33099667  0.38921499  1
  O2-  O375  1  0.75017859  0.66405225  0.58007269  1
  O2-  O376  1  0.75005897  0.01493974  0.08839358  1
  O2-  O377  1  0.74982151  0.67010511  0.67266297  1
  O2-  O378  1  0.24968373  0.33386836  0.40459743  1
  O2-  O379  1  0.24983915  0.66791654  0.64204793  1
  O2-  O380  1  0.25010992  -0.00862321  0.86541405  1
  O2-  O381  1  0.74972075  -0.00102495  0.17738785  1
  O2-  O382  1  0.24989733  0.33475137  0.09401480  1
  O2-  O383  1  0.24999329  0.65908543  0.34676777  1
  O2-  O384  1  0.74984038  0.32736014  0.10035464  1
  O2-  O385  1  0.24995949  0.00817546  0.14579048  1
  O2-  O386  1  0.25009762  0.01234059  0.31956243  1
  O2-  O387  1  0.75000494  0.00565837  0.40547834  1
  O2-  O388  1  0.75005280  0.00439221  0.59241823  1
  O2-  O389  1  0.74983268  0.32475346  0.89678607  1
  O2-  O390  1  0.74971773  0.33387856  0.67240372  1
  O2-  O391  1  0.24956355  0.66368909  0.89880574  1
  O2-  O392  1  0.75021631  0.67011360  0.35709669  1
  O2-  O393  1  0.24993585  0.33268812  0.60105104  1
  O2-  O394  1  0.25027254  -0.00291383  0.63757948  1
  O2-  O395  1  0.25017140  -0.00993685  0.43147958  1
  O2-  O396  1  0.25004955  0.83637878  0.65275863  1
  O2-  O397  1  0.24993909  0.81803817  0.80375093  1
  O2-  O398  1  0.25005918  0.83803207  0.42083098  1
  O2-  O399  1  0.74973248  0.49396434  0.16432054  1
  O2-  O400  1  0.75001754  0.50396923  0.40980542  1
  O2-  O401  1  0.25000937  0.16623699  0.09164208  1
  O2-  O402  1  0.75003396  0.50585641  0.58609959  1
  O2-  O403  1  0.24999634  0.84945583  0.09376752  1
  O2-  O404  1  0.24995377  0.50593567  0.16395600  1
  O2-  O405  1  0.24985411  0.16799971  0.94401772  1
  O2-  O406  1  0.24963128  0.49741373  0.89872969  1
  O2-  O407  1  0.25028813  0.16049453  0.60395244  1
  O2-  O408  1  0.74994949  0.83222917  0.38705663  1
  O2-  O409  1  0.25017034  0.51215024  0.56560196  1
  O2-  O410  1  0.74984040  0.83863501  0.84493392  1
  O2-  O411  1  0.24999042  0.85001925  0.88510638  1
  O2-  O412  1  0.25024413  0.16450590  0.85997175  1
  O2-  O413  1  0.25013782  0.83667191  0.18069520  1
  O2-  O414  1  0.75012930  0.49166320  0.89293538  1
  O2-  O415  1  0.75006103  0.83505832  0.08133569  1
  O2-  O416  1  0.74995027  0.83277053  0.15650121  1
  O2-  O417  1  0.24964105  0.49588687  0.64991652  1
  O2-  O418  1  0.75011586  0.84784085  0.46639334  1
  O2-  O419  1  0.25011452  0.16362000  0.33859517  1
  O2-  O420  1  0.51933335  0.01366611  0.62420458  1
  O2-  O421  1  0.52447519  0.65458695  0.38343862  1
  O2-  O422  1  0.02459778  0.00697792  0.36581512  1
  O2-  O423  1  0.04130529  0.66090477  0.63641331  1
  O2-  O424  1  0.97106292  0.00268120  0.62527040  1
  O2-  O425  1  0.52465674  0.67245325  0.62138365  1
  O2-  O426  1  0.97352474  0.33567145  0.61034466  1
  O2-  O427  1  0.97573100  0.67028785  0.12611440  1
  O2-  O428  1  0.52924874  0.66394659  0.87012128  1
  O2-  O429  1  0.53514571  0.32674299  0.12914450  1
  O2-  O430  1  0.95620263  0.00037550  0.12322428  1
  O2-  O431  1  0.03445569  0.33589134  0.62430513  1
  O2-  O432  1  0.46218490  0.33200397  0.11934695  1
  O2-  O433  1  0.47673051  -0.00088634  0.12956927  1
  O2-  O434  1  0.47108603  -0.00049122  0.87332235  1
  O2-  O435  1  0.95681881  0.66373189  0.61588277  1
  O2-  O436  1  0.97794149  0.33960174  0.12059340  1
  O2-  O437  1  0.48233866  0.32715398  0.37139291  1
  O2-  O438  1  0.52649384  -0.00199485  0.37291937  1
  O2-  O439  1  0.97663654  0.66133578  0.88401904  1
  O2-  O440  1  0.02831303  0.33010318  0.87435047  1
  O2-  O441  1  0.47518120  0.33286941  0.87284228  1
  O2-  O442  1  0.04033149  0.00663279  0.14234942  1
  O2-  O443  1  0.02262785  0.33827648  0.38145728  1
