# generated using pymatgen
data_La7(Ru4O11)2
_symmetry_space_group_name_H-M   'P 1'
_cell_length_a   23.99126214
_cell_length_b   16.83216728
_cell_length_c   15.42801048
_cell_angle_alpha   90.00136124
_cell_angle_beta   89.99923298
_cell_angle_gamma   89.99812349
_symmetry_Int_Tables_number   1
_chemical_formula_structural   La7(Ru4O11)2
_chemical_formula_sum   'La84 Ru96 O264'
_cell_volume   6230.21535951
_cell_formula_units_Z   12
loop_
 _symmetry_equiv_pos_site_id
 _symmetry_equiv_pos_as_xyz
  1  'x, y, z'
loop_
 _atom_type_symbol
 _atom_type_oxidation_number
  La3+  3.0
  Ru4+  4.0
  O2-  -2.0
loop_
 _atom_site_type_symbol
 _atom_site_label
 _atom_site_symmetry_multiplicity
 _atom_site_fract_x
 _atom_site_fract_y
 _atom_site_fract_z
 _atom_site_occupancy
  La3+  La0  1  0.13288714  -0.00125983  0.12385516  1
  La3+  La1  1  0.14169260  0.00490444  0.37526430  1
  La3+  La2  1  0.13417577  -0.00630801  0.63585285  1
  La3+  La3  1  0.13698111  -0.00803926  0.85826702  1
  La3+  La4  1  0.13633100  0.33250586  0.12244392  1
  La3+  La5  1  0.12838661  0.33894155  0.38268139  1
  La3+  La6  1  0.12807773  0.34246859  0.61334366  1
  La3+  La7  1  0.13510233  0.33386475  0.87552403  1
  La3+  La8  1  0.13503087  0.66317954  0.12273942  1
  La3+  La9  1  0.14106071  0.66645104  0.37571325  1
  La3+  La10  1  0.14541467  0.66834880  0.62625724  1
  La3+  La11  1  0.13575948  0.66669617  0.87386754  1
  La3+  La12  1  0.63671179  -0.00153465  0.12814627  1
  La3+  La13  1  0.64040872  -0.00031057  0.37291459  1
  La3+  La14  1  0.64555171  0.00172790  0.62871401  1
  La3+  La15  1  0.64324476  0.00234669  0.87260742  1
  La3+  La16  1  0.63716875  0.32942510  0.12358907  1
  La3+  La17  1  0.63707874  0.33015708  0.37575177  1
  La3+  La18  1  0.64228048  0.33209579  0.63328717  1
  La3+  La19  1  0.64241786  0.33171014  0.86666035  1
  La3+  La20  1  0.64091954  0.67426007  0.12819983  1
  La3+  La21  1  0.64000881  0.67089033  0.37258090  1
  La3+  La22  1  0.64161622  0.66641170  0.62695849  1
  La3+  La23  1  0.63834872  0.66729733  0.87434470  1
  La3+  La24  1  0.36324369  0.00178344  0.12243423  1
  La3+  La25  1  0.35939055  -0.00250488  0.37537379  1
  La3+  La26  1  0.35957518  -0.00090361  0.63161033  1
  La3+  La27  1  0.35862366  -0.00090157  0.87223827  1
  La3+  La28  1  0.36567164  0.33073953  0.12248034  1
  La3+  La29  1  0.36353430  0.33271340  0.37439142  1
  La3+  La30  1  0.36172720  0.33306936  0.62832309  1
  La3+  La31  1  0.36642856  0.32795843  0.87528338  1
  La3+  La32  1  0.36341912  0.66711885  0.12593203  1
  La3+  La33  1  0.35657083  0.67224327  0.37289587  1
  La3+  La34  1  0.35317904  0.66386147  0.62281543  1
  La3+  La35  1  0.35896863  0.66627955  0.87504244  1
  La3+  La36  1  0.85536636  -0.00077661  0.12824026  1
  La3+  La37  1  0.85786719  -0.00135792  0.37115039  1
  La3+  La38  1  0.85827323  0.00082335  0.63305410  1
  La3+  La39  1  0.86307820  0.00469114  0.86815614  1
  La3+  La40  1  0.87449675  0.34050569  0.11608942  1
  La3+  La41  1  0.86703078  0.32812058  0.37211704  1
  La3+  La42  1  0.85435562  0.33213545  0.63062490  1
  La3+  La43  1  0.86120260  0.34086849  0.87696327  1
  La3+  La44  1  0.85901553  0.66680957  0.12655733  1
  La3+  La45  1  0.86129294  0.67069407  0.37214636  1
  La3+  La46  1  0.85990862  0.66776780  0.62587813  1
  La3+  La47  1  0.86218652  0.66700149  0.87681287  1
  La3+  La48  1  -0.00316281  0.82654485  0.13580861  1
  La3+  La49  1  0.50275985  0.16695127  0.86777161  1
  La3+  La50  1  0.49754798  0.82943241  0.63257284  1
  La3+  La51  1  0.49954615  0.50764172  0.11556959  1
  La3+  La52  1  0.00126796  0.16761294  0.37000986  1
  La3+  La53  1  0.00073823  0.16850874  0.87427967  1
  La3+  La54  1  0.50390927  0.83865095  0.35199131  1
  La3+  La55  1  0.49820479  0.83259591  0.61055440  1
  La3+  La56  1  0.00331418  0.17111666  0.85889269  1
  La3+  La57  1  0.49783691  0.50039792  0.36953599  1
  La3+  La58  1  0.50000166  0.49787680  0.13516442  1
  La3+  La59  1  0.49917084  0.83542625  0.87809011  1
  La3+  La60  1  0.00199581  0.84082128  0.62043000  1
  La3+  La61  1  0.49808440  0.16895014  0.62737870  1
  La3+  La62  1  0.00136016  0.49881118  0.37815061  1
  La3+  La63  1  -0.00059555  0.49741920  0.88022344  1
  La3+  La64  1  0.00117909  0.82974019  0.63927829  1
  La3+  La65  1  0.49910274  0.50946720  0.38941846  1
  La3+  La66  1  -0.00359655  0.16930618  0.13190472  1
  La3+  La67  1  0.00565378  0.49134328  0.60775758  1
  La3+  La68  1  -0.00564406  0.49207771  0.10730211  1
  La3+  La69  1  0.50829599  0.17765980  0.12329048  1
  La3+  La70  1  0.00815234  0.83382161  0.38310487  1
  La3+  La71  1  0.49363210  0.49218483  0.86578226  1
  La3+  La72  1  0.75041835  0.55461053  0.00872707  1
  La3+  La73  1  0.25062666  0.53313247  0.74253436  1
  La3+  La74  1  0.75039674  0.51438130  0.26535127  1
  La3+  La75  1  0.75114326  0.19940621  -0.04212797  1
  La3+  La76  1  0.75032565  0.45634220  0.46545963  1
  La3+  La77  1  0.75012530  0.84224814  0.74414547  1
  La3+  La78  1  0.74995059  0.86789197  0.00737267  1
  La3+  La79  1  0.24965156  0.19194460  0.55497342  1
  La3+  La80  1  0.24961356  0.84067536  0.05639454  1
  La3+  La81  1  0.25032958  0.51996873  0.31547744  1
  La3+  La82  1  0.25071938  0.21215567  0.22857994  1
  La3+  La83  1  0.24884087  0.77564924  0.51003904  1
  Ru4+  Ru84  1  -0.00111852  -0.00253275  -0.00087643  1
  Ru4+  Ru85  1  -0.00236754  -0.00554713  0.24889259  1
  Ru4+  Ru86  1  0.00136151  0.00148626  0.49710198  1
  Ru4+  Ru87  1  0.00718667  0.00655838  0.74754108  1
  Ru4+  Ru88  1  0.00043754  0.33341632  -0.00179403  1
  Ru4+  Ru89  1  0.00162463  0.34208808  0.25049196  1
  Ru4+  Ru90  1  0.00182447  0.33145414  0.50481822  1
  Ru4+  Ru91  1  -0.00205263  0.33488503  0.74336090  1
  Ru4+  Ru92  1  -0.00014482  0.67292147  -0.00638717  1
  Ru4+  Ru93  1  -0.00908892  0.66129910  0.24896770  1
  Ru4+  Ru94  1  -0.00240403  0.66205010  0.50465673  1
  Ru4+  Ru95  1  0.00286945  0.66552290  0.75190400  1
  Ru4+  Ru96  1  0.49916893  -0.00335297  0.00168159  1
  Ru4+  Ru97  1  0.49680459  0.00847860  0.25042484  1
  Ru4+  Ru98  1  0.50179938  0.00205836  0.49034782  1
  Ru4+  Ru99  1  0.50341295  0.00039540  0.74877047  1
  Ru4+  Ru100  1  0.50218141  0.33659060  0.00062783  1
  Ru4+  Ru101  1  0.49980321  0.33805625  0.25373845  1
  Ru4+  Ru102  1  0.49956907  0.33298298  0.50916370  1
  Ru4+  Ru103  1  0.49803246  0.34054535  0.74318308  1
  Ru4+  Ru104  1  0.50222260  0.66678690  -0.00019804  1
  Ru4+  Ru105  1  0.49809000  0.67073408  0.24589576  1
  Ru4+  Ru106  1  0.49433617  0.66461642  0.50974444  1
  Ru4+  Ru107  1  0.50353577  0.66165132  0.75496718  1
  Ru4+  Ru108  1  0.11564977  0.16516858  0.00211490  1
  Ru4+  Ru109  1  0.11187870  0.16912903  0.25162426  1
  Ru4+  Ru110  1  0.11007042  0.16639799  0.49955165  1
  Ru4+  Ru111  1  0.11450381  0.16062982  0.74644472  1
  Ru4+  Ru112  1  0.11714355  0.49823396  0.00306947  1
  Ru4+  Ru113  1  0.10919498  0.49663818  0.25307895  1
  Ru4+  Ru114  1  0.11255335  0.50066368  0.49730699  1
  Ru4+  Ru115  1  0.10951532  0.49921944  0.74950994  1
  Ru4+  Ru116  1  0.10676200  0.83557040  -0.00421778  1
  Ru4+  Ru117  1  0.12149143  0.84429832  0.24807575  1
  Ru4+  Ru118  1  0.11139853  0.83700748  0.50093379  1
  Ru4+  Ru119  1  0.11709443  0.83401150  0.74979002  1
  Ru4+  Ru120  1  0.61227922  0.16634441  0.00018995  1
  Ru4+  Ru121  1  0.61312298  0.16558460  0.24904361  1
  Ru4+  Ru122  1  0.61269979  0.16672608  0.50024348  1
  Ru4+  Ru123  1  0.61847926  0.16330033  0.74931707  1
  Ru4+  Ru124  1  0.61073631  0.50449298  0.00107328  1
  Ru4+  Ru125  1  0.60498145  0.49967128  0.25112858  1
  Ru4+  Ru126  1  0.61045943  0.50331424  0.50002325  1
  Ru4+  Ru127  1  0.61082530  0.49738124  0.74804064  1
  Ru4+  Ru128  1  0.60908751  0.83450040  -0.00124064  1
  Ru4+  Ru129  1  0.61420829  0.83318995  0.24868676  1
  Ru4+  Ru130  1  0.61351809  0.83565053  0.49857976  1
  Ru4+  Ru131  1  0.60926785  0.83794061  0.75013081  1
  Ru4+  Ru132  1  0.38216198  0.15878432  -0.00220448  1
  Ru4+  Ru133  1  0.39214441  0.16033566  0.25356139  1
  Ru4+  Ru134  1  0.39161969  0.16613220  0.49660593  1
  Ru4+  Ru135  1  0.38408676  0.16581783  0.74930190  1
  Ru4+  Ru136  1  0.38391829  0.50638695  -0.00310629  1
  Ru4+  Ru137  1  0.39316401  0.49932195  0.24874081  1
  Ru4+  Ru138  1  0.38834918  0.50835741  0.50000811  1
  Ru4+  Ru139  1  0.39112626  0.50092801  0.75011110  1
  Ru4+  Ru140  1  0.39338796  0.83928627  0.00372144  1
  Ru4+  Ru141  1  0.38587263  0.83189686  0.24911131  1
  Ru4+  Ru142  1  0.39003354  0.83124028  0.50204483  1
  Ru4+  Ru143  1  0.38447070  0.83446286  0.74867456  1
  Ru4+  Ru144  1  0.88924715  0.16402522  0.00453326  1
  Ru4+  Ru145  1  0.88279857  0.16092976  0.25150296  1
  Ru4+  Ru146  1  0.88878760  0.16757983  0.50067419  1
  Ru4+  Ru147  1  0.88707435  0.17237283  0.74834950  1
  Ru4+  Ru148  1  0.88722993  0.50041029  -0.00530072  1
  Ru4+  Ru149  1  0.89411172  0.50037126  0.24684395  1
  Ru4+  Ru150  1  0.89010296  0.49599167  0.49994430  1
  Ru4+  Ru151  1  0.88704596  0.49689518  0.75298663  1
  Ru4+  Ru152  1  0.88896546  0.83267809  0.00165751  1
  Ru4+  Ru153  1  0.88644003  0.83501834  0.24850673  1
  Ru4+  Ru154  1  0.88753683  0.83434082  0.49720663  1
  Ru4+  Ru155  1  0.88609986  0.82701840  0.75535166  1
  Ru4+  Ru156  1  0.25062361  0.31060691  0.48506314  1
  Ru4+  Ru157  1  0.74925914  0.72834540  0.01701114  1
  Ru4+  Ru158  1  0.24964113  0.38774404  0.75488188  1
  Ru4+  Ru159  1  0.24988566  0.70370288  -0.00924230  1
  Ru4+  Ru160  1  0.74988239  0.25341356  0.51097107  1
  Ru4+  Ru161  1  0.75012890  0.23524538  0.26465172  1
  Ru4+  Ru162  1  0.75005677  0.06410446  0.01394816  1
  Ru4+  Ru163  1  0.25090833  0.42406069  -0.01051994  1
  Ru4+  Ru164  1  0.75021342  0.60445901  0.49836603  1
  Ru4+  Ru165  1  0.24966722  0.06467857  0.23096100  1
  Ru4+  Ru166  1  0.75026595  0.65337237  0.23410648  1
  Ru4+  Ru167  1  0.75046901  0.58686303  0.75064880  1
  Ru4+  Ru168  1  0.74997686  0.08824026  0.49507853  1
  Ru4+  Ru169  1  0.75044345  0.37222911  0.24185192  1
  Ru4+  Ru170  1  0.25124401  0.43977766  0.50160381  1
  Ru4+  Ru171  1  0.24979023  0.06549509  0.50574324  1
  Ru4+  Ru172  1  0.25019930  0.23683273  -0.00160541  1
  Ru4+  Ru173  1  0.75025281  0.76062025  0.48595367  1
  Ru4+  Ru174  1  0.75067982  0.90584246  0.48799540  1
  Ru4+  Ru175  1  0.74872709  0.40243888  0.01340631  1
  Ru4+  Ru176  1  0.25003145  0.91847739  0.52372618  1
  Ru4+  Ru177  1  0.24973460  0.39610209  0.25092811  1
  Ru4+  Ru178  1  0.24997202  0.64294370  0.22959323  1
  Ru4+  Ru179  1  0.24986591  0.96928328  -0.01048306  1
  O2-  O180  1  0.16553852  0.08101009  -0.00183956  1
  O2-  O181  1  0.16635269  0.08042850  0.24382981  1
  O2-  O182  1  0.16683456  0.08015560  0.50516159  1
  O2-  O183  1  0.16829045  0.08261006  0.74944388  1
  O2-  O184  1  0.16870199  0.41460165  -0.00169549  1
  O2-  O185  1  0.16491355  0.41119158  0.25106167  1
  O2-  O186  1  0.17037838  0.41450733  0.49898058  1
  O2-  O187  1  0.16875731  0.41267367  0.75025086  1
  O2-  O188  1  0.16903599  0.74750065  0.00094102  1
  O2-  O189  1  0.16786230  0.74852962  0.24755632  1
  O2-  O190  1  0.15914855  0.74429362  0.49667487  1
  O2-  O191  1  0.16514262  0.74862339  0.75457970  1
  O2-  O192  1  0.66701394  0.08037729  0.00180128  1
  O2-  O193  1  0.66314705  0.08082439  0.24993214  1
  O2-  O194  1  0.66452117  0.08064885  0.49995573  1
  O2-  O195  1  0.66351982  0.07922806  0.75011185  1
  O2-  O196  1  0.66522608  0.41456039  0.00058481  1
  O2-  O197  1  0.66602661  0.40924827  0.25229365  1
  O2-  O198  1  0.66520190  0.40952586  0.49776910  1
  O2-  O199  1  0.66530335  0.41803841  0.75199506  1
  O2-  O200  1  0.66634430  0.74687559  -0.00095725  1
  O2-  O201  1  0.66513599  0.74721438  0.25317013  1
  O2-  O202  1  0.66606482  0.74701235  0.49920945  1
  O2-  O203  1  0.66927299  0.74547635  0.74978819  1
  O2-  O204  1  0.33302748  0.25120548  -0.00069239  1
  O2-  O205  1  0.34339529  0.25433097  0.25148901  1
  O2-  O206  1  0.33711317  0.25607659  0.50009718  1
  O2-  O207  1  0.33498096  0.25292531  0.75271310  1
  O2-  O208  1  0.33185360  0.58469431  0.00047164  1
  O2-  O209  1  0.33163442  0.58810910  0.24868986  1
  O2-  O210  1  0.33110959  0.58234377  0.49836703  1
  O2-  O211  1  0.33635940  0.58676196  0.75327945  1
  O2-  O212  1  0.32919881  0.92119485  0.00199042  1
  O2-  O213  1  0.33718191  0.91657802  0.24715590  1
  O2-  O214  1  0.33553838  0.91737422  0.50232074  1
  O2-  O215  1  0.33339498  0.91949475  0.75022171  1
  O2-  O216  1  0.83954234  0.25431006  0.00389643  1
  O2-  O217  1  0.83306533  0.25197344  0.25036814  1
  O2-  O218  1  0.83291934  0.25301352  0.49899637  1
  O2-  O219  1  0.83396717  0.25016436  0.75129270  1
  O2-  O220  1  0.83971430  0.58890885  0.00136235  1
  O2-  O221  1  0.83302687  0.58771701  0.25077526  1
  O2-  O222  1  0.83366054  0.58812862  0.49774129  1
  O2-  O223  1  0.83438568  0.58788748  0.75065098  1
  O2-  O224  1  0.83864585  0.91996061  -0.00267931  1
  O2-  O225  1  0.83332928  0.91694642  0.25581425  1
  O2-  O226  1  0.83412506  0.92008471  0.49956133  1
  O2-  O227  1  0.83412979  0.91547135  0.74938021  1
  O2-  O228  1  0.16949901  0.25109556  -0.00079088  1
  O2-  O229  1  0.16156245  0.25619474  0.25012216  1
  O2-  O230  1  0.16589036  0.25679208  0.49998865  1
  O2-  O231  1  0.16107581  0.25011594  0.75115496  1
  O2-  O232  1  0.16579746  0.58561553  0.00029509  1
  O2-  O233  1  0.17047880  0.58770585  0.25068203  1
  O2-  O234  1  0.16141640  0.58408753  0.49753609  1
  O2-  O235  1  0.16610758  0.58697920  0.75067044  1
  O2-  O236  1  0.17122086  0.92023437  0.00396817  1
  O2-  O237  1  0.17267983  0.92305902  0.24295697  1
  O2-  O238  1  0.16628220  0.91885193  0.50008412  1
  O2-  O239  1  0.16968560  0.91650040  0.75043335  1
  O2-  O240  1  0.66480327  0.25439742  0.00099676  1
  O2-  O241  1  0.66742774  0.25203947  0.25266347  1
  O2-  O242  1  0.66634959  0.25303476  0.49923100  1
  O2-  O243  1  0.66514047  0.24973622  0.75195855  1
  O2-  O244  1  0.66170653  0.59008021  -0.00306391  1
  O2-  O245  1  0.66727015  0.58986826  0.24989260  1
  O2-  O246  1  0.66592620  0.58787557  0.49812205  1
  O2-  O247  1  0.66572700  0.58813297  0.75035522  1
  O2-  O248  1  0.66119846  0.92215274  0.00127468  1
  O2-  O249  1  0.66231192  0.92057873  0.24970497  1
  O2-  O250  1  0.66847522  0.91829500  0.49974221  1
  O2-  O251  1  0.66527913  0.91638963  0.74970745  1
  O2-  O252  1  0.32809376  0.08241636  0.00084539  1
  O2-  O253  1  0.33174735  0.08123030  0.24585024  1
  O2-  O254  1  0.33293811  0.07809263  0.50186963  1
  O2-  O255  1  0.33508903  0.08050146  0.74965029  1
  O2-  O256  1  0.33462946  0.41233192  -0.00194937  1
  O2-  O257  1  0.33424263  0.40941432  0.25070016  1
  O2-  O258  1  0.33476834  0.41663464  0.49784142  1
  O2-  O259  1  0.33236172  0.41251315  0.75289770  1
  O2-  O260  1  0.33513611  0.74682924  0.00125150  1
  O2-  O261  1  0.33015884  0.74964541  0.24669399  1
  O2-  O262  1  0.33665427  0.74621464  0.49358613  1
  O2-  O263  1  0.33774615  0.74699951  0.75254872  1
  O2-  O264  1  0.83191251  0.08004389  -0.00260340  1
  O2-  O265  1  0.83305703  0.08122314  0.25200416  1
  O2-  O266  1  0.83549373  0.08171267  0.50089782  1
  O2-  O267  1  0.83641891  0.08267154  0.74753724  1
  O2-  O268  1  0.83208981  0.41448164  0.00649703  1
  O2-  O269  1  0.83504334  0.40928989  0.25044007  1
  O2-  O270  1  0.83574252  0.41204612  0.49798349  1
  O2-  O271  1  0.83743664  0.41791329  0.75015123  1
  O2-  O272  1  0.82903611  0.74768463  -0.00233101  1
  O2-  O273  1  0.83206306  0.75031566  0.25242540  1
  O2-  O274  1  0.83323538  0.74757613  0.49871505  1
  O2-  O275  1  0.83007308  0.74705249  0.75036241  1
  O2-  O276  1  0.94830514  0.08669563  0.76956799  1
  O2-  O277  1  0.94957021  0.09671683  0.24484701  1
  O2-  O278  1  0.95036804  0.90398024  0.77008295  1
  O2-  O279  1  0.05323905  0.41864752  0.98199289  1
  O2-  O280  1  0.53698860  0.55476791  0.96434222  1
  O2-  O281  1  0.95309182  0.23209070  0.48797946  1
  O2-  O282  1  0.03535816  0.89101893  0.01912998  1
  O2-  O283  1  0.55054801  0.42872512  0.48368066  1
  O2-  O284  1  0.04409269  0.76759377  0.51217933  1
  O2-  O285  1  0.04805766  0.10078791  0.99372146  1
  O2-  O286  1  0.05751429  0.93659645  0.19685357  1
  O2-  O287  1  0.95140211  0.42392724  0.01918517  1
  O2-  O288  1  0.54615146  0.56681192  0.73681893  1
  O2-  O289  1  0.95199034  0.43810154  0.99515872  1
  O2-  O290  1  0.04422704  0.57522250  0.98440928  1
  O2-  O291  1  0.44880817  0.08488496  0.48455898  1
  O2-  O292  1  0.45139943  0.23381838  0.75968928  1
  O2-  O293  1  0.44787624  0.42227188  0.47846907  1
  O2-  O294  1  0.95275348  0.23835157  0.26056016  1
  O2-  O295  1  0.96617626  0.78356455  -0.01049261  1
  O2-  O296  1  0.44888586  0.43188347  0.00893556  1
  O2-  O297  1  0.54428019  0.76786377  0.75827261  1
  O2-  O298  1  0.95481758  0.56370814  0.49088177  1
  O2-  O299  1  0.04938013  0.09628754  0.23390877  1
  O2-  O300  1  0.04989206  0.89535374  0.74299614  1
  O2-  O301  1  0.47627179  0.10922226  1.00486286  1
  O2-  O302  1  0.46283755  0.11187721  0.21271763  1
  O2-  O303  1  0.55009552  0.23247654  0.73969473  1
  O2-  O304  1  0.95032599  0.91490151  0.73272407  1
  O2-  O305  1  0.45737170  0.56422690  0.54536480  1
  O2-  O306  1  0.45205877  0.43336428  0.73775932  1
  O2-  O307  1  0.45675878  0.76507687  0.00658959  1
  O2-  O308  1  0.55069440  0.42404488  0.01605322  1
  O2-  O309  1  0.04448674  0.43789498  0.49252563  1
  O2-  O310  1  0.55048945  0.76039832  0.48639330  1
  O2-  O311  1  0.95255997  0.76033307  0.76651829  1
  O2-  O312  1  0.44978550  0.23850317  0.97841515  1
  O2-  O313  1  0.54705669  0.76697985  0.23633158  1
  O2-  O314  1  0.45877497  0.79444478  0.45620128  1
  O2-  O315  1  0.96135462  0.77015365  0.28281356  1
  O2-  O316  1  0.05471467  0.80167748  0.26166885  1
  O2-  O317  1  0.05268507  0.56644862  0.02019831  1
  O2-  O318  1  0.03089509  0.88636129  1.00510635  1
  O2-  O319  1  0.44840922  0.24047863  0.01764688  1
  O2-  O320  1  0.94779240  0.09288519  0.95225413  1
  O2-  O321  1  0.95709194  0.90001900  0.29606675  1
  O2-  O322  1  0.05160774  0.43047110  0.51759691  1
  O2-  O323  1  0.05043885  0.91215895  0.76406096  1
  O2-  O324  1  0.08120870  0.92285486  0.33326484  1
  O2-  O325  1  0.42043077  0.58779465  0.41093094  1
  O2-  O326  1  0.57057312  0.61756350  0.06675470  1
  O2-  O327  1  0.93460038  0.05821703  0.08844210  1
  O2-  O328  1  0.92096221  0.72748495  0.03393346  1
  O2-  O329  1  0.56500025  0.26260464  0.21993156  1
  O2-  O330  1  0.56404762  0.40728431  0.72825993  1
  O2-  O331  1  0.56331943  0.92624827  0.47878809  1
  O2-  O332  1  0.06043789  0.68056026  0.28740775  1
  O2-  O333  1  0.06158656  0.57020655  0.21070984  1
  O2-  O334  1  0.44311381  0.08311270  0.47995334  1
  O2-  O335  1  0.05148955  0.92742086  0.18479881  1
  O2-  O336  1  0.93369308  0.25886358  0.27386365  1
  O2-  O337  1  0.56448588  0.06788009  0.96559775  1
  O2-  O338  1  0.06275829  0.25510969  0.46247931  1
  O2-  O339  1  0.06546487  0.41377252  0.81491672  1
  O2-  O340  1  0.06899236  0.73783454  0.02712730  1
  O2-  O341  1  0.43815125  0.92736487  0.71261763  1
  O2-  O342  1  0.06173639  0.26525452  0.28234254  1
  O2-  O343  1  0.05818820  0.42495733  0.98123848  1
  O2-  O344  1  0.06840528  0.93325890  0.70736831  1
  O2-  O345  1  0.43343506  0.74331082  0.22588039  1
  O2-  O346  1  0.93745027  0.59594158  0.96119629  1
  O2-  O347  1  0.43702257  0.93026631  0.07146498  1
  O2-  O348  1  0.06639216  0.41727048  0.68766861  1
  O2-  O349  1  0.06004303  0.07984121  0.67723882  1
  O2-  O350  1  0.42329010  0.73225160  0.55922040  1
  O2-  O351  1  0.56369932  0.26146676  0.72987232  1
  O2-  O352  1  0.06274673  0.58707258  0.77685943  1
  O2-  O353  1  0.41581614  0.05785480  0.96191037  1
  O2-  O354  1  0.44721654  0.57406185  0.55260595  1
  O2-  O355  1  0.94494482  0.07934260  0.77525733  1
  O2-  O356  1  0.06491372  0.07860312  0.47765941  1
  O2-  O357  1  0.07695156  0.96237265  0.94460499  1
  O2-  O358  1  0.92923815  0.94226044  0.18340472  1
  O2-  O359  1  0.06319709  0.26168814  0.03740611  1
  O2-  O360  1  0.93191115  0.39698131  0.96745568  1
  O2-  O361  1  0.92178907  0.72641247  0.19850181  1
  O2-  O362  1  0.93325696  0.24840845  0.68774561  1
  O2-  O363  1  0.94271429  0.08192440  0.94619597  1
  O2-  O364  1  0.43229518  0.91272780  0.93130848  1
  O2-  O365  1  0.56392423  0.26234906  0.03037849  1
  O2-  O366  1  0.06326334  0.07180410  0.82216513  1
  O2-  O367  1  0.06562619  0.74482694  0.72225360  1
  O2-  O368  1  0.43568308  0.59822064  0.96386612  1
  O2-  O369  1  0.06874424  0.40159679  0.46743643  1
  O2-  O370  1  0.93435036  0.26634578  0.82444913  1
  O2-  O371  1  0.42719794  0.04839734  0.30839831  1
  O2-  O372  1  0.25054362  0.65680165  0.88274082  1
  O2-  O373  1  0.75041584  -0.00089969  0.40641496  1
  O2-  O374  1  0.25031506  0.66633518  0.35553206  1
  O2-  O375  1  0.25050051  -0.00025217  0.61366747  1
  O2-  O376  1  0.25038232  0.33480546  0.05270554  1
  O2-  O377  1  0.75059287  -0.00260855  0.56998282  1
  O2-  O378  1  0.74854918  0.66693064  0.36364163  1
  O2-  O379  1  0.25008274  0.32998518  0.64687266  1
  O2-  O380  1  0.74940315  0.33741378  0.82655945  1
  O2-  O381  1  0.74984282  -0.01014597  0.92067675  1
  O2-  O382  1  0.24990932  0.66304709  0.10844709  1
  O2-  O383  1  0.75001380  0.32875452  0.91663238  1
  O2-  O384  1  0.74972419  -0.00638783  0.67216444  1
  O2-  O385  1  0.25020328  0.67030704  0.59992176  1
  O2-  O386  1  0.74934023  -0.00515947  0.82793927  1
  O2-  O387  1  0.74957987  0.32999683  0.36699532  1
  O2-  O388  1  0.25105917  -0.01883155  0.29954460  1
  O2-  O389  1  0.74995337  0.32701985  0.62868511  1
  O2-  O390  1  0.75012071  0.66556158  0.89755363  1
  O2-  O391  1  0.25026584  0.32273291  0.16572846  1
  O2-  O392  1  0.74899289  0.67426255  0.60374815  1
  O2-  O393  1  0.74984893  0.32621104  0.12848926  1
  O2-  O394  1  0.25071348  0.32316678  0.35609006  1
  O2-  O395  1  0.25026675  -0.01129243  0.42015709  1
  O2-  O396  1  0.75003741  0.51125026  0.59137829  1
  O2-  O397  1  0.24997547  0.49376672  0.16871976  1
  O2-  O398  1  0.75004345  0.16701609  0.66916463  1
  O2-  O399  1  0.74986736  0.17058556  0.40776267  1
  O2-  O400  1  0.24992966  0.16267407  0.41746301  1
  O2-  O401  1  0.75020108  0.49529649  0.67782965  1
  O2-  O402  1  0.25043766  0.49612557  0.59858361  1
  O2-  O403  1  0.74980140  0.83335203  0.37916485  1
  O2-  O404  1  0.74984017  0.15858536  0.09666306  1
  O2-  O405  1  0.74997873  0.48247920  0.89644668  1
  O2-  O406  1  0.25032747  0.83337592  0.90432994  1
  O2-  O407  1  0.24972890  0.15531042  0.10007752  1
  O2-  O408  1  0.25060367  0.83289610  0.81880359  1
  O2-  O409  1  0.74971485  0.83214801  0.59286876  1
  O2-  O410  1  0.24957191  0.13454704  0.32970894  1
  O2-  O411  1  0.75020866  0.49190437  0.80778230  1
  O2-  O412  1  0.74934365  0.47972774  0.12736060  1
  O2-  O413  1  0.25024188  0.50353645  0.05649425  1
  O2-  O414  1  0.74982820  0.15498556  0.18532212  1
  O2-  O415  1  0.74945080  0.82225305  0.13420692  1
  O2-  O416  1  0.74987348  0.16611705  0.58391725  1
  O2-  O417  1  0.74900944  0.16062900  0.83812658  1
  O2-  O418  1  0.25044048  0.84343933  0.63217785  1
  O2-  O419  1  0.25050390  0.15511545  0.66915523  1
  O2-  O420  1  0.45348689  0.32700366  0.62297606  1
  O2-  O421  1  0.47426109  0.65226382  0.12259002  1
  O2-  O422  1  0.04407616  0.65141544  0.41319630  1
  O2-  O423  1  0.48179641  0.00354350  0.86520849  1
  O2-  O424  1  0.97160361  0.64157230  0.11796668  1
  O2-  O425  1  0.95869840  0.35674524  0.61381071  1
  O2-  O426  1  0.02767415  0.67112568  0.13011583  1
  O2-  O427  1  0.04245955  0.64972602  0.61278139  1
  O2-  O428  1  0.54066005  0.32864084  0.60746575  1
  O2-  O429  1  0.02334562  0.31172936  0.87741212  1
  O2-  O430  1  0.48441168  0.67362665  0.36538943  1
  O2-  O431  1  0.03811351  0.31134204  0.61704193  1
  O2-  O432  1  0.01377640  0.00634144  0.37907566  1
  O2-  O433  1  0.52794682  0.67269276  0.87688553  1
  O2-  O434  1  0.52678818  0.00163365  0.36330155  1
  O2-  O435  1  0.97502455  0.34490538  0.37789029  1
  O2-  O436  1  0.02407074  0.67357885  0.87486331  1
  O2-  O437  1  0.95275633  0.66827957  0.62540163  1
  O2-  O438  1  0.97460668  0.33158886  0.12984453  1
  O2-  O439  1  0.47281435  0.33528188  0.12940004  1
  O2-  O440  1  0.47659877  0.33920459  0.87138111  1
  O2-  O441  1  0.95358205  0.66355831  0.37505296  1
  O2-  O442  1  0.48383357  0.67907352  0.64273620  1
  O2-  O443  1  0.52977921  0.00122844  0.12599886  1
