# generated using pymatgen
data_La7(Ru4O11)2
_symmetry_space_group_name_H-M   'P 1'
_cell_length_a   23.98901003
_cell_length_b   16.82832355
_cell_length_c   15.42594656
_cell_angle_alpha   90.00073977
_cell_angle_beta   89.99940219
_cell_angle_gamma   89.99994704
_symmetry_Int_Tables_number   1
_chemical_formula_structural   La7(Ru4O11)2
_chemical_formula_sum   'La84 Ru96 O264'
_cell_volume   6227.37475484
_cell_formula_units_Z   12
loop_
 _symmetry_equiv_pos_site_id
 _symmetry_equiv_pos_as_xyz
  1  'x, y, z'
loop_
 _atom_type_symbol
 _atom_type_oxidation_number
  La3+  3.0
  Ru4+  4.0
  O2-  -2.0
loop_
 _atom_site_type_symbol
 _atom_site_label
 _atom_site_symmetry_multiplicity
 _atom_site_fract_x
 _atom_site_fract_y
 _atom_site_fract_z
 _atom_site_occupancy
  La3+  La0  1  0.13972811  -0.00061775  0.12553365  1
  La3+  La1  1  0.13541378  0.00374847  0.37925768  1
  La3+  La2  1  0.13501703  0.00388843  0.62049743  1
  La3+  La3  1  0.13723805  -0.00084713  0.87397376  1
  La3+  La4  1  0.13949589  0.33538956  0.12488188  1
  La3+  La5  1  0.14010960  0.33362031  0.37393548  1
  La3+  La6  1  0.13883198  0.33389043  0.62741896  1
  La3+  La7  1  0.13748173  0.33594167  0.87381346  1
  La3+  La8  1  0.13989062  0.66629383  0.12695660  1
  La3+  La9  1  0.13914296  0.66542413  0.37235619  1
  La3+  La10  1  0.13944084  0.66502503  0.62642422  1
  La3+  La11  1  0.13857657  0.66612057  0.87402701  1
  La3+  La12  1  0.63773207  -0.00038390  0.12303027  1
  La3+  La13  1  0.63968409  -0.00042610  0.37557868  1
  La3+  La14  1  0.63982313  0.00006711  0.62551120  1
  La3+  La15  1  0.63757972  0.00059728  0.87570302  1
  La3+  La16  1  0.64051671  0.33332043  0.12595899  1
  La3+  La17  1  0.63983807  0.33402133  0.37333146  1
  La3+  La18  1  0.63779754  0.33265644  0.62660240  1
  La3+  La19  1  0.63834489  0.33310029  0.87536353  1
  La3+  La20  1  0.63944423  0.66722962  0.12445285  1
  La3+  La21  1  0.63707945  0.66643719  0.37349640  1
  La3+  La22  1  0.63777632  0.66746165  0.62557341  1
  La3+  La23  1  0.63786552  0.66785262  0.87622207  1
  La3+  La24  1  0.36050207  -0.00063187  0.12547776  1
  La3+  La25  1  0.36233853  0.00018101  0.37620314  1
  La3+  La26  1  0.36237521  -0.00029980  0.62385937  1
  La3+  La27  1  0.36247752  -0.00038589  0.87406301  1
  La3+  La28  1  0.36172946  0.33426590  0.12450905  1
  La3+  La29  1  0.36114315  0.33425749  0.37571761  1
  La3+  La30  1  0.36164881  0.33485083  0.62409670  1
  La3+  La31  1  0.36250039  0.33374178  0.87447328  1
  La3+  La32  1  0.35861731  0.66757255  0.12718408  1
  La3+  La33  1  0.36127126  0.66544818  0.37431489  1
  La3+  La34  1  0.36210727  0.66519636  0.62545527  1
  La3+  La35  1  0.35939624  0.66791299  0.87186261  1
  La3+  La36  1  0.86455738  0.00338160  0.12061336  1
  La3+  La37  1  0.86057071  -0.00035581  0.37572840  1
  La3+  La38  1  0.86008667  -0.00043997  0.62511990  1
  La3+  La39  1  0.86513194  0.00403692  0.87975785  1
  La3+  La40  1  0.85950011  0.33317186  0.12618576  1
  La3+  La41  1  0.86104645  0.33320808  0.37310085  1
  La3+  La42  1  0.86117743  0.33378038  0.62528161  1
  La3+  La43  1  0.86109083  0.33275847  0.87546452  1
  La3+  La44  1  0.86045660  0.66758179  0.12503579  1
  La3+  La45  1  0.86578275  0.66371435  0.37814281  1
  La3+  La46  1  0.86698855  0.66408555  0.62176048  1
  La3+  La47  1  0.86271571  0.66785657  0.87579242  1
  La3+  La48  1  -0.00178652  0.50245327  0.38850397  1
  La3+  La49  1  -0.00283357  0.16477858  0.13084407  1
  La3+  La50  1  0.49888468  0.16495911  0.11294851  1
  La3+  La51  1  0.49955193  0.50039436  0.63105179  1
  La3+  La52  1  0.00037463  0.83180086  0.36790357  1
  La3+  La53  1  0.50058298  0.17025664  0.61624203  1
  La3+  La54  1  0.00031836  0.49932143  0.11191427  1
  La3+  La55  1  -0.00110024  0.16627524  0.88626078  1
  La3+  La56  1  0.00250064  0.16279066  0.63405805  1
  La3+  La57  1  0.00025025  0.49966483  0.12914421  1
  La3+  La58  1  -0.00055926  0.16577636  0.11407015  1
  La3+  La59  1  0.49912776  0.50157081  0.13321364  1
  La3+  La60  1  -0.00124114  0.49594753  0.63411818  1
  La3+  La61  1  0.00426601  0.50414966  0.61517795  1
  La3+  La62  1  0.49904758  0.49858079  0.61377371  1
  La3+  La63  1  0.49962897  0.17056907  0.63309610  1
  La3+  La64  1  0.49947348  0.16752649  0.38231419  1
  La3+  La65  1  0.50161803  0.83335911  0.62133617  1
  La3+  La66  1  -0.00053630  0.83311696  0.13197848  1
  La3+  La67  1  0.50331499  0.16219567  0.87089147  1
  La3+  La68  1  -0.00105653  0.16528546  0.61313592  1
  La3+  La69  1  0.49813291  0.83378410  0.38507742  1
  La3+  La70  1  0.00197023  0.49872367  0.86919780  1
  La3+  La71  1  0.00074746  0.16440238  0.36893102  1
  La3+  La72  1  0.24993055  0.83161133  0.24292834  1
  La3+  La73  1  0.75010047  0.49866132  0.25771395  1
  La3+  La74  1  0.74994389  0.47164359  0.00100814  1
  La3+  La75  1  0.75004139  0.45586250  0.48707254  1
  La3+  La76  1  0.24984803  0.50156935  0.76844176  1
  La3+  La77  1  0.24964280  0.87680480  0.46957429  1
  La3+  La78  1  0.24993590  0.83147649  0.76981194  1
  La3+  La79  1  0.75000242  0.13212634  0.49975125  1
  La3+  La80  1  0.25016450  0.13456885  -0.03442417  1
  La3+  La81  1  0.25021856  0.50152486  0.27856571  1
  La3+  La82  1  0.75003975  0.86514586  0.50073899  1
  La3+  La83  1  0.74997358  0.46193352  0.79277411  1
  Ru4+  Ru84  1  -0.00044231  0.00116353  -0.00288878  1
  Ru4+  Ru85  1  -0.00036617  0.00075522  0.25031218  1
  Ru4+  Ru86  1  0.00216118  -0.00332707  0.50326142  1
  Ru4+  Ru87  1  0.00133918  -0.00279256  0.75003749  1
  Ru4+  Ru88  1  -0.00489054  0.32703608  0.00435408  1
  Ru4+  Ru89  1  -0.00041275  0.33418313  0.25289158  1
  Ru4+  Ru90  1  -0.00052222  0.33240362  0.49754259  1
  Ru4+  Ru91  1  -0.00339352  0.32748107  0.74824653  1
  Ru4+  Ru92  1  -0.00359920  0.67241666  0.00047325  1
  Ru4+  Ru93  1  -0.00381555  0.67018663  0.24977517  1
  Ru4+  Ru94  1  -0.00156012  0.66586095  0.50393754  1
  Ru4+  Ru95  1  0.00243968  0.67569357  0.74856819  1
  Ru4+  Ru96  1  0.49780645  -0.00966295  0.00244571  1
  Ru4+  Ru97  1  0.49993156  0.00104310  0.25141668  1
  Ru4+  Ru98  1  0.50327478  0.00136818  0.49690432  1
  Ru4+  Ru99  1  0.49984330  -0.00621675  0.75030287  1
  Ru4+  Ru100  1  0.49773806  0.33582497  0.00053527  1
  Ru4+  Ru101  1  0.49955739  0.33381688  0.24760306  1
  Ru4+  Ru102  1  0.50300341  0.32827808  0.49909631  1
  Ru4+  Ru103  1  0.49932107  0.34063906  0.75265818  1
  Ru4+  Ru104  1  0.50184732  0.66834649  -0.00461729  1
  Ru4+  Ru105  1  0.49990829  0.66614318  0.25270315  1
  Ru4+  Ru106  1  0.50257016  0.66181721  0.49694286  1
  Ru4+  Ru107  1  0.50309679  0.67128712  0.75649874  1
  Ru4+  Ru108  1  0.11222578  0.16494174  0.00011734  1
  Ru4+  Ru109  1  0.11313052  0.16716313  0.25108835  1
  Ru4+  Ru110  1  0.11246066  0.16285737  0.49936503  1
  Ru4+  Ru111  1  0.11245090  0.16755013  0.74878818  1
  Ru4+  Ru112  1  0.11878611  0.49911293  0.00101080  1
  Ru4+  Ru113  1  0.11519092  0.49731409  0.24954582  1
  Ru4+  Ru114  1  0.11324148  0.50213698  0.49870160  1
  Ru4+  Ru115  1  0.11570777  0.50343310  0.74875738  1
  Ru4+  Ru116  1  0.11218984  0.83335075  0.00044144  1
  Ru4+  Ru117  1  0.11199757  0.83218537  0.25042244  1
  Ru4+  Ru118  1  0.11112391  0.83465894  0.49964392  1
  Ru4+  Ru119  1  0.10773668  0.83342223  0.75011688  1
  Ru4+  Ru120  1  0.61504356  0.17000755  0.00042873  1
  Ru4+  Ru121  1  0.61405945  0.16686008  0.25068924  1
  Ru4+  Ru122  1  0.61191891  0.16719786  0.49964416  1
  Ru4+  Ru123  1  0.61751208  0.16314417  0.75107817  1
  Ru4+  Ru124  1  0.61145325  0.49883954  -0.00014130  1
  Ru4+  Ru125  1  0.61197457  0.50028852  0.24973162  1
  Ru4+  Ru126  1  0.61087049  0.49855326  0.49981202  1
  Ru4+  Ru127  1  0.61074535  0.50027243  0.75052511  1
  Ru4+  Ru128  1  0.61118544  0.83257857  0.00013453  1
  Ru4+  Ru129  1  0.61249684  0.83344017  0.25047212  1
  Ru4+  Ru130  1  0.61162648  0.83508500  0.49958572  1
  Ru4+  Ru131  1  0.61117861  0.83497291  0.75068436  1
  Ru4+  Ru132  1  0.38869120  0.16698507  0.00044194  1
  Ru4+  Ru133  1  0.38791113  0.16663990  0.24974961  1
  Ru4+  Ru134  1  0.38587771  0.16695545  0.49950927  1
  Ru4+  Ru135  1  0.38523484  0.16603018  0.75021131  1
  Ru4+  Ru136  1  0.38764293  0.49963937  -0.00011432  1
  Ru4+  Ru137  1  0.38767022  0.50163214  0.25072050  1
  Ru4+  Ru138  1  0.38420848  0.50379521  0.49944554  1
  Ru4+  Ru139  1  0.38512053  0.49897390  0.75198995  1
  Ru4+  Ru140  1  0.38868078  0.83433940  0.00071880  1
  Ru4+  Ru141  1  0.38754517  0.83294967  0.25019508  1
  Ru4+  Ru142  1  0.38381919  0.83404668  0.49807385  1
  Ru4+  Ru143  1  0.38896299  0.83338636  0.75089519  1
  Ru4+  Ru144  1  0.88999911  0.16593941  0.00079753  1
  Ru4+  Ru145  1  0.88756340  0.16775399  0.24848390  1
  Ru4+  Ru146  1  0.88779219  0.16804178  0.49876452  1
  Ru4+  Ru147  1  0.88731310  0.16535440  0.75191287  1
  Ru4+  Ru148  1  0.88728213  0.49869175  0.00047497  1
  Ru4+  Ru149  1  0.88855759  0.50027744  0.25114357  1
  Ru4+  Ru150  1  0.88873097  0.50215324  0.49987214  1
  Ru4+  Ru151  1  0.88579729  0.49614902  0.74964450  1
  Ru4+  Ru152  1  0.88708687  0.83240280  0.00018526  1
  Ru4+  Ru153  1  0.88688446  0.83226740  0.25032686  1
  Ru4+  Ru154  1  0.88960648  0.83240461  0.49935435  1
  Ru4+  Ru155  1  0.88679425  0.83349069  0.75035904  1
  Ru4+  Ru156  1  0.25001359  0.42109280  0.50051706  1
  Ru4+  Ru157  1  0.25001492  0.75584504  0.00465193  1
  Ru4+  Ru158  1  0.74991986  0.75373489  0.24807458  1
  Ru4+  Ru159  1  0.75006662  0.91317721  -0.00226113  1
  Ru4+  Ru160  1  0.74965634  0.60101411  0.49930680  1
  Ru4+  Ru161  1  0.74995879  0.60127969  0.74952418  1
  Ru4+  Ru162  1  0.75035359  0.24767960  0.75054105  1
  Ru4+  Ru163  1  0.24993891  0.25465934  0.25299093  1
  Ru4+  Ru164  1  0.25012507  0.27394534  -0.00015973  1
  Ru4+  Ru165  1  0.75042361  0.08923257  0.24958208  1
  Ru4+  Ru166  1  0.24982754  0.08579936  0.74939650  1
  Ru4+  Ru167  1  0.74990727  0.24860004  0.00069204  1
  Ru4+  Ru168  1  0.74997177  0.91665192  0.74990922  1
  Ru4+  Ru169  1  0.25007993  0.90919935  0.00083094  1
  Ru4+  Ru170  1  0.74990718  0.08543175  -0.00030235  1
  Ru4+  Ru171  1  0.25035918  0.58261738  0.00289166  1
  Ru4+  Ru172  1  0.75020016  0.75169492  0.74933255  1
  Ru4+  Ru173  1  0.24979749  0.07854098  0.25156667  1
  Ru4+  Ru174  1  0.75003009  0.26619148  0.50492333  1
  Ru4+  Ru175  1  0.24978073  0.73057138  0.50499495  1
  Ru4+  Ru176  1  0.74981186  0.90797504  0.25009868  1
  Ru4+  Ru177  1  0.74996239  0.60842386  0.00089138  1
  Ru4+  Ru178  1  0.75004597  0.73045680  0.49806855  1
  Ru4+  Ru179  1  0.25024417  0.24621264  0.50295663  1
  O2-  O180  1  0.16760254  0.07980969  -0.00073376  1
  O2-  O181  1  0.16725408  0.08089562  0.25092958  1
  O2-  O182  1  0.16862237  0.08075411  0.50043249  1
  O2-  O183  1  0.16900058  0.07978384  0.74980580  1
  O2-  O184  1  0.16739230  0.41528796  -0.00073959  1
  O2-  O185  1  0.16817559  0.41372239  0.25050406  1
  O2-  O186  1  0.16856601  0.41292926  0.50042302  1
  O2-  O187  1  0.16791704  0.41353355  0.75013306  1
  O2-  O188  1  0.16794259  0.74794292  -0.00025921  1
  O2-  O189  1  0.16714371  0.74788018  0.24982272  1
  O2-  O190  1  0.16663422  0.74697718  0.50020060  1
  O2-  O191  1  0.16630003  0.74845445  0.74913630  1
  O2-  O192  1  0.66703123  0.08083193  -0.00020324  1
  O2-  O193  1  0.66732599  0.08140863  0.25007967  1
  O2-  O194  1  0.66690713  0.07992822  0.49985284  1
  O2-  O195  1  0.66808058  0.08159358  0.74969954  1
  O2-  O196  1  0.66623581  0.41384809  -0.00002845  1
  O2-  O197  1  0.66614721  0.41404510  0.24999217  1
  O2-  O198  1  0.66438443  0.41308462  0.50097595  1
  O2-  O199  1  0.66682228  0.41274931  0.74901515  1
  O2-  O200  1  0.66640684  0.74824397  0.00013070  1
  O2-  O201  1  0.66806477  0.74726921  0.25094689  1
  O2-  O202  1  0.66692202  0.74595520  0.50005778  1
  O2-  O203  1  0.66663195  0.74730054  0.74967550  1
  O2-  O204  1  0.33197817  0.25364823  -0.00135636  1
  O2-  O205  1  0.33276310  0.25222533  0.25002480  1
  O2-  O206  1  0.33188138  0.25290737  0.49979716  1
  O2-  O207  1  0.33188507  0.25196069  0.75093114  1
  O2-  O208  1  0.33191197  0.58477963  -0.00016335  1
  O2-  O209  1  0.33276806  0.58473766  0.25029072  1
  O2-  O210  1  0.33426199  0.58530860  0.49978034  1
  O2-  O211  1  0.33189923  0.58455934  0.74928567  1
  O2-  O212  1  0.33152665  0.91929718  0.00015273  1
  O2-  O213  1  0.33376018  0.92046690  0.25071069  1
  O2-  O214  1  0.33282876  0.92077650  0.50127163  1
  O2-  O215  1  0.33182740  0.92116237  0.74926282  1
  O2-  O216  1  0.83396466  0.25195062  -0.00022466  1
  O2-  O217  1  0.83386324  0.25132838  0.25028816  1
  O2-  O218  1  0.83323948  0.25341178  0.50050433  1
  O2-  O219  1  0.83085672  0.25381981  0.74894620  1
  O2-  O220  1  0.83253583  0.58694871  -0.00071351  1
  O2-  O221  1  0.83321785  0.58674993  0.25089522  1
  O2-  O222  1  0.83197645  0.58641702  0.49974227  1
  O2-  O223  1  0.83320573  0.58761339  0.74994388  1
  O2-  O224  1  0.83258077  0.91900648  -0.00078336  1
  O2-  O225  1  0.83232589  0.91871870  0.24956246  1
  O2-  O226  1  0.83427708  0.91925223  0.50023769  1
  O2-  O227  1  0.83324742  0.91916687  0.75110734  1
  O2-  O228  1  0.16730350  0.25331018  -0.00136328  1
  O2-  O229  1  0.16788597  0.25207771  0.25038366  1
  O2-  O230  1  0.16651677  0.25318316  0.50024630  1
  O2-  O231  1  0.16733118  0.25277367  0.75004667  1
  O2-  O232  1  0.16710088  0.58534655  -0.00009642  1
  O2-  O233  1  0.16814919  0.58415073  0.25080421  1
  O2-  O234  1  0.16559803  0.58497148  0.50018341  1
  O2-  O235  1  0.16778407  0.58576622  0.75006699  1
  O2-  O236  1  0.16824464  0.91883281  -0.00054938  1
  O2-  O237  1  0.16621403  0.91981271  0.25089445  1
  O2-  O238  1  0.16603765  0.92172906  0.50138153  1
  O2-  O239  1  0.16749968  0.92054773  0.74916857  1
  O2-  O240  1  0.66645145  0.25210691  0.00033137  1
  O2-  O241  1  0.66715732  0.25077367  0.24939892  1
  O2-  O242  1  0.66594570  0.25381785  0.50012172  1
  O2-  O243  1  0.66753054  0.25228026  0.74906388  1
  O2-  O244  1  0.66793960  0.58660862  -0.00014911  1
  O2-  O245  1  0.66635994  0.58645470  0.25137449  1
  O2-  O246  1  0.66698801  0.58754491  0.50015005  1
  O2-  O247  1  0.66732601  0.58737428  0.74969289  1
  O2-  O248  1  0.66763971  0.91842100  0.00053223  1
  O2-  O249  1  0.66788756  0.91919008  0.24982506  1
  O2-  O250  1  0.66605069  0.91942465  0.49995884  1
  O2-  O251  1  0.66754131  0.91899001  0.75029073  1
  O2-  O252  1  0.33331056  0.07916690  -0.00003086  1
  O2-  O253  1  0.33289436  0.08107116  0.25030761  1
  O2-  O254  1  0.33348294  0.08008682  0.50042238  1
  O2-  O255  1  0.33060005  0.08119624  0.74977161  1
  O2-  O256  1  0.33372526  0.41505025  -0.00116209  1
  O2-  O257  1  0.33341489  0.41403409  0.24939074  1
  O2-  O258  1  0.33173588  0.41372808  0.50011682  1
  O2-  O259  1  0.33251561  0.41306822  0.75091421  1
  O2-  O260  1  0.33251968  0.74918617  0.00012614  1
  O2-  O261  1  0.33449025  0.74788871  0.25095000  1
  O2-  O262  1  0.33327257  0.74677450  0.50002707  1
  O2-  O263  1  0.33359865  0.74859661  0.74818562  1
  O2-  O264  1  0.83196008  0.07982067  -0.00116303  1
  O2-  O265  1  0.83169126  0.08044619  0.25017395  1
  O2-  O266  1  0.83328018  0.08034049  0.50043571  1
  O2-  O267  1  0.83357463  0.08091904  0.75055503  1
  O2-  O268  1  0.83344662  0.41377211  -0.00007791  1
  O2-  O269  1  0.83407347  0.41399623  0.24999486  1
  O2-  O270  1  0.83597462  0.41266251  0.50041124  1
  O2-  O271  1  0.83246751  0.41248652  0.74911738  1
  O2-  O272  1  0.83206724  0.74841132  -0.00063019  1
  O2-  O273  1  0.83114586  0.74830284  0.25063682  1
  O2-  O274  1  0.83248316  0.74696334  0.50058174  1
  O2-  O275  1  0.83330902  0.74731816  0.74991797  1
  O2-  O276  1  0.95395311  0.56740096  0.77037521  1
  O2-  O277  1  0.95078405  0.09536320  0.98659405  1
  O2-  O278  1  0.45313285  0.89815870  0.75803684  1
  O2-  O279  1  0.53930205  0.10612884  0.72285068  1
  O2-  O280  1  0.45512565  0.56876071  0.71598315  1
  O2-  O281  1  0.95358524  0.42759284  0.51275998  1
  O2-  O282  1  0.04201266  0.10367722  0.49105276  1
  O2-  O283  1  0.04497176  0.09926503  0.23683735  1
  O2-  O284  1  0.04637204  0.23934376  0.51226383  1
  O2-  O285  1  0.54275129  0.22753576  0.22080783  1
  O2-  O286  1  0.95767934  0.56242962  0.51096736  1
  O2-  O287  1  0.45437684  0.43075715  0.73622858  1
  O2-  O288  1  0.04883376  0.09507609  0.51616653  1
  O2-  O289  1  0.45407575  0.42915675  0.01592554  1
  O2-  O290  1  0.45242340  0.09538101  0.23443371  1
  O2-  O291  1  0.04482810  0.75987578  0.76212813  1
  O2-  O292  1  0.45051721  0.76252123  0.51526808  1
  O2-  O293  1  0.45178504  0.23587459  0.23791186  1
  O2-  O294  1  0.54474562  0.56734799  0.48730234  1
  O2-  O295  1  0.45428058  0.09959157  0.51487461  1
  O2-  O296  1  0.54690326  0.76611436  0.48677562  1
  O2-  O297  1  0.54549220  0.76368713  0.98589365  1
  O2-  O298  1  0.47319868  0.54362806  0.97740924  1
  O2-  O299  1  0.45876604  0.22258500  0.77908333  1
  O2-  O300  1  0.04567524  0.90354897  0.73911117  1
  O2-  O301  1  0.45333489  0.90257019  0.01531527  1
  O2-  O302  1  0.04563495  0.43097493  0.98385144  1
  O2-  O303  1  0.04850403  0.56786553  0.98512346  1
  O2-  O304  1  0.54549003  0.43123960  0.23685132  1
  O2-  O305  1  0.95499243  0.90135236  0.48544214  1
  O2-  O306  1  0.54578835  0.23703709  0.01312373  1
  O2-  O307  1  0.95394208  0.56658547  0.98719223  1
  O2-  O308  1  0.45152347  0.90220096  0.73825695  1
  O2-  O309  1  0.04705179  0.43046314  0.76313090  1
  O2-  O310  1  0.54730465  0.09622321  0.26652792  1
  O2-  O311  1  0.04663860  0.90373528  0.75821113  1
  O2-  O312  1  0.95308224  0.57027727  0.73137984  1
  O2-  O313  1  0.03740215  0.55637746  0.25015916  1
  O2-  O314  1  0.55046733  0.89884071  0.76294161  1
  O2-  O315  1  0.04586550  0.76803334  0.01454575  1
  O2-  O316  1  0.95769836  0.10658564  0.00980909  1
  O2-  O317  1  0.45655945  0.89923556  0.53594577  1
  O2-  O318  1  0.54650509  0.09765013  0.98341054  1
  O2-  O319  1  0.45266172  0.43106685  0.51738873  1
  O2-  O320  1  0.54856189  0.23727861  0.73380629  1
  O2-  O321  1  0.03750764  0.55653782  0.25022715  1
  O2-  O322  1  0.95461391  0.90029127  0.26336312  1
  O2-  O323  1  0.95189890  0.57023760  0.48550679  1
  O2-  O324  1  0.06445334  0.59316857  0.97272323  1
  O2-  O325  1  0.43852368  0.40599033  0.53517371  1
  O2-  O326  1  0.56445304  0.40207935  0.96801977  1
  O2-  O327  1  0.56593844  0.07318967  0.55368015  1
  O2-  O328  1  0.93685945  0.40250967  0.03410260  1
  O2-  O329  1  0.93314624  0.07463006  0.44957434  1
  O2-  O330  1  0.43027083  0.60784195  0.06982706  1
  O2-  O331  1  0.43412325  0.26096152  0.02873035  1
  O2-  O332  1  0.07383980  0.60423454  0.19522778  1
  O2-  O333  1  0.93043672  0.06986370  0.03119597  1
  O2-  O334  1  0.06868119  0.06742933  0.47027382  1
  O2-  O335  1  0.93133392  0.59899155  0.53198651  1
  O2-  O336  1  0.93501999  0.26142251  0.47110169  1
  O2-  O337  1  0.06362912  0.26241187  0.21673746  1
  O2-  O338  1  0.06615601  0.25826247  0.94864296  1
  O2-  O339  1  0.57304230  0.06319656  0.79487619  1
  O2-  O340  1  0.42624929  0.93727838  0.43607853  1
  O2-  O341  1  0.56188970  0.26212123  0.71463821  1
  O2-  O342  1  0.06418692  0.40178932  0.53295219  1
  O2-  O343  1  0.93410895  0.73877267  0.27861506  1
  O2-  O344  1  0.56528459  0.93151118  0.03348623  1
  O2-  O345  1  0.06487108  0.59729229  0.71649759  1
  O2-  O346  1  0.06400399  0.40763977  0.77806890  1
  O2-  O347  1  0.43753555  0.73605403  0.53279204  1
  O2-  O348  1  0.06363086  0.40488589  0.21651254  1
  O2-  O349  1  0.43647036  0.59779239  0.28139570  1
  O2-  O350  1  0.56860075  0.27378674  0.29755287  1
  O2-  O351  1  0.56334188  0.07346259  0.97076941  1
  O2-  O352  1  0.42832824  0.60093331  0.81452993  1
  O2-  O353  1  0.56433719  0.59815360  0.78173255  1
  O2-  O354  1  0.06552833  0.07146217  0.02876149  1
  O2-  O355  1  0.06412918  0.26462626  0.05748486  1
  O2-  O356  1  0.43461790  0.07193483  0.77866833  1
  O2-  O357  1  0.43611563  0.26408284  0.46686273  1
  O2-  O358  1  0.42286432  0.60995819  0.94282067  1
  O2-  O359  1  0.93464275  0.73994495  0.47013751  1
  O2-  O360  1  0.56419776  0.06924385  0.44102908  1
  O2-  O361  1  0.06531339  0.74167450  0.27973106  1
  O2-  O362  1  0.06428149  0.40927405  0.97219444  1
  O2-  O363  1  0.44120014  0.59029794  0.69300371  1
  O2-  O364  1  0.93531296  0.92539828  0.02846302  1
  O2-  O365  1  0.44029633  0.92437114  0.54783610  1
  O2-  O366  1  0.42931149  0.27556560  0.69847405  1
  O2-  O367  1  0.93217106  0.07257124  0.55124378  1
  O2-  O368  1  0.56408347  0.59789326  0.03377140  1
  O2-  O369  1  0.93428634  0.73976357  0.02900681  1
  O2-  O370  1  0.07337823  0.60371145  0.30674560  1
  O2-  O371  1  0.93529056  0.26112184  0.77757597  1
  O2-  O372  1  0.74997815  0.00014279  0.42262158  1
  O2-  O373  1  0.74986495  -0.00059967  0.57879478  1
  O2-  O374  1  0.24994840  0.33316617  0.34500235  1
  O2-  O375  1  0.25015223  0.00126367  0.15667079  1
  O2-  O376  1  0.74984257  0.34017386  0.41555758  1
  O2-  O377  1  0.25002884  0.33455703  0.09723264  1
  O2-  O378  1  0.24992087  0.65913349  0.41637267  1
  O2-  O379  1  0.74996904  0.66936699  0.15835098  1
  O2-  O380  1  0.24972148  0.66614610  0.82810132  1
  O2-  O381  1  0.75008168  0.66952922  0.84891422  1
  O2-  O382  1  0.75018001  -0.00105277  0.07382486  1
  O2-  O383  1  0.75002887  0.00237246  0.67113403  1
  O2-  O384  1  0.24991545  0.66856017  0.92074514  1
  O2-  O385  1  0.74998344  0.33252202  0.16955396  1
  O2-  O386  1  0.74997790  0.33735403  0.59933216  1
  O2-  O387  1  0.74993092  0.33322963  0.32652408  1
  O2-  O388  1  0.75000184  0.00000326  0.32805176  1
  O2-  O389  1  0.75007926  -0.00002082  0.17851201  1
  O2-  O390  1  0.25000677  0.66720295  0.32716252  1
  O2-  O391  1  0.25006657  0.66533083  0.59813019  1
  O2-  O392  1  0.74989611  0.33477797  0.90522685  1
  O2-  O393  1  0.75000648  0.67092167  0.65085050  1
  O2-  O394  1  0.74992698  0.33528141  0.07902821  1
  O2-  O395  1  0.24970015  0.66678095  0.15013565  1
  O2-  O396  1  0.74994495  0.51023195  0.59495533  1
  O2-  O397  1  0.25001004  0.49630556  0.06771987  1
  O2-  O398  1  0.24996345  0.83480236  0.65342510  1
  O2-  O399  1  0.74999997  0.50541170  0.67619604  1
  O2-  O400  1  0.25001888  0.83462373  0.89127205  1
  O2-  O401  1  0.24999438  0.82759678  0.36250368  1
  O2-  O402  1  0.24999001  0.16656928  0.33145492  1
  O2-  O403  1  0.75006863  0.83198292  0.92134657  1
  O2-  O404  1  0.24993902  0.49706150  0.63781914  1
  O2-  O405  1  0.74994179  0.16528967  0.82741039  1
  O2-  O406  1  0.24997340  0.83390735  0.11761739  1
  O2-  O407  1  0.24991449  0.49963309  0.15242269  1
  O2-  O408  1  0.25010484  0.82461651  0.57733468  1
  O2-  O409  1  0.24998640  0.16649133  0.17989706  1
  O2-  O410  1  0.24983594  0.17066141  0.09298920  1
  O2-  O411  1  0.24991574  0.16528749  0.41948750  1
  O2-  O412  1  0.74999866  0.50091372  0.13359924  1
  O2-  O413  1  0.24998440  0.17037008  0.58869364  1
  O2-  O414  1  0.75000950  0.83379807  0.83153156  1
  O2-  O415  1  0.74997594  0.51044522  0.37963602  1
  O2-  O416  1  0.74992778  0.83341786  0.65661143  1
  O2-  O417  1  0.75013138  0.16769605  0.91737712  1
  O2-  O418  1  0.75000535  0.16623067  0.09224907  1
  O2-  O419  1  0.25004427  0.49714751  0.41527537  1
  O2-  O420  1  0.03485222  -0.00429639  0.12942389  1
  O2-  O421  1  0.52821423  0.66732893  0.37142604  1
  O2-  O422  1  0.96841852  -0.00196117  0.36792565  1
  O2-  O423  1  0.02744367  0.00283958  0.87778508  1
  O2-  O424  1  0.46917404  0.00025428  0.87910771  1
  O2-  O425  1  0.96671800  0.33650200  0.87987080  1
  O2-  O426  1  0.52731194  -0.00563654  0.87619632  1
  O2-  O427  1  0.96361005  0.66264939  0.12951944  1
  O2-  O428  1  0.02952860  0.66740722  0.87248810  1
  O2-  O429  1  0.02864129  0.33117137  0.86868267  1
  O2-  O430  1  0.03497284  0.67047000  0.11930767  1
  O2-  O431  1  0.97368272  0.33613981  0.37060665  1
  O2-  O432  1  0.03268631  -0.00509080  0.37015731  1
  O2-  O433  1  0.96700305  -0.00116532  0.13334886  1
  O2-  O434  1  0.03101877  0.66801647  0.38555037  1
  O2-  O435  1  0.97438736  -0.00259172  0.63015520  1
  O2-  O436  1  0.47209000  0.33312876  0.87643998  1
  O2-  O437  1  0.96934326  0.66210824  0.37044961  1
  O2-  O438  1  0.96910543  0.66832285  0.87633979  1
  O2-  O439  1  0.97477795  0.67201537  0.62779629  1
  O2-  O440  1  0.52554143  -0.00491070  0.62847427  1
  O2-  O441  1  0.47442205  0.00356417  0.37016519  1
  O2-  O442  1  0.47804688  0.67615047  0.87433096  1
  O2-  O443  1  0.47470596  0.33700161  0.12829338  1
