# generated using pymatgen
data_La7(Ru4O11)2
_symmetry_space_group_name_H-M   'P 1'
_cell_length_a   23.99036666
_cell_length_b   16.83063331
_cell_length_c   15.42738157
_cell_angle_alpha   89.99880214
_cell_angle_beta   89.99887710
_cell_angle_gamma   90.00146570
_symmetry_Int_Tables_number   1
_chemical_formula_structural   La7(Ru4O11)2
_chemical_formula_sum   'La84 Ru96 O264'
_cell_volume   6229.16112517
_cell_formula_units_Z   12
loop_
 _symmetry_equiv_pos_site_id
 _symmetry_equiv_pos_as_xyz
  1  'x, y, z'
loop_
 _atom_type_symbol
 _atom_type_oxidation_number
  La3+  3.0
  Ru4+  4.0
  O2-  -2.0
loop_
 _atom_site_type_symbol
 _atom_site_label
 _atom_site_symmetry_multiplicity
 _atom_site_fract_x
 _atom_site_fract_y
 _atom_site_fract_z
 _atom_site_occupancy
  La3+  La0  1  0.13562786  0.00214303  0.12158240  1
  La3+  La1  1  0.13367871  -0.00096128  0.37486328  1
  La3+  La2  1  0.13805644  -0.00046825  0.62672743  1
  La3+  La3  1  0.13666471  0.00325778  0.87649919  1
  La3+  La4  1  0.13383171  0.33552288  0.12550197  1
  La3+  La5  1  0.13647330  0.33289343  0.37507834  1
  La3+  La6  1  0.13751786  0.33328166  0.62454604  1
  La3+  La7  1  0.13634008  0.33140347  0.87417498  1
  La3+  La8  1  0.13434788  0.66429833  0.12897172  1
  La3+  La9  1  0.13932167  0.66723231  0.37783510  1
  La3+  La10  1  0.14005267  0.66729141  0.62334216  1
  La3+  La11  1  0.13778449  0.66851791  0.87180506  1
  La3+  La12  1  0.64092396  -0.00144261  0.12605410  1
  La3+  La13  1  0.64213140  -0.00031053  0.37486574  1
  La3+  La14  1  0.64283729  -0.00029336  0.62262845  1
  La3+  La15  1  0.63852329  -0.00025070  0.87567431  1
  La3+  La16  1  0.63758556  0.33204490  0.12554863  1
  La3+  La17  1  0.64168245  0.33264112  0.37520462  1
  La3+  La18  1  0.63938437  0.33148308  0.62643729  1
  La3+  La19  1  0.63935980  0.33065117  0.87330980  1
  La3+  La20  1  0.64177800  0.66937310  0.12595182  1
  La3+  La21  1  0.63857072  0.66761365  0.37514696  1
  La3+  La22  1  0.64180734  0.66657095  0.62559216  1
  La3+  La23  1  0.64426889  0.66849395  0.87590065  1
  La3+  La24  1  0.36362837  0.00201460  0.12271739  1
  La3+  La25  1  0.36496318  0.00037082  0.37581830  1
  La3+  La26  1  0.36064499  -0.00092717  0.62339029  1
  La3+  La27  1  0.36190735  0.00285162  0.87546299  1
  La3+  La28  1  0.36427403  0.33199035  0.12517748  1
  La3+  La29  1  0.36565077  0.33290386  0.37625487  1
  La3+  La30  1  0.36362117  0.33334331  0.62605423  1
  La3+  La31  1  0.36430985  0.33215549  0.87256904  1
  La3+  La32  1  0.36460039  0.66817865  0.12809796  1
  La3+  La33  1  0.36173329  0.66762346  0.37622639  1
  La3+  La34  1  0.36108171  0.66983033  0.62646849  1
  La3+  La35  1  0.36291045  0.66873804  0.87047699  1
  La3+  La36  1  0.86113345  -0.00130819  0.12442868  1
  La3+  La37  1  0.85974162  -0.00041587  0.37769644  1
  La3+  La38  1  0.85844683  -0.00048099  0.62132491  1
  La3+  La39  1  0.86155683  -0.00181845  0.87692533  1
  La3+  La40  1  0.86268884  0.33457665  0.12255721  1
  La3+  La41  1  0.85925406  0.33225672  0.37537922  1
  La3+  La42  1  0.85898821  0.33157220  0.62400322  1
  La3+  La43  1  0.85994843  0.33170423  0.87563511  1
  La3+  La44  1  0.85885048  0.66736910  0.12375474  1
  La3+  La45  1  0.86116302  0.66964088  0.37826773  1
  La3+  La46  1  0.85866421  0.66725103  0.62394538  1
  La3+  La47  1  0.85539827  0.66824614  0.87545252  1
  La3+  La48  1  0.00211361  0.17104230  0.61124445  1
  La3+  La49  1  0.49650319  0.83004717  0.88585375  1
  La3+  La50  1  0.00522684  0.16911419  0.87415741  1
  La3+  La51  1  0.00370102  0.49241563  0.87382925  1
  La3+  La52  1  -0.00136958  0.16575463  0.63234051  1
  La3+  La53  1  0.49725382  0.83661538  0.63342172  1
  La3+  La54  1  0.00083720  0.50155385  0.37949930  1
  La3+  La55  1  0.00470488  0.16757699  0.89105503  1
  La3+  La56  1  0.00065397  0.83506489  0.37016597  1
  La3+  La57  1  0.00063715  0.50048203  0.35686253  1
  La3+  La58  1  -0.00023171  0.16569775  0.11741165  1
  La3+  La59  1  0.49904377  0.49721256  0.61192363  1
  La3+  La60  1  0.50070915  0.16554804  0.87128118  1
  La3+  La61  1  0.50626233  0.49443086  0.87022667  1
  La3+  La62  1  0.49700258  0.82936517  0.86314121  1
  La3+  La63  1  -0.00045086  0.49861632  0.89422040  1
  La3+  La64  1  -0.00269014  0.83368105  0.63125425  1
  La3+  La65  1  0.50051844  0.83183666  0.11968251  1
  La3+  La66  1  0.50326550  0.50236503  0.63300983  1
  La3+  La67  1  0.00048905  0.83437888  0.88633286  1
  La3+  La68  1  -0.00072647  0.50158259  0.61613151  1
  La3+  La69  1  0.49868856  0.49965935  0.11801310  1
  La3+  La70  1  0.00006564  0.83573695  0.13422580  1
  La3+  La71  1  0.49915758  0.83700009  0.36314397  1
  La3+  La72  1  0.25012242  0.78735203  0.55214317  1
  La3+  La73  1  0.24989771  0.84247646  -0.04727580  1
  La3+  La74  1  0.25007323  0.88558717  0.25026605  1
  La3+  La75  1  0.25025298  0.20840016  0.54712619  1
  La3+  La76  1  0.74989428  0.53724519  -0.01677245  1
  La3+  La77  1  0.25011161  0.53504910  0.52628824  1
  La3+  La78  1  0.74977082  0.50347300  0.72574802  1
  La3+  La79  1  0.25033221  0.55007156  0.28666621  1
  La3+  La80  1  0.24978224  0.54109863  0.71501494  1
  La3+  La81  1  0.75014865  0.83219861  0.76426814  1
  La3+  La82  1  0.24910595  0.48861620  -0.04605914  1
  La3+  La83  1  0.24983448  0.16620790  0.19771704  1
  Ru4+  Ru84  1  -0.00449359  -0.00513210  0.00342298  1
  Ru4+  Ru85  1  -0.00034397  0.00106575  0.25091330  1
  Ru4+  Ru86  1  0.00322352  -0.00181204  0.49279084  1
  Ru4+  Ru87  1  -0.00140153  -0.00324920  0.74792159  1
  Ru4+  Ru88  1  0.00180001  0.33306441  0.00464659  1
  Ru4+  Ru89  1  -0.00496558  0.32778527  0.24889154  1
  Ru4+  Ru90  1  0.00011747  0.33315701  0.50072365  1
  Ru4+  Ru91  1  0.00047756  0.33394988  0.74800650  1
  Ru4+  Ru92  1  -0.00071316  0.66540747  0.00030937  1
  Ru4+  Ru93  1  -0.00110070  0.66807905  0.24963129  1
  Ru4+  Ru94  1  0.00360210  0.66438489  0.49953508  1
  Ru4+  Ru95  1  -0.00182158  0.66779849  0.74890557  1
  Ru4+  Ru96  1  0.49931947  0.00457425  -0.00092144  1
  Ru4+  Ru97  1  0.50210655  0.00305340  0.25444146  1
  Ru4+  Ru98  1  0.49809730  0.00208566  0.50148332  1
  Ru4+  Ru99  1  0.50025496  0.00062082  0.74659284  1
  Ru4+  Ru100  1  0.50216379  0.32825856  0.00574579  1
  Ru4+  Ru101  1  0.49987538  0.32398110  0.25424990  1
  Ru4+  Ru102  1  0.49980222  0.32663814  0.49674973  1
  Ru4+  Ru103  1  0.50356545  0.32499738  0.74686162  1
  Ru4+  Ru104  1  0.49865892  0.66848363  -0.00205572  1
  Ru4+  Ru105  1  0.50307563  0.65806583  0.25421223  1
  Ru4+  Ru106  1  0.49375480  0.65774274  0.49583730  1
  Ru4+  Ru107  1  0.50516553  0.66020179  0.74800425  1
  Ru4+  Ru108  1  0.11708430  0.16855366  0.00123058  1
  Ru4+  Ru109  1  0.11113313  0.16388759  0.24952599  1
  Ru4+  Ru110  1  0.11109686  0.16889254  0.49701320  1
  Ru4+  Ru111  1  0.11359223  0.16619064  0.75167015  1
  Ru4+  Ru112  1  0.11034849  0.49989810  0.00152784  1
  Ru4+  Ru113  1  0.11540071  0.50234547  0.24991061  1
  Ru4+  Ru114  1  0.11027247  0.50065380  0.50123198  1
  Ru4+  Ru115  1  0.11208772  0.49919058  0.74893541  1
  Ru4+  Ru116  1  0.10840716  0.83336614  0.00012750  1
  Ru4+  Ru117  1  0.11028603  0.83437045  0.25038297  1
  Ru4+  Ru118  1  0.11100879  0.83185693  0.49929597  1
  Ru4+  Ru119  1  0.11369438  0.83338468  0.75100598  1
  Ru4+  Ru120  1  0.61253090  0.16911079  0.00070887  1
  Ru4+  Ru121  1  0.60812577  0.16784792  0.25146786  1
  Ru4+  Ru122  1  0.61258279  0.17048531  0.50054992  1
  Ru4+  Ru123  1  0.61427158  0.16917503  0.74824138  1
  Ru4+  Ru124  1  0.61355507  0.49779332  -0.00053274  1
  Ru4+  Ru125  1  0.61271106  0.49456252  0.25198805  1
  Ru4+  Ru126  1  0.61369829  0.50164728  0.49975689  1
  Ru4+  Ru127  1  0.61284237  0.50005929  0.74975138  1
  Ru4+  Ru128  1  0.61656021  0.83203906  0.00120651  1
  Ru4+  Ru129  1  0.61527649  0.83363139  0.24988632  1
  Ru4+  Ru130  1  0.61834877  0.83837924  0.50100555  1
  Ru4+  Ru131  1  0.61491565  0.83316908  0.74874059  1
  Ru4+  Ru132  1  0.38816752  0.16342891  -0.00086139  1
  Ru4+  Ru133  1  0.39263810  0.16783264  0.24988865  1
  Ru4+  Ru134  1  0.39260303  0.16721279  0.50082974  1
  Ru4+  Ru135  1  0.38635173  0.16817798  0.74882144  1
  Ru4+  Ru136  1  0.38923717  0.49799253  0.00074406  1
  Ru4+  Ru137  1  0.39043339  0.50079943  0.24904680  1
  Ru4+  Ru138  1  0.38950908  0.50184663  0.49921168  1
  Ru4+  Ru139  1  0.38439615  0.50395553  0.74996278  1
  Ru4+  Ru140  1  0.38968537  0.83410555  0.00113501  1
  Ru4+  Ru141  1  0.38644726  0.83805501  0.24919371  1
  Ru4+  Ru142  1  0.38879131  0.83323342  0.49958412  1
  Ru4+  Ru143  1  0.38191456  0.83667759  0.74941622  1
  Ru4+  Ru144  1  0.88537729  0.16794222  0.00039319  1
  Ru4+  Ru145  1  0.88950327  0.16669234  0.24958903  1
  Ru4+  Ru146  1  0.88253223  0.17082670  0.49932626  1
  Ru4+  Ru147  1  0.88503026  0.16832460  0.74980107  1
  Ru4+  Ru148  1  0.88619382  0.50372395  0.00264664  1
  Ru4+  Ru149  1  0.88677645  0.49902417  0.25027109  1
  Ru4+  Ru150  1  0.88679530  0.50179845  0.50048736  1
  Ru4+  Ru151  1  0.88630683  0.49980857  0.74747270  1
  Ru4+  Ru152  1  0.88580783  0.83527203  0.00073091  1
  Ru4+  Ru153  1  0.88482324  0.83377316  0.24944189  1
  Ru4+  Ru154  1  0.88471667  0.83829725  0.49814914  1
  Ru4+  Ru155  1  0.88789611  0.83296067  0.74973504  1
  Ru4+  Ru156  1  0.24998638  0.23928949  0.75356310  1
  Ru4+  Ru157  1  0.74995336  0.24584014  0.25086822  1
  Ru4+  Ru158  1  0.24995548  0.07311774  0.51293190  1
  Ru4+  Ru159  1  0.75056606  0.75175934  0.49207181  1
  Ru4+  Ru160  1  0.24969005  0.72586514  0.25890394  1
  Ru4+  Ru161  1  0.74966022  0.08747950  0.00123726  1
  Ru4+  Ru162  1  0.74982708  0.41831202  0.50724430  1
  Ru4+  Ru163  1  0.24973201  0.04093214  0.23402533  1
  Ru4+  Ru164  1  0.25019832  0.41055671  0.24691668  1
  Ru4+  Ru165  1  0.24974020  0.95687808  0.01484053  1
  Ru4+  Ru166  1  0.25013423  0.09374268  0.74902999  1
  Ru4+  Ru167  1  0.74997666  0.39300422  0.00466101  1
  Ru4+  Ru168  1  0.74995411  0.09443913  0.74444907  1
  Ru4+  Ru169  1  0.24995014  0.40010723  0.75009388  1
  Ru4+  Ru170  1  0.24998697  0.39404070  0.49828389  1
  Ru4+  Ru171  1  0.25023723  0.23660437  -0.00783628  1
  Ru4+  Ru172  1  0.24946796  0.72805838  0.01033384  1
  Ru4+  Ru173  1  0.25037470  0.60181742  0.01431638  1
  Ru4+  Ru174  1  0.24990442  0.92842983  0.51359582  1
  Ru4+  Ru175  1  0.75006463  0.58222260  0.23960993  1
  Ru4+  Ru176  1  0.75004937  0.07994540  0.25070106  1
  Ru4+  Ru177  1  0.25046997  0.36605302  -0.00416092  1
  Ru4+  Ru178  1  0.25007903  0.28144658  0.25611044  1
  Ru4+  Ru179  1  0.25006998  0.91025040  0.74809679  1
  O2-  O180  1  0.16546533  0.08122975  0.00204561  1
  O2-  O181  1  0.16553535  0.07886607  0.24891463  1
  O2-  O182  1  0.16591648  0.07924685  0.50205226  1
  O2-  O183  1  0.16790609  0.08066164  0.74876243  1
  O2-  O184  1  0.16588821  0.41172903  -0.00072317  1
  O2-  O185  1  0.16689333  0.41262821  0.25049252  1
  O2-  O186  1  0.16716465  0.41200685  0.49993281  1
  O2-  O187  1  0.16755949  0.41326725  0.74921942  1
  O2-  O188  1  0.16475482  0.74448283  0.00032961  1
  O2-  O189  1  0.16674809  0.74582879  0.24893213  1
  O2-  O190  1  0.16573835  0.74769276  0.50063843  1
  O2-  O191  1  0.16594978  0.74743345  0.74966052  1
  O2-  O192  1  0.66857087  0.08103051  -0.00071747  1
  O2-  O193  1  0.66572248  0.08221266  0.25016595  1
  O2-  O194  1  0.66489998  0.08188094  0.49912500  1
  O2-  O195  1  0.66787963  0.08165063  0.75166952  1
  O2-  O196  1  0.66806201  0.41288307  -0.00097917  1
  O2-  O197  1  0.66872945  0.41757156  0.24858970  1
  O2-  O198  1  0.66665812  0.41408468  0.49976047  1
  O2-  O199  1  0.66876264  0.41267102  0.75048692  1
  O2-  O200  1  0.66731098  0.74963374  0.00231310  1
  O2-  O201  1  0.66707057  0.74844633  0.25240382  1
  O2-  O202  1  0.66840448  0.74670683  0.49668347  1
  O2-  O203  1  0.66639303  0.74757887  0.74951021  1
  O2-  O204  1  0.33421114  0.25354037  0.00025316  1
  O2-  O205  1  0.33431522  0.25560896  0.24919842  1
  O2-  O206  1  0.33454153  0.25442092  0.49924029  1
  O2-  O207  1  0.33314091  0.25258518  0.75030362  1
  O2-  O208  1  0.33294410  0.58811375  -0.00106007  1
  O2-  O209  1  0.33577655  0.58844481  0.24911891  1
  O2-  O210  1  0.33637108  0.58622749  0.49917757  1
  O2-  O211  1  0.33162010  0.58807386  0.75233992  1
  O2-  O212  1  0.33502752  0.92269164  0.00056017  1
  O2-  O213  1  0.33813266  0.92260313  0.24917924  1
  O2-  O214  1  0.33360531  0.92059211  0.49970373  1
  O2-  O215  1  0.33194029  0.91912182  0.75064621  1
  O2-  O216  1  0.83231183  0.25237018  -0.00158042  1
  O2-  O217  1  0.83316207  0.25242925  0.24970502  1
  O2-  O218  1  0.83238394  0.25066992  0.49890137  1
  O2-  O219  1  0.83472163  0.25310112  0.75096346  1
  O2-  O220  1  0.83553483  0.58783358  0.00100182  1
  O2-  O221  1  0.83071245  0.58507647  0.25035153  1
  O2-  O222  1  0.83251352  0.58511054  0.49762537  1
  O2-  O223  1  0.83220490  0.58556138  0.75159344  1
  O2-  O224  1  0.83206741  0.91885627  -0.00170132  1
  O2-  O225  1  0.83592646  0.91795745  0.24978595  1
  O2-  O226  1  0.83289701  0.91732006  0.49998239  1
  O2-  O227  1  0.83484788  0.91982465  0.75206918  1
  O2-  O228  1  0.16817917  0.25327927  0.00068839  1
  O2-  O229  1  0.16687393  0.25523096  0.25038695  1
  O2-  O230  1  0.16756267  0.25449677  0.49967353  1
  O2-  O231  1  0.16790791  0.25248733  0.74864196  1
  O2-  O232  1  0.16497100  0.58786320  -0.00000170  1
  O2-  O233  1  0.16565530  0.58818488  0.24842851  1
  O2-  O234  1  0.16530205  0.58671713  0.49917938  1
  O2-  O235  1  0.16551215  0.58860062  0.75061699  1
  O2-  O236  1  0.16523379  0.92248293  0.00126159  1
  O2-  O237  1  0.16331582  0.92299743  0.24800838  1
  O2-  O238  1  0.16704464  0.92070888  0.50200427  1
  O2-  O239  1  0.16834314  0.91827678  0.74942911  1
  O2-  O240  1  0.66802870  0.25131314  -0.00093957  1
  O2-  O241  1  0.66719981  0.25118290  0.24951354  1
  O2-  O242  1  0.66556090  0.25004656  0.50036417  1
  O2-  O243  1  0.66624117  0.25271284  0.75033681  1
  O2-  O244  1  0.66417017  0.58669721  0.00195601  1
  O2-  O245  1  0.66656299  0.58419151  0.25189105  1
  O2-  O246  1  0.66558500  0.58651816  0.49791214  1
  O2-  O247  1  0.66556992  0.58550014  0.75019002  1
  O2-  O248  1  0.66646781  0.91986273  0.00053810  1
  O2-  O249  1  0.66580517  0.91717111  0.25002382  1
  O2-  O250  1  0.66681995  0.92008824  0.49853780  1
  O2-  O251  1  0.66637231  0.91978406  0.75128700  1
  O2-  O252  1  0.33362264  0.08182142  0.00193859  1
  O2-  O253  1  0.33452525  0.07842214  0.24926372  1
  O2-  O254  1  0.33317414  0.08027577  0.49990058  1
  O2-  O255  1  0.33157015  0.08232680  0.75037868  1
  O2-  O256  1  0.33510540  0.41157183  -0.00027068  1
  O2-  O257  1  0.33459617  0.41331705  0.24976353  1
  O2-  O258  1  0.33258545  0.41121962  0.50088252  1
  O2-  O259  1  0.33383772  0.41285283  0.74996557  1
  O2-  O260  1  0.33326733  0.74467710  -0.00049876  1
  O2-  O261  1  0.33241994  0.74694626  0.25112077  1
  O2-  O262  1  0.33500107  0.74717021  0.49854329  1
  O2-  O263  1  0.33169240  0.74798484  0.75056494  1
  O2-  O264  1  0.83120592  0.08040828  -0.00220248  1
  O2-  O265  1  0.83248403  0.08210247  0.25034259  1
  O2-  O266  1  0.83327515  0.08146958  0.49895410  1
  O2-  O267  1  0.83173811  0.08019207  0.75246506  1
  O2-  O268  1  0.83092495  0.41238182  -0.00167917  1
  O2-  O269  1  0.83480552  0.41550758  0.24978424  1
  O2-  O270  1  0.83394573  0.41439504  0.49856768  1
  O2-  O271  1  0.83360551  0.41321885  0.75078113  1
  O2-  O272  1  0.83549412  0.74940470  0.00145937  1
  O2-  O273  1  0.83504794  0.74779382  0.24994783  1
  O2-  O274  1  0.83373956  0.74884754  0.49912426  1
  O2-  O275  1  0.83269341  0.74748160  0.75172983  1
  O2-  O276  1  0.45773039  0.11246761  0.74213744  1
  O2-  O277  1  0.95093673  0.76538207  0.48375631  1
  O2-  O278  1  0.54591021  0.90403636  0.75988766  1
  O2-  O279  1  0.05730180  0.58598529  0.22629973  1
  O2-  O280  1  0.04991491  0.43050743  0.01169340  1
  O2-  O281  1  0.46244069  0.56229451  0.78183266  1
  O2-  O282  1  0.46253787  0.55150427  0.96833451  1
  O2-  O283  1  0.54445488  0.77437128  0.49409828  1
  O2-  O284  1  0.45322870  0.76554419  0.22891253  1
  O2-  O285  1  0.55258370  0.23690017  0.26632213  1
  O2-  O286  1  0.45042507  0.76769165  0.73725833  1
  O2-  O287  1  0.95673086  0.76330132  0.01380333  1
  O2-  O288  1  0.54611847  0.90297104  0.99182304  1
  O2-  O289  1  0.45248168  0.76284141  0.26809171  1
  O2-  O290  1  0.95185236  0.10101235  0.48038498  1
  O2-  O291  1  0.52961156  0.45881340  0.24980001  1
  O2-  O292  1  0.95757891  0.55719419  0.78384389  1
  O2-  O293  1  0.04706094  0.09852839  0.98575070  1
  O2-  O294  1  0.45368499  0.23799369  0.98576970  1
  O2-  O295  1  0.44838972  0.76775249  0.48472015  1
  O2-  O296  1  0.04810820  0.56980185  0.73142477  1
  O2-  O297  1  0.54764310  0.76159118  0.73275888  1
  O2-  O298  1  0.54173460  0.10854918  0.74257506  1
  O2-  O299  1  0.45390749  0.56707768  0.23686698  1
  O2-  O300  1  0.95079337  0.23528535  0.26022033  1
  O2-  O301  1  0.44989423  0.23332944  0.48760208  1
  O2-  O302  1  0.95070691  0.09343652  0.51878243  1
  O2-  O303  1  0.94633799  0.90916215  0.01950523  1
  O2-  O304  1  0.04632505  0.57237018  0.01502927  1
  O2-  O305  1  0.96066633  0.11333968  0.78137436  1
  O2-  O306  1  0.94274481  0.41871664  0.02301907  1
  O2-  O307  1  0.44954099  0.23518387  0.24558109  1
  O2-  O308  1  0.95775579  0.54985660  0.21216043  1
  O2-  O309  1  0.45499556  0.43255922  0.48811444  1
  O2-  O310  1  0.44684471  0.24327713  0.76779115  1
  O2-  O311  1  0.45436926  0.42465715  0.76845543  1
  O2-  O312  1  0.45280062  0.23765575  0.24853622  1
  O2-  O313  1  0.54439962  0.77427277  0.49384250  1
  O2-  O314  1  0.54817607  0.23813215  0.74370473  1
  O2-  O315  1  0.04921063  0.09868472  0.49000313  1
  O2-  O316  1  0.04579858  0.76542044  0.73588227  1
  O2-  O317  1  0.45436584  0.90553900  0.23293731  1
  O2-  O318  1  0.04356750  0.22509659  0.28052112  1
  O2-  O319  1  0.45226530  0.42857466  0.72975502  1
  O2-  O320  1  0.54540299  0.09213089  0.26435004  1
  O2-  O321  1  0.04740585  0.43354675  0.23439873  1
  O2-  O322  1  0.54980580  0.24021969  0.76039506  1
  O2-  O323  1  0.54921793  0.23245952  0.51195764  1
  O2-  O324  1  0.06243851  0.40517376  0.22793150  1
  O2-  O325  1  0.43547629  0.06836551  0.53098514  1
  O2-  O326  1  0.92835525  0.61134775  0.30762759  1
  O2-  O327  1  0.56616235  0.25806382  0.02531705  1
  O2-  O328  1  0.56495707  0.40642701  0.72274632  1
  O2-  O329  1  0.05559562  0.58341270  0.22523708  1
  O2-  O330  1  0.94453076  0.41838495  0.02294930  1
  O2-  O331  1  0.56613765  0.07415943  0.97496077  1
  O2-  O332  1  0.56702387  0.58910251  0.95165669  1
  O2-  O333  1  0.56455176  0.74054683  0.22575352  1
  O2-  O334  1  0.06156696  0.59561551  0.53496160  1
  O2-  O335  1  0.57495394  0.71723331  0.54354935  1
  O2-  O336  1  0.92905931  0.60822336  0.69084068  1
  O2-  O337  1  0.93744428  0.25851105  0.03268255  1
  O2-  O338  1  0.06635848  0.40754479  0.77727878  1
  O2-  O339  1  0.06051973  0.07470779  0.96509719  1
  O2-  O340  1  0.94183293  0.91470191  0.02306575  1
  O2-  O341  1  0.43548363  0.74307401  0.02799719  1
  O2-  O342  1  0.06379093  0.92564461  0.27461543  1
  O2-  O343  1  0.42486078  0.60189189  0.04746157  1
  O2-  O344  1  0.43596860  0.74200234  0.72137985  1
  O2-  O345  1  0.06421487  0.92554626  0.47424050  1
  O2-  O346  1  0.56666368  0.41085091  0.05611114  1
  O2-  O347  1  0.93480147  0.07279626  0.22500785  1
  O2-  O348  1  0.57793666  0.37968795  0.29503514  1
  O2-  O349  1  0.06440296  0.26522592  0.46691345  1
  O2-  O350  1  0.06469953  0.25673559  0.77936168  1
  O2-  O351  1  0.93470872  0.25915528  0.52751082  1
  O2-  O352  1  0.92369640  0.05927941  0.69960840  1
  O2-  O353  1  0.43532802  0.07280523  0.97554097  1
  O2-  O354  1  0.93400584  0.07619029  0.02863792  1
  O2-  O355  1  0.42433722  0.60262510  0.69990076  1
  O2-  O356  1  0.93615158  0.59883055  0.03253064  1
  O2-  O357  1  0.06402796  0.74209250  0.47138633  1
  O2-  O358  1  0.93735460  0.74200101  0.71651399  1
  O2-  O359  1  0.56318295  0.93071437  0.21545670  1
  O2-  O360  1  0.06266099  0.92726835  0.78257232  1
  O2-  O361  1  0.93868435  0.59669600  0.53251648  1
  O2-  O362  1  0.07141308  0.26383483  0.20919359  1
  O2-  O363  1  0.56414018  0.74155977  0.97317791  1
  O2-  O364  1  0.06404727  0.07304162  0.78364004  1
  O2-  O365  1  0.56799966  0.58912553  0.04794119  1
  O2-  O366  1  0.56343512  0.40266834  0.93674064  1
  O2-  O367  1  0.93755329  0.92841703  0.46626777  1
  O2-  O368  1  0.93786098  0.73754093  0.46895245  1
  O2-  O369  1  0.06568509  0.25764303  0.97066171  1
  O2-  O370  1  0.57877950  0.05271527  0.71466897  1
  O2-  O371  1  0.42585921  0.04829429  0.70938210  1
  O2-  O372  1  0.25008779  0.66625264  0.89123633  1
  O2-  O373  1  0.25002864  0.00383706  0.42051006  1
  O2-  O374  1  0.75017325  0.00282699  0.66104281  1
  O2-  O375  1  0.74999860  0.33485611  0.32882940  1
  O2-  O376  1  0.25018400  -0.00016770  0.82144981  1
  O2-  O377  1  0.25030225  0.32448886  0.10991830  1
  O2-  O378  1  0.24985287  0.33786893  0.36155930  1
  O2-  O379  1  0.24977801  -0.00055412  0.65584784  1
  O2-  O380  1  0.25002936  0.66653599  0.39565333  1
  O2-  O381  1  0.25016717  0.01235984  0.11443688  1
  O2-  O382  1  0.74966452  0.66502967  0.57776988  1
  O2-  O383  1  0.74986075  0.00406191  0.15591953  1
  O2-  O384  1  0.74990921  0.33722032  0.59138530  1
  O2-  O385  1  0.24962714  0.66310521  0.59956251  1
  O2-  O386  1  0.74999555  0.66780893  0.66929085  1
  O2-  O387  1  0.25033328  0.32770946  0.64719834  1
  O2-  O388  1  0.75043290  0.66417664  0.90427859  1
  O2-  O389  1  0.75009847  0.33192049  0.41969967  1
  O2-  O390  1  0.25021889  0.01454054  0.91290393  1
  O2-  O391  1  0.24991131  0.66906049  0.12268975  1
  O2-  O392  1  0.75003601  0.66277411  0.16032017  1
  O2-  O393  1  0.25038625  0.32898293  0.85220675  1
  O2-  O394  1  0.74994024  0.00498616  0.34193490  1
  O2-  O395  1  0.25020690  -0.01804117  0.33448773  1
  O2-  O396  1  0.25001686  0.17064281  0.90362724  1
  O2-  O397  1  0.24991706  0.49173227  0.16655973  1
  O2-  O398  1  0.24980196  0.16037418  0.42128174  1
  O2-  O399  1  0.75015951  0.16226280  0.66381683  1
  O2-  O400  1  0.24990845  0.84865748  0.42953549  1
  O2-  O401  1  0.74983997  0.84063282  0.55491493  1
  O2-  O402  1  0.75000188  0.82863453  0.34897548  1
  O2-  O403  1  0.24991914  0.83299264  0.83199194  1
  O2-  O404  1  0.75021929  0.15909202  0.84023991  1
  O2-  O405  1  0.75001053  0.83135651  0.63957540  1
  O2-  O406  1  0.25003481  0.84337960  0.08867858  1
  O2-  O407  1  0.25020771  0.50402639  0.08394222  1
  O2-  O408  1  0.25010984  0.16552286  0.07363957  1
  O2-  O409  1  0.75008216  0.16827342  0.07622429  1
  O2-  O410  1  0.75003864  0.16640410  0.17091551  1
  O2-  O411  1  0.25029616  0.80001669  0.16446038  1
  O2-  O412  1  0.24987944  0.80545121  0.34746958  1
  O2-  O413  1  0.25006390  0.49397484  0.83193823  1
  O2-  O414  1  0.25005615  0.48628002  0.40104837  1
  O2-  O415  1  0.25005461  0.16572642  0.33313276  1
  O2-  O416  1  0.75002026  0.49505395  0.11863771  1
  O2-  O417  1  0.75010691  0.49297075  0.85657435  1
  O2-  O418  1  0.74981010  0.83515774  0.88464457  1
  O2-  O419  1  0.75004166  0.49789606  0.58274969  1
  O2-  O420  1  0.02311924  0.32983998  0.12070057  1
  O2-  O421  1  0.97234134  -0.00222606  0.87518141  1
  O2-  O422  1  0.47113095  0.66936913  0.13272541  1
  O2-  O423  1  0.45728276  0.67175019  0.87915714  1
  O2-  O424  1  0.47789060  0.66641888  0.61572983  1
  O2-  O425  1  0.02254078  0.00674657  0.37157347  1
  O2-  O426  1  0.52467409  -0.00622110  0.61803464  1
  O2-  O427  1  0.97238244  0.33880353  0.37569656  1
  O2-  O428  1  0.97847574  -0.00923353  0.61855602  1
  O2-  O429  1  0.53678779  0.66804898  0.85885104  1
  O2-  O430  1  0.04307157  0.33354454  0.62344596  1
  O2-  O431  1  0.95887682  0.33963065  0.63422829  1
  O2-  O432  1  0.52454771  0.33547314  0.61685716  1
  O2-  O433  1  0.02917070  0.66884098  0.87541379  1
  O2-  O434  1  0.02623986  0.66184906  0.37182291  1
  O2-  O435  1  0.47288421  0.33614423  0.37406100  1
  O2-  O436  1  0.52131919  0.33346915  0.13437165  1
  O2-  O437  1  0.45959480  -0.00651051  0.86719003  1
  O2-  O438  1  0.98151854  -0.00481644  0.13002802  1
  O2-  O439  1  0.52894330  0.66848097  0.12747552  1
  O2-  O440  1  0.47215452  -0.00126155  0.37596904  1
  O2-  O441  1  0.01859321  0.33709159  0.87712403  1
  O2-  O442  1  0.53933553  -0.00186149  0.86816392  1
  O2-  O443  1  0.47416019  0.66413446  0.37403170  1
