# generated using pymatgen
data_La7(Ru4O11)2
_symmetry_space_group_name_H-M   'P 1'
_cell_length_a   23.99548477
_cell_length_b   16.83475855
_cell_length_c   15.43260176
_cell_angle_alpha   89.99779374
_cell_angle_beta   89.99636006
_cell_angle_gamma   90.00011112
_symmetry_Int_Tables_number   1
_chemical_formula_structural   La7(Ru4O11)2
_chemical_formula_sum   'La84 Ru96 O264'
_cell_volume   6234.12589337
_cell_formula_units_Z   12
loop_
 _symmetry_equiv_pos_site_id
 _symmetry_equiv_pos_as_xyz
  1  'x, y, z'
loop_
 _atom_type_symbol
 _atom_type_oxidation_number
  La3+  3.0
  Ru4+  4.0
  O2-  -2.0
loop_
 _atom_site_type_symbol
 _atom_site_label
 _atom_site_symmetry_multiplicity
 _atom_site_fract_x
 _atom_site_fract_y
 _atom_site_fract_z
 _atom_site_occupancy
  La3+  La0  1  0.14193843  0.00315276  0.12733812  1
  La3+  La1  1  0.14202563  -0.00030248  0.37241077  1
  La3+  La2  1  0.14208810  0.00431948  0.62391814  1
  La3+  La3  1  0.14598940  0.00722925  0.87233175  1
  La3+  La4  1  0.14780548  0.32428464  0.12576340  1
  La3+  La5  1  0.13722791  0.33694891  0.37700634  1
  La3+  La6  1  0.15090132  0.33798227  0.63188253  1
  La3+  La7  1  0.13765710  0.33808389  0.87263370  1
  La3+  La8  1  0.14449602  0.67028909  0.12054421  1
  La3+  La9  1  0.14678738  0.66975634  0.38020358  1
  La3+  La10  1  0.13528819  0.66648440  0.62349155  1
  La3+  La11  1  0.13241344  0.66126867  0.87798327  1
  La3+  La12  1  0.63814354  -0.00430676  0.12325607  1
  La3+  La13  1  0.64658723  0.00719238  0.36913722  1
  La3+  La14  1  0.64065854  -0.00740174  0.62542620  1
  La3+  La15  1  0.64295420  -0.00271574  0.87506902  1
  La3+  La16  1  0.64006272  0.33587552  0.12670379  1
  La3+  La17  1  0.63548485  0.33125049  0.37421100  1
  La3+  La18  1  0.64903713  0.33511471  0.62833905  1
  La3+  La19  1  0.64101716  0.33564109  0.87400171  1
  La3+  La20  1  0.64961122  0.67014055  0.12360165  1
  La3+  La21  1  0.63564528  0.66350372  0.37306394  1
  La3+  La22  1  0.64768308  0.66342355  0.62819607  1
  La3+  La23  1  0.64830860  0.66588199  0.87643141  1
  La3+  La24  1  0.35713112  0.00215698  0.12849421  1
  La3+  La25  1  0.35093993  -0.00393182  0.37417836  1
  La3+  La26  1  0.35681216  0.00455522  0.62154873  1
  La3+  La27  1  0.36214922  0.00721320  0.87450569  1
  La3+  La28  1  0.35884154  0.32914561  0.12277554  1
  La3+  La29  1  0.35343473  0.33740053  0.37553224  1
  La3+  La30  1  0.34881592  0.33439840  0.62925948  1
  La3+  La31  1  0.35351383  0.33736222  0.87384505  1
  La3+  La32  1  0.36976878  0.66453227  0.12783653  1
  La3+  La33  1  0.35989546  0.66142546  0.37746578  1
  La3+  La34  1  0.35828440  0.66788105  0.61847317  1
  La3+  La35  1  0.36026958  0.66044052  0.87473018  1
  La3+  La36  1  0.85261785  0.01198778  0.13410921  1
  La3+  La37  1  0.85620624  -0.00391093  0.37762096  1
  La3+  La38  1  0.86775418  -0.00307683  0.62840483  1
  La3+  La39  1  0.85499460  -0.00710887  0.87871232  1
  La3+  La40  1  0.86537954  0.33404131  0.12218693  1
  La3+  La41  1  0.85227175  0.33325055  0.37316643  1
  La3+  La42  1  0.85169350  0.33603554  0.62669689  1
  La3+  La43  1  0.86076762  0.33396503  0.87217711  1
  La3+  La44  1  0.86332800  0.66487560  0.11831230  1
  La3+  La45  1  0.86605853  0.66589055  0.37050431  1
  La3+  La46  1  0.85719297  0.66682442  0.63316231  1
  La3+  La47  1  0.86090497  0.66516282  0.87320898  1
  La3+  La48  1  -0.00083920  0.51489774  0.86557960  1
  La3+  La49  1  0.49591188  0.48847895  0.86646149  1
  La3+  La50  1  0.49851227  0.50631553  0.63781474  1
  La3+  La51  1  0.50116682  0.16378961  0.12899769  1
  La3+  La52  1  0.49811881  0.82863801  0.88439142  1
  La3+  La53  1  0.00061187  0.83225757  0.37672213  1
  La3+  La54  1  -0.00293701  0.83689298  0.12479320  1
  La3+  La55  1  0.00545774  0.16091360  0.64506337  1
  La3+  La56  1  0.49243064  0.16865515  0.37913262  1
  La3+  La57  1  -0.00114428  0.16179045  0.38382965  1
  La3+  La58  1  0.50788649  0.83336099  0.14385924  1
  La3+  La59  1  0.50228488  0.51009070  0.12053151  1
  La3+  La60  1  0.49888434  0.49790517  0.61734787  1
  La3+  La61  1  0.49699406  0.50096166  0.37032587  1
  La3+  La62  1  0.50035044  0.16265566  0.10650250  1
  La3+  La63  1  0.51508715  0.16021316  0.64044770  1
  La3+  La64  1  0.49897381  0.83764651  0.38976714  1
  La3+  La65  1  0.50646798  0.83556510  0.12749428  1
  La3+  La66  1  0.00694819  0.15910618  0.87841232  1
  La3+  La67  1  -0.00330625  0.50000264  0.63932081  1
  La3+  La68  1  0.49274651  0.82953722  0.64352466  1
  La3+  La69  1  0.51711756  0.15772932  0.62440329  1
  La3+  La70  1  0.00050570  0.50273630  0.36773422  1
  La3+  La71  1  -0.00215116  0.16603832  0.36151265  1
  La3+  La72  1  0.25183476  0.89769714  0.75554073  1
  La3+  La73  1  0.75046238  0.17451079  0.25200453  1
  La3+  La74  1  0.75080994  0.83696277  0.52811541  1
  La3+  La75  1  0.24973103  0.16702484  0.49696113  1
  La3+  La76  1  0.24943997  0.17259633  0.76306673  1
  La3+  La77  1  0.74694810  0.17486528  -0.01754361  1
  La3+  La78  1  0.25102818  0.52831889  0.00299888  1
  La3+  La79  1  0.24930281  0.82093617  0.06964253  1
  La3+  La80  1  0.75026308  0.21849298  0.73522548  1
  La3+  La81  1  0.75038462  0.50025700  -0.00547572  1
  La3+  La82  1  0.24959523  0.49292643  0.50860316  1
  La3+  La83  1  0.75093537  0.44415810  0.53656439  1
  Ru4+  Ru84  1  0.00518944  -0.00374779  -0.01771770  1
  Ru4+  Ru85  1  -0.00330915  0.00778015  0.24470075  1
  Ru4+  Ru86  1  0.00264534  -0.00552878  0.50731400  1
  Ru4+  Ru87  1  -0.00237445  -0.01454741  0.75873656  1
  Ru4+  Ru88  1  -0.00721626  0.33563324  0.00713144  1
  Ru4+  Ru89  1  0.00095560  0.33150064  0.25558346  1
  Ru4+  Ru90  1  -0.00947030  0.32962166  0.50160315  1
  Ru4+  Ru91  1  -0.00726874  0.32442534  0.74215586  1
  Ru4+  Ru92  1  0.00540104  0.68003237  -0.00409961  1
  Ru4+  Ru93  1  0.00230808  0.65412499  0.23618451  1
  Ru4+  Ru94  1  -0.00021320  0.66931787  0.49406840  1
  Ru4+  Ru95  1  -0.00592471  0.66685410  0.75412329  1
  Ru4+  Ru96  1  0.49776610  0.00061119  -0.00343203  1
  Ru4+  Ru97  1  0.49324830  -0.00020282  0.25489838  1
  Ru4+  Ru98  1  0.50701252  -0.01152055  0.49780460  1
  Ru4+  Ru99  1  0.50193318  0.00090025  0.75151804  1
  Ru4+  Ru100  1  0.49534752  0.32445221  -0.01133807  1
  Ru4+  Ru101  1  0.49890687  0.33321621  0.25788983  1
  Ru4+  Ru102  1  0.49473496  0.32993199  0.48681217  1
  Ru4+  Ru103  1  0.49643156  0.32070080  0.76296575  1
  Ru4+  Ru104  1  0.49505910  0.66264753  0.00130916  1
  Ru4+  Ru105  1  0.50304321  0.67104990  0.25149820  1
  Ru4+  Ru106  1  0.49894260  0.66997401  0.50723749  1
  Ru4+  Ru107  1  0.50180335  0.66544618  0.74616811  1
  Ru4+  Ru108  1  0.11817439  0.17245999  0.00473817  1
  Ru4+  Ru109  1  0.11298409  0.16831605  0.24405486  1
  Ru4+  Ru110  1  0.11334709  0.16999531  0.50251615  1
  Ru4+  Ru111  1  0.10847442  0.16682012  0.74932964  1
  Ru4+  Ru112  1  0.10580677  0.49633126  0.01331898  1
  Ru4+  Ru113  1  0.10359237  0.51681289  0.23922445  1
  Ru4+  Ru114  1  0.10880933  0.49907673  0.49795750  1
  Ru4+  Ru115  1  0.11483236  0.50263665  0.74419446  1
  Ru4+  Ru116  1  0.10344630  0.83441901  -0.00387655  1
  Ru4+  Ru117  1  0.11209448  0.83664865  0.25153342  1
  Ru4+  Ru118  1  0.11099278  0.83199662  0.49993621  1
  Ru4+  Ru119  1  0.10534660  0.83159257  0.75085019  1
  Ru4+  Ru120  1  0.60321219  0.16615972  0.00980545  1
  Ru4+  Ru121  1  0.61225581  0.16903753  0.25003271  1
  Ru4+  Ru122  1  0.61017804  0.17078599  0.49549972  1
  Ru4+  Ru123  1  0.61113387  0.16174324  0.76548511  1
  Ru4+  Ru124  1  0.60728109  0.50542359  0.00300734  1
  Ru4+  Ru125  1  0.60698472  0.49904296  0.25112631  1
  Ru4+  Ru126  1  0.61226405  0.49771434  0.49431605  1
  Ru4+  Ru127  1  0.61597755  0.50479568  0.75412101  1
  Ru4+  Ru128  1  0.61280221  0.83411265  0.00179988  1
  Ru4+  Ru129  1  0.61189727  0.82884915  0.25196160  1
  Ru4+  Ru130  1  0.60605884  0.84021582  0.49341478  1
  Ru4+  Ru131  1  0.60964604  0.83590157  0.75235601  1
  Ru4+  Ru132  1  0.39023992  0.17418078  -0.00845146  1
  Ru4+  Ru133  1  0.39002228  0.16545445  0.24681990  1
  Ru4+  Ru134  1  0.39359619  0.16757737  0.49419582  1
  Ru4+  Ru135  1  0.39410650  0.17551035  0.75915104  1
  Ru4+  Ru136  1  0.39319245  0.50379587  -0.00135022  1
  Ru4+  Ru137  1  0.38175268  0.49341480  0.25142036  1
  Ru4+  Ru138  1  0.39033578  0.49546186  0.49840863  1
  Ru4+  Ru139  1  0.37925765  0.50409317  0.75112405  1
  Ru4+  Ru140  1  0.38674078  0.83301738  -0.01203367  1
  Ru4+  Ru141  1  0.38423638  0.83082108  0.24989876  1
  Ru4+  Ru142  1  0.38842832  0.83190555  0.49920648  1
  Ru4+  Ru143  1  0.39368033  0.83131741  0.75437215  1
  Ru4+  Ru144  1  0.89347454  0.16676884  0.00515634  1
  Ru4+  Ru145  1  0.89273448  0.16274460  0.24618483  1
  Ru4+  Ru146  1  0.88927056  0.17365074  0.50077761  1
  Ru4+  Ru147  1  0.89463445  0.17599720  0.74798499  1
  Ru4+  Ru148  1  0.88911753  0.50271904  0.00724042  1
  Ru4+  Ru149  1  0.88786981  0.50226884  0.24903320  1
  Ru4+  Ru150  1  0.89300936  0.50437051  0.49861226  1
  Ru4+  Ru151  1  0.88146134  0.50106314  0.74803013  1
  Ru4+  Ru152  1  0.88623955  0.83549301  0.00083604  1
  Ru4+  Ru153  1  0.88913021  0.83299836  0.24957415  1
  Ru4+  Ru154  1  0.89248538  0.83106335  0.50167182  1
  Ru4+  Ru155  1  0.89067303  0.83636242  0.74617264  1
  Ru4+  Ru156  1  0.25204590  0.95982597  -0.00027642  1
  Ru4+  Ru157  1  0.25018706  0.24687812  0.25158541  1
  Ru4+  Ru158  1  0.75056557  0.10537087  0.50644152  1
  Ru4+  Ru159  1  0.25022968  0.70687125  -0.02372592  1
  Ru4+  Ru160  1  0.74982528  0.71424969  0.45283712  1
  Ru4+  Ru161  1  0.25061993  0.08643176  0.24775364  1
  Ru4+  Ru162  1  0.74983410  0.97337146  0.48196572  1
  Ru4+  Ru163  1  0.74961081  0.02966205  0.03731965  1
  Ru4+  Ru164  1  0.75243300  0.06758241  0.73359709  1
  Ru4+  Ru165  1  0.24882584  0.91935185  0.49807354  1
  Ru4+  Ru166  1  0.75142981  0.57806043  0.48815720  1
  Ru4+  Ru167  1  0.24857807  0.58659577  0.76137700  1
  Ru4+  Ru168  1  0.25068438  0.59841986  0.24141680  1
  Ru4+  Ru169  1  0.25154666  0.10154152  0.00501874  1
  Ru4+  Ru170  1  0.75021465  0.32249643  0.02798521  1
  Ru4+  Ru171  1  0.25100196  0.38057902  -0.00300321  1
  Ru4+  Ru172  1  0.74981371  0.76368245  0.76808114  1
  Ru4+  Ru173  1  0.74969966  0.42847137  0.24609510  1
  Ru4+  Ru174  1  0.24878816  0.72693103  0.73850708  1
  Ru4+  Ru175  1  0.25035245  0.74139097  0.26883252  1
  Ru4+  Ru176  1  0.74969068  0.90507821  0.25500025  1
  Ru4+  Ru177  1  0.24651791  0.39612246  0.23312022  1
  Ru4+  Ru178  1  0.74900393  0.56934072  0.25781090  1
  Ru4+  Ru179  1  0.75121634  0.75820333  0.24776568  1
  O2-  O180  1  0.16750070  0.08221560  0.00062823  1
  O2-  O181  1  0.16989375  0.08366503  0.25396240  1
  O2-  O182  1  0.16511910  0.07840513  0.49603610  1
  O2-  O183  1  0.16275449  0.08297990  0.74411507  1
  O2-  O184  1  0.17175116  0.41597567  -0.00550355  1
  O2-  O185  1  0.15978692  0.41669427  0.24979837  1
  O2-  O186  1  0.16292977  0.41520658  0.49572551  1
  O2-  O187  1  0.16249169  0.41534770  0.75682527  1
  O2-  O188  1  0.17051471  0.74553504  -0.00604009  1
  O2-  O189  1  0.16516904  0.74793124  0.25418815  1
  O2-  O190  1  0.16216115  0.74733768  0.50839731  1
  O2-  O191  1  0.16078238  0.74612831  0.74536471  1
  O2-  O192  1  0.66492076  0.07753687  0.00466453  1
  O2-  O193  1  0.66443260  0.08126008  0.24102000  1
  O2-  O194  1  0.66547559  0.08328827  0.50215213  1
  O2-  O195  1  0.67152985  0.07913197  0.74706544  1
  O2-  O196  1  0.67030954  0.41978724  0.00786794  1
  O2-  O197  1  0.66873558  0.41630414  0.25172488  1
  O2-  O198  1  0.66279443  0.40829630  0.49209743  1
  O2-  O199  1  0.66257209  0.41453725  0.75275393  1
  O2-  O200  1  0.66230548  0.74777622  -0.00104427  1
  O2-  O201  1  0.66641058  0.74683781  0.25649270  1
  O2-  O202  1  0.66247838  0.74937943  0.49563966  1
  O2-  O203  1  0.66303037  0.75033227  0.75311713  1
  O2-  O204  1  0.33505827  0.25261370  0.00370271  1
  O2-  O205  1  0.33058174  0.25198358  0.24893101  1
  O2-  O206  1  0.33542972  0.24821277  0.50047868  1
  O2-  O207  1  0.33223217  0.25099579  0.75094383  1
  O2-  O208  1  0.33744317  0.58643324  0.00467321  1
  O2-  O209  1  0.33293078  0.58609268  0.24614584  1
  O2-  O210  1  0.32920858  0.58672499  0.50022411  1
  O2-  O211  1  0.33091058  0.59088919  0.74807005  1
  O2-  O212  1  0.33761421  0.92353798  0.00359454  1
  O2-  O213  1  0.33858408  0.91848534  0.24502692  1
  O2-  O214  1  0.33053652  0.91997122  0.49718861  1
  O2-  O215  1  0.34623613  0.92475843  0.75330012  1
  O2-  O216  1  0.83202162  0.25519753  0.00219690  1
  O2-  O217  1  0.83631615  0.25109875  0.24847442  1
  O2-  O218  1  0.83676676  0.25144111  0.49996087  1
  O2-  O219  1  0.83791735  0.25815331  0.75636172  1
  O2-  O220  1  0.82810965  0.58452074  -0.00237760  1
  O2-  O221  1  0.82830947  0.58427509  0.25291388  1
  O2-  O222  1  0.83668914  0.58472706  0.49529874  1
  O2-  O223  1  0.83062786  0.58423531  0.75270078  1
  O2-  O224  1  0.82620739  0.90454741  -0.00829241  1
  O2-  O225  1  0.83305931  0.91556459  0.25111935  1
  O2-  O226  1  0.83299286  0.92264053  0.50606349  1
  O2-  O227  1  0.83673334  0.91437027  0.74628484  1
  O2-  O228  1  0.16981181  0.25043763  -0.00816539  1
  O2-  O229  1  0.16832420  0.25098417  0.25952795  1
  O2-  O230  1  0.16366867  0.25571759  0.49406700  1
  O2-  O231  1  0.16177201  0.25512124  0.75591704  1
  O2-  O232  1  0.16575526  0.58086844  0.00017252  1
  O2-  O233  1  0.17067996  0.58602912  0.24775001  1
  O2-  O234  1  0.16612604  0.58739818  0.50702810  1
  O2-  O235  1  0.16677291  0.58720482  0.74972873  1
  O2-  O236  1  0.17302750  0.92450164  0.00855712  1
  O2-  O237  1  0.16169864  0.91777021  0.25184622  1
  O2-  O238  1  0.16417343  0.91978597  0.49707891  1
  O2-  O239  1  0.15819000  0.92236075  0.74787236  1
  O2-  O240  1  0.66473323  0.25874621  0.00369342  1
  O2-  O241  1  0.66846278  0.25531078  0.24952524  1
  O2-  O242  1  0.65821146  0.25412205  0.49608910  1
  O2-  O243  1  0.65936561  0.25464372  0.75034607  1
  O2-  O244  1  0.67472102  0.58262802  -0.00547951  1
  O2-  O245  1  0.66605868  0.58248988  0.25439268  1
  O2-  O246  1  0.66736829  0.58390490  0.49426551  1
  O2-  O247  1  0.66634007  0.58520244  0.75248450  1
  O2-  O248  1  0.66566229  0.91682589  0.00479175  1
  O2-  O249  1  0.66789499  0.91872286  0.24918171  1
  O2-  O250  1  0.66810506  0.91970236  0.49867701  1
  O2-  O251  1  0.65948329  0.91801636  0.75005427  1
  O2-  O252  1  0.33443852  0.08611138  0.00213664  1
  O2-  O253  1  0.33447752  0.08298641  0.24914647  1
  O2-  O254  1  0.33258039  0.08641518  0.50377068  1
  O2-  O255  1  0.33934144  0.08682799  0.75443468  1
  O2-  O256  1  0.33207580  0.41646473  0.00525999  1
  O2-  O257  1  0.32914889  0.41202308  0.24264137  1
  O2-  O258  1  0.33519204  0.41368155  0.49790505  1
  O2-  O259  1  0.33437305  0.41629866  0.75151168  1
  O2-  O260  1  0.32904526  0.74036759  0.00508748  1
  O2-  O261  1  0.33480261  0.74159432  0.25359317  1
  O2-  O262  1  0.34046960  0.74628000  0.49683168  1
  O2-  O263  1  0.33681928  0.74543229  0.74785311  1
  O2-  O264  1  0.82792440  0.08024353  0.00302997  1
  O2-  O265  1  0.83196376  0.08568354  0.25555225  1
  O2-  O266  1  0.83445455  0.08560342  0.50303603  1
  O2-  O267  1  0.83706122  0.08230647  0.74406988  1
  O2-  O268  1  0.82944656  0.41614336  0.00424537  1
  O2-  O269  1  0.83282819  0.41832039  0.24710614  1
  O2-  O270  1  0.84080506  0.41162239  0.49307061  1
  O2-  O271  1  0.83526156  0.41459040  0.75361616  1
  O2-  O272  1  0.83679417  0.74709349  0.00163901  1
  O2-  O273  1  0.83472663  0.74679455  0.25087044  1
  O2-  O274  1  0.83329841  0.74552306  0.49580379  1
  O2-  O275  1  0.83387296  0.75184310  0.75644243  1
  O2-  O276  1  0.05793307  0.09049495  0.24611606  1
  O2-  O277  1  0.45145606  0.77063132  0.03793609  1
  O2-  O278  1  0.54233302  0.09806268  0.26067659  1
  O2-  O279  1  0.04993989  0.10039211  0.51418020  1
  O2-  O280  1  0.94526422  0.08379876  0.51608970  1
  O2-  O281  1  0.04090609  0.56597267  0.49935852  1
  O2-  O282  1  0.53276551  0.87928164  0.53275677  1
  O2-  O283  1  0.95011853  0.42573359  0.76338805  1
  O2-  O284  1  0.04720183  0.76741590  0.49680758  1
  O2-  O285  1  0.45499970  0.23988644  0.69421382  1
  O2-  O286  1  0.45583824  0.57174774  0.25120899  1
  O2-  O287  1  0.97344074  0.21963825  0.52777214  1
  O2-  O288  1  0.05336100  0.57753056  0.74425391  1
  O2-  O289  1  0.03434532  0.42507261  0.95671308  1
  O2-  O290  1  0.94480764  0.75235868  0.99854383  1
  O2-  O291  1  0.04541547  0.89462733  0.75926454  1
  O2-  O292  1  0.02908194  0.45113600  -0.01778220  1
  O2-  O293  1  0.54953460  0.75390485  0.49557069  1
  O2-  O294  1  0.95592039  0.09335753  0.74800157  1
  O2-  O295  1  0.44807831  0.43569395  0.75433191  1
  O2-  O296  1  0.45385225  0.89241523  0.25414224  1
  O2-  O297  1  0.44718780  0.42241852  0.71792726  1
  O2-  O298  1  0.94647919  0.91325253  0.48104785  1
  O2-  O299  1  0.03343023  0.84028218  0.96601376  1
  O2-  O300  1  0.96586561  0.89638710  0.98147050  1
  O2-  O301  1  0.95968690  0.11853321  0.20407254  1
  O2-  O302  1  0.04166711  0.90140043  0.25855788  1
  O2-  O303  1  0.94788025  0.25092465  1.00500212  1
  O2-  O304  1  0.05297713  0.57591607  0.75415821  1
  O2-  O305  1  0.45336649  0.42873140  0.99750301  1
  O2-  O306  1  0.95849777  0.89836586  -0.01440587  1
  O2-  O307  1  0.97581179  0.10388972  1.01118417  1
  O2-  O308  1  0.95514887  0.76041151  0.26390204  1
  O2-  O309  1  0.55543109  0.91412504  0.24191498  1
  O2-  O310  1  0.05387579  0.24704642  0.23158473  1
  O2-  O311  1  0.45744899  0.10170636  0.75272735  1
  O2-  O312  1  0.46804388  0.09390624  0.53052715  1
  O2-  O313  1  0.02331637  0.50626661  0.22805016  1
  O2-  O314  1  0.46165879  0.24030955  0.54420353  1
  O2-  O315  1  0.95885106  0.43820650  0.49706135  1
  O2-  O316  1  0.05374318  0.42435523  0.74253107  1
  O2-  O317  1  0.55155858  0.42600529  0.73014080  1
  O2-  O318  1  0.53100787  0.55787386  0.96837075  1
  O2-  O319  1  0.94289646  0.57722162  0.75603250  1
  O2-  O320  1  0.94475087  0.24807677  0.00203979  1
  O2-  O321  1  0.94505733  0.25675541  0.23573383  1
  O2-  O322  1  0.04339529  0.19634702  0.00996090  1
  O2-  O323  1  0.94460921  0.25769095  0.81493036  1
  O2-  O324  1  0.07074069  0.62119836  0.18488327  1
  O2-  O325  1  0.93759849  0.58757061  0.01725001  1
  O2-  O326  1  0.08353425  0.90287413  0.09213398  1
  O2-  O327  1  0.43109064  0.27740217  0.41660521  1
  O2-  O328  1  0.56104199  0.25725081  0.26317282  1
  O2-  O329  1  0.57285249  0.94879721  0.42922715  1
  O2-  O330  1  0.06618295  0.74588958  0.07486090  1
  O2-  O331  1  0.92110024  0.24751673  0.65883002  1
  O2-  O332  1  0.93557327  0.58653304  0.76572725  1
  O2-  O333  1  0.06466851  0.27483710  0.03739837  1
  O2-  O334  1  0.91735371  0.06520310  0.96208043  1
  O2-  O335  1  0.43285500  0.58646633  0.24752641  1
  O2-  O336  1  0.93192313  0.28447507  0.41938865  1
  O2-  O337  1  0.43868907  0.41102798  0.28494430  1
  O2-  O338  1  0.44325082  0.76084598  0.04452146  1
  O2-  O339  1  0.56167207  0.25412998  0.76871331  1
  O2-  O340  1  0.41431118  0.08423054  0.41490642  1
  O2-  O341  1  0.41519042  0.76494663  0.88966247  1
  O2-  O342  1  0.55876656  0.92541214  0.04003606  1
  O2-  O343  1  0.95268190  0.24691348  0.80381520  1
  O2-  O344  1  0.06716160  0.73855630  0.92033060  1
  O2-  O345  1  0.56672551  0.40447711  0.99296619  1
  O2-  O346  1  0.90131478  0.93693735  0.06451896  1
  O2-  O347  1  0.56776176  0.08715014  0.82973393  1
  O2-  O348  1  0.58388215  0.59947258  0.06443073  1
  O2-  O349  1  0.93852224  0.74397328  0.71765196  1
  O2-  O350  1  0.55953806  0.58274727  0.51761721  1
  O2-  O351  1  0.94537080  0.92006833  0.47423225  1
  O2-  O352  1  0.56251011  0.59343780  0.78729709  1
  O2-  O353  1  0.55517145  0.41395089  0.48641245  1
  O2-  O354  1  0.08190426  0.57919346  0.33766573  1
  O2-  O355  1  0.43490782  0.92051183  0.51928095  1
  O2-  O356  1  0.44558404  0.27064194  0.07869682  1
  O2-  O357  1  0.93651371  0.92740488  0.70829921  1
  O2-  O358  1  0.43868617  0.07500695  0.97029266  1
  O2-  O359  1  0.43947929  0.25266002  0.93937744  1
  O2-  O360  1  0.08816706  0.40928480  0.08695057  1
  O2-  O361  1  0.06315188  0.59126019  0.97037397  1
  O2-  O362  1  0.08158745  0.94232979  0.94380531  1
  O2-  O363  1  0.93837434  0.73335985  0.52728437  1
  O2-  O364  1  0.58489667  0.08224432  0.68629919  1
  O2-  O365  1  0.93308620  0.40553285  0.03346878  1
  O2-  O366  1  0.44085906  0.58564631  0.51975219  1
  O2-  O367  1  0.93078712  0.59716624  0.24024461  1
  O2-  O368  1  0.93424157  0.04994449  0.32485679  1
  O2-  O369  1  0.44146300  0.25523315  0.22835739  1
  O2-  O370  1  0.42754545  0.28328637  0.80984490  1
  O2-  O371  1  0.06120286  0.39419410  0.72478973  1
  O2-  O372  1  0.75006003  0.66943971  0.33479706  1
  O2-  O373  1  0.75143251  0.66097433  0.16375332  1
  O2-  O374  1  0.24959411  0.32969688  0.66795920  1
  O2-  O375  1  0.74869968  0.67187830  0.70583204  1
  O2-  O376  1  0.74900007  0.32719413  0.82806207  1
  O2-  O377  1  0.25347478  0.00442104  0.87976474  1
  O2-  O378  1  0.74845241  0.31353664  0.57860238  1
  O2-  O379  1  0.75001651  0.34128809  0.15546955  1
  O2-  O380  1  0.75185070  -0.01771130  0.79923253  1
  O2-  O381  1  0.24918642  0.33701548  0.57474452  1
  O2-  O382  1  0.25003059  0.00589997  0.66335635  1
  O2-  O383  1  0.25143465  0.67078360  0.37348717  1
  O2-  O384  1  0.74876140  0.67204685  0.85434332  1
  O2-  O385  1  0.74881850  0.35825265  0.91259847  1
  O2-  O386  1  0.25174904  0.33622699  0.12068590  1
  O2-  O387  1  0.24866748  0.00811895  0.57127050  1
  O2-  O388  1  0.74846139  -0.01424627  0.93342135  1
  O2-  O389  1  0.75075396  0.66657812  0.56969244  1
  O2-  O390  1  0.24758824  0.33614542  0.88762921  1
  O2-  O391  1  0.25188930  0.67507499  0.13625429  1
  O2-  O392  1  0.74853199  0.34323401  0.66687790  1
  O2-  O393  1  0.25129424  0.00275561  0.14280661  1
  O2-  O394  1  0.24939081  0.00886879  0.34696076  1
  O2-  O395  1  0.75010429  -0.00741187  0.34827264  1
  O2-  O396  1  0.25257830  0.86648466  0.92928011  1
  O2-  O397  1  0.24966759  0.48243365  0.72680792  1
  O2-  O398  1  0.25007018  0.51446197  0.64398067  1
  O2-  O399  1  0.25031176  0.17093874  0.34578621  1
  O2-  O400  1  0.74852684  0.81493672  0.86595690  1
  O2-  O401  1  0.24885327  0.16609024  0.63015050  1
  O2-  O402  1  0.74903619  0.20529128  0.45617371  1
  O2-  O403  1  0.24964901  0.15918544  0.10342917  1
  O2-  O404  1  0.25024250  0.83375240  0.20984571  1
  O2-  O405  1  0.74989594  0.82724889  0.35587806  1
  O2-  O406  1  0.74878648  0.51317545  0.64453250  1
  O2-  O407  1  0.25030168  0.15934337  0.90854456  1
  O2-  O408  1  0.24999080  0.49500149  0.28563793  1
  O2-  O409  1  0.74997306  0.50809779  0.37194941  1
  O2-  O410  1  0.74892386  0.82447308  0.66613422  1
  O2-  O411  1  0.24892495  0.77519583  0.84278805  1
  O2-  O412  1  0.25052402  0.79783049  0.65218810  1
  O2-  O413  1  0.75074380  0.14115205  0.85033782  1
  O2-  O414  1  0.74943383  0.15193792  0.61411325  1
  O2-  O415  1  0.24998859  0.49177137  0.37359818  1
  O2-  O416  1  0.74931183  0.83720204  0.15560465  1
  O2-  O417  1  0.75147939  0.14833085  0.11947865  1
  O2-  O418  1  0.74913824  0.14938256  0.38664538  1
  O2-  O419  1  0.25009085  0.82282231  0.52739527  1
  O2-  O420  1  0.97699915  0.66348660  0.88321923  1
  O2-  O421  1  0.48103837  0.65558265  0.86766840  1
  O2-  O422  1  0.54637668  0.67200366  0.63882435  1
  O2-  O423  1  0.51652705  -0.02784259  0.87761365  1
  O2-  O424  1  0.97693692  0.68086081  0.12350411  1
  O2-  O425  1  0.45083955  0.68472454  0.64655442  1
  O2-  O426  1  0.45063652  -0.01223486  0.66065216  1
  O2-  O427  1  0.02685579  0.00118424  0.62908583  1
  O2-  O428  1  0.52625747  0.34396233  0.87581403  1
  O2-  O429  1  0.54818993  0.70551984  0.15723115  1
  O2-  O430  1  0.48133841  -0.01205199  0.37368819  1
  O2-  O431  1  0.04244861  0.03240747  0.85532274  1
  O2-  O432  1  0.47369630  0.00735754  0.12508796  1
  O2-  O433  1  0.47443891  0.66705024  0.37405130  1
  O2-  O434  1  0.52741114  0.33837836  0.37309100  1
  O2-  O435  1  0.98885045  0.35635676  0.61969725  1
  O2-  O436  1  0.46401280  0.63266854  0.11343522  1
  O2-  O437  1  0.02894400  0.01563632  0.12632845  1
  O2-  O438  1  0.54333163  -0.00627261  0.61037574  1
  O2-  O439  1  0.03035567  0.33950906  0.37730099  1
  O2-  O440  1  0.01304164  0.67889984  0.36963124  1
  O2-  O441  1  0.95788442  -0.01517738  0.86012628  1
  O2-  O442  1  0.02901998  0.00551803  0.37950887  1
  O2-  O443  1  0.97128211  -0.00673409  0.12648668  1
