# generated using pymatgen
data_La7(Ru4O11)2
_symmetry_space_group_name_H-M   'P 1'
_cell_length_a   23.99048116
_cell_length_b   16.83075732
_cell_length_c   15.42697004
_cell_angle_alpha   90.00226973
_cell_angle_beta   90.00039311
_cell_angle_gamma   89.99978458
_symmetry_Int_Tables_number   1
_chemical_formula_structural   La7(Ru4O11)2
_chemical_formula_sum   'La84 Ru96 O264'
_cell_volume   6229.07058678
_cell_formula_units_Z   12
loop_
 _symmetry_equiv_pos_site_id
 _symmetry_equiv_pos_as_xyz
  1  'x, y, z'
loop_
 _atom_type_symbol
 _atom_type_oxidation_number
  La3+  3.0
  Ru4+  4.0
  O2-  -2.0
loop_
 _atom_site_type_symbol
 _atom_site_label
 _atom_site_symmetry_multiplicity
 _atom_site_fract_x
 _atom_site_fract_y
 _atom_site_fract_z
 _atom_site_occupancy
  La3+  La0  1  0.14561142  0.00296682  0.12779565  1
  La3+  La1  1  0.14022218  -0.00076828  0.37083996  1
  La3+  La2  1  0.13989940  -0.00278989  0.62445843  1
  La3+  La3  1  0.14275176  0.00166550  0.87833682  1
  La3+  La4  1  0.13844898  0.33061339  0.12619095  1
  La3+  La5  1  0.13790149  0.33254591  0.37176784  1
  La3+  La6  1  0.13786037  0.33311757  0.62692202  1
  La3+  La7  1  0.13626976  0.33007759  0.87609814  1
  La3+  La8  1  0.13367030  0.66490399  0.12683799  1
  La3+  La9  1  0.13574422  0.66807988  0.37355518  1
  La3+  La10  1  0.13906126  0.66749695  0.62388920  1
  La3+  La11  1  0.13875121  0.66876932  0.87114253  1
  La3+  La12  1  0.63698125  -0.00267989  0.12577021  1
  La3+  La13  1  0.63917299  -0.00096351  0.37309314  1
  La3+  La14  1  0.64046628  -0.00043894  0.62598081  1
  La3+  La15  1  0.63857095  -0.00102954  0.87478214  1
  La3+  La16  1  0.64039248  0.33727127  0.12497752  1
  La3+  La17  1  0.64196547  0.33532678  0.37506927  1
  La3+  La18  1  0.64151977  0.33300404  0.62040332  1
  La3+  La19  1  0.63690382  0.33559457  0.87690103  1
  La3+  La20  1  0.64213979  0.66613563  0.12720510  1
  La3+  La21  1  0.63823242  0.66311152  0.37312635  1
  La3+  La22  1  0.63701833  0.66625947  0.62262236  1
  La3+  La23  1  0.63887956  0.66754834  0.87705231  1
  La3+  La24  1  0.35554832  0.00102293  0.12463574  1
  La3+  La25  1  0.35708305  -0.00009046  0.37411700  1
  La3+  La26  1  0.36082358  -0.00108015  0.62485748  1
  La3+  La27  1  0.35819100  0.00113208  0.87717762  1
  La3+  La28  1  0.36326414  0.33281826  0.12714311  1
  La3+  La29  1  0.36313567  0.33265664  0.36986624  1
  La3+  La30  1  0.36241845  0.33260083  0.62652414  1
  La3+  La31  1  0.36116449  0.33064537  0.87724274  1
  La3+  La32  1  0.36413626  0.66593245  0.12728769  1
  La3+  La33  1  0.36206279  0.66821013  0.37490366  1
  La3+  La34  1  0.35973723  0.66491219  0.62418345  1
  La3+  La35  1  0.35827222  0.66178380  0.87460489  1
  La3+  La36  1  0.86337536  -0.00206130  0.12766505  1
  La3+  La37  1  0.86403292  -0.00065139  0.37144497  1
  La3+  La38  1  0.86150085  -0.00104210  0.62381428  1
  La3+  La39  1  0.86131519  -0.00204853  0.87464466  1
  La3+  La40  1  0.86220871  0.33538340  0.12540504  1
  La3+  La41  1  0.85795213  0.33304467  0.37654340  1
  La3+  La42  1  0.85799389  0.33440320  0.62025363  1
  La3+  La43  1  0.86468818  0.33686549  0.87755230  1
  La3+  La44  1  0.85796943  0.66821364  0.12662793  1
  La3+  La45  1  0.86096681  0.66500164  0.37319904  1
  La3+  La46  1  0.86237790  0.66592571  0.62192630  1
  La3+  La47  1  0.86049443  0.66842480  0.87885788  1
  La3+  La48  1  0.00319899  0.48881441  0.36978248  1
  La3+  La49  1  -0.00303180  0.49674922  0.13026252  1
  La3+  La50  1  0.50033283  0.50619778  0.61145929  1
  La3+  La51  1  0.49529492  0.83575486  0.36897188  1
  La3+  La52  1  -0.00108555  0.49762707  0.87168788  1
  La3+  La53  1  0.49816074  0.17427818  0.36325634  1
  La3+  La54  1  0.49995113  0.16595235  0.61695368  1
  La3+  La55  1  0.50049099  0.83522526  0.88028246  1
  La3+  La56  1  0.50058976  0.16842391  0.86131634  1
  La3+  La57  1  0.00341922  0.16507428  0.88336258  1
  La3+  La58  1  0.50113799  0.17151136  0.13769705  1
  La3+  La59  1  0.50384691  0.83483560  0.38688628  1
  La3+  La60  1  0.50408694  0.83626382  0.62570003  1
  La3+  La61  1  -0.00071078  0.16833913  0.61642409  1
  La3+  La62  1  0.50084579  0.83547873  0.87996213  1
  La3+  La63  1  0.49630209  0.16414607  0.11802374  1
  La3+  La64  1  0.49841196  0.50229728  0.86814211  1
  La3+  La65  1  -0.00200198  0.84285523  0.86908201  1
  La3+  La66  1  0.50156817  0.50708941  0.62833849  1
  La3+  La67  1  0.49428319  0.17533231  0.37931652  1
  La3+  La68  1  0.49991636  0.83174214  0.13186817  1
  La3+  La69  1  -0.00095166  0.49786721  0.38884640  1
  La3+  La70  1  0.49960619  0.16740314  0.88251928  1
  La3+  La71  1  0.00008274  0.50091868  0.63388862  1
  La3+  La72  1  0.24944927  0.53304055  0.74921999  1
  La3+  La73  1  0.25019516  0.21536179  0.75916749  1
  La3+  La74  1  0.25008963  0.50067084  0.24909838  1
  La3+  La75  1  0.25005621  0.83624057  0.74313185  1
  La3+  La76  1  0.74978324  0.16726742  0.00061375  1
  La3+  La77  1  0.74991297  0.49484881  0.75011340  1
  La3+  La78  1  0.75010066  0.86788529  0.45864057  1
  La3+  La79  1  0.25017081  0.49623094  0.01341086  1
  La3+  La80  1  0.24995567  0.50714977  0.48165825  1
  La3+  La81  1  0.25017394  0.88944120  -0.00725316  1
  La3+  La82  1  0.24956900  0.11749666  0.50914891  1
  La3+  La83  1  0.24968751  0.83716093  0.47726451  1
  Ru4+  Ru84  1  -0.00172196  -0.00505816  0.00712617  1
  Ru4+  Ru85  1  0.00249540  0.00260875  0.25275797  1
  Ru4+  Ru86  1  -0.00109764  -0.00176755  0.49330839  1
  Ru4+  Ru87  1  -0.00011233  -0.00328370  0.74317414  1
  Ru4+  Ru88  1  0.00030812  0.32906792  0.00161657  1
  Ru4+  Ru89  1  0.00040311  0.32378207  0.24628323  1
  Ru4+  Ru90  1  -0.00008444  0.33244299  0.50076260  1
  Ru4+  Ru91  1  0.00147601  0.33469628  0.75120899  1
  Ru4+  Ru92  1  0.00226948  0.66577346  0.00650207  1
  Ru4+  Ru93  1  -0.00080040  0.67847055  0.24732145  1
  Ru4+  Ru94  1  0.00115262  0.67354592  0.49643862  1
  Ru4+  Ru95  1  -0.00439956  0.65851780  0.74913059  1
  Ru4+  Ru96  1  0.49681867  0.00043170  -0.00489682  1
  Ru4+  Ru97  1  0.49867371  -0.00346479  0.25062907  1
  Ru4+  Ru98  1  0.49841810  -0.00132017  0.50172266  1
  Ru4+  Ru99  1  0.50000834  0.00056323  0.74935689  1
  Ru4+  Ru100  1  0.49622669  0.34032781  0.00077827  1
  Ru4+  Ru101  1  0.50180190  0.34588848  0.24721718  1
  Ru4+  Ru102  1  0.49953860  0.33168256  0.50123569  1
  Ru4+  Ru103  1  0.50229731  0.32890322  0.74971489  1
  Ru4+  Ru104  1  0.50030864  0.66247298  0.00246063  1
  Ru4+  Ru105  1  0.49969193  0.65747735  0.25183785  1
  Ru4+  Ru106  1  0.50496348  0.66055502  0.50068851  1
  Ru4+  Ru107  1  0.50774185  0.67018246  0.74508552  1
  Ru4+  Ru108  1  0.11556114  0.16617107  0.00176629  1
  Ru4+  Ru109  1  0.10818324  0.16474288  0.25132823  1
  Ru4+  Ru110  1  0.11091111  0.16565848  0.50048555  1
  Ru4+  Ru111  1  0.11103470  0.16661686  0.74958789  1
  Ru4+  Ru112  1  0.11002196  0.50108776  -0.00106524  1
  Ru4+  Ru113  1  0.11626537  0.49443656  0.24767134  1
  Ru4+  Ru114  1  0.11082077  0.49724432  0.50204749  1
  Ru4+  Ru115  1  0.10886958  0.50064638  0.74945906  1
  Ru4+  Ru116  1  0.10800301  0.83681247  0.00160468  1
  Ru4+  Ru117  1  0.10978177  0.83635765  0.25126964  1
  Ru4+  Ru118  1  0.11107030  0.83073698  0.49964486  1
  Ru4+  Ru119  1  0.11365409  0.83873427  0.74790672  1
  Ru4+  Ru120  1  0.61341141  0.16328691  -0.00023072  1
  Ru4+  Ru121  1  0.61445044  0.16669154  0.25098483  1
  Ru4+  Ru122  1  0.61407201  0.16852980  0.50149420  1
  Ru4+  Ru123  1  0.60995340  0.16675231  0.75033819  1
  Ru4+  Ru124  1  0.61127162  0.49826832  0.00110320  1
  Ru4+  Ru125  1  0.61401189  0.49974210  0.24902495  1
  Ru4+  Ru126  1  0.61485944  0.50124927  0.49893265  1
  Ru4+  Ru127  1  0.61027716  0.49874837  0.74995516  1
  Ru4+  Ru128  1  0.61614752  0.82956745  -0.00046243  1
  Ru4+  Ru129  1  0.61641042  0.83439077  0.24955574  1
  Ru4+  Ru130  1  0.61075915  0.83372516  0.50108689  1
  Ru4+  Ru131  1  0.61164162  0.83370405  0.75015324  1
  Ru4+  Ru132  1  0.38433945  0.16600215  -0.00131307  1
  Ru4+  Ru133  1  0.38167745  0.16284549  0.25033445  1
  Ru4+  Ru134  1  0.38913949  0.16535885  0.49953735  1
  Ru4+  Ru135  1  0.38989176  0.16684644  0.74876384  1
  Ru4+  Ru136  1  0.39209067  0.49934051  0.00139789  1
  Ru4+  Ru137  1  0.39308925  0.49917516  0.24851636  1
  Ru4+  Ru138  1  0.39087500  0.49978918  0.50079837  1
  Ru4+  Ru139  1  0.38364365  0.49720785  0.75157605  1
  Ru4+  Ru140  1  0.38884235  0.83608750  -0.00017579  1
  Ru4+  Ru141  1  0.38594977  0.83553957  0.24938568  1
  Ru4+  Ru142  1  0.38434570  0.83807757  0.50101057  1
  Ru4+  Ru143  1  0.38724404  0.83238531  0.75026453  1
  Ru4+  Ru144  1  0.89128279  0.16633100  -0.00128065  1
  Ru4+  Ru145  1  0.89167031  0.16452644  0.25121886  1
  Ru4+  Ru146  1  0.88610119  0.16909342  0.50052929  1
  Ru4+  Ru147  1  0.88650964  0.16439248  0.74956092  1
  Ru4+  Ru148  1  0.88717354  0.49773308  -0.00079772  1
  Ru4+  Ru149  1  0.88215067  0.49808355  0.24833485  1
  Ru4+  Ru150  1  0.88415726  0.50024633  0.50118317  1
  Ru4+  Ru151  1  0.89019423  0.49999436  0.75006006  1
  Ru4+  Ru152  1  0.88566733  0.83464735  0.00111717  1
  Ru4+  Ru153  1  0.88622067  0.83583858  0.25173474  1
  Ru4+  Ru154  1  0.89246432  0.83463451  0.50262488  1
  Ru4+  Ru155  1  0.88926501  0.83434091  0.74902227  1
  Ru4+  Ru156  1  0.74994648  0.62712695  0.72040955  1
  Ru4+  Ru157  1  0.75027677  0.09294935  0.24941879  1
  Ru4+  Ru158  1  0.24951477  0.39290501  0.75873562  1
  Ru4+  Ru159  1  0.24992361  0.25280987  0.49576563  1
  Ru4+  Ru160  1  0.74978554  0.75844877  0.75777423  1
  Ru4+  Ru161  1  0.24994667  0.75235924  0.25415886  1
  Ru4+  Ru162  1  0.75044307  0.02768117  0.01698635  1
  Ru4+  Ru163  1  0.24977418  0.62344354  -0.01138616  1
  Ru4+  Ru164  1  0.75046984  0.30796496  -0.02264729  1
  Ru4+  Ru165  1  0.74953628  0.23515392  0.74651670  1
  Ru4+  Ru166  1  0.25043535  0.36372081  -0.00373561  1
  Ru4+  Ru167  1  0.74984031  0.72571602  0.49865441  1
  Ru4+  Ru168  1  0.74962774  0.08802232  0.74895048  1
  Ru4+  Ru169  1  0.24952160  0.24036966  0.24874094  1
  Ru4+  Ru170  1  0.75020080  0.89741370  0.00048848  1
  Ru4+  Ru171  1  0.75032099  0.36263815  0.74209407  1
  Ru4+  Ru172  1  0.75023810  0.09199233  0.50538721  1
  Ru4+  Ru173  1  0.25036268  0.38016658  0.52654962  1
  Ru4+  Ru174  1  0.75008965  0.91924037  0.75914484  1
  Ru4+  Ru175  1  0.25009051  0.07003928  0.74725057  1
  Ru4+  Ru176  1  0.25012459  0.63415117  0.53044298  1
  Ru4+  Ru177  1  0.74998139  0.24083748  0.25106787  1
  Ru4+  Ru178  1  0.74994625  0.57401500  -0.00020266  1
  Ru4+  Ru179  1  0.25030743  0.74865801  0.00032414  1
  O2-  O180  1  0.16624733  0.08490611  -0.00063437  1
  O2-  O181  1  0.16523139  0.08396601  0.25166671  1
  O2-  O182  1  0.16162943  0.07863087  0.50114312  1
  O2-  O183  1  0.16607010  0.08084578  0.74803917  1
  O2-  O184  1  0.16489237  0.41211339  -0.00043086  1
  O2-  O185  1  0.16902569  0.41238723  0.24990981  1
  O2-  O186  1  0.16537775  0.41195082  0.50076900  1
  O2-  O187  1  0.16714717  0.41196420  0.75106249  1
  O2-  O188  1  0.16538762  0.74718168  0.00043648  1
  O2-  O189  1  0.16566757  0.74659198  0.24850199  1
  O2-  O190  1  0.16828739  0.74682756  0.50067276  1
  O2-  O191  1  0.16981509  0.74777014  0.75035588  1
  O2-  O192  1  0.66666039  0.07757241  -0.00014016  1
  O2-  O193  1  0.66897364  0.08014345  0.24994397  1
  O2-  O194  1  0.66971126  0.07981457  0.49809741  1
  O2-  O195  1  0.66856184  0.08000261  0.75112515  1
  O2-  O196  1  0.66682719  0.41494407  -0.00191310  1
  O2-  O197  1  0.66677073  0.41649591  0.25195224  1
  O2-  O198  1  0.66396476  0.41569835  0.49982880  1
  O2-  O199  1  0.66514903  0.41141278  0.75108485  1
  O2-  O200  1  0.66510403  0.74798348  -0.00002772  1
  O2-  O201  1  0.66618065  0.74844805  0.25078973  1
  O2-  O202  1  0.66876809  0.74605607  0.49808864  1
  O2-  O203  1  0.66807750  0.74726988  0.75029306  1
  O2-  O204  1  0.33517110  0.25222373  0.00018638  1
  O2-  O205  1  0.33070200  0.25210736  0.25041258  1
  O2-  O206  1  0.33507224  0.25421084  0.50160120  1
  O2-  O207  1  0.33853719  0.25572962  0.74974385  1
  O2-  O208  1  0.33490340  0.58737642  0.00153031  1
  O2-  O209  1  0.33438890  0.58687860  0.24938871  1
  O2-  O210  1  0.33393932  0.58835749  0.49915506  1
  O2-  O211  1  0.33386969  0.58710634  0.74978010  1
  O2-  O212  1  0.33907318  0.92090617  -0.00004789  1
  O2-  O213  1  0.33564460  0.91844523  0.24903191  1
  O2-  O214  1  0.33348931  0.92041692  0.50035339  1
  O2-  O215  1  0.33483260  0.91842344  0.75028305  1
  O2-  O216  1  0.83458426  0.25396845  -0.00007065  1
  O2-  O217  1  0.83289683  0.25216648  0.24956668  1
  O2-  O218  1  0.83579260  0.25035532  0.49919711  1
  O2-  O219  1  0.83126070  0.25123620  0.75058539  1
  O2-  O220  1  0.83471294  0.58501175  -0.00043178  1
  O2-  O221  1  0.83142797  0.58494010  0.25327733  1
  O2-  O222  1  0.83310545  0.58575545  0.49959630  1
  O2-  O223  1  0.83501056  0.58865938  0.74930826  1
  O2-  O224  1  0.83307481  0.91835848  0.00170947  1
  O2-  O225  1  0.83247705  0.91732345  0.24921695  1
  O2-  O226  1  0.83262869  0.92010523  0.49978035  1
  O2-  O227  1  0.83246573  0.91963728  0.74975356  1
  O2-  O228  1  0.16494628  0.25177423  -0.00063996  1
  O2-  O229  1  0.16868644  0.25233474  0.24960020  1
  O2-  O230  1  0.16673109  0.25446140  0.50115472  1
  O2-  O231  1  0.16241785  0.25642378  0.74997089  1
  O2-  O232  1  0.16653603  0.58880777  0.00095033  1
  O2-  O233  1  0.16609265  0.58689033  0.24898529  1
  O2-  O234  1  0.16645472  0.58934875  0.50023571  1
  O2-  O235  1  0.16569936  0.58956756  0.74995373  1
  O2-  O236  1  0.16435975  0.91818828  -0.00044228  1
  O2-  O237  1  0.16584911  0.91573477  0.25037631  1
  O2-  O238  1  0.16501704  0.91928495  0.50113711  1
  O2-  O239  1  0.16691762  0.91912191  0.74920117  1
  O2-  O240  1  0.66586746  0.25571393  -0.00238487  1
  O2-  O241  1  0.66774121  0.25095792  0.25098164  1
  O2-  O242  1  0.66437002  0.25019543  0.49940643  1
  O2-  O243  1  0.66830449  0.25271321  0.75032589  1
  O2-  O244  1  0.66543666  0.58574605  -0.00024241  1
  O2-  O245  1  0.66616345  0.58333967  0.25116799  1
  O2-  O246  1  0.66674911  0.58461906  0.49868758  1
  O2-  O247  1  0.66715294  0.58879870  0.75059817  1
  O2-  O248  1  0.66739386  0.92082906  -0.00030674  1
  O2-  O249  1  0.66850581  0.91948177  0.25092968  1
  O2-  O250  1  0.66630934  0.92172720  0.49915803  1
  O2-  O251  1  0.66649441  0.91963513  0.75192406  1
  O2-  O252  1  0.33434451  0.08247194  0.00000077  1
  O2-  O253  1  0.33364207  0.08102213  0.24930485  1
  O2-  O254  1  0.33596237  0.07810717  0.50130304  1
  O2-  O255  1  0.33249083  0.07921834  0.75019371  1
  O2-  O256  1  0.33314941  0.41260611  -0.00008460  1
  O2-  O257  1  0.33190910  0.41374582  0.25141298  1
  O2-  O258  1  0.33505713  0.41088161  0.50035023  1
  O2-  O259  1  0.33107326  0.41293158  0.74965297  1
  O2-  O260  1  0.33351120  0.74561919  0.00068081  1
  O2-  O261  1  0.33283375  0.74600978  0.24870807  1
  O2-  O262  1  0.33271520  0.74630952  0.49932277  1
  O2-  O263  1  0.32923445  0.74719309  0.74985661  1
  O2-  O264  1  0.83229540  0.07843551  0.00274136  1
  O2-  O265  1  0.83058532  0.08147867  0.24904358  1
  O2-  O266  1  0.83237289  0.07932253  0.49941496  1
  O2-  O267  1  0.83238015  0.08247738  0.75007953  1
  O2-  O268  1  0.83272269  0.41361990  -0.00017573  1
  O2-  O269  1  0.83476524  0.41474021  0.25072707  1
  O2-  O270  1  0.83613933  0.41523755  0.49875106  1
  O2-  O271  1  0.83269596  0.41125693  0.75046416  1
  O2-  O272  1  0.83376844  0.74927423  -0.00191395  1
  O2-  O273  1  0.83277325  0.74951105  0.25118460  1
  O2-  O274  1  0.83359109  0.74625776  0.49844967  1
  O2-  O275  1  0.83402928  0.74781370  0.75021724  1
  O2-  O276  1  0.03824260  0.76827981  0.75411950  1
  O2-  O277  1  0.54757915  0.76340797  0.98772680  1
  O2-  O278  1  0.96961664  0.11219450  1.00784076  1
  O2-  O279  1  0.45101455  0.56596565  0.01219025  1
  O2-  O280  1  0.45451204  0.76683501  0.51911367  1
  O2-  O281  1  0.54478412  0.23349234  0.99999145  1
  O2-  O282  1  0.05377668  0.23632285  0.26335635  1
  O2-  O283  1  0.53977849  0.11091311  0.46756374  1
  O2-  O284  1  0.46946502  0.79363187  0.74109221  1
  O2-  O285  1  0.04967787  0.91180430  0.73282588  1
  O2-  O286  1  0.53178095  0.45290868  0.24696386  1
  O2-  O287  1  0.05030499  0.57006133  0.26763584  1
  O2-  O288  1  0.05101716  0.23660918  -0.00643868  1
  O2-  O289  1  0.03801029  0.76825166  0.75395781  1
  O2-  O290  1  0.04708612  0.56826388  0.49342835  1
  O2-  O291  1  0.46298373  0.43939574  0.71773966  1
  O2-  O292  1  0.47085332  0.79165283  0.75911374  1
  O2-  O293  1  0.54559980  0.76474289  0.26273491  1
  O2-  O294  1  0.94905561  0.23299067  0.24910533  1
  O2-  O295  1  0.05207865  0.58187328  0.05082853  1
  O2-  O296  1  0.95388377  0.55925874  0.28023346  1
  O2-  O297  1  0.05092668  0.76572733  0.26235576  1
  O2-  O298  1  0.55501798  0.91583087  0.02416649  1
  O2-  O299  1  0.95219138  0.23985476  0.25594572  1
  O2-  O300  1  0.94251625  0.41762478  0.97189048  1
  O2-  O301  1  0.95223004  0.76694208  0.51267708  1
  O2-  O302  1  0.45293058  0.09695186  0.26220240  1
  O2-  O303  1  0.54891424  0.56543459  0.01063219  1
  O2-  O304  1  0.94970721  0.90056548  0.73422487  1
  O2-  O305  1  0.95556897  0.23077825  0.77859735  1
  O2-  O306  1  0.54499041  0.23383840  -0.00358386  1
  O2-  O307  1  0.45261751  0.76240237  0.48027392  1
  O2-  O308  1  0.95197643  0.56854265  0.00997833  1
  O2-  O309  1  0.04906930  0.23535990  0.75720749  1
  O2-  O310  1  0.45203515  0.56728478  0.23750957  1
  O2-  O311  1  0.04764384  0.57169537  0.22863866  1
  O2-  O312  1  0.05079937  0.75618654  0.01551315  1
  O2-  O313  1  0.45322538  0.76765932  0.01354644  1
  O2-  O314  1  0.54560398  0.43338665  0.51303884  1
  O2-  O315  1  0.04664297  0.23585187  1.01219864  1
  O2-  O316  1  0.45540489  0.57386954  0.73765471  1
  O2-  O317  1  0.02130134  0.87514716  0.01991027  1
  O2-  O318  1  0.04725276  0.09578761  0.26346912  1
  O2-  O319  1  0.95557532  0.77115227  0.96979073  1
  O2-  O320  1  0.94589106  0.24130387  0.98305606  1
  O2-  O321  1  0.95426611  0.09494882  0.75818993  1
  O2-  O322  1  0.45417121  0.23692148  0.26382354  1
  O2-  O323  1  0.95718712  0.77429878  0.22292796  1
  O2-  O324  1  0.42354352  0.71726242  0.66439954  1
  O2-  O325  1  0.06535106  0.07669236  0.04641718  1
  O2-  O326  1  0.07565882  0.92897267  0.93219783  1
  O2-  O327  1  0.06760993  0.07677093  0.95334428  1
  O2-  O328  1  0.43392601  0.40552632  0.02611753  1
  O2-  O329  1  0.93147624  0.73103790  0.29528057  1
  O2-  O330  1  0.06549464  0.92847374  0.27733959  1
  O2-  O331  1  0.07979109  0.94288010  0.06215400  1
  O2-  O332  1  0.56303435  0.26206819  0.28510638  1
  O2-  O333  1  0.91835724  0.05672345  0.96186124  1
  O2-  O334  1  0.57231845  0.05417715  0.55712072  1
  O2-  O335  1  0.05498836  0.57074991  0.05032308  1
  O2-  O336  1  0.93734352  0.93428031  0.53151147  1
  O2-  O337  1  0.43356157  0.40412877  0.22403174  1
  O2-  O338  1  0.06881383  0.60950498  0.91391056  1
  O2-  O339  1  0.93551922  0.59848403  0.46807714  1
  O2-  O340  1  0.57568691  0.38429687  0.20675781  1
  O2-  O341  1  0.56323617  0.92931560  0.28438200  1
  O2-  O342  1  0.42202089  0.39672475  0.79816660  1
  O2-  O343  1  0.44009084  0.25632033  0.28856201  1
  O2-  O344  1  0.92850099  0.73224203  0.03870552  1
  O2-  O345  1  0.43664470  0.07006044  0.96565724  1
  O2-  O346  1  0.56451159  0.07154285  0.21514147  1
  O2-  O347  1  0.93649026  0.92784188  0.28209830  1
  O2-  O348  1  0.41592183  0.72367823  0.82397269  1
  O2-  O349  1  0.56517183  0.40134225  0.03222758  1
  O2-  O350  1  0.92822269  0.26632748  0.70694412  1
  O2-  O351  1  0.43677755  0.58599425  0.71474304  1
  O2-  O352  1  0.93470188  0.06875499  0.28176800  1
  O2-  O353  1  0.93294911  0.92466384  0.97294607  1
  O2-  O354  1  0.43553057  0.73521370  0.28335059  1
  O2-  O355  1  0.56586254  0.74314057  0.52624805  1
  O2-  O356  1  0.56257046  0.59552356  0.46787876  1
  O2-  O357  1  0.94908086  0.41801580  0.97472617  1
  O2-  O358  1  0.56509540  0.58909069  0.72156929  1
  O2-  O359  1  0.08010384  0.72174614  0.71388528  1
  O2-  O360  1  0.92605943  0.60353362  0.20300357  1
  O2-  O361  1  0.06362304  0.40273666  0.21683733  1
  O2-  O362  1  0.55493028  0.91394245  0.02482835  1
  O2-  O363  1  0.06621991  0.25783908  0.44657973  1
  O2-  O364  1  0.93738796  0.40415495  0.78208659  1
  O2-  O365  1  0.06705356  0.74005631  0.47509875  1
  O2-  O366  1  0.56756007  0.74262257  0.72221133  1
  O2-  O367  1  0.56422390  0.59963524  0.28233656  1
  O2-  O368  1  0.56412354  0.07081022  0.03387815  1
  O2-  O369  1  0.06419389  0.26230328  0.56172390  1
  O2-  O370  1  0.43462937  0.07463193  0.72377426  1
  O2-  O371  1  0.43411035  0.07364083  0.47217104  1
  O2-  O372  1  0.25032246  0.00234114  0.92358819  1
  O2-  O373  1  0.74998012  0.33346223  0.60921690  1
  O2-  O374  1  0.25016919  0.65971240  0.32357165  1
  O2-  O375  1  0.24965462  0.32878552  0.10912969  1
  O2-  O376  1  0.74983148  0.66795563  0.08005692  1
  O2-  O377  1  0.24994662  0.32505687  0.88509942  1
  O2-  O378  1  0.25017387  0.67928747  0.41593937  1
  O2-  O379  1  0.25056966  -0.00008649  0.33097907  1
  O2-  O380  1  0.74997813  0.66505051  0.16889314  1
  O2-  O381  1  0.25013175  0.33005059  0.65060059  1
  O2-  O382  1  0.75030901  0.67287474  0.83908478  1
  O2-  O383  1  0.25026077  0.33461173  0.39201638  1
  O2-  O384  1  0.74980315  0.66984793  0.93472527  1
  O2-  O385  1  0.25034681  -0.00165949  0.42147024  1
  O2-  O386  1  0.25088665  -0.00178442  0.09455313  1
  O2-  O387  1  0.75008653  0.33122966  0.41809681  1
  O2-  O388  1  0.75012808  0.00025963  0.65696546  1
  O2-  O389  1  0.75005181  0.33389827  0.32826485  1
  O2-  O390  1  0.24983456  -0.00302112  0.65019275  1
  O2-  O391  1  0.74991307  -0.00522770  0.89323686  1
  O2-  O392  1  0.75004770  0.33465932  0.17854221  1
  O2-  O393  1  0.75042496  0.66380401  0.59823098  1
  O2-  O394  1  0.74980903  0.34618164  0.08713243  1
  O2-  O395  1  0.25011195  -0.01264351  0.83217633  1
  O2-  O396  1  0.75019169  0.50181191  0.60173917  1
  O2-  O397  1  0.74977524  0.83863344  0.08889042  1
  O2-  O398  1  0.25007253  0.83002787  0.33711600  1
  O2-  O399  1  0.75012169  0.50152874  0.16648947  1
  O2-  O400  1  0.25017713  0.84397641  0.19116088  1
  O2-  O401  1  0.24997661  0.81993623  0.10620999  1
  O2-  O402  1  0.24991369  0.49880469  0.36261649  1
  O2-  O403  1  0.74998062  0.50265214  0.90827320  1
  O2-  O404  1  0.24993626  0.50008491  0.61652502  1
  O2-  O405  1  0.24999633  0.83097028  0.61123831  1
  O2-  O406  1  0.75000674  0.82836716  0.58790385  1
  O2-  O407  1  0.25000622  0.81981742  0.87464745  1
  O2-  O408  1  0.25011953  0.15460530  0.87220858  1
  O2-  O409  1  0.74991300  0.83758295  0.90554623  1
  O2-  O410  1  0.24997968  0.49700743  0.87992030  1
  O2-  O411  1  0.25024041  0.16899683  0.09837708  1
  O2-  O412  1  0.25012151  0.50120998  0.13490067  1
  O2-  O413  1  0.74989329  0.16425274  0.14318452  1
  O2-  O414  1  0.74998728  0.16075234  0.58827186  1
  O2-  O415  1  0.75002850  0.49702551  0.08389665  1
  O2-  O416  1  0.74987861  0.83859537  0.68149329  1
  O2-  O417  1  0.75015363  0.16879167  0.85717222  1
  O2-  O418  1  0.25012244  0.17748235  0.37922709  1
  O2-  O419  1  0.25001224  0.16043864  0.63591422  1
  O2-  O420  1  0.52211793  0.66066800  0.62148710  1
  O2-  O421  1  0.02872122  0.33878237  0.87243697  1
  O2-  O422  1  0.46088428  0.32229706  0.88462682  1
  O2-  O423  1  0.47472334  -0.00527101  0.61960185  1
  O2-  O424  1  0.47605263  0.32217315  0.12370778  1
  O2-  O425  1  0.54440240  0.33494912  0.87215009  1
  O2-  O426  1  0.47528351  -0.00700997  0.37292206  1
  O2-  O427  1  0.47138751  0.00020491  0.12683818  1
  O2-  O428  1  0.97952814  0.66677976  0.12647896  1
  O2-  O429  1  0.53321996  0.66909699  0.12484681  1
  O2-  O430  1  0.02429027  0.66241862  0.37347478  1
  O2-  O431  1  0.46772007  0.67036340  0.12393332  1
  O2-  O432  1  0.03271645  0.65999271  0.61603844  1
  O2-  O433  1  0.01856908  0.00042691  0.13957916  1
  O2-  O434  1  0.97029284  -0.00365681  0.86822614  1
  O2-  O435  1  0.46271195  0.65422264  0.88776551  1
  O2-  O436  1  0.96247149  0.66355633  0.62825178  1
  O2-  O437  1  0.02432749  0.00247096  0.38637352  1
  O2-  O438  1  0.54392259  0.66591361  0.87410428  1
  O2-  O439  1  0.02364488  0.34390278  0.37129644  1
  O2-  O440  1  0.97235747  0.33771183  0.12475522  1
  O2-  O441  1  0.02890581  0.00555942  0.85999142  1
  O2-  O442  1  0.52743128  0.33084785  0.62841890  1
  O2-  O443  1  0.97516072  0.34014600  0.61806483  1
