# generated using pymatgen
data_La7(Ru4O11)2
_symmetry_space_group_name_H-M   'P 1'
_cell_length_a   23.99019232
_cell_length_b   16.83057723
_cell_length_c   15.42776211
_cell_angle_alpha   89.99995716
_cell_angle_beta   89.99956373
_cell_angle_gamma   90.00118644
_symmetry_Int_Tables_number   1
_chemical_formula_structural   La7(Ru4O11)2
_chemical_formula_sum   'La84 Ru96 O264'
_cell_volume   6229.24875257
_cell_formula_units_Z   12
loop_
 _symmetry_equiv_pos_site_id
 _symmetry_equiv_pos_as_xyz
  1  'x, y, z'
loop_
 _atom_type_symbol
 _atom_type_oxidation_number
  La3+  3.0
  Ru4+  4.0
  O2-  -2.0
loop_
 _atom_site_type_symbol
 _atom_site_label
 _atom_site_symmetry_multiplicity
 _atom_site_fract_x
 _atom_site_fract_y
 _atom_site_fract_z
 _atom_site_occupancy
  La3+  La0  1  0.13924872  0.00118658  0.12793696  1
  La3+  La1  1  0.13758648  0.00004476  0.37547403  1
  La3+  La2  1  0.13976562  0.00009935  0.62859448  1
  La3+  La3  1  0.14204594  -0.00132279  0.87205956  1
  La3+  La4  1  0.13762614  0.33157468  0.12505969  1
  La3+  La5  1  0.13394368  0.33011520  0.37518273  1
  La3+  La6  1  0.14653482  0.33497999  0.62834339  1
  La3+  La7  1  0.13967056  0.33587139  0.87316843  1
  La3+  La8  1  0.13544541  0.66288382  0.12104324  1
  La3+  La9  1  0.13858539  0.66668320  0.37913235  1
  La3+  La10  1  0.14014752  0.66834083  0.62697084  1
  La3+  La11  1  0.13273303  0.66265722  0.86982734  1
  La3+  La12  1  0.64154396  -0.00313270  0.12765188  1
  La3+  La13  1  0.64054879  -0.00111283  0.37132246  1
  La3+  La14  1  0.63924128  -0.00042833  0.62545011  1
  La3+  La15  1  0.63765534  -0.00150659  0.87498278  1
  La3+  La16  1  0.63821066  0.33215845  0.12559118  1
  La3+  La17  1  0.63558026  0.33224527  0.37346385  1
  La3+  La18  1  0.63523904  0.33384750  0.62905573  1
  La3+  La19  1  0.63927121  0.33433537  0.87013069  1
  La3+  La20  1  0.63749303  0.66888590  0.12308941  1
  La3+  La21  1  0.63769991  0.66964809  0.37445227  1
  La3+  La22  1  0.63923709  0.66814979  0.62866404  1
  La3+  La23  1  0.63950776  0.66605487  0.87412820  1
  La3+  La24  1  0.35952604  -0.00312552  0.12821880  1
  La3+  La25  1  0.36535374  0.00074185  0.37287989  1
  La3+  La26  1  0.36015078  -0.00083810  0.62831124  1
  La3+  La27  1  0.36106050  -0.00099481  0.87036019  1
  La3+  La28  1  0.36094334  0.33329272  0.12387784  1
  La3+  La29  1  0.36130506  0.33199589  0.37527085  1
  La3+  La30  1  0.35492569  0.33466241  0.62699368  1
  La3+  La31  1  0.36168874  0.33504454  0.87328161  1
  La3+  La32  1  0.36397549  0.66655139  0.12267588  1
  La3+  La33  1  0.36201695  0.66591117  0.38076026  1
  La3+  La34  1  0.35829949  0.66537386  0.62341326  1
  La3+  La35  1  0.36152844  0.66559725  0.87331643  1
  La3+  La36  1  0.85857691  -0.00197243  0.12607037  1
  La3+  La37  1  0.85969880  -0.00134156  0.37245234  1
  La3+  La38  1  0.86033105  -0.00002395  0.62517578  1
  La3+  La39  1  0.86135796  0.00140497  0.87349110  1
  La3+  La40  1  0.86229797  0.33292433  0.12513623  1
  La3+  La41  1  0.86503428  0.33273329  0.37145771  1
  La3+  La42  1  0.86715067  0.33840992  0.63453626  1
  La3+  La43  1  0.86570305  0.33910488  0.86551301  1
  La3+  La44  1  0.86645821  0.67183238  0.12104855  1
  La3+  La45  1  0.86204397  0.66816681  0.37336844  1
  La3+  La46  1  0.86027246  0.66837251  0.62934504  1
  La3+  La47  1  0.86029920  0.66852897  0.87574130  1
  La3+  La48  1  0.00048963  0.83401024  0.11424552  1
  La3+  La49  1  -0.00417184  0.82691216  0.13377254  1
  La3+  La50  1  0.50069710  0.49416478  0.88181335  1
  La3+  La51  1  -0.00186218  0.50143483  0.62378408  1
  La3+  La52  1  0.49789811  0.50097085  0.86145992  1
  La3+  La53  1  -0.00215861  0.83034755  0.62850522  1
  La3+  La54  1  -0.00617740  0.16663428  0.11819280  1
  La3+  La55  1  0.50225554  0.16567948  0.86423474  1
  La3+  La56  1  -0.00003559  0.49986352  0.64055810  1
  La3+  La57  1  -0.00181633  0.49799762  0.11932856  1
  La3+  La58  1  0.49806491  0.50737840  0.11585096  1
  La3+  La59  1  0.49928483  0.16734947  0.61434858  1
  La3+  La60  1  0.49827050  0.83604220  0.87141024  1
  La3+  La61  1  -0.00020155  0.17120447  0.61631765  1
  La3+  La62  1  0.49988935  0.83287734  0.63541588  1
  La3+  La63  1  0.49981771  0.49602780  0.37305785  1
  La3+  La64  1  0.50187445  0.83430180  0.61645631  1
  La3+  La65  1  0.00260320  0.83441942  0.88266644  1
  La3+  La66  1  -0.00518813  0.83164615  0.86418331  1
  La3+  La67  1  0.50105833  0.49949674  0.13608938  1
  La3+  La68  1  -0.00127490  0.16473101  0.36250205  1
  La3+  La69  1  -0.00096679  0.49528334  0.87470016  1
  La3+  La70  1  0.00036213  0.83590213  0.38316630  1
  La3+  La71  1  0.49850149  0.83494727  0.36258750  1
  La3+  La72  1  0.24970988  0.16397272  0.79130973  1
  La3+  La73  1  0.24985932  0.87831556  0.30738270  1
  La3+  La74  1  0.24959235  0.20865485  0.00980108  1
  La3+  La75  1  0.74923234  0.83319843  0.00915689  1
  La3+  La76  1  0.24946226  0.49749226  -0.03476141  1
  La3+  La77  1  0.24999346  0.20509061  0.45084734  1
  La3+  La78  1  0.24941837  0.82454261  -0.01609642  1
  La3+  La79  1  0.74987368  0.11656627  0.49466704  1
  La3+  La80  1  0.74986611  0.16843737  0.71585233  1
  La3+  La81  1  0.75075625  0.51029026  0.53129655  1
  La3+  La82  1  0.24964564  0.50101341  0.51299883  1
  La3+  La83  1  0.24986724  0.50235129  0.28024315  1
  Ru4+  Ru84  1  -0.00057222  0.00262225  -0.00284000  1
  Ru4+  Ru85  1  -0.00364959  -0.00053536  0.25089035  1
  Ru4+  Ru86  1  0.00129472  -0.00168319  0.50086828  1
  Ru4+  Ru87  1  -0.00165689  0.00614747  0.75371768  1
  Ru4+  Ru88  1  -0.00062903  0.33656666  0.00527557  1
  Ru4+  Ru89  1  -0.00160173  0.34016469  0.25265930  1
  Ru4+  Ru90  1  0.00384332  0.33052530  0.49620242  1
  Ru4+  Ru91  1  0.00023165  0.33731099  0.75007394  1
  Ru4+  Ru92  1  -0.00215972  0.66906475  -0.00156753  1
  Ru4+  Ru93  1  -0.00214673  0.66513924  0.25094370  1
  Ru4+  Ru94  1  0.00008326  0.66447632  0.49958179  1
  Ru4+  Ru95  1  -0.00835821  0.66262661  0.74773971  1
  Ru4+  Ru96  1  0.50446823  -0.01181745  -0.00096836  1
  Ru4+  Ru97  1  0.49994397  0.00246657  0.24881801  1
  Ru4+  Ru98  1  0.49925639  0.00258285  0.50198628  1
  Ru4+  Ru99  1  0.49739433  0.00113249  0.74782205  1
  Ru4+  Ru100  1  0.50023925  0.32842325  0.00001016  1
  Ru4+  Ru101  1  0.50101728  0.32829240  0.25212388  1
  Ru4+  Ru102  1  0.50205180  0.33390016  0.50198991  1
  Ru4+  Ru103  1  0.49753172  0.32769828  0.74989968  1
  Ru4+  Ru104  1  0.49745452  0.67720308  0.00378515  1
  Ru4+  Ru105  1  0.50035286  0.66984366  0.24688545  1
  Ru4+  Ru106  1  0.50645338  0.66776009  0.50268770  1
  Ru4+  Ru107  1  0.49928643  0.66864724  0.74655223  1
  Ru4+  Ru108  1  0.11045272  0.16462314  -0.00270531  1
  Ru4+  Ru109  1  0.11650072  0.16348790  0.25060079  1
  Ru4+  Ru110  1  0.11191877  0.16808463  0.50258448  1
  Ru4+  Ru111  1  0.11050746  0.16914805  0.74988693  1
  Ru4+  Ru112  1  0.11386462  0.49457451  -0.00036981  1
  Ru4+  Ru113  1  0.10996654  0.50057083  0.24962960  1
  Ru4+  Ru114  1  0.11166459  0.50117894  0.50005765  1
  Ru4+  Ru115  1  0.11530655  0.49346134  0.75056668  1
  Ru4+  Ru116  1  0.11087099  0.83339486  0.00047237  1
  Ru4+  Ru117  1  0.11070880  0.83068556  0.25117420  1
  Ru4+  Ru118  1  0.11358305  0.83225105  0.49939397  1
  Ru4+  Ru119  1  0.11784527  0.83635107  0.74836575  1
  Ru4+  Ru120  1  0.61529717  0.16940909  0.00110275  1
  Ru4+  Ru121  1  0.60890966  0.16543195  0.24775066  1
  Ru4+  Ru122  1  0.60955039  0.16687464  0.50149431  1
  Ru4+  Ru123  1  0.61159664  0.16888304  0.74991505  1
  Ru4+  Ru124  1  0.61778958  0.49744960  0.00210269  1
  Ru4+  Ru125  1  0.61231084  0.49721673  0.25010744  1
  Ru4+  Ru126  1  0.60825643  0.50097478  0.50110670  1
  Ru4+  Ru127  1  0.61591641  0.50417491  0.74865374  1
  Ru4+  Ru128  1  0.61062591  0.83460944  -0.00063110  1
  Ru4+  Ru129  1  0.61515827  0.83371632  0.25042805  1
  Ru4+  Ru130  1  0.61282770  0.83105525  0.50115216  1
  Ru4+  Ru131  1  0.61436118  0.82886833  0.75210504  1
  Ru4+  Ru132  1  0.38634432  0.17300141  -0.00018895  1
  Ru4+  Ru133  1  0.38683888  0.16860118  0.24876684  1
  Ru4+  Ru134  1  0.39055720  0.16705249  0.49910557  1
  Ru4+  Ru135  1  0.38833643  0.16551388  0.75070410  1
  Ru4+  Ru136  1  0.38626828  0.49956840  0.00106772  1
  Ru4+  Ru137  1  0.39047710  0.50017731  0.24873446  1
  Ru4+  Ru138  1  0.38473473  0.49767712  0.49877008  1
  Ru4+  Ru139  1  0.38602407  0.49920619  0.74901512  1
  Ru4+  Ru140  1  0.39181111  0.83363778  0.00011466  1
  Ru4+  Ru141  1  0.39058489  0.83461979  0.24983069  1
  Ru4+  Ru142  1  0.38648954  0.83398327  0.49931685  1
  Ru4+  Ru143  1  0.38538502  0.83382519  0.74959770  1
  Ru4+  Ru144  1  0.88782802  0.16638672  0.00034891  1
  Ru4+  Ru145  1  0.88656905  0.16638450  0.25155127  1
  Ru4+  Ru146  1  0.89020923  0.16818048  0.50054078  1
  Ru4+  Ru147  1  0.88899638  0.16618052  0.74883487  1
  Ru4+  Ru148  1  0.88822152  0.50012547  -0.00131922  1
  Ru4+  Ru149  1  0.89043427  0.50210991  0.25195976  1
  Ru4+  Ru150  1  0.89184086  0.50076787  0.50160782  1
  Ru4+  Ru151  1  0.88986075  0.49991039  0.74905095  1
  Ru4+  Ru152  1  0.88896974  0.83333505  -0.00030587  1
  Ru4+  Ru153  1  0.88413151  0.83313988  0.24956995  1
  Ru4+  Ru154  1  0.88601854  0.83277673  0.50042570  1
  Ru4+  Ru155  1  0.88496666  0.83073353  0.75059966  1
  Ru4+  Ru156  1  0.24991938  0.90754406  0.50550540  1
  Ru4+  Ru157  1  0.75024251  0.39018095  0.49524458  1
  Ru4+  Ru158  1  0.24974879  0.07804977  -0.00544945  1
  Ru4+  Ru159  1  0.24997581  0.57538496  0.74452973  1
  Ru4+  Ru160  1  0.24998941  0.61964872  0.22362840  1
  Ru4+  Ru161  1  0.74991253  0.59142084  0.24025292  1
  Ru4+  Ru162  1  0.74967938  0.42630854  0.75840205  1
  Ru4+  Ru163  1  0.74997526  0.41088510  0.23519568  1
  Ru4+  Ru164  1  0.25027732  0.08439777  0.24792502  1
  Ru4+  Ru165  1  0.25013990  0.06183317  0.49870842  1
  Ru4+  Ru166  1  0.25011909  0.69316751  -0.01085118  1
  Ru4+  Ru167  1  0.74986144  0.63129369  0.49679131  1
  Ru4+  Ru168  1  0.75041232  0.25631543  0.00500439  1
  Ru4+  Ru169  1  0.74976394  0.90857999  0.50684040  1
  Ru4+  Ru170  1  0.25017994  0.74216931  0.25586241  1
  Ru4+  Ru171  1  0.75032651  0.91273992  0.74561646  1
  Ru4+  Ru172  1  0.75059106  0.41378971  -0.00563525  1
  Ru4+  Ru173  1  0.75022564  0.58349408  -0.00704478  1
  Ru4+  Ru174  1  0.74985450  0.08102341  0.00756530  1
  Ru4+  Ru175  1  0.25002041  0.95321400  0.00093487  1
  Ru4+  Ru176  1  0.75006077  0.23704607  0.24342888  1
  Ru4+  Ru177  1  0.74950294  0.08851055  0.25217273  1
  Ru4+  Ru178  1  0.24970146  0.37287378  0.25327318  1
  Ru4+  Ru179  1  0.75037345  0.24821505  0.50244790  1
  O2-  O180  1  0.16570057  0.08144656  0.00097766  1
  O2-  O181  1  0.16982353  0.08293214  0.24956743  1
  O2-  O182  1  0.16684018  0.08032338  0.49883927  1
  O2-  O183  1  0.16959548  0.08351724  0.74720393  1
  O2-  O184  1  0.16790868  0.41485554  -0.00016105  1
  O2-  O185  1  0.16515544  0.41113302  0.24969489  1
  O2-  O186  1  0.16642697  0.41360765  0.49739198  1
  O2-  O187  1  0.16768825  0.41649079  0.75225169  1
  O2-  O188  1  0.16478851  0.74339307  -0.00032939  1
  O2-  O189  1  0.16581830  0.74631861  0.24965751  1
  O2-  O190  1  0.16601509  0.74825433  0.49793688  1
  O2-  O191  1  0.16624349  0.74697450  0.75182629  1
  O2-  O192  1  0.66923698  0.08074101  -0.00206293  1
  O2-  O193  1  0.66957282  0.08351652  0.25091834  1
  O2-  O194  1  0.66346345  0.07838292  0.49897652  1
  O2-  O195  1  0.66838065  0.07894664  0.74972179  1
  O2-  O196  1  0.66818242  0.41203488  0.00041241  1
  O2-  O197  1  0.66666555  0.41310711  0.24889080  1
  O2-  O198  1  0.66484803  0.41030075  0.49912168  1
  O2-  O199  1  0.66673569  0.41526107  0.74916015  1
  O2-  O200  1  0.66623789  0.74790880  0.00050927  1
  O2-  O201  1  0.66402373  0.74757122  0.24927716  1
  O2-  O202  1  0.66469268  0.74809351  0.49925106  1
  O2-  O203  1  0.66947650  0.75103371  0.75097233  1
  O2-  O204  1  0.33426283  0.25569352  -0.00322673  1
  O2-  O205  1  0.33512540  0.24932569  0.25024100  1
  O2-  O206  1  0.33418621  0.25359756  0.50057566  1
  O2-  O207  1  0.33323770  0.25258921  0.75329418  1
  O2-  O208  1  0.33145607  0.58736790  -0.00039051  1
  O2-  O209  1  0.33587903  0.58902261  0.25017441  1
  O2-  O210  1  0.33400956  0.58533822  0.49771854  1
  O2-  O211  1  0.33080289  0.58514501  0.75062342  1
  O2-  O212  1  0.33495909  0.92054953  -0.00069330  1
  O2-  O213  1  0.33135925  0.92045131  0.25297416  1
  O2-  O214  1  0.33344338  0.91947636  0.49810877  1
  O2-  O215  1  0.33323856  0.91801965  0.74806133  1
  O2-  O216  1  0.83214163  0.25410071  -0.00019513  1
  O2-  O217  1  0.83162410  0.25110725  0.24851444  1
  O2-  O218  1  0.83440551  0.25341757  0.49974003  1
  O2-  O219  1  0.83519019  0.25259634  0.74989028  1
  O2-  O220  1  0.83133913  0.58682802  -0.00028098  1
  O2-  O221  1  0.83250380  0.58551372  0.24798475  1
  O2-  O222  1  0.83371920  0.58906086  0.49985105  1
  O2-  O223  1  0.83750378  0.58475715  0.75138513  1
  O2-  O224  1  0.83349047  0.91934137  -0.00164232  1
  O2-  O225  1  0.83575722  0.91979460  0.24944722  1
  O2-  O226  1  0.83254553  0.91978926  0.49867881  1
  O2-  O227  1  0.83033176  0.91961411  0.75126747  1
  O2-  O228  1  0.16584444  0.25280026  -0.00028666  1
  O2-  O229  1  0.16681522  0.24969147  0.24945614  1
  O2-  O230  1  0.16732609  0.25328746  0.49709643  1
  O2-  O231  1  0.16771635  0.24763233  0.75432376  1
  O2-  O232  1  0.16664102  0.58725643  0.00021424  1
  O2-  O233  1  0.16412702  0.58923440  0.24859941  1
  O2-  O234  1  0.16546626  0.58600969  0.49747043  1
  O2-  O235  1  0.16682144  0.58420976  0.75132702  1
  O2-  O236  1  0.16716841  0.92255216  0.00198434  1
  O2-  O237  1  0.16666191  0.92154759  0.25038642  1
  O2-  O238  1  0.16678664  0.91917995  0.49903527  1
  O2-  O239  1  0.16581425  0.91896871  0.74768732  1
  O2-  O240  1  0.66764899  0.25321415  0.00005951  1
  O2-  O241  1  0.66682316  0.25138578  0.24951614  1
  O2-  O242  1  0.66677582  0.25303783  0.49971879  1
  O2-  O243  1  0.66602493  0.25178549  0.74929303  1
  O2-  O244  1  0.66756448  0.58505583  0.00066654  1
  O2-  O245  1  0.66638178  0.58706638  0.24941473  1
  O2-  O246  1  0.66603398  0.58783731  0.49804910  1
  O2-  O247  1  0.66558120  0.58531241  0.74998271  1
  O2-  O248  1  0.66960840  0.91939686  -0.00387523  1
  O2-  O249  1  0.66680631  0.91764811  0.25106568  1
  O2-  O250  1  0.66612759  0.92081460  0.49886539  1
  O2-  O251  1  0.66960630  0.91874354  0.75049398  1
  O2-  O252  1  0.33164198  0.08188190  -0.00094770  1
  O2-  O253  1  0.32964937  0.08130974  0.25236462  1
  O2-  O254  1  0.33333820  0.07859596  0.49855600  1
  O2-  O255  1  0.33326012  0.08143603  0.74924347  1
  O2-  O256  1  0.33280202  0.41337476  -0.00217807  1
  O2-  O257  1  0.33297649  0.41020019  0.24995535  1
  O2-  O258  1  0.33200131  0.41443495  0.50034630  1
  O2-  O259  1  0.33582184  0.41475332  0.75278238  1
  O2-  O260  1  0.33345777  0.74539742  0.00028627  1
  O2-  O261  1  0.33489135  0.74619655  0.25107180  1
  O2-  O262  1  0.33442903  0.74751980  0.49743415  1
  O2-  O263  1  0.33523643  0.74716279  0.74989689  1
  O2-  O264  1  0.83323905  0.08039453  -0.00056526  1
  O2-  O265  1  0.83130524  0.08227731  0.24806732  1
  O2-  O266  1  0.83594424  0.07777411  0.49936597  1
  O2-  O267  1  0.83009361  0.08031062  0.75061107  1
  O2-  O268  1  0.83302079  0.41360124  -0.00170675  1
  O2-  O269  1  0.83438578  0.41348064  0.24916315  1
  O2-  O270  1  0.83571024  0.41028919  0.50071643  1
  O2-  O271  1  0.83242414  0.41334264  0.74999723  1
  O2-  O272  1  0.83087047  0.74690231  0.00091793  1
  O2-  O273  1  0.83335264  0.74808652  0.24954236  1
  O2-  O274  1  0.83468990  0.74826825  0.49953301  1
  O2-  O275  1  0.83222350  0.74958260  0.75237210  1
  O2-  O276  1  0.03833415  0.10792482  0.74835240  1
  O2-  O277  1  0.54518472  0.10095314  0.73579309  1
  O2-  O278  1  0.95474397  0.43209511  0.26118237  1
  O2-  O279  1  0.45118886  0.10073310  0.48653191  1
  O2-  O280  1  0.04779391  0.23720876  0.26088891  1
  O2-  O281  1  0.04742942  0.76335460  0.77118956  1
  O2-  O282  1  0.04873861  0.56974276  0.01806668  1
  O2-  O283  1  0.55015825  0.43175218  0.51361284  1
  O2-  O284  1  0.04779008  0.76635402  0.48867048  1
  O2-  O285  1  0.03962029  0.10595199  0.73290084  1
  O2-  O286  1  0.54544461  0.12152093  0.00539120  1
  O2-  O287  1  0.45292918  0.90392777  0.00983907  1
  O2-  O288  1  0.45552827  0.10553657  0.98855870  1
  O2-  O289  1  0.94985566  0.75973707  0.01401638  1
  O2-  O290  1  0.46487457  0.11689681  0.24441654  1
  O2-  O291  1  0.44927723  0.56727057  0.48016811  1
  O2-  O292  1  0.94879196  0.42468364  0.76380075  1
  O2-  O293  1  0.54791715  0.57031592  0.98676686  1
  O2-  O294  1  0.04679237  0.76774450  0.73230286  1
  O2-  O295  1  0.04596278  0.90330090  0.23821802  1
  O2-  O296  1  0.95110912  0.76834666  0.48798643  1
  O2-  O297  1  0.03658877  0.10875909  0.21132238  1
  O2-  O298  1  0.54795604  0.42701996  0.01594793  1
  O2-  O299  1  0.95312400  0.09906538  0.51128380  1
  O2-  O300  1  0.53094762  0.77191632  0.75908974  1
  O2-  O301  1  0.54917046  0.09880303  0.51180538  1
  O2-  O302  1  0.45583327  0.10653754  0.00301178  1
  O2-  O303  1  0.95703895  0.43717271  0.74262555  1
  O2-  O304  1  0.04789196  0.23566752  0.45919996  1
  O2-  O305  1  0.54537198  0.56596508  0.26261888  1
  O2-  O306  1  0.04686157  0.56746237  0.76528608  1
  O2-  O307  1  0.55108729  0.91213980  0.77026521  1
  O2-  O308  1  0.54779553  0.42601214  0.76519421  1
  O2-  O309  1  0.45697398  0.43636157  0.53029827  1
  O2-  O310  1  0.45535043  0.57612533  0.51701416  1
  O2-  O311  1  0.54617510  0.23778030  0.23569937  1
  O2-  O312  1  0.45359608  0.24515772  0.98267907  1
  O2-  O313  1  0.95881965  0.77117594  0.99297597  1
  O2-  O314  1  0.54156164  0.78252177  0.73856034  1
  O2-  O315  1  0.54761853  0.57125003  0.76133736  1
  O2-  O316  1  0.45579652  0.76498381  0.48522808  1
  O2-  O317  1  0.04421244  0.43321434  0.51608645  1
  O2-  O318  1  0.46420245  0.77610909  0.03502284  1
  O2-  O319  1  0.54602613  0.76763315  0.26288429  1
  O2-  O320  1  0.45393480  0.23641620  0.76131441  1
  O2-  O321  1  0.04130894  0.23044580  0.02268629  1
  O2-  O322  1  0.04491017  0.57428487  0.97975171  1
  O2-  O323  1  0.04550099  0.09662553  0.98927595  1
  O2-  O324  1  0.06400127  0.26015383  0.27726146  1
  O2-  O325  1  0.43706451  0.40267962  0.21643962  1
  O2-  O326  1  0.56315020  0.26486919  0.53385576  1
  O2-  O327  1  0.43518916  0.92187294  0.22562327  1
  O2-  O328  1  0.08195985  0.05480433  0.79348100  1
  O2-  O329  1  0.06435880  0.93253734  0.06944759  1
  O2-  O330  1  0.41858100  0.05287363  0.03756009  1
  O2-  O331  1  0.42873318  0.72810965  0.94457193  1
  O2-  O332  1  0.56620200  0.92222374  0.02528788  1
  O2-  O333  1  0.06390715  0.40961407  0.68238091  1
  O2-  O334  1  0.43555460  0.92438340  0.77762545  1
  O2-  O335  1  0.06102986  0.59348685  0.78097903  1
  O2-  O336  1  0.93595312  0.74175953  0.72475069  1
  O2-  O337  1  0.93292920  0.58973010  0.02878324  1
  O2-  O338  1  0.06995290  0.92138062  0.93977241  1
  O2-  O339  1  0.93464487  0.26275315  0.28464888  1
  O2-  O340  1  0.93656006  0.92972445  0.78218569  1
  O2-  O341  1  0.56735875  0.07438106  0.22556714  1
  O2-  O342  1  0.43579932  0.59991819  0.71934731  1
  O2-  O343  1  0.93342181  0.07410060  0.27693390  1
  O2-  O344  1  0.57704416  0.05766268  0.03124704  1
  O2-  O345  1  0.56697090  0.59525756  0.52572496  1
  O2-  O346  1  0.93667870  0.93072029  0.53479684  1
  O2-  O347  1  0.06248207  0.40774899  0.96707312  1
  O2-  O348  1  0.56280168  0.40418936  0.78603383  1
  O2-  O349  1  0.93333020  0.59115143  0.27610905  1
  O2-  O350  1  0.93352693  0.07001105  0.71346214  1
  O2-  O351  1  0.55995635  0.92336255  0.78100033  1
  O2-  O352  1  0.93443406  0.74188168  0.22271955  1
  O2-  O353  1  0.43602760  0.40398740  0.03415813  1
  O2-  O354  1  0.06904369  0.27651531  0.57955331  1
  O2-  O355  1  0.07873088  0.06316635  0.30001123  1
  O2-  O356  1  0.43599190  0.59180825  0.96540622  1
  O2-  O357  1  0.06822650  0.26983509  0.95023191  1
  O2-  O358  1  0.06350034  0.40358117  0.81500372  1
  O2-  O359  1  0.93518403  0.59187109  0.47403146  1
  O2-  O360  1  0.42957768  0.39870377  0.46040439  1
  O2-  O361  1  0.06201797  0.26399434  0.72317850  1
  O2-  O362  1  0.56565676  0.92053809  0.20220372  1
  O2-  O363  1  0.42446947  0.06183180  0.21866894  1
  O2-  O364  1  0.06416274  0.06924021  0.53423126  1
  O2-  O365  1  0.93376586  0.73348373  0.96326597  1
  O2-  O366  1  0.93350348  0.39867315  0.71393558  1
  O2-  O367  1  0.56184431  0.59349129  0.96615862  1
  O2-  O368  1  0.57373613  0.72881073  0.69137675  1
  O2-  O369  1  0.57197691  0.72432417  0.81650984  1
  O2-  O370  1  0.56302076  0.93046913  0.30565472  1
  O2-  O371  1  0.05436229  0.24174185  0.45294485  1
  O2-  O372  1  0.74988076  0.69055008  0.59573286  1
  O2-  O373  1  0.25003855  0.31092107  0.15568854  1
  O2-  O374  1  0.75027611  0.32476771  0.59583783  1
  O2-  O375  1  0.24973975  0.66093955  0.10327105  1
  O2-  O376  1  0.75012918  0.00576123  0.34536203  1
  O2-  O377  1  0.74987921  0.69387172  0.40359130  1
  O2-  O378  1  0.25021309  0.66620826  0.35586630  1
  O2-  O379  1  0.75029700  0.33706765  0.84598920  1
  O2-  O380  1  0.74968352  0.32960015  0.31369415  1
  O2-  O381  1  0.74997581  0.67050180  0.31683697  1
  O2-  O382  1  0.25140967  0.33125004  0.65281087  1
  O2-  O383  1  0.25029782  0.32497169  0.36137914  1
  O2-  O384  1  0.74981993  0.31908030  0.40341175  1
  O2-  O385  1  0.74999449  0.66279313  0.67781129  1
  O2-  O386  1  0.75033062  0.32796625  0.68978478  1
  O2-  O387  1  0.24978377  0.00136622  0.15799842  1
  O2-  O388  1  0.25041101  0.00506560  0.85525532  1
  O2-  O389  1  0.75005822  0.00289683  0.59387801  1
  O2-  O390  1  0.25004874  0.66762794  0.67258719  1
  O2-  O391  1  0.24993464  0.66344124  0.58175347  1
  O2-  O392  1  0.75044215  0.00164565  0.09412884  1
  O2-  O393  1  0.25000848  0.33495541  0.06916548  1
  O2-  O394  1  0.24970300  -0.00333312  0.60146395  1
  O2-  O395  1  0.75032103  0.66595705  0.90866392  1
  O2-  O396  1  0.25017213  0.50358931  0.84239939  1
  O2-  O397  1  0.24990111  0.15798003  0.57770988  1
  O2-  O398  1  0.75014141  0.49937368  0.30978439  1
  O2-  O399  1  0.74995981  0.83179778  0.41693687  1
  O2-  O400  1  0.75043246  0.83180514  0.14896010  1
  O2-  O401  1  0.74980192  0.49743246  0.39552441  1
  O2-  O402  1  0.25078232  0.84072475  0.10590680  1
  O2-  O403  1  0.25030305  0.49987595  0.08326658  1
  O2-  O404  1  0.74994188  0.83475337  0.33395829  1
  O2-  O405  1  0.24978294  0.83028379  0.18557431  1
  O2-  O406  1  0.25016541  0.50474353  0.63509678  1
  O2-  O407  1  0.25003948  0.83780907  0.58601673  1
  O2-  O408  1  0.75004263  0.16637124  0.84580981  1
  O2-  O409  1  0.74991255  0.49926399  0.06704640  1
  O2-  O410  1  0.75017823  0.50104094  0.17191746  1
  O2-  O411  1  0.25036818  0.49802585  0.16044314  1
  O2-  O412  1  0.25003007  0.49754441  0.39541982  1
  O2-  O413  1  0.75007096  0.83976106  0.59029868  1
  O2-  O414  1  0.74973700  0.49355141  0.65523302  1
  O2-  O415  1  0.25003881  0.83270902  0.78802236  1
  O2-  O416  1  0.74984689  0.49756289  0.84117626  1
  O2-  O417  1  0.75010376  0.16746580  0.93281718  1
  O2-  O418  1  0.25014360  0.16617312  0.66417311  1
  O2-  O419  1  0.25050364  0.83252631  0.86643093  1
  O2-  O420  1  0.97124471  0.00035408  0.12399755  1
  O2-  O421  1  0.52642198  0.66742458  0.37666694  1
  O2-  O422  1  0.54360556  0.66592205  0.12389582  1
  O2-  O423  1  0.01686495  -0.00236875  0.87338228  1
  O2-  O424  1  0.95909557  0.65972013  0.61799905  1
  O2-  O425  1  0.04344533  0.66368199  0.61990485  1
  O2-  O426  1  0.47193029  -0.00567013  0.12424344  1
  O2-  O427  1  0.47236866  -0.00259857  0.37470654  1
  O2-  O428  1  0.97816611  0.66468968  0.12895401  1
  O2-  O429  1  0.04320985  0.33786577  0.12889786  1
  O2-  O430  1  0.45620958  0.66137899  0.13244949  1
  O2-  O431  1  0.47591384  0.00233128  0.87818016  1
  O2-  O432  1  0.46339186  0.32751232  0.36241836  1
  O2-  O433  1  0.02215667  0.34798033  0.36898321  1
  O2-  O434  1  0.96438627  -0.00681643  0.37897403  1
  O2-  O435  1  0.45618105  -0.00035987  0.62434076  1
  O2-  O436  1  0.97200933  0.67595782  0.37522097  1
  O2-  O437  1  0.52717620  0.00321834  0.12396071  1
  O2-  O438  1  0.95612908  0.33236904  0.12202962  1
  O2-  O439  1  0.03328548  -0.00872561  0.38311228  1
  O2-  O440  1  0.03479115  0.66551074  0.37186439  1
  O2-  O441  1  0.52049517  0.66856711  0.62108991  1
  O2-  O442  1  0.54283213  -0.00602836  0.62179850  1
  O2-  O443  1  0.54098288  0.33517766  0.37518946  1
