# generated using pymatgen
data_La7(Ru4O11)2
_symmetry_space_group_name_H-M   'P 1'
_cell_length_a   23.99351965
_cell_length_b   16.83425467
_cell_length_c   15.42990481
_cell_angle_alpha   89.99897092
_cell_angle_beta   89.99940855
_cell_angle_gamma   90.00058463
_symmetry_Int_Tables_number   1
_chemical_formula_structural   La7(Ru4O11)2
_chemical_formula_sum   'La84 Ru96 O264'
_cell_volume   6232.33945067
_cell_formula_units_Z   12
loop_
 _symmetry_equiv_pos_site_id
 _symmetry_equiv_pos_as_xyz
  1  'x, y, z'
loop_
 _atom_type_symbol
 _atom_type_oxidation_number
  La3+  3.0
  Ru4+  4.0
  O2-  -2.0
loop_
 _atom_site_type_symbol
 _atom_site_label
 _atom_site_symmetry_multiplicity
 _atom_site_fract_x
 _atom_site_fract_y
 _atom_site_fract_z
 _atom_site_occupancy
  La3+  La0  1  0.14787912  -0.00242336  0.12939966  1
  La3+  La1  1  0.14169633  -0.00193079  0.37312531  1
  La3+  La2  1  0.14089169  -0.00681644  0.62589709  1
  La3+  La3  1  0.13633508  -0.00694208  0.87427263  1
  La3+  La4  1  0.14070727  0.33185748  0.12586547  1
  La3+  La5  1  0.13598674  0.32836083  0.37437772  1
  La3+  La6  1  0.13768231  0.33081324  0.62047466  1
  La3+  La7  1  0.14090051  0.33236192  0.87783319  1
  La3+  La8  1  0.14463225  0.66595535  0.12079036  1
  La3+  La9  1  0.13833994  0.67196722  0.37179939  1
  La3+  La10  1  0.14140535  0.67233919  0.62880763  1
  La3+  La11  1  0.14684941  0.67091733  0.87478212  1
  La3+  La12  1  0.63916811  0.00178184  0.12445804  1
  La3+  La13  1  0.63662539  0.00066079  0.37182806  1
  La3+  La14  1  0.64428057  0.00008774  0.62994500  1
  La3+  La15  1  0.64261036  -0.00035968  0.87769291  1
  La3+  La16  1  0.64428462  0.32056069  0.13406129  1
  La3+  La17  1  0.63531271  0.33144122  0.37832286  1
  La3+  La18  1  0.63519433  0.33226633  0.62551355  1
  La3+  La19  1  0.64866546  0.31933167  0.87419419  1
  La3+  La20  1  0.63268077  0.66847984  0.11996533  1
  La3+  La21  1  0.62930736  0.66894290  0.37801637  1
  La3+  La22  1  0.63989478  0.66937896  0.62886121  1
  La3+  La23  1  0.64002394  0.67340138  0.87135961  1
  La3+  La24  1  0.35238673  -0.00243067  0.12892191  1
  La3+  La25  1  0.36128261  -0.00392219  0.37327435  1
  La3+  La26  1  0.35798776  -0.00842122  0.62136225  1
  La3+  La27  1  0.36124102  -0.00579671  0.87354753  1
  La3+  La28  1  0.36415846  0.33068658  0.12585425  1
  La3+  La29  1  0.36047948  0.32797973  0.37111564  1
  La3+  La30  1  0.36429656  0.33274617  0.62230585  1
  La3+  La31  1  0.36127957  0.33279245  0.87866840  1
  La3+  La32  1  0.35715760  0.66954243  0.12479178  1
  La3+  La33  1  0.35933144  0.67075751  0.37173292  1
  La3+  La34  1  0.35574604  0.67220564  0.62794924  1
  La3+  La35  1  0.35471709  0.67215160  0.87346051  1
  La3+  La36  1  0.85961288  0.00553367  0.11927599  1
  La3+  La37  1  0.86115314  0.00716879  0.37428198  1
  La3+  La38  1  0.85282516  0.00254733  0.63228668  1
  La3+  La39  1  0.85830876  -0.00170808  0.88131856  1
  La3+  La40  1  0.86352642  0.32991149  0.12759305  1
  La3+  La41  1  0.86655518  0.32967009  0.37429239  1
  La3+  La42  1  0.85869735  0.33604322  0.62239216  1
  La3+  La43  1  0.86206888  0.33293348  0.87365840  1
  La3+  La44  1  0.86331424  0.67004409  0.11987357  1
  La3+  La45  1  0.86831701  0.66852179  0.38044175  1
  La3+  La46  1  0.85463361  0.66939817  0.63226929  1
  La3+  La47  1  0.85872150  0.67022385  0.87156073  1
  La3+  La48  1  0.49681098  0.50066565  0.87205220  1
  La3+  La49  1  0.00264554  0.15321322  0.87165290  1
  La3+  La50  1  0.50161194  0.16875721  0.86943038  1
  La3+  La51  1  0.00078232  0.50149298  0.63324711  1
  La3+  La52  1  0.49793284  0.82697056  0.36722431  1
  La3+  La53  1  0.50397962  0.17541686  0.35827710  1
  La3+  La54  1  0.50145276  0.83566320  0.86864751  1
  La3+  La55  1  -0.00146466  0.50357734  0.88787770  1
  La3+  La56  1  -0.00184831  0.50297928  0.12738320  1
  La3+  La57  1  0.49727379  0.82046048  0.13872832  1
  La3+  La58  1  0.50665579  0.82808992  0.61686035  1
  La3+  La59  1  0.00116085  0.49815412  0.86648454  1
  La3+  La60  1  0.00335620  0.16663279  0.12317590  1
  La3+  La61  1  0.00095341  0.15606688  0.14205633  1
  La3+  La62  1  0.00302409  0.84019972  0.13386673  1
  La3+  La63  1  0.49951405  0.50681795  0.61774831  1
  La3+  La64  1  0.00034428  0.50303876  0.38053707  1
  La3+  La65  1  -0.00022092  0.50063093  0.61163470  1
  La3+  La66  1  -0.00791804  0.82236376  0.87487388  1
  La3+  La67  1  0.50179687  0.17186045  0.61405834  1
  La3+  La68  1  0.50410418  0.16883914  0.37992061  1
  La3+  La69  1  0.00232216  0.16258253  0.89161139  1
  La3+  La70  1  0.00395648  0.17274150  0.61644226  1
  La3+  La71  1  -0.00065441  0.84318478  0.37794030  1
  La3+  La72  1  0.74866980  0.47092785  0.19224604  1
  La3+  La73  1  0.75016226  0.21796099  0.49078341  1
  La3+  La74  1  0.74979621  0.48623701  0.45359787  1
  La3+  La75  1  0.75030934  0.82954639  0.78956260  1
  La3+  La76  1  0.75021293  0.84763561  0.17458979  1
  La3+  La77  1  0.74942180  0.55386061  0.76749803  1
  La3+  La78  1  0.75243843  0.48912121  0.01469074  1
  La3+  La79  1  0.24923834  0.50539812  0.54864302  1
  La3+  La80  1  0.25027341  0.45600719  0.27787788  1
  La3+  La81  1  0.24938525  0.55917935  0.75893722  1
  La3+  La82  1  0.25077604  0.11410531  0.74657862  1
  La3+  La83  1  0.25037176  0.15986609  0.24757731  1
  Ru4+  Ru84  1  0.00487168  -0.01520514  0.00181472  1
  Ru4+  Ru85  1  0.00071116  -0.00390619  0.25314649  1
  Ru4+  Ru86  1  -0.00824060  -0.00242372  0.50093438  1
  Ru4+  Ru87  1  0.00222782  -0.00370182  0.74338984  1
  Ru4+  Ru88  1  -0.00444172  0.33982135  -0.00234479  1
  Ru4+  Ru89  1  0.00533451  0.33183054  0.25216749  1
  Ru4+  Ru90  1  -0.00108681  0.33708875  0.50234188  1
  Ru4+  Ru91  1  -0.00068060  0.33716623  0.75323274  1
  Ru4+  Ru92  1  0.00051401  0.66191291  0.00196338  1
  Ru4+  Ru93  1  0.00426828  0.67219761  0.25519831  1
  Ru4+  Ru94  1  -0.00408256  0.66702346  0.50221245  1
  Ru4+  Ru95  1  -0.00129815  0.67112564  0.75343695  1
  Ru4+  Ru96  1  0.50553848  -0.00768862  -0.00918371  1
  Ru4+  Ru97  1  0.50162191  0.00328692  0.24896129  1
  Ru4+  Ru98  1  0.50806632  -0.00024798  0.49635135  1
  Ru4+  Ru99  1  0.49781822  0.00080346  0.75013338  1
  Ru4+  Ru100  1  0.49629389  0.33567251  0.00143878  1
  Ru4+  Ru101  1  0.50002907  0.32975110  0.24132508  1
  Ru4+  Ru102  1  0.49428971  0.34359196  0.49849201  1
  Ru4+  Ru103  1  0.49566129  0.33187679  0.75033172  1
  Ru4+  Ru104  1  0.50145180  0.67439741  -0.00093828  1
  Ru4+  Ru105  1  0.50346502  0.66071913  0.25014407  1
  Ru4+  Ru106  1  0.49948870  0.66533782  0.49473847  1
  Ru4+  Ru107  1  0.50047418  0.66851583  0.75166643  1
  Ru4+  Ru108  1  0.11856141  0.16584505  -0.00088421  1
  Ru4+  Ru109  1  0.11080229  0.17408613  0.25532760  1
  Ru4+  Ru110  1  0.11409346  0.17029246  0.50281568  1
  Ru4+  Ru111  1  0.11180587  0.17085294  0.74665082  1
  Ru4+  Ru112  1  0.11380606  0.50260786  -0.00039026  1
  Ru4+  Ru113  1  0.11056101  0.50267022  0.25007833  1
  Ru4+  Ru114  1  0.10739821  0.49745992  0.50091076  1
  Ru4+  Ru115  1  0.10345343  0.49914047  0.74780524  1
  Ru4+  Ru116  1  0.11455466  0.83754042  -0.00081222  1
  Ru4+  Ru117  1  0.11247815  0.82429095  0.24570000  1
  Ru4+  Ru118  1  0.11759351  0.83359616  0.49831308  1
  Ru4+  Ru119  1  0.11450354  0.83492998  0.75161222  1
  Ru4+  Ru120  1  0.61133053  0.16435844  -0.00033043  1
  Ru4+  Ru121  1  0.61196174  0.16734475  0.24669970  1
  Ru4+  Ru122  1  0.61611920  0.16073701  0.49951605  1
  Ru4+  Ru123  1  0.61240408  0.16809484  0.74849670  1
  Ru4+  Ru124  1  0.60942990  0.49434564  0.00129760  1
  Ru4+  Ru125  1  0.60865811  0.50268082  0.24795641  1
  Ru4+  Ru126  1  0.61027984  0.50295586  0.49934553  1
  Ru4+  Ru127  1  0.60717374  0.49794729  0.75226247  1
  Ru4+  Ru128  1  0.61280218  0.83637491  -0.00223120  1
  Ru4+  Ru129  1  0.61231968  0.82860843  0.24967367  1
  Ru4+  Ru130  1  0.61267376  0.83869401  0.50151377  1
  Ru4+  Ru131  1  0.60966013  0.83316372  0.75012445  1
  Ru4+  Ru132  1  0.38786645  0.16985224  0.00006512  1
  Ru4+  Ru133  1  0.38881968  0.16552173  0.25080742  1
  Ru4+  Ru134  1  0.38590417  0.17065738  0.50073372  1
  Ru4+  Ru135  1  0.39306651  0.16570276  0.75028661  1
  Ru4+  Ru136  1  0.38732440  0.50042308  0.00040087  1
  Ru4+  Ru137  1  0.38939528  0.50003508  0.24979737  1
  Ru4+  Ru138  1  0.38921034  0.49777322  0.49636105  1
  Ru4+  Ru139  1  0.39097140  0.49885514  0.74853967  1
  Ru4+  Ru140  1  0.38593063  0.83366279  -0.00093498  1
  Ru4+  Ru141  1  0.38521023  0.83164924  0.25309611  1
  Ru4+  Ru142  1  0.37873859  0.82972644  0.49682678  1
  Ru4+  Ru143  1  0.38604887  0.83634137  0.74978849  1
  Ru4+  Ru144  1  0.88044097  0.16745445  -0.00050834  1
  Ru4+  Ru145  1  0.88350811  0.16458181  0.25255893  1
  Ru4+  Ru146  1  0.89215083  0.16743045  0.49640153  1
  Ru4+  Ru147  1  0.88857692  0.16576138  0.74654338  1
  Ru4+  Ru148  1  0.89608150  0.50037573  0.00000462  1
  Ru4+  Ru149  1  0.89020357  0.49979122  0.25085130  1
  Ru4+  Ru150  1  0.89240159  0.49631901  0.49993779  1
  Ru4+  Ru151  1  0.88889862  0.49848747  0.74846435  1
  Ru4+  Ru152  1  0.88491494  0.84025556  -0.00079768  1
  Ru4+  Ru153  1  0.88946292  0.83425590  0.24970694  1
  Ru4+  Ru154  1  0.89213885  0.83977317  0.50136342  1
  Ru4+  Ru155  1  0.89179982  0.83296960  0.74723829  1
  Ru4+  Ru156  1  0.75026202  0.96526801  0.26621005  1
  Ru4+  Ru157  1  0.74977289  0.74157235  0.27556265  1
  Ru4+  Ru158  1  0.74998201  0.76029011  0.48474874  1
  Ru4+  Ru159  1  0.74974072  0.61892078  0.49597442  1
  Ru4+  Ru160  1  0.24949025  0.38120930  0.46845771  1
  Ru4+  Ru161  1  0.75074572  0.05912871  0.50809109  1
  Ru4+  Ru162  1  0.25067021  0.25027946  0.75211818  1
  Ru4+  Ru163  1  0.25011650  0.08994923  0.49615448  1
  Ru4+  Ru164  1  0.24939434  0.41835589  0.75591262  1
  Ru4+  Ru165  1  0.25030468  0.60842169  0.24055133  1
  Ru4+  Ru166  1  0.74877061  0.22599035  0.00860719  1
  Ru4+  Ru167  1  0.75034811  0.92178504  0.48527870  1
  Ru4+  Ru168  1  0.75030501  0.25695820  0.76067632  1
  Ru4+  Ru169  1  0.75004600  0.39380026  0.74911332  1
  Ru4+  Ru170  1  0.75065419  0.35865491  0.49333582  1
  Ru4+  Ru171  1  0.74979912  0.07104277  0.75833457  1
  Ru4+  Ru172  1  0.25065919  0.59290615  -0.01024462  1
  Ru4+  Ru173  1  0.24964080  0.64548648  0.49736445  1
  Ru4+  Ru174  1  0.75005671  0.34941858  0.27511196  1
  Ru4+  Ru175  1  0.75034912  0.59789170  0.26579729  1
  Ru4+  Ru176  1  0.25007673  0.41817502  -0.00282069  1
  Ru4+  Ru177  1  0.25065542  0.08443461  0.01785091  1
  Ru4+  Ru178  1  0.75064812  0.61998145  -0.00846821  1
  Ru4+  Ru179  1  0.75050004  0.35539087  -0.00691091  1
  O2-  O180  1  0.16903269  0.07843622  -0.00261430  1
  O2-  O181  1  0.16419060  0.08429238  0.25382641  1
  O2-  O182  1  0.16501331  0.08167737  0.49878631  1
  O2-  O183  1  0.16292917  0.07516327  0.75365216  1
  O2-  O184  1  0.16591629  0.41422110  -0.00072007  1
  O2-  O185  1  0.16338131  0.40883305  0.24877134  1
  O2-  O186  1  0.16660959  0.41151782  0.50014764  1
  O2-  O187  1  0.16547649  0.41280487  0.74995126  1
  O2-  O188  1  0.16816502  0.75364400  0.00132487  1
  O2-  O189  1  0.17026761  0.74908102  0.25150045  1
  O2-  O190  1  0.16601753  0.74567876  0.50060886  1
  O2-  O191  1  0.16793722  0.75193144  0.74704542  1
  O2-  O192  1  0.66277103  0.08305273  -0.00067865  1
  O2-  O193  1  0.66466006  0.08318469  0.25109726  1
  O2-  O194  1  0.66945393  0.07870310  0.49992685  1
  O2-  O195  1  0.66557687  0.08180193  0.75174634  1
  O2-  O196  1  0.67135436  0.41319813  0.00273204  1
  O2-  O197  1  0.66517121  0.41443715  0.25214202  1
  O2-  O198  1  0.66623657  0.41093015  0.50218663  1
  O2-  O199  1  0.67120976  0.41465019  0.74445597  1
  O2-  O200  1  0.66457043  0.75260787  -0.00082630  1
  O2-  O201  1  0.66586750  0.74380987  0.25157799  1
  O2-  O202  1  0.66566086  0.75010746  0.49812219  1
  O2-  O203  1  0.66263691  0.74887251  0.74872327  1
  O2-  O204  1  0.33502375  0.25207846  -0.00043193  1
  O2-  O205  1  0.32689495  0.25305513  0.24600781  1
  O2-  O206  1  0.33630204  0.25104795  0.49998358  1
  O2-  O207  1  0.33498621  0.25404219  0.75101320  1
  O2-  O208  1  0.33427497  0.58608829  -0.00142336  1
  O2-  O209  1  0.33441156  0.58676184  0.24964778  1
  O2-  O210  1  0.33323708  0.58712542  0.50157438  1
  O2-  O211  1  0.34186757  0.58855933  0.74986441  1
  O2-  O212  1  0.33527491  0.91963048  -0.00100618  1
  O2-  O213  1  0.33536414  0.91895335  0.25042502  1
  O2-  O214  1  0.32896471  0.91860397  0.50108632  1
  O2-  O215  1  0.33385465  0.91916475  0.75041767  1
  O2-  O216  1  0.83186526  0.25571562  0.00037086  1
  O2-  O217  1  0.83470728  0.25583399  0.25242276  1
  O2-  O218  1  0.83941796  0.25613027  0.49910511  1
  O2-  O219  1  0.83309458  0.25113277  0.75238479  1
  O2-  O220  1  0.83400082  0.59012090  0.00161655  1
  O2-  O221  1  0.83558819  0.58682503  0.24891108  1
  O2-  O222  1  0.83166915  0.59088080  0.49659836  1
  O2-  O223  1  0.83912248  0.58661486  0.75158796  1
  O2-  O224  1  0.83136081  0.91645425  0.00257540  1
  O2-  O225  1  0.83235410  0.92129475  0.24769470  1
  O2-  O226  1  0.83185847  0.91604938  0.49817666  1
  O2-  O227  1  0.83444800  0.91683355  0.75367222  1
  O2-  O228  1  0.16573909  0.25291568  0.00115111  1
  O2-  O229  1  0.17202282  0.25391870  0.24976939  1
  O2-  O230  1  0.16586249  0.25051392  0.49836781  1
  O2-  O231  1  0.16601388  0.25365324  0.74920165  1
  O2-  O232  1  0.16928199  0.58337318  -0.00477143  1
  O2-  O233  1  0.16714603  0.58535975  0.25118216  1
  O2-  O234  1  0.17134310  0.59070771  0.50200646  1
  O2-  O235  1  0.16025182  0.58870561  0.74744732  1
  O2-  O236  1  0.17035829  0.91699443  -0.00520936  1
  O2-  O237  1  0.16341509  0.91659712  0.25287946  1
  O2-  O238  1  0.16838546  0.91878112  0.50036482  1
  O2-  O239  1  0.16615544  0.91687468  0.75342727  1
  O2-  O240  1  0.66709635  0.25028015  0.00336242  1
  O2-  O241  1  0.66977945  0.24982643  0.25389726  1
  O2-  O242  1  0.66071900  0.25718835  0.50493697  1
  O2-  O243  1  0.66836847  0.25090617  0.74453616  1
  O2-  O244  1  0.66899100  0.58783661  0.00163833  1
  O2-  O245  1  0.66696465  0.58742673  0.25196465  1
  O2-  O246  1  0.66478646  0.59107606  0.49914386  1
  O2-  O247  1  0.65867122  0.58871596  0.74761979  1
  O2-  O248  1  0.66774320  0.91605699  0.00375743  1
  O2-  O249  1  0.66803240  0.92230176  0.24882810  1
  O2-  O250  1  0.66789719  0.92005254  0.49684332  1
  O2-  O251  1  0.66496015  0.91981087  0.75258126  1
  O2-  O252  1  0.33330229  0.08086112  -0.00253539  1
  O2-  O253  1  0.33528843  0.08164142  0.25140741  1
  O2-  O254  1  0.33346887  0.07924546  0.50045716  1
  O2-  O255  1  0.33957037  0.07570843  0.75229774  1
  O2-  O256  1  0.33231312  0.41289196  0.00041755  1
  O2-  O257  1  0.33755947  0.40999863  0.24720055  1
  O2-  O258  1  0.32736937  0.41361213  0.50072857  1
  O2-  O259  1  0.33160797  0.41327145  0.75155974  1
  O2-  O260  1  0.33560468  0.74872708  0.00027357  1
  O2-  O261  1  0.33273660  0.74812377  0.24664829  1
  O2-  O262  1  0.33362702  0.74364126  0.50065493  1
  O2-  O263  1  0.33864628  0.74756598  0.74960743  1
  O2-  O264  1  0.83281720  0.08290174  -0.00117507  1
  O2-  O265  1  0.83259695  0.08405139  0.24939697  1
  O2-  O266  1  0.83146653  0.08164436  0.50131658  1
  O2-  O267  1  0.83233188  0.08440592  0.75202298  1
  O2-  O268  1  0.83553201  0.40903058  0.00134392  1
  O2-  O269  1  0.83342415  0.41264850  0.24932301  1
  O2-  O270  1  0.83494710  0.41191238  0.49636181  1
  O2-  O271  1  0.83221532  0.41152413  0.75145461  1
  O2-  O272  1  0.83489892  0.75287432  0.00567517  1
  O2-  O273  1  0.83401021  0.74545246  0.24932672  1
  O2-  O274  1  0.83374532  0.75234959  0.49510265  1
  O2-  O275  1  0.83361035  0.75232472  0.75330604  1
  O2-  O276  1  0.54398652  0.09784599  0.73039693  1
  O2-  O277  1  0.96161060  0.22970046  0.78227767  1
  O2-  O278  1  0.03883234  0.88816863  0.96171123  1
  O2-  O279  1  0.05325313  0.24185496  0.99579792  1
  O2-  O280  1  0.46580050  0.46400831  0.49498988  1
  O2-  O281  1  0.53371738  0.43491696  0.71998704  1
  O2-  O282  1  0.43897171  0.42284095  0.98286895  1
  O2-  O283  1  0.04882858  0.43219854  0.26252900  1
  O2-  O284  1  0.95111762  0.09027313  0.98340021  1
  O2-  O285  1  0.55843855  0.91866043  0.22404117  1
  O2-  O286  1  0.52929225  0.44690037  1.00600096  1
  O2-  O287  1  0.53081398  0.20744825  0.21478133  1
  O2-  O288  1  0.05357862  0.76094061  0.29910464  1
  O2-  O289  1  0.03515900  0.78234377  0.74612068  1
  O2-  O290  1  0.45038499  0.23248505  0.00857095  1
  O2-  O291  1  0.52930074  0.44690628  0.00646939  1
  O2-  O292  1  0.53290345  0.57166733  1.00317546  1
  O2-  O293  1  0.94959171  0.42126363  0.26747196  1
  O2-  O294  1  0.54186115  0.23648983  0.48912768  1
  O2-  O295  1  0.96483606  0.87558172  0.53724657  1
  O2-  O296  1  0.05192218  0.90864852  0.24192265  1
  O2-  O297  1  0.45439475  0.89969772  0.51887803  1
  O2-  O298  1  0.55432434  0.43336574  0.49028578  1
  O2-  O299  1  0.95619446  0.57120420  0.25966318  1
  O2-  O300  1  0.94806551  0.76092962  0.25867313  1
  O2-  O301  1  0.94762359  0.90738396  0.23743147  1
  O2-  O302  1  0.45461303  0.76898952  0.98637324  1
  O2-  O303  1  0.05402180  0.89409235  0.52821909  1
  O2-  O304  1  0.45014611  0.90501771  0.23772760  1
  O2-  O305  1  0.95381225  0.77332553  0.03174315  1
  O2-  O306  1  0.45320400  0.89428184  0.51307776  1
  O2-  O307  1  0.92117450  0.69947829  0.54530909  1
  O2-  O308  1  0.95544123  0.10481256  0.70194228  1
  O2-  O309  1  0.04605685  0.43123047  0.01371751  1
  O2-  O310  1  0.95339866  0.90184576  0.75906299  1
  O2-  O311  1  0.54644183  0.58027163  0.75269496  1
  O2-  O312  1  0.05294540  0.09326975  0.75296355  1
  O2-  O313  1  0.54990911  0.22979621  0.98750838  1
  O2-  O314  1  0.53349703  0.43380525  0.73970401  1
  O2-  O315  1  0.54963573  0.75614085  0.48997769  1
  O2-  O316  1  0.95202585  0.23666365  0.24252646  1
  O2-  O317  1  0.54709440  0.89985393  0.44940716  1
  O2-  O318  1  0.94707947  0.24053900  0.01076197  1
  O2-  O319  1  0.54689573  0.58054743  0.73890669  1
  O2-  O320  1  0.53097984  0.89021373  0.04013867  1
  O2-  O321  1  0.45442009  0.10036998  0.49328490  1
  O2-  O322  1  0.95217346  0.09464866  0.02223044  1
  O2-  O323  1  0.04719981  0.76783379  0.02864410  1
  O2-  O324  1  0.93368346  0.92481000  0.92814498  1
  O2-  O325  1  0.93592204  0.92841659  0.07188302  1
  O2-  O326  1  0.97992152  0.77537494  0.49767760  1
  O2-  O327  1  0.94021979  0.41409458  0.71228927  1
  O2-  O328  1  0.06314089  0.26495478  0.53365167  1
  O2-  O329  1  0.55458284  0.91005523  0.23147426  1
  O2-  O330  1  0.41368561  0.37889297  0.47173247  1
  O2-  O331  1  0.06491359  0.26595262  0.17529427  1
  O2-  O332  1  0.56161343  0.24951243  0.46940047  1
  O2-  O333  1  0.93820160  0.26339517  0.46759054  1
  O2-  O334  1  0.43821606  0.73370904  0.27952543  1
  O2-  O335  1  0.43893365  0.92750160  0.78363287  1
  O2-  O336  1  0.08128302  0.93941031  0.05616156  1
  O2-  O337  1  0.56177158  0.25371392  0.77181036  1
  O2-  O338  1  0.06657100  0.93013999  0.72491342  1
  O2-  O339  1  0.08153879  0.74599849  0.16227798  1
  O2-  O340  1  0.06787414  0.94153896  0.45231744  1
  O2-  O341  1  0.06072419  0.26415309  0.32307531  1
  O2-  O342  1  0.93862624  0.08112084  0.47858908  1
  O2-  O343  1  0.92711551  0.27365759  0.67631728  1
  O2-  O344  1  0.55858277  0.74432639  0.48217898  1
  O2-  O345  1  0.56693948  0.74473777  0.02669598  1
  O2-  O346  1  0.05814806  0.75476141  0.30001533  1
  O2-  O347  1  0.92065772  0.92236790  0.42211593  1
  O2-  O348  1  0.58585125  0.39108436  0.92564598  1
  O2-  O349  1  0.07541788  0.72417216  0.77773855  1
  O2-  O350  1  0.43121256  0.40405231  0.72668933  1
  O2-  O351  1  0.93941641  0.58516475  0.76797158  1
  O2-  O352  1  0.07484851  0.73750899  0.95212721  1
  O2-  O353  1  0.92698802  0.96048848  0.57593324  1
  O2-  O354  1  0.92503619  0.73351105  0.96080426  1
  O2-  O355  1  0.58933414  0.39579824  0.07457873  1
  O2-  O356  1  0.43372911  0.25543555  0.27666739  1
  O2-  O357  1  0.56990428  0.94401807  0.57265230  1
  O2-  O358  1  0.57785473  0.26688585  0.30303013  1
  O2-  O359  1  0.56111114  0.07180300  0.21968112  1
  O2-  O360  1  0.06486225  0.58912286  0.47924386  1
  O2-  O361  1  0.93554942  0.06851106  0.21753205  1
  O2-  O362  1  0.92828655  0.05288330  0.81453784  1
  O2-  O363  1  0.56568129  0.59067384  0.22602080  1
  O2-  O364  1  0.42241834  0.94131780  0.45956460  1
  O2-  O365  1  0.57810385  0.93906824  0.94457527  1
  O2-  O366  1  0.93834374  0.58156760  0.47135592  1
  O2-  O367  1  0.56374426  0.07348917  0.46177388  1
  O2-  O368  1  0.06382985  0.58964656  0.02510895  1
  O2-  O369  1  0.58034561  0.60682284  0.96523580  1
  O2-  O370  1  0.93375608  0.73669629  0.71740229  1
  O2-  O371  1  0.59224681  0.38804208  0.80119770  1
  O2-  O372  1  0.74971160  0.67552773  0.82087948  1
  O2-  O373  1  0.74865682  0.68789486  0.59109777  1
  O2-  O374  1  0.74920862  0.02231496  0.15749195  1
  O2-  O375  1  0.25135004  0.65419715  0.86111504  1
  O2-  O376  1  0.25042744  0.66352924  0.35267950  1
  O2-  O377  1  0.25028496  0.33277391  0.83218350  1
  O2-  O378  1  0.25021955  0.31146028  0.55498076  1
  O2-  O379  1  0.74987930  0.69979953  0.90846665  1
  O2-  O380  1  0.74886073  0.00906612  0.37964090  1
  O2-  O381  1  0.25149783  0.01138901  0.13889623  1
  O2-  O382  1  0.74998628  0.70509567  0.06978917  1
  O2-  O383  1  0.25015357  0.00233147  0.57634436  1
  O2-  O384  1  0.74910052  0.66612124  0.68152525  1
  O2-  O385  1  0.25195028  0.66197884  0.09653702  1
  O2-  O386  1  0.75052212  0.66330319  0.37725417  1
  O2-  O387  1  0.74862599  0.32372919  0.61864308  1
  O2-  O388  1  0.25025853  0.33856267  0.67337543  1
  O2-  O389  1  0.25094511  0.65244826  0.63713244  1
  O2-  O390  1  0.74918171  0.00264061  0.65223729  1
  O2-  O391  1  0.74993496  -0.01043135  0.07460416  1
  O2-  O392  1  0.25030970  0.00403094  0.66859286  1
  O2-  O393  1  0.75052452  0.66366808  0.17378750  1
  O2-  O394  1  0.25015361  0.32204145  0.94106173  1
  O2-  O395  1  0.75061732  0.33168121  0.14288753  1
  O2-  O396  1  0.75007256  0.14588564  0.60446503  1
  O2-  O397  1  0.75005633  0.16960038  0.29701442  1
  O2-  O398  1  0.75012293  0.83265091  0.65482205  1
  O2-  O399  1  0.75025534  0.51573853  0.58457042  1
  O2-  O400  1  0.24982805  0.83343550  0.33537832  1
  O2-  O401  1  0.74960642  0.84070526  0.56777297  1
  O2-  O402  1  0.75001172  0.48034723  0.88112374  1
  O2-  O403  1  0.75019052  0.16464163  0.68917648  1
  O2-  O404  1  0.75058360  0.49908440  0.32354249  1
  O2-  O405  1  0.25029319  0.83331888  0.65955888  1
  O2-  O406  1  0.24992737  0.83485695  0.84045020  1
  O2-  O407  1  0.75026973  0.16890593  0.09867372  1
  O2-  O408  1  0.25033925  0.50587827  0.06563914  1
  O2-  O409  1  0.25009924  0.50039951  0.40786743  1
  O2-  O410  1  0.75043955  0.15935919  0.91842999  1
  O2-  O411  1  0.25015667  0.16121044  0.40905295  1
  O2-  O412  1  0.24951946  0.83349484  0.41537466  1
  O2-  O413  1  0.24984952  0.51880646  0.15418540  1
  O2-  O414  1  0.75037622  0.83959431  0.91547365  1
  O2-  O415  1  0.74986967  0.16339411  0.82955041  1
  O2-  O416  1  0.75006988  0.82766215  0.36422880  1
  O2-  O417  1  0.74956382  0.14828753  0.37762507  1
  O2-  O418  1  0.25001534  0.16569829  0.08989718  1
  O2-  O419  1  0.75092981  0.47043992  0.66177905  1
  O2-  O420  1  0.45420582  0.33703635  0.12852403  1
  O2-  O421  1  0.02696801  0.65279608  0.38122488  1
  O2-  O422  1  0.52331956  0.65862302  0.36610268  1
  O2-  O423  1  0.04605962  0.33764217  0.86926088  1
  O2-  O424  1  0.53491015  0.32718827  0.13510625  1
  O2-  O425  1  0.02403946  0.01344106  0.61650318  1
  O2-  O426  1  0.01255753  0.65374190  0.12859848  1
  O2-  O427  1  0.02766002  0.65925685  0.62483058  1
  O2-  O428  1  0.95391167  0.34384487  0.87931458  1
  O2-  O429  1  0.51990406  0.01213778  0.86783192  1
  O2-  O430  1  0.50595576  0.32409426  0.87401913  1
  O2-  O431  1  0.04096973  0.63661045  0.87653134  1
  O2-  O432  1  0.02913633  0.00437314  0.87448590  1
  O2-  O433  1  0.52019919  0.68178573  0.87398712  1
  O2-  O434  1  0.98292050  0.00687668  0.36600631  1
  O2-  O435  1  0.47582448  0.32356576  0.62006532  1
  O2-  O436  1  0.96574340  0.67542130  0.37318092  1
  O2-  O437  1  0.97203903  0.34193373  0.12417517  1
  O2-  O438  1  0.96155447  0.66636255  0.86987915  1
  O2-  O439  1  0.47131549  0.33061637  0.37084173  1
  O2-  O440  1  0.47292896  0.01059475  0.36464525  1
  O2-  O441  1  0.51595716  0.67139341  0.12626876  1
  O2-  O442  1  0.02344832  0.01513869  0.12999986  1
  O2-  O443  1  0.52795545  0.35071243  0.37334209  1
