# generated using pymatgen
data_La7(Ru4O11)2
_symmetry_space_group_name_H-M   'P 1'
_cell_length_a   23.99282195
_cell_length_b   16.83260065
_cell_length_c   15.42909906
_cell_angle_alpha   90.00106757
_cell_angle_beta   90.00003412
_cell_angle_gamma   89.99840342
_symmetry_Int_Tables_number   1
_chemical_formula_structural   La7(Ru4O11)2
_chemical_formula_sum   'La84 Ru96 O264'
_cell_volume   6231.22048072
_cell_formula_units_Z   12
loop_
 _symmetry_equiv_pos_site_id
 _symmetry_equiv_pos_as_xyz
  1  'x, y, z'
loop_
 _atom_type_symbol
 _atom_type_oxidation_number
  La3+  3.0
  Ru4+  4.0
  O2-  -2.0
loop_
 _atom_site_type_symbol
 _atom_site_label
 _atom_site_symmetry_multiplicity
 _atom_site_fract_x
 _atom_site_fract_y
 _atom_site_fract_z
 _atom_site_occupancy
  La3+  La0  1  0.14600336  0.00283997  0.12052213  1
  La3+  La1  1  0.13494882  0.00171612  0.37431427  1
  La3+  La2  1  0.13927557  -0.00106116  0.62715284  1
  La3+  La3  1  0.13371066  0.00179620  0.87864667  1
  La3+  La4  1  0.13310965  0.32919075  0.12533311  1
  La3+  La5  1  0.14726982  0.33099549  0.38100436  1
  La3+  La6  1  0.14432644  0.33002670  0.62090012  1
  La3+  La7  1  0.14365978  0.33697459  0.87215680  1
  La3+  La8  1  0.14053505  0.66863976  0.12500282  1
  La3+  La9  1  0.13761421  0.66666114  0.37583330  1
  La3+  La10  1  0.14110002  0.67282621  0.62947041  1
  La3+  La11  1  0.14693785  0.66515465  0.87338990  1
  La3+  La12  1  0.63349591  -0.00276269  0.12760044  1
  La3+  La13  1  0.64373870  0.00060051  0.37691135  1
  La3+  La14  1  0.64376519  0.00057258  0.62269078  1
  La3+  La15  1  0.63750861  0.00025555  0.87432678  1
  La3+  La16  1  0.64379128  0.33714378  0.12511533  1
  La3+  La17  1  0.64502458  0.33419484  0.37945250  1
  La3+  La18  1  0.64438205  0.33473959  0.61969745  1
  La3+  La19  1  0.63620385  0.33052658  0.87579701  1
  La3+  La20  1  0.64614997  0.66948450  0.12098229  1
  La3+  La21  1  0.63891708  0.66304914  0.37457863  1
  La3+  La22  1  0.63727407  0.66589294  0.62292946  1
  La3+  La23  1  0.63687684  0.66510428  0.87122523  1
  La3+  La24  1  0.35363957  0.00030894  0.12320328  1
  La3+  La25  1  0.36132478  0.00127210  0.37351467  1
  La3+  La26  1  0.36076939  -0.00199686  0.62625006  1
  La3+  La27  1  0.36329030  -0.00202972  0.87844000  1
  La3+  La28  1  0.36476056  0.33242498  0.12758438  1
  La3+  La29  1  0.35535413  0.33289453  0.38081109  1
  La3+  La30  1  0.36040530  0.33654253  0.62068145  1
  La3+  La31  1  0.35966789  0.33544563  0.87284021  1
  La3+  La32  1  0.35848077  0.66774210  0.12324964  1
  La3+  La33  1  0.36299769  0.66824281  0.37667092  1
  La3+  La34  1  0.35652523  0.66939899  0.62804857  1
  La3+  La35  1  0.35811499  0.67030808  0.87323447  1
  La3+  La36  1  0.86700550  0.00431829  0.12669382  1
  La3+  La37  1  0.85527591  -0.00325666  0.37536510  1
  La3+  La38  1  0.85608547  0.00116841  0.62040005  1
  La3+  La39  1  0.85801767  -0.00025525  0.86818947  1
  La3+  La40  1  0.86206345  0.32879094  0.12494664  1
  La3+  La41  1  0.85636053  0.33236834  0.37843286  1
  La3+  La42  1  0.85620536  0.33013279  0.61984710  1
  La3+  La43  1  0.85916688  0.33015809  0.87624949  1
  La3+  La44  1  0.85302310  0.67038496  0.13002132  1
  La3+  La45  1  0.85265057  0.66190633  0.37187350  1
  La3+  La46  1  0.86340453  0.66779596  0.62592766  1
  La3+  La47  1  0.84987995  0.67026886  0.87291291  1
  La3+  La48  1  0.00423931  0.49548671  0.12046001  1
  La3+  La49  1  -0.00261063  0.49820419  0.86161189  1
  La3+  La50  1  -0.00200887  0.17065098  0.87554433  1
  La3+  La51  1  0.50743263  0.48003344  0.38475056  1
  La3+  La52  1  -0.00699303  0.50389428  0.35562822  1
  La3+  La53  1  -0.00225920  0.49445069  0.61111545  1
  La3+  La54  1  0.49436242  0.17095360  0.36750449  1
  La3+  La55  1  -0.00056102  0.83066093  0.85655106  1
  La3+  La56  1  -0.00316415  0.83585521  0.37843207  1
  La3+  La57  1  -0.00072647  0.83414923  0.87888943  1
  La3+  La58  1  -0.00375722  0.83631748  0.13849968  1
  La3+  La59  1  0.00595435  0.85176248  0.61877941  1
  La3+  La60  1  0.00748180  0.17094719  0.13643222  1
  La3+  La61  1  0.00094194  0.50525677  0.62947219  1
  La3+  La62  1  -0.00213441  0.50507859  0.13748733  1
  La3+  La63  1  0.49448557  0.15958487  0.86532323  1
  La3+  La64  1  -0.00948094  0.50453468  0.37772650  1
  La3+  La65  1  0.00195834  0.49521735  0.87609594  1
  La3+  La66  1  0.49830974  0.83484961  0.63059575  1
  La3+  La67  1  0.49692773  0.50525591  0.87452692  1
  La3+  La68  1  -0.00182693  0.16629786  0.38284584  1
  La3+  La69  1  0.00106644  0.82908527  0.11910648  1
  La3+  La70  1  0.50071120  0.48272933  0.37250784  1
  La3+  La71  1  0.50338997  0.16357834  0.12614925  1
  La3+  La72  1  0.75044562  0.50206117  0.27079906  1
  La3+  La73  1  0.25116642  0.83828753  0.01771780  1
  La3+  La74  1  0.24934241  0.49806824  0.04290460  1
  La3+  La75  1  0.25073088  0.52837213  0.26271898  1
  La3+  La76  1  0.75002874  0.83582978  -0.06986644  1
  La3+  La77  1  0.74912875  0.86841620  0.49150730  1
  La3+  La78  1  0.74919870  0.53720295  0.70497055  1
  La3+  La79  1  0.25064226  0.14932738  0.74842391  1
  La3+  La80  1  0.74940112  0.15822961  0.26740617  1
  La3+  La81  1  0.24976362  0.16496835  0.25020560  1
  La3+  La82  1  0.75077010  0.16801410  0.52625380  1
  La3+  La83  1  0.25070057  0.79560843  0.52961009  1
  Ru4+  Ru84  1  0.00098965  -0.00546250  0.00170975  1
  Ru4+  Ru85  1  -0.00867613  0.01222947  0.26020447  1
  Ru4+  Ru86  1  0.00525479  0.00227561  0.50057430  1
  Ru4+  Ru87  1  -0.00265386  0.01193584  0.75029957  1
  Ru4+  Ru88  1  -0.00098327  0.33536602  -0.00332063  1
  Ru4+  Ru89  1  0.00015985  0.33275644  0.25018002  1
  Ru4+  Ru90  1  -0.00146554  0.32640566  0.50148212  1
  Ru4+  Ru91  1  0.00028552  0.32543246  0.74596098  1
  Ru4+  Ru92  1  0.00273216  0.67277263  0.00644749  1
  Ru4+  Ru93  1  -0.00277917  0.66817104  0.25293339  1
  Ru4+  Ru94  1  -0.00268105  0.67729931  0.49528313  1
  Ru4+  Ru95  1  -0.00345983  0.67252829  0.73947413  1
  Ru4+  Ru96  1  0.50247899  -0.00515503  -0.00340855  1
  Ru4+  Ru97  1  0.49936796  -0.00615567  0.25038915  1
  Ru4+  Ru98  1  0.49636016  0.00219447  0.50461976  1
  Ru4+  Ru99  1  0.50225198  0.00061357  0.75174437  1
  Ru4+  Ru100  1  0.50551209  0.32720319  -0.00366978  1
  Ru4+  Ru101  1  0.49928462  0.33331690  0.26171773  1
  Ru4+  Ru102  1  0.49882474  0.33279419  0.50512618  1
  Ru4+  Ru103  1  0.49543678  0.33951074  0.74262108  1
  Ru4+  Ru104  1  0.49765859  0.67358113  -0.00530677  1
  Ru4+  Ru105  1  0.50168981  0.66505208  0.24615433  1
  Ru4+  Ru106  1  0.49908760  0.66329677  0.50999464  1
  Ru4+  Ru107  1  0.50165469  0.66660375  0.75168778  1
  Ru4+  Ru108  1  0.12170309  0.16705088  0.00039288  1
  Ru4+  Ru109  1  0.11114262  0.16698863  0.24906359  1
  Ru4+  Ru110  1  0.11199346  0.16929686  0.50281764  1
  Ru4+  Ru111  1  0.10946760  0.16762262  0.75251884  1
  Ru4+  Ru112  1  0.10741120  0.49691707  -0.00025627  1
  Ru4+  Ru113  1  0.11448284  0.49866143  0.24909026  1
  Ru4+  Ru114  1  0.11397362  0.49441336  0.50146840  1
  Ru4+  Ru115  1  0.11666599  0.49743915  0.75115607  1
  Ru4+  Ru116  1  0.11234593  0.83041145  0.00341137  1
  Ru4+  Ru117  1  0.11485304  0.83426476  0.25046747  1
  Ru4+  Ru118  1  0.11164951  0.82811872  0.49982764  1
  Ru4+  Ru119  1  0.11427728  0.82570297  0.74863553  1
  Ru4+  Ru120  1  0.61111532  0.17302209  0.00205617  1
  Ru4+  Ru121  1  0.61056867  0.16465696  0.25031476  1
  Ru4+  Ru122  1  0.61157419  0.16880864  0.50211647  1
  Ru4+  Ru123  1  0.61434963  0.17029298  0.74825765  1
  Ru4+  Ru124  1  0.61190472  0.49913222  0.00023839  1
  Ru4+  Ru125  1  0.61179253  0.50608014  0.24432974  1
  Ru4+  Ru126  1  0.61502586  0.50025612  0.50107703  1
  Ru4+  Ru127  1  0.61038731  0.50237327  0.75093117  1
  Ru4+  Ru128  1  0.61034215  0.83302463  0.00039077  1
  Ru4+  Ru129  1  0.61526961  0.83394877  0.25319922  1
  Ru4+  Ru130  1  0.60805561  0.82986162  0.49941578  1
  Ru4+  Ru131  1  0.61266461  0.83219348  0.74906260  1
  Ru4+  Ru132  1  0.38736581  0.16558899  0.00004158  1
  Ru4+  Ru133  1  0.39042324  0.16786892  0.24995854  1
  Ru4+  Ru134  1  0.39098483  0.16819508  0.50278105  1
  Ru4+  Ru135  1  0.39179937  0.16700301  0.75143245  1
  Ru4+  Ru136  1  0.39200617  0.49910898  0.00005638  1
  Ru4+  Ru137  1  0.39005841  0.50311418  0.24968819  1
  Ru4+  Ru138  1  0.38799049  0.50074221  0.50683658  1
  Ru4+  Ru139  1  0.38899148  0.48909001  0.74908786  1
  Ru4+  Ru140  1  0.39694569  0.83382937  -0.00327599  1
  Ru4+  Ru141  1  0.38820598  0.83299757  0.25019573  1
  Ru4+  Ru142  1  0.39147108  0.83283082  0.50185677  1
  Ru4+  Ru143  1  0.38539014  0.83332951  0.74871867  1
  Ru4+  Ru144  1  0.88539707  0.16749049  -0.00156421  1
  Ru4+  Ru145  1  0.89181473  0.16023854  0.24773057  1
  Ru4+  Ru146  1  0.88963981  0.16743597  0.50402020  1
  Ru4+  Ru147  1  0.88878679  0.16137889  0.74833036  1
  Ru4+  Ru148  1  0.88548799  0.50173823  -0.00613576  1
  Ru4+  Ru149  1  0.88834719  0.49812571  0.25149066  1
  Ru4+  Ru150  1  0.88701459  0.49962328  0.49908918  1
  Ru4+  Ru151  1  0.88374829  0.50331431  0.75229332  1
  Ru4+  Ru152  1  0.88995449  0.83724281  0.00192124  1
  Ru4+  Ru153  1  0.88451853  0.83700554  0.24949573  1
  Ru4+  Ru154  1  0.89058629  0.82906595  0.49768677  1
  Ru4+  Ru155  1  0.88318157  0.82914147  0.74915871  1
  Ru4+  Ru156  1  0.25078314  0.29553869  0.73520232  1
  Ru4+  Ru157  1  0.25033583  0.38181855  0.26129492  1
  Ru4+  Ru158  1  0.74904698  0.41436218  0.01475118  1
  Ru4+  Ru159  1  0.24988096  0.57491248  0.50210189  1
  Ru4+  Ru160  1  0.74934994  0.09122962  -0.01481081  1
  Ru4+  Ru161  1  0.74939623  0.75290363  0.25817262  1
  Ru4+  Ru162  1  0.74997754  0.91063612  0.74853704  1
  Ru4+  Ru163  1  0.24984332  0.90671514  0.25354902  1
  Ru4+  Ru164  1  0.74913240  0.57685217  0.01270086  1
  Ru4+  Ru165  1  0.25084866  0.61644699  -0.01695157  1
  Ru4+  Ru166  1  0.25054825  0.36730103  0.03092432  1
  Ru4+  Ru167  1  0.24972957  0.00777384  0.76452614  1
  Ru4+  Ru168  1  0.25111059  0.57463249  0.74444264  1
  Ru4+  Ru169  1  0.75022865  0.39791042  0.75986339  1
  Ru4+  Ru170  1  0.74977591  0.09317727  0.75482414  1
  Ru4+  Ru171  1  0.24981661  0.08110330  0.48874536  1
  Ru4+  Ru172  1  0.74952040  0.71805530  0.02970509  1
  Ru4+  Ru173  1  0.74936787  0.72025902  0.49642277  1
  Ru4+  Ru174  1  0.75103242  0.01204975  0.25709377  1
  Ru4+  Ru175  1  0.25156916  0.23362385  0.02113983  1
  Ru4+  Ru176  1  0.75001130  0.95226751  0.02285193  1
  Ru4+  Ru177  1  0.75012147  0.30118070  0.22276306  1
  Ru4+  Ru178  1  0.24988356  0.76111154  0.25791077  1
  Ru4+  Ru179  1  0.25022510  0.93900717  0.49905931  1
  O2-  O180  1  0.17026911  0.07909979  -0.00131473  1
  O2-  O181  1  0.16937168  0.08137603  0.25266360  1
  O2-  O182  1  0.16790312  0.07989275  0.49598316  1
  O2-  O183  1  0.16885182  0.07540549  0.74992138  1
  O2-  O184  1  0.16504437  0.40935340  0.00318521  1
  O2-  O185  1  0.16998298  0.41294046  0.24777903  1
  O2-  O186  1  0.16809567  0.41595084  0.49845984  1
  O2-  O187  1  0.16462122  0.41543014  0.74985086  1
  O2-  O188  1  0.16513570  0.74659288  0.00311032  1
  O2-  O189  1  0.16675385  0.74745731  0.25307260  1
  O2-  O190  1  0.16593775  0.74300973  0.49469021  1
  O2-  O191  1  0.16910520  0.74887000  0.74770212  1
  O2-  O192  1  0.66433440  0.08194856  -0.00051486  1
  O2-  O193  1  0.66809398  0.07578120  0.24714361  1
  O2-  O194  1  0.66854021  0.08272545  0.49893306  1
  O2-  O195  1  0.66811532  0.07908308  0.75217842  1
  O2-  O196  1  0.66513585  0.41381147  -0.00173956  1
  O2-  O197  1  0.66429346  0.41852427  0.25171701  1
  O2-  O198  1  0.66566080  0.41822257  0.49697870  1
  O2-  O199  1  0.66799017  0.41324194  0.75206760  1
  O2-  O200  1  0.66686708  0.74661779  -0.00362721  1
  O2-  O201  1  0.66448776  0.74961281  0.25124838  1
  O2-  O202  1  0.67031622  0.74571444  0.50234218  1
  O2-  O203  1  0.66639236  0.74780359  0.74884795  1
  O2-  O204  1  0.33477241  0.25120078  0.00590565  1
  O2-  O205  1  0.33262997  0.25151154  0.24603414  1
  O2-  O206  1  0.33778828  0.24963308  0.49902921  1
  O2-  O207  1  0.33494285  0.25568096  0.75028221  1
  O2-  O208  1  0.33506953  0.58949814  -0.00048111  1
  O2-  O209  1  0.33553273  0.58839000  0.25217868  1
  O2-  O210  1  0.32968120  0.58541134  0.49662217  1
  O2-  O211  1  0.33705542  0.58293653  0.75179367  1
  O2-  O212  1  0.33653041  0.91813763  -0.00266986  1
  O2-  O213  1  0.33370256  0.91582697  0.25093941  1
  O2-  O214  1  0.33313114  0.92077255  0.50036990  1
  O2-  O215  1  0.33698754  0.92210375  0.75294122  1
  O2-  O216  1  0.83234290  0.25309687  0.00250776  1
  O2-  O217  1  0.83224029  0.25530769  0.24978951  1
  O2-  O218  1  0.83229280  0.25090548  0.49940285  1
  O2-  O219  1  0.83894875  0.24882540  0.75146709  1
  O2-  O220  1  0.82924289  0.58287657  0.00605678  1
  O2-  O221  1  0.83113863  0.58276054  0.24992816  1
  O2-  O222  1  0.83637901  0.58835153  0.50106966  1
  O2-  O223  1  0.83206466  0.59004673  0.74608354  1
  O2-  O224  1  0.83169634  0.92272420  0.00040163  1
  O2-  O225  1  0.83176377  0.92048893  0.24591283  1
  O2-  O226  1  0.83737375  0.91602610  0.50063598  1
  O2-  O227  1  0.83210250  0.91666609  0.74959067  1
  O2-  O228  1  0.16940484  0.25317516  0.00425253  1
  O2-  O229  1  0.16915855  0.25177172  0.24785238  1
  O2-  O230  1  0.16634267  0.25002064  0.49668764  1
  O2-  O231  1  0.16486890  0.25445186  0.75099490  1
  O2-  O232  1  0.16602824  0.58901591  0.00497175  1
  O2-  O233  1  0.16630883  0.59018160  0.25319199  1
  O2-  O234  1  0.16625438  0.58605910  0.49944523  1
  O2-  O235  1  0.16770112  0.58565077  0.74924649  1
  O2-  O236  1  0.16811746  0.92036934  -0.00057181  1
  O2-  O237  1  0.16731463  0.91951183  0.25307161  1
  O2-  O238  1  0.16700135  0.92091816  0.49805095  1
  O2-  O239  1  0.16181391  0.91994188  0.75277978  1
  O2-  O240  1  0.66525343  0.25150628  -0.00479859  1
  O2-  O241  1  0.66555790  0.25543139  0.24823192  1
  O2-  O242  1  0.66339405  0.24953496  0.50021463  1
  O2-  O243  1  0.66282535  0.25136462  0.75336104  1
  O2-  O244  1  0.66502233  0.58427784  -0.00113484  1
  O2-  O245  1  0.67262831  0.58092532  0.25593267  1
  O2-  O246  1  0.66666395  0.58749982  0.50112705  1
  O2-  O247  1  0.66557331  0.59097503  0.74866503  1
  O2-  O248  1  0.66767708  0.92247896  -0.00019063  1
  O2-  O249  1  0.66863878  0.92144182  0.24593560  1
  O2-  O250  1  0.66051319  0.91876017  0.50090134  1
  O2-  O251  1  0.66716429  0.91641153  0.75164527  1
  O2-  O252  1  0.33582601  0.08060724  -0.00102240  1
  O2-  O253  1  0.32860206  0.08078189  0.25132644  1
  O2-  O254  1  0.33366146  0.08112446  0.49787458  1
  O2-  O255  1  0.33553588  0.07549850  0.75300475  1
  O2-  O256  1  0.33577855  0.40976343  0.00290770  1
  O2-  O257  1  0.33144373  0.41235551  0.24811705  1
  O2-  O258  1  0.33451869  0.41943254  0.50074051  1
  O2-  O259  1  0.33371000  0.41699482  0.75046144  1
  O2-  O260  1  0.33617041  0.74939423  -0.00019009  1
  O2-  O261  1  0.33155859  0.75071512  0.25504776  1
  O2-  O262  1  0.33804052  0.74339922  0.49615976  1
  O2-  O263  1  0.33912498  0.74918130  0.75257257  1
  O2-  O264  1  0.83032624  0.08298898  0.00291094  1
  O2-  O265  1  0.83165482  0.07608137  0.24831862  1
  O2-  O266  1  0.83617582  0.08271069  0.50001596  1
  O2-  O267  1  0.82795469  0.08426404  0.75213591  1
  O2-  O268  1  0.83228683  0.41469381  0.00175096  1
  O2-  O269  1  0.83466666  0.41361887  0.24888853  1
  O2-  O270  1  0.83869151  0.41465748  0.49816140  1
  O2-  O271  1  0.83384825  0.41174945  0.74884600  1
  O2-  O272  1  0.82890201  0.74664261  0.00152477  1
  O2-  O273  1  0.83237380  0.74916134  0.25196284  1
  O2-  O274  1  0.82889590  0.74757267  0.50390394  1
  O2-  O275  1  0.82684755  0.75115615  0.74184649  1
  O2-  O276  1  0.94877441  0.24215910  0.51839330  1
  O2-  O277  1  0.04766308  0.76144383  0.23957093  1
  O2-  O278  1  0.45269771  0.42935842  0.25321909  1
  O2-  O279  1  0.44771712  0.09324336  0.51136349  1
  O2-  O280  1  0.45489856  0.23816946  0.51130915  1
  O2-  O281  1  0.95837833  0.10319002  1.01052148  1
  O2-  O282  1  0.54326850  0.23449149  0.25247542  1
  O2-  O283  1  0.96871410  0.54735186  0.00733942  1
  O2-  O284  1  0.04754923  0.57232579  0.75758293  1
  O2-  O285  1  0.53455047  0.22416157  0.96393231  1
  O2-  O286  1  0.95604186  0.78662907  0.70995160  1
  O2-  O287  1  0.53567794  0.55037136  0.26106785  1
  O2-  O288  1  0.54683262  0.10655028  0.46676246  1
  O2-  O289  1  0.46055581  0.55729565  0.46576729  1
  O2-  O290  1  0.04997453  0.09828826  0.98538793  1
  O2-  O291  1  0.97267041  0.13124725  0.74860469  1
  O2-  O292  1  0.05919363  0.74223997  0.69061359  1
  O2-  O293  1  0.04578675  0.57446058  0.48512417  1
  O2-  O294  1  0.94958378  0.43271306  0.74037041  1
  O2-  O295  1  0.54015307  0.43604519  0.77621205  1
  O2-  O296  1  0.04951023  0.42483324  0.73714471  1
  O2-  O297  1  0.52941183  0.55959522  0.26416067  1
  O2-  O298  1  0.54673835  0.89244743  0.22079693  1
  O2-  O299  1  0.96077077  0.77383278  0.53154649  1
  O2-  O300  1  0.94773953  0.91322566  0.49699361  1
  O2-  O301  1  0.55200959  0.09030863  0.99011607  1
  O2-  O302  1  0.05009563  0.09827977  -0.01483846  1
  O2-  O303  1  0.45067620  0.09559568  0.98849491  1
  O2-  O304  1  0.04603710  0.90659928  0.74662127  1
  O2-  O305  1  0.45282969  0.76212350  0.98224560  1
  O2-  O306  1  0.05389035  0.90316821  0.50037965  1
  O2-  O307  1  0.55743803  0.58518819  0.77242829  1
  O2-  O308  1  0.46806147  0.77386008  0.24850580  1
  O2-  O309  1  0.03986460  0.43162910  0.45917804  1
  O2-  O310  1  0.45367875  0.91009813  0.98823583  1
  O2-  O311  1  0.05096810  0.09325528  0.26383103  1
  O2-  O312  1  0.54672868  0.76725937  0.73575066  1
  O2-  O313  1  0.97712148  0.54735596  0.99475161  1
  O2-  O314  1  0.04469597  0.23756543  0.03077738  1
  O2-  O315  1  0.04617317  0.90558003  0.25758436  1
  O2-  O316  1  0.95806996  0.10191389  0.02993451  1
  O2-  O317  1  0.05023301  0.24008500  0.27087504  1
  O2-  O318  1  0.94693449  0.08575686  0.20033002  1
  O2-  O319  1  0.04391648  0.22770970  1.01433688  1
  O2-  O320  1  0.05431608  0.57930240  0.27049119  1
  O2-  O321  1  0.94553508  0.24162951  0.03693462  1
  O2-  O322  1  0.94309777  0.25809285  0.22295909  1
  O2-  O323  1  0.44863902  0.90749896  0.21023193  1
  O2-  O324  1  0.93412757  0.07053921  0.34777419  1
  O2-  O325  1  0.58889520  0.62697827  0.20019285  1
  O2-  O326  1  0.55955386  0.73876775  0.47315957  1
  O2-  O327  1  0.93007290  0.61539302  0.10942062  1
  O2-  O328  1  0.56734152  0.07959948  0.79919333  1
  O2-  O329  1  0.06258296  0.25453586  0.53087705  1
  O2-  O330  1  0.93595472  0.59428968  0.28768102  1
  O2-  O331  1  0.43203001  0.93309832  0.30122834  1
  O2-  O332  1  0.06813646  0.07955969  0.77245964  1
  O2-  O333  1  0.06936672  0.05562209  0.05832173  1
  O2-  O334  1  0.05288413  0.75472827  0.70309095  1
  O2-  O335  1  0.57540330  0.39932552  0.70781306  1
  O2-  O336  1  0.91572506  0.73644829  0.80977022  1
  O2-  O337  1  0.56228506  0.59166280  0.46353951  1
  O2-  O338  1  0.41885784  0.61074535  0.55490281  1
  O2-  O339  1  0.44101166  0.07664627  0.28075744  1
  O2-  O340  1  0.93974991  0.92013867  0.28185198  1
  O2-  O341  1  0.43761281  0.40475913  0.82751510  1
  O2-  O342  1  0.94067699  0.07454845  0.18865879  1
  O2-  O343  1  0.06601293  0.07759871  0.52044339  1
  O2-  O344  1  0.07250651  0.40040217  0.57570611  1
  O2-  O345  1  0.56643427  0.08028825  0.70247072  1
  O2-  O346  1  0.56805075  0.28684961  0.07144522  1
  O2-  O347  1  0.92772809  0.71406411  0.42936270  1
  O2-  O348  1  0.56257364  0.41071048  0.52398626  1
  O2-  O349  1  0.06628167  0.73181330  0.52518468  1
  O2-  O350  1  0.94409108  0.24716339  0.51584798  1
  O2-  O351  1  0.56056273  0.07540013  0.28496383  1
  O2-  O352  1  0.07638407  0.29317021  0.92837299  1
  O2-  O353  1  0.93541224  0.74492939  0.97835808  1
  O2-  O354  1  0.92803998  0.26043885  0.94767372  1
  O2-  O355  1  0.91298811  0.04736122  0.71816781  1
  O2-  O356  1  0.43708298  0.40515014  0.52873818  1
  O2-  O357  1  0.08169180  0.75623761  0.84412556  1
  O2-  O358  1  0.93859969  0.58645381  0.77151574  1
  O2-  O359  1  0.93585939  0.40805637  0.97429075  1
  O2-  O360  1  0.55264843  0.58224804  0.76707395  1
  O2-  O361  1  0.93671993  0.74463900  0.21280391  1
  O2-  O362  1  0.94114757  0.24957577  0.22565478  1
  O2-  O363  1  0.05675327  0.58720398  0.28166060  1
  O2-  O364  1  0.56722588  0.93114285  0.29732356  1
  O2-  O365  1  0.90904138  0.58965132  0.91900121  1
  O2-  O366  1  0.42352786  0.72192839  0.22560255  1
  O2-  O367  1  0.57049716  0.06574322  0.53969360  1
  O2-  O368  1  0.06284094  0.91814229  0.98014624  1
  O2-  O369  1  0.06353702  0.40316952  0.21734916  1
  O2-  O370  1  0.43838785  0.40482603  0.68171062  1
  O2-  O371  1  0.91106953  0.05352485  0.94813671  1
  O2-  O372  1  0.74963224  0.00023184  0.67695880  1
  O2-  O373  1  0.24841500  0.33601854  0.37872752  1
  O2-  O374  1  0.25031571  0.65744090  0.64835667  1
  O2-  O375  1  0.74973174  0.32114058  0.67175400  1
  O2-  O376  1  0.74895243  0.66655213  0.35023347  1
  O2-  O377  1  0.25071421  0.70062951  0.90217853  1
  O2-  O378  1  0.74999269  0.32818697  0.42177016  1
  O2-  O379  1  0.75032164  0.33112990  0.10057127  1
  O2-  O380  1  0.25100232  0.66988123  0.81472645  1
  O2-  O381  1  0.74765797  0.66407055  0.90378967  1
  O2-  O382  1  0.74934335  -0.00016822  0.57897972  1
  O2-  O383  1  0.74948691  0.33112642  0.58006898  1
  O2-  O384  1  0.24989841  0.36456761  0.82332288  1
  O2-  O385  1  0.25024491  0.68785177  0.08886857  1
  O2-  O386  1  0.74857542  0.00052333  0.38827368  1
  O2-  O387  1  0.25041322  0.34373891  0.63070606  1
  O2-  O388  1  0.25012702  0.00011581  0.63969569  1
  O2-  O389  1  0.25002301  0.30620118  0.92377178  1
  O2-  O390  1  0.25057010  -0.00560015  0.08416559  1
  O2-  O391  1  0.25051512  0.00089250  0.17629779  1
  O2-  O392  1  0.74943630  -0.00041556  0.84532024  1
  O2-  O393  1  0.74864690  0.67266555  0.14967450  1
  O2-  O394  1  0.74990182  0.35292587  0.33399539  1
  O2-  O395  1  0.25051131  0.66568545  0.18011893  1
  O2-  O396  1  0.25051560  0.83328028  0.79855464  1
  O2-  O397  1  0.74951650  0.50013949  0.11937982  1
  O2-  O398  1  0.74952810  0.83853242  0.18175559  1
  O2-  O399  1  0.24950808  0.83769254  0.88080335  1
  O2-  O400  1  0.25075512  0.83948572  0.64808291  1
  O2-  O401  1  0.75000295  0.16115996  0.89752151  1
  O2-  O402  1  0.75010612  0.49604600  0.93269083  1
  O2-  O403  1  0.74966248  0.16338150  0.66701892  1
  O2-  O404  1  0.24950304  0.50985942  0.40878656  1
  O2-  O405  1  0.74966274  0.17099057  0.39518189  1
  O2-  O406  1  0.25035391  0.17935786  0.53297484  1
  O2-  O407  1  0.24980416  0.83234962  0.15493107  1
  O2-  O408  1  0.75021601  0.16814414  0.13297879  1
  O2-  O409  1  0.75015582  0.49648795  0.58749180  1
  O2-  O410  1  0.25004262  0.50385966  0.66221899  1
  O2-  O411  1  0.25000552  0.17281913  0.62041065  1
  O2-  O412  1  0.75024160  0.48985638  0.84172251  1
  O2-  O413  1  0.25096141  0.14200500  0.96020072  1
  O2-  O414  1  0.24993281  0.84082904  0.37026492  1
  O2-  O415  1  0.24989981  0.51782113  0.88822120  1
  O2-  O416  1  0.74990809  0.82814185  0.34615718  1
  O2-  O417  1  0.74960908  0.83280605  0.09242786  1
  O2-  O418  1  0.24980792  0.17189389  0.87922839  1
  O2-  O419  1  0.74916999  0.18086933  0.04772222  1
  O2-  O420  1  0.51870410  -0.01152842  0.87463955  1
  O2-  O421  1  0.96949235  0.65173558  0.62063376  1
  O2-  O422  1  0.03904535  -0.00199513  0.86993270  1
  O2-  O423  1  0.52719828  0.67674280  0.11154209  1
  O2-  O424  1  0.98209761  0.67689713  0.87018549  1
  O2-  O425  1  0.52666883  0.00819563  0.12297371  1
  O2-  O426  1  0.98034286  0.33455386  0.86231649  1
  O2-  O427  1  0.52050780  0.31461440  0.62448244  1
  O2-  O428  1  0.45244378  0.32989259  0.37434524  1
  O2-  O429  1  0.47960920  0.68258562  0.63569332  1
  O2-  O430  1  0.03171893  -0.00044271  0.62915237  1
  O2-  O431  1  0.52461374  0.67186452  0.88615644  1
  O2-  O432  1  0.04284721  0.64014344  0.89932245  1
  O2-  O433  1  0.03265383  0.66596649  0.12425829  1
  O2-  O434  1  0.97076237  0.33603960  0.37605892  1
  O2-  O435  1  0.95406506  -0.01705198  0.85588512  1
  O2-  O436  1  0.54777191  0.33857188  0.37680408  1
  O2-  O437  1  0.45409332  -0.00402253  0.63588098  1
  O2-  O438  1  0.02851344  -0.00271599  0.38218517  1
  O2-  O439  1  0.46952679  0.65439435  0.11345256  1
  O2-  O440  1  0.97070998  -0.00724994  0.62246650  1
  O2-  O441  1  0.53392793  -0.02685464  0.62609848  1
  O2-  O442  1  0.52727156  0.33318745  0.86999603  1
  O2-  O443  1  0.97606351  0.34180104  0.63000574  1
