# generated using pymatgen
data_La7(Ru4O11)2
_symmetry_space_group_name_H-M   'P 1'
_cell_length_a   23.99013848
_cell_length_b   16.82947586
_cell_length_c   15.42699065
_cell_angle_alpha   90.00139057
_cell_angle_beta   90.00025628
_cell_angle_gamma   89.99994127
_symmetry_Int_Tables_number   1
_chemical_formula_structural   La7(Ru4O11)2
_chemical_formula_sum   'La84 Ru96 O264'
_cell_volume   6228.51567057
_cell_formula_units_Z   12
loop_
 _symmetry_equiv_pos_site_id
 _symmetry_equiv_pos_as_xyz
  1  'x, y, z'
loop_
 _atom_type_symbol
 _atom_type_oxidation_number
  La3+  3.0
  Ru4+  4.0
  O2-  -2.0
loop_
 _atom_site_type_symbol
 _atom_site_label
 _atom_site_symmetry_multiplicity
 _atom_site_fract_x
 _atom_site_fract_y
 _atom_site_fract_z
 _atom_site_occupancy
  La3+  La0  1  0.14074143  0.00004471  0.12782555  1
  La3+  La1  1  0.13892470  -0.00203670  0.37723564  1
  La3+  La2  1  0.13902017  -0.00085025  0.62225127  1
  La3+  La3  1  0.13666251  -0.00090707  0.87483131  1
  La3+  La4  1  0.13758520  0.33198979  0.12476080  1
  La3+  La5  1  0.14145621  0.33233442  0.37328148  1
  La3+  La6  1  0.13902002  0.33348065  0.62308829  1
  La3+  La7  1  0.13941015  0.33396411  0.87772265  1
  La3+  La8  1  0.13516767  0.66717043  0.12701241  1
  La3+  La9  1  0.14154592  0.66632274  0.37672403  1
  La3+  La10  1  0.14291904  0.66594185  0.62306071  1
  La3+  La11  1  0.13891353  0.66677302  0.87225034  1
  La3+  La12  1  0.64234773  0.00118762  0.12456584  1
  La3+  La13  1  0.63738484  0.00131235  0.37431544  1
  La3+  La14  1  0.63689592  0.00294539  0.62505005  1
  La3+  La15  1  0.63954444  0.00049921  0.87449857  1
  La3+  La16  1  0.64072076  0.33242627  0.12509563  1
  La3+  La17  1  0.63927558  0.33276168  0.37446969  1
  La3+  La18  1  0.63878432  0.33329280  0.62584029  1
  La3+  La19  1  0.64015160  0.33292084  0.87611532  1
  La3+  La20  1  0.63914467  0.66799996  0.12648071  1
  La3+  La21  1  0.64191204  0.66594487  0.37484573  1
  La3+  La22  1  0.63821820  0.66747908  0.62147434  1
  La3+  La23  1  0.63807185  0.66602859  0.87589571  1
  La3+  La24  1  0.35797157  -0.00000667  0.12662607  1
  La3+  La25  1  0.35742938  0.00084759  0.37471305  1
  La3+  La26  1  0.36086067  -0.00218046  0.62263726  1
  La3+  La27  1  0.36066913  -0.00158265  0.87701316  1
  La3+  La28  1  0.35863150  0.32959232  0.12288929  1
  La3+  La29  1  0.35714739  0.33077396  0.37515228  1
  La3+  La30  1  0.36094794  0.33363083  0.62240854  1
  La3+  La31  1  0.36011976  0.33407006  0.87785596  1
  La3+  La32  1  0.36323027  0.66661816  0.12549277  1
  La3+  La33  1  0.35758142  0.66718005  0.37754572  1
  La3+  La34  1  0.35747472  0.66546329  0.62314801  1
  La3+  La35  1  0.36324838  0.66509054  0.87149536  1
  La3+  La36  1  0.86181506  0.00095772  0.12382419  1
  La3+  La37  1  0.86077914  0.00279244  0.37416482  1
  La3+  La38  1  0.86243083  0.00328853  0.62501166  1
  La3+  La39  1  0.86143935  0.00262057  0.87456364  1
  La3+  La40  1  0.86162726  0.33208603  0.12615269  1
  La3+  La41  1  0.86199157  0.33222820  0.37259057  1
  La3+  La42  1  0.86089155  0.33336491  0.62575232  1
  La3+  La43  1  0.86153088  0.33335680  0.87561592  1
  La3+  La44  1  0.85908991  0.66852490  0.12615375  1
  La3+  La45  1  0.86034912  0.66714050  0.37377991  1
  La3+  La46  1  0.86139102  0.66623335  0.62358218  1
  La3+  La47  1  0.86200628  0.66625416  0.87871057  1
  La3+  La48  1  0.50023616  0.83385334  0.38596904  1
  La3+  La49  1  0.49733815  0.49829199  0.86300389  1
  La3+  La50  1  0.00363075  0.83925076  0.62782980  1
  La3+  La51  1  -0.00492661  0.82854678  0.86928399  1
  La3+  La52  1  0.49749444  0.83835946  0.88731072  1
  La3+  La53  1  0.50173797  0.50220065  0.38561248  1
  La3+  La54  1  0.49869970  0.83815244  0.13016581  1
  La3+  La55  1  0.50066435  0.49937433  0.36329559  1
  La3+  La56  1  0.50015483  0.16664802  0.85900953  1
  La3+  La57  1  0.50352129  0.16569519  0.13924079  1
  La3+  La58  1  0.50420736  0.17440099  0.87868760  1
  La3+  La59  1  -0.00135808  0.49991222  0.86769208  1
  La3+  La60  1  0.50438695  0.17083322  0.62407423  1
  La3+  La61  1  0.00108777  0.16699683  0.87794881  1
  La3+  La62  1  0.00160049  0.17336720  0.11264893  1
  La3+  La63  1  -0.00018605  0.83459929  0.38724970  1
  La3+  La64  1  0.50007734  0.83290004  0.62610146  1
  La3+  La65  1  0.00457686  0.83923203  0.36689011  1
  La3+  La66  1  0.00002871  0.50061176  0.36315964  1
  La3+  La67  1  -0.00101663  0.16257929  0.13147898  1
  La3+  La68  1  0.00187708  0.16601135  0.36981490  1
  La3+  La69  1  0.50480331  0.83770423  0.87082525  1
  La3+  La70  1  0.49549927  0.16678097  0.12039869  1
  La3+  La71  1  -0.00040355  0.49919578  0.63502761  1
  La3+  La72  1  0.24978396  0.83517203  0.22296473  1
  La3+  La73  1  0.25000465  0.83009399  0.47035216  1
  La3+  La74  1  0.25031140  0.87037636  0.00036305  1
  La3+  La75  1  0.74940471  0.83158904  0.72416042  1
  La3+  La76  1  0.24992909  0.83305752  0.79003624  1
  La3+  La77  1  0.25044106  0.45898984  0.03682288  1
  La3+  La78  1  0.25011833  0.50255080  0.71161198  1
  La3+  La79  1  0.25001460  0.15441937  0.72995618  1
  La3+  La80  1  0.24995715  0.16852974  0.28462514  1
  La3+  La81  1  0.24974722  0.46677639  0.22151527  1
  La3+  La82  1  0.75021021  0.83483482  -0.01075572  1
  La3+  La83  1  0.75002339  0.80247148  0.46783959  1
  Ru4+  Ru84  1  0.00258201  -0.00425985  0.00092265  1
  Ru4+  Ru85  1  -0.00095990  -0.00373063  0.24516356  1
  Ru4+  Ru86  1  -0.00272771  0.00841041  0.50164610  1
  Ru4+  Ru87  1  -0.00244292  0.00589225  0.75538391  1
  Ru4+  Ru88  1  -0.00020213  0.33633328  -0.00274777  1
  Ru4+  Ru89  1  0.00317491  0.34247987  0.25177595  1
  Ru4+  Ru90  1  0.00020389  0.33493158  0.49909132  1
  Ru4+  Ru91  1  0.00108636  0.32975202  0.75135061  1
  Ru4+  Ru92  1  -0.00034927  0.67044113  0.00342456  1
  Ru4+  Ru93  1  0.00291797  0.66406040  0.24553537  1
  Ru4+  Ru94  1  0.00014227  0.66448074  0.49962790  1
  Ru4+  Ru95  1  0.00053878  0.66364076  0.74910602  1
  Ru4+  Ru96  1  0.50188518  -0.00875421  -0.00369736  1
  Ru4+  Ru97  1  0.49902094  0.00453876  0.25461145  1
  Ru4+  Ru98  1  0.50284102  0.00536332  0.50410289  1
  Ru4+  Ru99  1  0.50103094  -0.00032168  0.74920919  1
  Ru4+  Ru100  1  0.49757949  0.33734982  -0.00303648  1
  Ru4+  Ru101  1  0.49949408  0.33678078  0.25139439  1
  Ru4+  Ru102  1  0.49872928  0.33246025  0.50295923  1
  Ru4+  Ru103  1  0.49916060  0.33475515  0.74882622  1
  Ru4+  Ru104  1  0.49751078  0.66787022  0.00299411  1
  Ru4+  Ru105  1  0.49906165  0.66545884  0.24613204  1
  Ru4+  Ru106  1  0.49699057  0.66263908  0.50503810  1
  Ru4+  Ru107  1  0.49937890  0.66377221  0.74742963  1
  Ru4+  Ru108  1  0.11343230  0.16879331  -0.00062865  1
  Ru4+  Ru109  1  0.11419506  0.16895269  0.25124738  1
  Ru4+  Ru110  1  0.11310071  0.16752328  0.49900234  1
  Ru4+  Ru111  1  0.10875798  0.16566618  0.74967058  1
  Ru4+  Ru112  1  0.11061986  0.49553587  0.00142366  1
  Ru4+  Ru113  1  0.11107282  0.49981282  0.25055783  1
  Ru4+  Ru114  1  0.11363210  0.50251067  0.49990374  1
  Ru4+  Ru115  1  0.11191778  0.50164125  0.75005486  1
  Ru4+  Ru116  1  0.11161925  0.83102491  0.00179713  1
  Ru4+  Ru117  1  0.11176165  0.83395712  0.24729870  1
  Ru4+  Ru118  1  0.11560090  0.83037692  0.50216199  1
  Ru4+  Ru119  1  0.11551445  0.82873582  0.74863067  1
  Ru4+  Ru120  1  0.61609058  0.16791725  -0.00041070  1
  Ru4+  Ru121  1  0.61373996  0.16572878  0.25100981  1
  Ru4+  Ru122  1  0.61247182  0.16454687  0.49951858  1
  Ru4+  Ru123  1  0.61376631  0.16489491  0.74824088  1
  Ru4+  Ru124  1  0.61553958  0.50049246  0.00149370  1
  Ru4+  Ru125  1  0.61224801  0.50004203  0.25046527  1
  Ru4+  Ru126  1  0.61185437  0.50046612  0.50041199  1
  Ru4+  Ru127  1  0.61206595  0.49865978  0.74840591  1
  Ru4+  Ru128  1  0.61255007  0.83543519  0.00041167  1
  Ru4+  Ru129  1  0.61422060  0.83405705  0.25094903  1
  Ru4+  Ru130  1  0.61502124  0.83798800  0.49872103  1
  Ru4+  Ru131  1  0.61079561  0.83306030  0.75094205  1
  Ru4+  Ru132  1  0.38320942  0.16994681  0.00066613  1
  Ru4+  Ru133  1  0.38717377  0.16583895  0.25055769  1
  Ru4+  Ru134  1  0.38686172  0.17025594  0.49953005  1
  Ru4+  Ru135  1  0.38874070  0.16811232  0.75006333  1
  Ru4+  Ru136  1  0.38916838  0.50038200  0.00124991  1
  Ru4+  Ru137  1  0.38931370  0.49620868  0.24837734  1
  Ru4+  Ru138  1  0.38579650  0.50265097  0.49990824  1
  Ru4+  Ru139  1  0.38883301  0.50123126  0.75025898  1
  Ru4+  Ru140  1  0.39022708  0.83353997  0.00017005  1
  Ru4+  Ru141  1  0.38650964  0.83019709  0.25059741  1
  Ru4+  Ru142  1  0.38722648  0.83238348  0.50043496  1
  Ru4+  Ru143  1  0.38727181  0.83382974  0.74926806  1
  Ru4+  Ru144  1  0.88339377  0.17178070  -0.00105837  1
  Ru4+  Ru145  1  0.88277527  0.16094919  0.25065859  1
  Ru4+  Ru146  1  0.88754643  0.16486073  0.50055754  1
  Ru4+  Ru147  1  0.88654562  0.16464153  0.75031007  1
  Ru4+  Ru148  1  0.88702788  0.49859181  0.00091155  1
  Ru4+  Ru149  1  0.88847470  0.49914085  0.24903915  1
  Ru4+  Ru150  1  0.88828676  0.50103781  0.50021819  1
  Ru4+  Ru151  1  0.88569504  0.50341026  0.74897758  1
  Ru4+  Ru152  1  0.88782831  0.83420091  -0.00077839  1
  Ru4+  Ru153  1  0.88491679  0.83299636  0.24761888  1
  Ru4+  Ru154  1  0.88832139  0.83449471  0.50114842  1
  Ru4+  Ru155  1  0.88815185  0.83461104  0.75090266  1
  Ru4+  Ru156  1  0.74988502  0.94133764  0.50192333  1
  Ru4+  Ru157  1  0.75008570  0.41416220  0.50166011  1
  Ru4+  Ru158  1  0.75009826  0.91185925  0.24322130  1
  Ru4+  Ru159  1  0.74986917  0.58132388  0.24877385  1
  Ru4+  Ru160  1  0.24995319  0.41723735  0.49704195  1
  Ru4+  Ru161  1  0.74987526  0.42003676  0.24649047  1
  Ru4+  Ru162  1  0.75003950  0.24621228  0.49567537  1
  Ru4+  Ru163  1  0.74987652  0.42308796  -0.00261908  1
  Ru4+  Ru164  1  0.75011649  0.57436055  -0.00043300  1
  Ru4+  Ru165  1  0.25001397  0.59889599  0.00265746  1
  Ru4+  Ru166  1  0.75018280  0.08961484  0.00235871  1
  Ru4+  Ru167  1  0.24998768  0.08422773  0.50017039  1
  Ru4+  Ru168  1  0.74999623  0.24561141  0.25214646  1
  Ru4+  Ru169  1  0.25037594  0.73387465  0.00658844  1
  Ru4+  Ru170  1  0.74984587  0.96419152  0.73401392  1
  Ru4+  Ru171  1  0.75020348  0.42081004  0.75060148  1
  Ru4+  Ru172  1  0.74987164  0.57111203  0.75163336  1
  Ru4+  Ru173  1  0.24979356  0.60932900  0.25928452  1
  Ru4+  Ru174  1  0.75003939  0.58139544  0.49770405  1
  Ru4+  Ru175  1  0.24977224  0.08025834  -0.00004752  1
  Ru4+  Ru176  1  0.25006142  0.02550354  0.76549846  1
  Ru4+  Ru177  1  0.24992946  0.28203144  0.75389355  1
  Ru4+  Ru178  1  0.74990465  0.24826016  0.74956954  1
  Ru4+  Ru179  1  0.75008039  0.70950697  0.77906823  1
  O2-  O180  1  0.16583638  0.07973029  -0.00043425  1
  O2-  O181  1  0.16713664  0.08115235  0.25151298  1
  O2-  O182  1  0.16949349  0.08154116  0.50060663  1
  O2-  O183  1  0.16661373  0.07880181  0.75058727  1
  O2-  O184  1  0.16695892  0.41366600  -0.00002845  1
  O2-  O185  1  0.16484863  0.41364721  0.24826206  1
  O2-  O186  1  0.16652827  0.41329224  0.50052184  1
  O2-  O187  1  0.16694276  0.41315655  0.74967854  1
  O2-  O188  1  0.16567523  0.74733215  0.00038620  1
  O2-  O189  1  0.16761580  0.74670916  0.24896415  1
  O2-  O190  1  0.16577053  0.74807811  0.50073507  1
  O2-  O191  1  0.16859022  0.74677724  0.75041216  1
  O2-  O192  1  0.66698697  0.08120377  -0.00124998  1
  O2-  O193  1  0.66684895  0.08114438  0.25096414  1
  O2-  O194  1  0.66626375  0.08091040  0.50036183  1
  O2-  O195  1  0.66783111  0.08102756  0.75036202  1
  O2-  O196  1  0.66854562  0.41611734  -0.00029502  1
  O2-  O197  1  0.66721792  0.41354067  0.25035298  1
  O2-  O198  1  0.66775483  0.41293384  0.49947366  1
  O2-  O199  1  0.66701473  0.41512725  0.75071692  1
  O2-  O200  1  0.66732621  0.74453158  -0.00109252  1
  O2-  O201  1  0.66787006  0.74847984  0.24881895  1
  O2-  O202  1  0.66648677  0.74687575  0.50095589  1
  O2-  O203  1  0.66560066  0.74483280  0.75018830  1
  O2-  O204  1  0.33286134  0.25107038  -0.00150460  1
  O2-  O205  1  0.33264515  0.25172245  0.24910665  1
  O2-  O206  1  0.33221096  0.25036227  0.50172474  1
  O2-  O207  1  0.33504478  0.25472652  0.74986358  1
  O2-  O208  1  0.33267102  0.58707643  0.00069704  1
  O2-  O209  1  0.33338800  0.58637259  0.24940571  1
  O2-  O210  1  0.33581367  0.58315214  0.49951314  1
  O2-  O211  1  0.33049564  0.58668190  0.75023708  1
  O2-  O212  1  0.33393124  0.92054254  -0.00008693  1
  O2-  O213  1  0.33176264  0.91840562  0.25020139  1
  O2-  O214  1  0.33170895  0.91900372  0.50190504  1
  O2-  O215  1  0.33254036  0.91882751  0.75077264  1
  O2-  O216  1  0.83379917  0.25259509  -0.00011575  1
  O2-  O217  1  0.83297223  0.25316368  0.25107243  1
  O2-  O218  1  0.83311882  0.25327292  0.50044002  1
  O2-  O219  1  0.83373497  0.25318766  0.74995174  1
  O2-  O220  1  0.83036886  0.58413301  -0.00026493  1
  O2-  O221  1  0.83202490  0.58532341  0.25037000  1
  O2-  O222  1  0.83361728  0.58537897  0.50025212  1
  O2-  O223  1  0.83266991  0.58504592  0.74928431  1
  O2-  O224  1  0.83263331  0.91822035  0.00079538  1
  O2-  O225  1  0.83274266  0.91781697  0.25167913  1
  O2-  O226  1  0.83263136  0.92053512  0.49949394  1
  O2-  O227  1  0.83300747  0.92047782  0.74799875  1
  O2-  O228  1  0.16534202  0.25260417  0.00057778  1
  O2-  O229  1  0.16861114  0.25191305  0.24867379  1
  O2-  O230  1  0.16519271  0.25098503  0.50045933  1
  O2-  O231  1  0.16481108  0.25511360  0.74976100  1
  O2-  O232  1  0.16670368  0.58676711  0.00116192  1
  O2-  O233  1  0.16883863  0.58732966  0.24877569  1
  O2-  O234  1  0.16410123  0.58349078  0.50011423  1
  O2-  O235  1  0.16738721  0.58663790  0.74980111  1
  O2-  O236  1  0.16639173  0.91956371  -0.00063728  1
  O2-  O237  1  0.16802835  0.91832468  0.25110357  1
  O2-  O238  1  0.16746377  0.91888286  0.50083695  1
  O2-  O239  1  0.16954044  0.91917308  0.75120450  1
  O2-  O240  1  0.66664467  0.25269048  -0.00017874  1
  O2-  O241  1  0.66672334  0.25241866  0.25035862  1
  O2-  O242  1  0.66689615  0.25298757  0.50076128  1
  O2-  O243  1  0.66770780  0.25338897  0.75117857  1
  O2-  O244  1  0.66887105  0.58450288  -0.00101298  1
  O2-  O245  1  0.66884056  0.58620060  0.24918313  1
  O2-  O246  1  0.66658099  0.58482777  0.50011121  1
  O2-  O247  1  0.66880474  0.58425387  0.75160206  1
  O2-  O248  1  0.66615081  0.91945202  -0.00084385  1
  O2-  O249  1  0.66865261  0.91767662  0.25138367  1
  O2-  O250  1  0.66884026  0.92052407  0.49966316  1
  O2-  O251  1  0.66737166  0.92186601  0.74910347  1
  O2-  O252  1  0.33278803  0.08035483  -0.00148556  1
  O2-  O253  1  0.33267986  0.08191696  0.25096971  1
  O2-  O254  1  0.33224090  0.08194233  0.50213141  1
  O2-  O255  1  0.33288793  0.07741623  0.74973157  1
  O2-  O256  1  0.33477429  0.41374036  -0.00083518  1
  O2-  O257  1  0.33135923  0.41484421  0.24933833  1
  O2-  O258  1  0.33329414  0.41327910  0.50095860  1
  O2-  O259  1  0.33386726  0.41387206  0.74929648  1
  O2-  O260  1  0.33365485  0.74573089  0.00075207  1
  O2-  O261  1  0.33192324  0.74756939  0.24841291  1
  O2-  O262  1  0.33348815  0.74946697  0.49877551  1
  O2-  O263  1  0.33010150  0.74760126  0.75234743  1
  O2-  O264  1  0.83290005  0.08073119  0.00027681  1
  O2-  O265  1  0.83192895  0.08118631  0.25213348  1
  O2-  O266  1  0.83386969  0.08022251  0.50033399  1
  O2-  O267  1  0.83215447  0.08165048  0.74775134  1
  O2-  O268  1  0.83240815  0.41577093  -0.00027351  1
  O2-  O269  1  0.83217697  0.41476728  0.25071402  1
  O2-  O270  1  0.83230688  0.41263233  0.49985319  1
  O2-  O271  1  0.83087999  0.41317417  0.74987564  1
  O2-  O272  1  0.83202130  0.74697296  -0.00029360  1
  O2-  O273  1  0.83162536  0.74865001  0.25198348  1
  O2-  O274  1  0.83450804  0.74522773  0.50095692  1
  O2-  O275  1  0.83338467  0.74512615  0.74845500  1
  O2-  O276  1  0.45121973  0.43222947  0.48774907  1
  O2-  O277  1  0.04469145  0.76155487  0.01238162  1
  O2-  O278  1  0.04736571  0.56130807  0.02679239  1
  O2-  O279  1  0.46088512  0.10988750  0.71589654  1
  O2-  O280  1  0.54621847  0.42703370  0.73457232  1
  O2-  O281  1  0.04882274  0.76133538  0.76388932  1
  O2-  O282  1  0.47842232  0.46841379  0.22835925  1
  O2-  O283  1  0.54838316  0.09616222  0.01221089  1
  O2-  O284  1  0.04846128  0.76297560  0.51802144  1
  O2-  O285  1  0.45343165  0.23445472  0.23943773  1
  O2-  O286  1  0.96117494  0.87762169  1.00171177  1
  O2-  O287  1  0.95959802  0.55621746  0.00576602  1
  O2-  O288  1  0.04811988  0.43252853  0.51621308  1
  O2-  O289  1  0.95656709  0.77077085  0.27624199  1
  O2-  O290  1  0.04832752  0.43039835  0.76276747  1
  O2-  O291  1  0.95396118  0.09838036  0.97893564  1
  O2-  O292  1  0.54010879  0.43655748  0.97357612  1
  O2-  O293  1  0.54513229  0.10127457  0.48696089  1
  O2-  O294  1  0.46079104  0.77554397  0.77728175  1
  O2-  O295  1  0.95453611  0.56668478  0.23679440  1
  O2-  O296  1  0.94431487  0.41923647  0.77154997  1
  O2-  O297  1  0.54835563  0.75790109  0.53524983  1
  O2-  O298  1  0.04621755  0.89613097  0.97277488  1
  O2-  O299  1  0.44069736  0.58387626  0.77305541  1
  O2-  O300  1  0.95789878  0.77612462  0.71598350  1
  O2-  O301  1  0.95379164  0.90315382  0.23651903  1
  O2-  O302  1  0.04686888  0.09621909  0.24101146  1
  O2-  O303  1  0.04727554  0.90435624  0.48729789  1
  O2-  O304  1  0.53530258  0.55522987  0.74233919  1
  O2-  O305  1  0.95223135  0.09770636  0.01799838  1
  O2-  O306  1  0.45634646  0.10906975  0.96937356  1
  O2-  O307  1  0.54614569  0.09923628  0.26519511  1
  O2-  O308  1  0.95434318  0.09832746  0.51402230  1
  O2-  O309  1  0.95180017  0.43228613  0.51581903  1
  O2-  O310  1  0.95294748  0.42931056  0.98492777  1
  O2-  O311  1  0.53965126  0.77514139  0.22215502  1
  O2-  O312  1  0.54688341  0.23701735  0.01307639  1
  O2-  O313  1  0.95194283  0.23576723  0.23097844  1
  O2-  O314  1  0.04768512  0.76635131  0.23641595  1
  O2-  O315  1  0.95259020  0.23273512  0.27002579  1
  O2-  O316  1  0.95168160  0.76423642  0.51768336  1
  O2-  O317  1  0.54122179  0.56451876  0.97305105  1
  O2-  O318  1  0.04506070  0.23552693  0.73655028  1
  O2-  O319  1  0.54620508  0.76334162  0.98752467  1
  O2-  O320  1  0.05451670  0.91356352  0.78025295  1
  O2-  O321  1  0.54720212  0.43051868  0.51613673  1
  O2-  O322  1  0.55225157  0.91146809  0.28545175  1
  O2-  O323  1  0.44421307  0.91845009  0.54465284  1
  O2-  O324  1  0.56563808  0.07472017  0.72179363  1
  O2-  O325  1  0.06424323  0.07231759  0.46624309  1
  O2-  O326  1  0.56376861  0.93032306  0.78267273  1
  O2-  O327  1  0.57787615  0.93021758  0.18008773  1
  O2-  O328  1  0.42472636  0.05913058  0.79897490  1
  O2-  O329  1  0.43284972  0.92244875  0.20328925  1
  O2-  O330  1  0.92606294  0.61377628  0.04090409  1
  O2-  O331  1  0.42404720  0.40200002  0.31606697  1
  O2-  O332  1  0.56416202  0.26270340  0.71623908  1
  O2-  O333  1  0.55125904  0.90358518  0.30285738  1
  O2-  O334  1  0.06565939  0.59300676  0.27808242  1
  O2-  O335  1  0.93528197  0.92839959  0.78102631  1
  O2-  O336  1  0.56005878  0.75398226  0.52939694  1
  O2-  O337  1  0.93410198  0.07083670  0.22370125  1
  O2-  O338  1  0.57207934  0.39854211  0.03862027  1
  O2-  O339  1  0.05457044  0.91369072  0.78041917  1
  O2-  O340  1  0.43555565  0.73614167  0.53174478  1
  O2-  O341  1  0.06424163  0.93255979  0.21892593  1
  O2-  O342  1  0.56600431  0.92567252  0.47186053  1
  O2-  O343  1  0.93658818  0.73523906  0.96637769  1
  O2-  O344  1  0.93066897  0.72557416  0.20099817  1
  O2-  O345  1  0.56971384  0.72418191  0.30147843  1
  O2-  O346  1  0.43316388  0.92426081  0.29865923  1
  O2-  O347  1  0.06690252  0.40479082  0.02667820  1
  O2-  O348  1  0.06830735  0.60550127  0.95451154  1
  O2-  O349  1  0.43662658  0.73572848  0.28309995  1
  O2-  O350  1  0.42331428  0.93240793  0.42948100  1
  O2-  O351  1  0.94290257  0.42019251  0.77067914  1
  O2-  O352  1  0.06560714  0.26113956  0.27881177  1
  O2-  O353  1  0.41852525  0.38807530  0.19090803  1
  O2-  O354  1  0.92908994  0.72115862  0.80397860  1
  O2-  O355  1  0.57139645  0.60103381  0.03956647  1
  O2-  O356  1  0.44554216  0.57936282  0.77100220  1
  O2-  O357  1  0.92403251  0.95143542  0.95718310  1
  O2-  O358  1  0.43460676  0.26196199  0.02503213  1
  O2-  O359  1  0.93783304  0.07222134  0.78234500  1
  O2-  O360  1  0.57886974  0.61189120  0.71793709  1
  O2-  O361  1  0.06047469  0.92657026  0.46427116  1
  O2-  O362  1  0.45211428  0.90482445  0.54435026  1
  O2-  O363  1  0.42746130  0.72319266  0.69510155  1
  O2-  O364  1  0.93434951  0.40527171  0.22284177  1
  O2-  O365  1  0.42386890  0.06305403  0.04388543  1
  O2-  O366  1  0.06499598  0.07434292  0.77716317  1
  O2-  O367  1  0.43578707  0.59753038  0.03233573  1
  O2-  O368  1  0.06926201  0.93935520  0.04505275  1
  O2-  O369  1  0.56961391  0.72929460  0.43579665  1
  O2-  O370  1  0.43541310  0.25989271  0.47539604  1
  O2-  O371  1  0.06757976  0.93568236  0.69367198  1
  O2-  O372  1  0.24957550  0.66733849  0.59744392  1
  O2-  O373  1  0.74992102  -0.00348634  0.08078472  1
  O2-  O374  1  0.75010671  0.67196759  0.57163058  1
  O2-  O375  1  0.75011484  0.65678908  0.66726551  1
  O2-  O376  1  0.24980891  0.66758618  0.89428877  1
  O2-  O377  1  0.24995386  0.32844465  0.57335927  1
  O2-  O378  1  0.24983104  0.33403912  0.34751719  1
  O2-  O379  1  0.74988419  -0.00458050  0.92754529  1
  O2-  O380  1  0.75005550  0.33414475  0.65617719  1
  O2-  O381  1  0.25003140  -0.00248533  0.90374099  1
  O2-  O382  1  0.75011110  0.00181422  0.17158154  1
  O2-  O383  1  0.75004901  0.01458284  0.83883528  1
  O2-  O384  1  0.25011922  -0.00552793  0.08002192  1
  O2-  O385  1  0.24996211  0.33299693  0.92876976  1
  O2-  O386  1  0.75001419  0.33322193  0.15618465  1
  O2-  O387  1  0.25002890  0.35199595  0.66087545  1
  O2-  O388  1  0.75019925  0.66600619  0.40503916  1
  O2-  O389  1  0.75001529  0.33657754  0.90602191  1
  O2-  O390  1  0.25024455  -0.00290702  0.64776839  1
  O2-  O391  1  0.24988805  0.00372348  0.40824505  1
  O2-  O392  1  0.24999849  0.35336293  0.84261566  1
  O2-  O393  1  0.25016400  0.66664562  0.39701528  1
  O2-  O394  1  0.25007516  -0.00140704  0.17152043  1
  O2-  O395  1  0.75008164  0.33320696  0.34458355  1
  O2-  O396  1  0.74985571  0.17075157  0.08109489  1
  O2-  O397  1  0.25006959  0.83437525  0.58760167  1
  O2-  O398  1  0.75000095  0.16323863  0.17005588  1
  O2-  O399  1  0.25010674  0.50556221  0.34529095  1
  O2-  O400  1  0.74993183  0.83543826  0.12165256  1
  O2-  O401  1  0.74996862  0.17207620  0.40975897  1
  O2-  O402  1  0.24997792  0.16618799  0.15446458  1
  O2-  O403  1  0.24977508  0.50635373  0.91882914  1
  O2-  O404  1  0.24994853  0.49683166  0.58307493  1
  O2-  O405  1  0.24993718  0.50000813  0.83515388  1
  O2-  O406  1  0.25001062  0.16754674  0.60299109  1
  O2-  O407  1  0.24998553  0.50698254  0.43295513  1
  O2-  O408  1  0.74994010  0.49755590  0.42019136  1
  O2-  O409  1  0.25014658  0.83259613  0.66805817  1
  O2-  O410  1  0.75005930  0.49936199  0.59227885  1
  O2-  O411  1  0.74990551  0.50125760  0.32845912  1
  O2-  O412  1  0.25019963  0.17252879  0.06870470  1
  O2-  O413  1  0.74995812  0.16490712  0.66994026  1
  O2-  O414  1  0.75008456  0.83918040  0.59550858  1
  O2-  O415  1  0.75000255  0.16581781  0.58219862  1
  O2-  O416  1  0.75018936  0.83001374  0.85780894  1
  O2-  O417  1  0.25008729  0.83431529  0.34891868  1
  O2-  O418  1  0.24995345  0.16808658  0.85824700  1
  O2-  O419  1  0.25015803  0.17429124  0.94106967  1
  O2-  O420  1  0.47301852  0.32865205  0.37649023  1
  O2-  O421  1  0.03565121  0.33757163  0.37825607  1
  O2-  O422  1  0.52898033  0.00619046  0.37551796  1
  O2-  O423  1  0.95776479  0.66408626  0.37547571  1
  O2-  O424  1  0.47522985  -0.00709903  0.88063322  1
  O2-  O425  1  0.47210505  -0.00009313  0.12621200  1
  O2-  O426  1  0.03912439  0.66962520  0.38094141  1
  O2-  O427  1  0.52151233  0.66195771  0.62648745  1
  O2-  O428  1  0.53697829  0.33317769  0.37290694  1
  O2-  O429  1  0.96168556  0.33440720  0.37591375  1
  O2-  O430  1  0.53234971  0.32882466  0.13520574  1
  O2-  O431  1  0.96685547  0.33026682  0.11944655  1
  O2-  O432  1  0.97423783  -0.00232397  0.11983622  1
  O2-  O433  1  0.03358224  0.32956265  0.13071265  1
  O2-  O434  1  0.47327777  0.66946977  0.87992365  1
  O2-  O435  1  0.47305909  0.01566643  0.37388042  1
  O2-  O436  1  0.53105641  0.00694976  0.11582483  1
  O2-  O437  1  0.52804229  0.33068302  0.87563116  1
  O2-  O438  1  0.52686113  -0.00333093  0.62173252  1
  O2-  O439  1  0.52510093  0.66904339  0.12974866  1
  O2-  O440  1  0.47414279  0.33114681  0.11975416  1
  O2-  O441  1  0.97508347  0.32459422  0.87919412  1
  O2-  O442  1  0.02790388  0.66540872  0.12820630  1
  O2-  O443  1  0.02451628  0.00691347  0.88578063  1
