# generated using pymatgen
data_La7(Ru4O11)2
_symmetry_space_group_name_H-M   'P 1'
_cell_length_a   23.98940797
_cell_length_b   16.82930715
_cell_length_c   15.42593084
_cell_angle_alpha   90.00063432
_cell_angle_beta   89.99978656
_cell_angle_gamma   89.99980326
_symmetry_Int_Tables_number   1
_chemical_formula_structural   La7(Ru4O11)2
_chemical_formula_sum   'La84 Ru96 O264'
_cell_volume   6227.83570467
_cell_formula_units_Z   12
loop_
 _symmetry_equiv_pos_site_id
 _symmetry_equiv_pos_as_xyz
  1  'x, y, z'
loop_
 _atom_type_symbol
 _atom_type_oxidation_number
  La3+  3.0
  Ru4+  4.0
  O2-  -2.0
loop_
 _atom_site_type_symbol
 _atom_site_label
 _atom_site_symmetry_multiplicity
 _atom_site_fract_x
 _atom_site_fract_y
 _atom_site_fract_z
 _atom_site_occupancy
  La3+  La0  1  0.13848448  -0.00038410  0.12642636  1
  La3+  La1  1  0.13997971  -0.00148098  0.37386769  1
  La3+  La2  1  0.13896784  -0.00277196  0.62695228  1
  La3+  La3  1  0.13627344  -0.00211781  0.87334527  1
  La3+  La4  1  0.13773832  0.33336204  0.12451370  1
  La3+  La5  1  0.13967606  0.33458226  0.37226445  1
  La3+  La6  1  0.13741195  0.33361737  0.62483890  1
  La3+  La7  1  0.13600660  0.33385658  0.87757765  1
  La3+  La8  1  0.13964135  0.66766390  0.12524630  1
  La3+  La9  1  0.13900982  0.66782023  0.37726761  1
  La3+  La10  1  0.14009477  0.66782046  0.62376386  1
  La3+  La11  1  0.13894224  0.66754742  0.87348853  1
  La3+  La12  1  0.63918029  0.00131382  0.12612103  1
  La3+  La13  1  0.63835493  0.00090768  0.37547872  1
  La3+  La14  1  0.63978921  0.00045873  0.62221645  1
  La3+  La15  1  0.63749090  0.00035375  0.87518391  1
  La3+  La16  1  0.63905930  0.33235973  0.12687677  1
  La3+  La17  1  0.63935346  0.33237247  0.37615321  1
  La3+  La18  1  0.63922857  0.33315673  0.62336145  1
  La3+  La19  1  0.63781523  0.33260887  0.87451049  1
  La3+  La20  1  0.63850269  0.66763714  0.12741571  1
  La3+  La21  1  0.63719545  0.66806162  0.37329069  1
  La3+  La22  1  0.63848501  0.66723989  0.62383435  1
  La3+  La23  1  0.63767056  0.66669010  0.87606688  1
  La3+  La24  1  0.36216612  0.00006866  0.12699943  1
  La3+  La25  1  0.36035145  -0.00175664  0.37417177  1
  La3+  La26  1  0.36091993  -0.00258941  0.62539747  1
  La3+  La27  1  0.36343984  -0.00113057  0.87373181  1
  La3+  La28  1  0.36128918  0.33333972  0.12669240  1
  La3+  La29  1  0.36056572  0.33365229  0.37226250  1
  La3+  La30  1  0.36380467  0.33397366  0.62428869  1
  La3+  La31  1  0.36123733  0.33556975  0.87541968  1
  La3+  La32  1  0.36129328  0.66794444  0.12596327  1
  La3+  La33  1  0.36051093  0.66848044  0.37726873  1
  La3+  La34  1  0.35954908  0.66734739  0.62212186  1
  La3+  La35  1  0.36183801  0.66668344  0.87469614  1
  La3+  La36  1  0.86028931  0.00076734  0.12633981  1
  La3+  La37  1  0.86096867  0.00107506  0.37589283  1
  La3+  La38  1  0.86168937  -0.00031578  0.62286417  1
  La3+  La39  1  0.86194842  -0.00064762  0.87500567  1
  La3+  La40  1  0.86163312  0.33083768  0.12623789  1
  La3+  La41  1  0.85956661  0.33319250  0.37700421  1
  La3+  La42  1  0.86121004  0.33287827  0.62187641  1
  La3+  La43  1  0.86202005  0.33158223  0.87494705  1
  La3+  La44  1  0.86037282  0.66687165  0.12678918  1
  La3+  La45  1  0.86140409  0.66703041  0.37555043  1
  La3+  La46  1  0.86073440  0.66663553  0.62340804  1
  La3+  La47  1  0.86125820  0.66670632  0.87404088  1
  La3+  La48  1  0.49973247  0.83287015  0.63309418  1
  La3+  La49  1  0.50069472  0.83231642  0.13526392  1
  La3+  La50  1  0.00107295  0.83499009  0.88207780  1
  La3+  La51  1  0.50214305  0.16242359  0.63174349  1
  La3+  La52  1  0.50173611  0.16489032  0.11091957  1
  La3+  La53  1  0.49747299  0.83026527  0.87141630  1
  La3+  La54  1  -0.00098274  0.16860353  0.38382987  1
  La3+  La55  1  0.00119279  0.83297820  0.11062114  1
  La3+  La56  1  -0.00125831  0.16783137  0.36697636  1
  La3+  La57  1  0.00253982  0.16480846  0.88275372  1
  La3+  La58  1  -0.00203952  0.16886371  0.86803970  1
  La3+  La59  1  0.00067225  0.49741194  0.86211551  1
  La3+  La60  1  -0.00209679  0.50312513  0.88388502  1
  La3+  La61  1  -0.00127322  0.49531667  0.12064553  1
  La3+  La62  1  -0.00052273  0.83188072  0.38780045  1
  La3+  La63  1  -0.00037614  0.16761211  0.13152553  1
  La3+  La64  1  0.49889490  0.50148102  0.61425376  1
  La3+  La65  1  0.50004405  0.16902297  0.13350152  1
  La3+  La66  1  0.50005629  0.50185952  0.38249145  1
  La3+  La67  1  0.00214174  0.84203740  0.13037549  1
  La3+  La68  1  -0.00082179  0.50194597  0.61023388  1
  La3+  La69  1  0.00018921  0.16835374  0.11434764  1
  La3+  La70  1  0.49984495  0.16698638  0.36607532  1
  La3+  La71  1  0.00482351  0.50036622  0.14042899  1
  La3+  La72  1  0.75011652  0.83368353  0.48168971  1
  La3+  La73  1  0.24980674  0.16342646  0.01024971  1
  La3+  La74  1  0.74984113  0.49989958  -0.00551630  1
  La3+  La75  1  0.75007726  0.54079388  0.25245215  1
  La3+  La76  1  0.25004577  0.50279967  0.51653292  1
  La3+  La77  1  0.75010771  0.19972983  0.71298739  1
  La3+  La78  1  0.25022876  0.83327234  0.27221075  1
  La3+  La79  1  0.25001554  0.53608545  0.75547282  1
  La3+  La80  1  0.25052668  0.16464524  0.50762645  1
  La3+  La81  1  0.75004566  0.80471428  -0.02215093  1
  La3+  La82  1  0.25017295  0.46194531  0.20999491  1
  La3+  La83  1  0.24987172  0.12817832  0.73580459  1
  Ru4+  Ru84  1  -0.00259955  0.00422174  -0.00240794  1
  Ru4+  Ru85  1  0.00032997  -0.00235404  0.25267570  1
  Ru4+  Ru86  1  -0.00250781  -0.00234333  0.50372325  1
  Ru4+  Ru87  1  0.00114815  -0.00308059  0.74614866  1
  Ru4+  Ru88  1  -0.00129135  0.33635400  0.00525126  1
  Ru4+  Ru89  1  0.00008742  0.33481085  0.25080743  1
  Ru4+  Ru90  1  0.00323560  0.34098731  0.49888981  1
  Ru4+  Ru91  1  -0.00067301  0.32955139  0.74584488  1
  Ru4+  Ru92  1  0.00133196  0.67081239  0.00284334  1
  Ru4+  Ru93  1  0.00179868  0.66324236  0.25054862  1
  Ru4+  Ru94  1  0.00077018  0.66765385  0.50210334  1
  Ru4+  Ru95  1  0.00226827  0.66845468  0.74612337  1
  Ru4+  Ru96  1  0.49991907  -0.00852088  -0.00005204  1
  Ru4+  Ru97  1  0.50062873  -0.00256692  0.25058708  1
  Ru4+  Ru98  1  0.49996398  -0.00111246  0.49772378  1
  Ru4+  Ru99  1  0.49816687  0.00251194  0.75185359  1
  Ru4+  Ru100  1  0.49996180  0.33708558  -0.00302257  1
  Ru4+  Ru101  1  0.50260862  0.33221438  0.24780584  1
  Ru4+  Ru102  1  0.49949898  0.33259260  0.49990017  1
  Ru4+  Ru103  1  0.50151683  0.33568708  0.75186620  1
  Ru4+  Ru104  1  0.50134540  0.66434911  0.00222656  1
  Ru4+  Ru105  1  0.50271790  0.66533520  0.24977993  1
  Ru4+  Ru106  1  0.50127792  0.66885191  0.49763235  1
  Ru4+  Ru107  1  0.50011439  0.66771022  0.74934645  1
  Ru4+  Ru108  1  0.11360985  0.16278257  0.00052360  1
  Ru4+  Ru109  1  0.11532359  0.16539790  0.24979112  1
  Ru4+  Ru110  1  0.11194074  0.16772415  0.50038971  1
  Ru4+  Ru111  1  0.11145023  0.16552604  0.74968640  1
  Ru4+  Ru112  1  0.11895145  0.50051378  -0.00019336  1
  Ru4+  Ru113  1  0.11208745  0.49807006  0.25102813  1
  Ru4+  Ru114  1  0.11160551  0.50024110  0.50000858  1
  Ru4+  Ru115  1  0.11326598  0.50255691  0.74992944  1
  Ru4+  Ru116  1  0.11524810  0.82958030  -0.00033029  1
  Ru4+  Ru117  1  0.11275213  0.83441192  0.25022488  1
  Ru4+  Ru118  1  0.11429920  0.83223137  0.50005407  1
  Ru4+  Ru119  1  0.11289795  0.83407044  0.74925116  1
  Ru4+  Ru120  1  0.61638074  0.16770323  -0.00001083  1
  Ru4+  Ru121  1  0.61527101  0.16713640  0.25003027  1
  Ru4+  Ru122  1  0.61486520  0.16665995  0.49991071  1
  Ru4+  Ru123  1  0.61154504  0.16702171  0.75000946  1
  Ru4+  Ru124  1  0.60847596  0.49983915  -0.00143746  1
  Ru4+  Ru125  1  0.61018222  0.50233480  0.24938404  1
  Ru4+  Ru126  1  0.61359053  0.49941602  0.50009233  1
  Ru4+  Ru127  1  0.61371190  0.50253929  0.75011236  1
  Ru4+  Ru128  1  0.61102072  0.83131790  0.00049674  1
  Ru4+  Ru129  1  0.61209334  0.83084242  0.25112151  1
  Ru4+  Ru130  1  0.61189842  0.83169407  0.49976332  1
  Ru4+  Ru131  1  0.61363935  0.83094053  0.74976853  1
  Ru4+  Ru132  1  0.38538709  0.16960106  -0.00147389  1
  Ru4+  Ru133  1  0.38453583  0.16778982  0.25032443  1
  Ru4+  Ru134  1  0.38890330  0.16694446  0.49900185  1
  Ru4+  Ru135  1  0.38490318  0.16080769  0.75233748  1
  Ru4+  Ru136  1  0.38712941  0.50011427  -0.00070805  1
  Ru4+  Ru137  1  0.38588972  0.50332552  0.24782193  1
  Ru4+  Ru138  1  0.38780919  0.50128264  0.50086646  1
  Ru4+  Ru139  1  0.38948322  0.50064870  0.74977083  1
  Ru4+  Ru140  1  0.38774681  0.83365533  -0.00031211  1
  Ru4+  Ru141  1  0.38815745  0.83297859  0.24951306  1
  Ru4+  Ru142  1  0.38650530  0.83272448  0.50017797  1
  Ru4+  Ru143  1  0.38686401  0.83475750  0.75005766  1
  Ru4+  Ru144  1  0.88453853  0.16263690  0.00051350  1
  Ru4+  Ru145  1  0.88453503  0.16771261  0.24943279  1
  Ru4+  Ru146  1  0.88400983  0.16380918  0.50021721  1
  Ru4+  Ru147  1  0.88740780  0.16856415  0.75003145  1
  Ru4+  Ru148  1  0.88458796  0.49768046  -0.00152408  1
  Ru4+  Ru149  1  0.88746333  0.50118123  0.25057057  1
  Ru4+  Ru150  1  0.88660843  0.49750187  0.49952345  1
  Ru4+  Ru151  1  0.88699665  0.49964968  0.74984245  1
  Ru4+  Ru152  1  0.88683055  0.83490595  -0.00057915  1
  Ru4+  Ru153  1  0.88516918  0.83347953  0.25070291  1
  Ru4+  Ru154  1  0.88836483  0.83296615  0.49988840  1
  Ru4+  Ru155  1  0.88743422  0.83576637  0.74927027  1
  Ru4+  Ru156  1  0.75004210  0.94138967  0.00271555  1
  Ru4+  Ru157  1  0.75019130  0.75593616  0.74807482  1
  Ru4+  Ru158  1  0.25002682  0.28906244  -0.00625432  1
  Ru4+  Ru159  1  0.75044884  0.57689755  0.74927497  1
  Ru4+  Ru160  1  0.24998713  0.75009423  0.00172315  1
  Ru4+  Ru161  1  0.75009688  0.08173507  0.00796283  1
  Ru4+  Ru162  1  0.74988726  0.40030748  0.24718715  1
  Ru4+  Ru163  1  0.24972011  0.90907983  0.00381177  1
  Ru4+  Ru164  1  0.75019208  0.57620092  0.50235333  1
  Ru4+  Ru165  1  0.74999953  0.42180282  0.74989015  1
  Ru4+  Ru166  1  0.74992166  0.91540882  0.24463865  1
  Ru4+  Ru167  1  0.24988750  0.03635209  -0.01108876  1
  Ru4+  Ru168  1  0.75019491  0.06506501  0.76073404  1
  Ru4+  Ru169  1  0.25006370  0.60027117  0.24672531  1
  Ru4+  Ru170  1  0.24991624  0.40319646  0.76249540  1
  Ru4+  Ru171  1  0.25001903  0.26178978  0.76424999  1
  Ru4+  Ru172  1  0.74981566  0.90929425  0.74956571  1
  Ru4+  Ru173  1  0.25018214  0.58141202  0.00229218  1
  Ru4+  Ru174  1  0.25002513  0.75569626  0.74115454  1
  Ru4+  Ru175  1  0.74984981  0.36931287  -0.00085957  1
  Ru4+  Ru176  1  0.75025574  0.24734429  0.00955253  1
  Ru4+  Ru177  1  0.24999060  0.28923891  0.47627287  1
  Ru4+  Ru178  1  0.24981283  0.03982739  0.49863900  1
  Ru4+  Ru179  1  0.74971373  0.63109010  0.01305492  1
  O2-  O180  1  0.16607685  0.07908139  -0.00084946  1
  O2-  O181  1  0.16757901  0.08063065  0.25077677  1
  O2-  O182  1  0.16668547  0.07937277  0.49912860  1
  O2-  O183  1  0.16696314  0.07945866  0.74994411  1
  O2-  O184  1  0.16725249  0.41476765  0.00039551  1
  O2-  O185  1  0.16613902  0.41406617  0.25022698  1
  O2-  O186  1  0.16697607  0.41293036  0.50031347  1
  O2-  O187  1  0.16721110  0.41266409  0.74890739  1
  O2-  O188  1  0.16785851  0.74757550  0.00089640  1
  O2-  O189  1  0.16688216  0.74649392  0.25012329  1
  O2-  O190  1  0.16563964  0.74907407  0.49964462  1
  O2-  O191  1  0.16817929  0.74741896  0.75064021  1
  O2-  O192  1  0.66772219  0.08090367  -0.00017994  1
  O2-  O193  1  0.66627982  0.08080489  0.25084412  1
  O2-  O194  1  0.66574350  0.08130043  0.49888304  1
  O2-  O195  1  0.66664102  0.07983765  0.75076311  1
  O2-  O196  1  0.66594472  0.41268213  0.00018751  1
  O2-  O197  1  0.66642440  0.41320307  0.25015583  1
  O2-  O198  1  0.66650313  0.41412960  0.50072381  1
  O2-  O199  1  0.66908944  0.41378067  0.74912626  1
  O2-  O200  1  0.66684381  0.74698245  -0.00069767  1
  O2-  O201  1  0.66739072  0.74949349  0.25070046  1
  O2-  O202  1  0.66837757  0.74709307  0.49975649  1
  O2-  O203  1  0.66743483  0.74824929  0.75020713  1
  O2-  O204  1  0.33293756  0.25244762  0.00008828  1
  O2-  O205  1  0.33345181  0.25080782  0.25096910  1
  O2-  O206  1  0.33312020  0.25427832  0.50018412  1
  O2-  O207  1  0.33241373  0.25382269  0.74924481  1
  O2-  O208  1  0.33301922  0.58540851  -0.00077811  1
  O2-  O209  1  0.33336460  0.58698345  0.24990278  1
  O2-  O210  1  0.33293857  0.58523560  0.49894040  1
  O2-  O211  1  0.33387429  0.58709789  0.75102104  1
  O2-  O212  1  0.33291979  0.91935307  -0.00043745  1
  O2-  O213  1  0.33289371  0.92028129  0.25051607  1
  O2-  O214  1  0.33465333  0.91829828  0.50011229  1
  O2-  O215  1  0.33357141  0.91948802  0.75034515  1
  O2-  O216  1  0.83186138  0.25313881  0.00012898  1
  O2-  O217  1  0.83300075  0.25166453  0.25013779  1
  O2-  O218  1  0.83270715  0.25193168  0.50078972  1
  O2-  O219  1  0.83429952  0.25356466  0.74984198  1
  O2-  O220  1  0.83279898  0.58720921  -0.00029348  1
  O2-  O221  1  0.83529675  0.58683634  0.25077981  1
  O2-  O222  1  0.83195203  0.58544450  0.49923180  1
  O2-  O223  1  0.83065886  0.58591260  0.75022376  1
  O2-  O224  1  0.83329579  0.92041085  -0.00018008  1
  O2-  O225  1  0.83205066  0.91841849  0.25048474  1
  O2-  O226  1  0.83315732  0.91910069  0.49876540  1
  O2-  O227  1  0.83204409  0.91763497  0.75065289  1
  O2-  O228  1  0.16635957  0.25440496  0.00027623  1
  O2-  O229  1  0.16550002  0.25181892  0.25020467  1
  O2-  O230  1  0.16574093  0.25373870  0.50021228  1
  O2-  O231  1  0.16716314  0.25377147  0.74898422  1
  O2-  O232  1  0.16826082  0.58562820  0.00027175  1
  O2-  O233  1  0.16622806  0.58710863  0.24971272  1
  O2-  O234  1  0.16597103  0.58517047  0.49940365  1
  O2-  O235  1  0.16723120  0.58653534  0.74999409  1
  O2-  O236  1  0.16786589  0.91928593  0.00004800  1
  O2-  O237  1  0.16723101  0.92002157  0.25051551  1
  O2-  O238  1  0.16542266  0.91820374  0.49988411  1
  O2-  O239  1  0.16717535  0.91804756  0.75090324  1
  O2-  O240  1  0.66754867  0.25168022  -0.00021695  1
  O2-  O241  1  0.66596718  0.25201853  0.25053778  1
  O2-  O242  1  0.66580455  0.25237574  0.50069333  1
  O2-  O243  1  0.66618079  0.25413750  0.74971305  1
  O2-  O244  1  0.66688171  0.58662973  0.00020968  1
  O2-  O245  1  0.66560812  0.58627527  0.25104333  1
  O2-  O246  1  0.66755386  0.58593176  0.49961686  1
  O2-  O247  1  0.66745865  0.58459856  0.75029595  1
  O2-  O248  1  0.66679741  0.92081571  -0.00070673  1
  O2-  O249  1  0.66790833  0.91893709  0.25026148  1
  O2-  O250  1  0.66662490  0.91914866  0.49889372  1
  O2-  O251  1  0.66882763  0.91932785  0.75100839  1
  O2-  O252  1  0.33429807  0.07939755  -0.00010229  1
  O2-  O253  1  0.33371720  0.08033549  0.25053925  1
  O2-  O254  1  0.33474557  0.07939761  0.50011803  1
  O2-  O255  1  0.33405114  0.07843849  0.75085815  1
  O2-  O256  1  0.33240301  0.41558077  -0.00016125  1
  O2-  O257  1  0.33339857  0.41431481  0.25071417  1
  O2-  O258  1  0.33331554  0.41337995  0.49969487  1
  O2-  O259  1  0.33297207  0.41285822  0.74940297  1
  O2-  O260  1  0.33229386  0.74735532  -0.00007445  1
  O2-  O261  1  0.33254968  0.74751492  0.25077762  1
  O2-  O262  1  0.33384502  0.74954663  0.49924518  1
  O2-  O263  1  0.33256437  0.74645711  0.75095039  1
  O2-  O264  1  0.83221912  0.08084465  0.00038945  1
  O2-  O265  1  0.83379833  0.08052848  0.25107120  1
  O2-  O266  1  0.83383552  0.08091749  0.49865527  1
  O2-  O267  1  0.83241549  0.07927136  0.75007191  1
  O2-  O268  1  0.83350808  0.41175601  -0.00041671  1
  O2-  O269  1  0.83349352  0.41344431  0.24954010  1
  O2-  O270  1  0.83293621  0.41550783  0.50099983  1
  O2-  O271  1  0.83217671  0.41414600  0.74937207  1
  O2-  O272  1  0.83319599  0.74587650  0.00050831  1
  O2-  O273  1  0.83224756  0.74883698  0.25050221  1
  O2-  O274  1  0.83172693  0.74734874  0.49918249  1
  O2-  O275  1  0.83159252  0.74795112  0.75091656  1
  O2-  O276  1  0.54474712  0.10019895  1.00981089  1
  O2-  O277  1  0.04141036  0.10806070  0.46973526  1
  O2-  O278  1  0.46256156  0.22495895  0.99328188  1
  O2-  O279  1  0.03880333  0.44216631  0.71790272  1
  O2-  O280  1  0.95172374  0.42797372  0.01247895  1
  O2-  O281  1  0.95362504  0.57038901  0.23991426  1
  O2-  O282  1  0.04761098  0.23555046  0.01628630  1
  O2-  O283  1  0.45282679  0.09875756  0.23794824  1
  O2-  O284  1  0.54811572  0.43259381  0.26405980  1
  O2-  O285  1  0.94245470  0.58467050  0.02244099  1
  O2-  O286  1  0.54696994  0.43280350  0.98756096  1
  O2-  O287  1  0.96025848  0.10926206  0.72161593  1
  O2-  O288  1  0.95499093  0.10104869  0.26341439  1
  O2-  O289  1  0.04556166  0.43202549  0.48570359  1
  O2-  O290  1  0.45443639  0.57047856  0.26475906  1
  O2-  O291  1  0.94720863  0.24682165  0.53605392  1
  O2-  O292  1  0.45452931  0.76219811  0.01436477  1
  O2-  O293  1  0.54772171  0.90093486  0.26358645  1
  O2-  O294  1  0.54376453  0.43938167  0.72394768  1
  O2-  O295  1  0.95986483  0.77435668  0.77771756  1
  O2-  O296  1  0.95289285  0.09955922  0.51279308  1
  O2-  O297  1  0.54718129  0.09791191  0.23669743  1
  O2-  O298  1  0.54342677  0.10086385  -0.00513580  1
  O2-  O299  1  0.45288130  0.90236523  0.98477224  1
  O2-  O300  1  0.45532806  0.09744301  0.98058907  1
  O2-  O301  1  0.45204935  0.09264422  0.01876457  1
  O2-  O302  1  0.04701180  0.90180698  0.98681235  1
  O2-  O303  1  0.04708550  0.42900897  0.98578398  1
  O2-  O304  1  0.04753298  0.76376230  0.23777450  1
  O2-  O305  1  0.95541344  0.90083876  0.51265728  1
  O2-  O306  1  0.54710794  0.90180194  0.01481644  1
  O2-  O307  1  0.54573491  0.22359417  0.97260476  1
  O2-  O308  1  0.45170945  0.43357963  0.73651724  1
  O2-  O309  1  0.45156826  0.90144589  0.23732700  1
  O2-  O310  1  0.95333154  0.23649653  0.98654105  1
  O2-  O311  1  0.45396045  0.57030627  0.98520252  1
  O2-  O312  1  0.04536920  0.76711498  0.51302283  1
  O2-  O313  1  0.54798222  0.23454551  0.73479031  1
  O2-  O314  1  0.95360194  0.42833618  0.23753295  1
  O2-  O315  1  0.95667427  0.77509501  0.22484242  1
  O2-  O316  1  0.04368596  0.56283484  0.02781415  1
  O2-  O317  1  0.45485101  0.90093956  0.48528455  1
  O2-  O318  1  0.05425274  0.24415483  0.76908735  1
  O2-  O319  1  0.44143373  0.24375584  0.71720482  1
  O2-  O320  1  0.44216200  0.42255292  0.28587188  1
  O2-  O321  1  0.54531486  0.43183996  0.48882340  1
  O2-  O322  1  0.04496940  0.23454354  0.23627998  1
  O2-  O323  1  0.53998062  0.89200469  0.77744826  1
  O2-  O324  1  0.43689782  0.59492159  0.53235576  1
  O2-  O325  1  0.43671671  0.73781805  0.53326155  1
  O2-  O326  1  0.56496749  0.73942031  0.27781072  1
  O2-  O327  1  0.93646502  0.26415181  0.21602337  1
  O2-  O328  1  0.06424557  0.40634879  0.97125880  1
  O2-  O329  1  0.44824869  0.24885228  0.71284624  1
  O2-  O330  1  0.93044054  0.06122405  0.79687985  1
  O2-  O331  1  0.43610015  0.40668379  0.95188744  1
  O2-  O332  1  0.06345080  0.93053009  0.71786134  1
  O2-  O333  1  0.06356144  0.92495966  0.97118814  1
  O2-  O334  1  0.43183307  0.27111777  0.80896526  1
  O2-  O335  1  0.93095327  0.72890392  0.70447031  1
  O2-  O336  1  0.57314760  0.93713541  0.70622596  1
  O2-  O337  1  0.43589776  0.25947469  0.22174442  1
  O2-  O338  1  0.06577588  0.73947510  0.72102335  1
  O2-  O339  1  0.56569800  0.59438715  0.22141198  1
  O2-  O340  1  0.56443930  0.59796930  0.96714533  1
  O2-  O341  1  0.93581992  0.73654846  0.46599949  1
  O2-  O342  1  0.45083147  0.41339924  0.29388429  1
  O2-  O343  1  0.07367811  0.60521215  0.95572588  1
  O2-  O344  1  0.42971937  0.40141486  0.19438309  1
  O2-  O345  1  0.05665312  0.25209584  0.77329626  1
  O2-  O346  1  0.06525256  0.07282411  0.77963458  1
  O2-  O347  1  0.93603064  0.25837319  0.97180573  1
  O2-  O348  1  0.06396823  0.40144768  0.28234583  1
  O2-  O349  1  0.93362655  0.73828821  0.05042880  1
  O2-  O350  1  0.93337017  0.74115306  0.95070807  1
  O2-  O351  1  0.94698960  0.24692138  0.53568962  1
  O2-  O352  1  0.93298055  0.26619214  0.44573726  1
  O2-  O353  1  0.94463793  0.58280748  0.02167273  1
  O2-  O354  1  0.42494259  0.27845879  0.95916112  1
  O2-  O355  1  0.56532145  0.73862655  0.47275495  1
  O2-  O356  1  0.43664129  0.26388602  0.46715418  1
  O2-  O357  1  0.57024982  0.39876918  0.78899811  1
  O2-  O358  1  0.56538011  0.73923008  0.02821549  1
  O2-  O359  1  0.93439436  0.59372289  0.77899008  1
  O2-  O360  1  0.07318750  0.39709626  0.79348370  1
  O2-  O361  1  0.06528410  0.07252559  0.22066410  1
  O2-  O362  1  0.43636785  0.73503453  0.21774567  1
  O2-  O363  1  0.07061539  0.05719927  0.54992471  1
  O2-  O364  1  0.93573916  0.40525895  0.46840672  1
  O2-  O365  1  0.93030098  0.72545895  0.29888780  1
  O2-  O366  1  0.43451129  0.40633208  0.04309117  1
  O2-  O367  1  0.06118720  0.26125259  0.03327001  1
  O2-  O368  1  0.93423505  0.92767071  0.72158146  1
  O2-  O369  1  0.56907961  0.27417945  0.04548686  1
  O2-  O370  1  0.93646438  0.59636485  0.53300403  1
  O2-  O371  1  0.06472939  0.59421950  0.77961656  1
  O2-  O372  1  0.75006855  0.33491462  0.84228518  1
  O2-  O373  1  0.24986053  0.67439150  0.33454983  1
  O2-  O374  1  0.74999588  0.33113854  0.15185434  1
  O2-  O375  1  0.75009010  0.67100974  0.89849704  1
  O2-  O376  1  0.24989639  0.33244976  0.66595820  1
  O2-  O377  1  0.75031735  0.66380700  0.15198896  1
  O2-  O378  1  0.24998697  -0.00489214  0.10231342  1
  O2-  O379  1  0.75003075  0.66815759  0.57661579  1
  O2-  O380  1  0.24986216  0.34146044  0.89485795  1
  O2-  O381  1  0.24989873  0.33365527  0.34801432  1
  O2-  O382  1  0.25001035  -0.00278604  0.39854223  1
  O2-  O383  1  0.74978163  -0.00038260  0.57604743  1
  O2-  O384  1  0.74984883  -0.00215274  0.15788281  1
  O2-  O385  1  0.24994911  0.33185727  0.17648467  1
  O2-  O386  1  0.74987598  -0.00575569  0.66641782  1
  O2-  O387  1  0.24995261  0.34746290  0.08984483  1
  O2-  O388  1  0.25009157  -0.00183733  0.60063771  1
  O2-  O389  1  0.24984369  0.34598639  0.57628125  1
  O2-  O390  1  0.74997376  0.33410256  0.42175502  1
  O2-  O391  1  0.24985420  0.66886493  0.15222696  1
  O2-  O392  1  0.74999282  0.32565005  0.33438975  1
  O2-  O393  1  0.25009265  0.66658442  0.59924692  1
  O2-  O394  1  0.74985347  0.66613359  0.67329330  1
  O2-  O395  1  0.25003010  0.66479438  0.42274655  1
  O2-  O396  1  0.25001610  0.82878502  0.66387091  1
  O2-  O397  1  0.24999183  0.49785939  0.63510125  1
  O2-  O398  1  0.75003715  0.16659589  0.15252774  1
  O2-  O399  1  0.25004085  0.83196902  0.91919999  1
  O2-  O400  1  0.24994349  0.83326327  0.40823830  1
  O2-  O401  1  0.24995977  0.16636632  0.30977213  1
  O2-  O402  1  0.25005290  0.17057620  0.86150242  1
  O2-  O403  1  0.25003955  0.50758731  0.32413467  1
  O2-  O404  1  0.75000923  0.49523775  0.37238225  1
  O2-  O405  1  0.75004877  0.16200217  0.84218604  1
  O2-  O406  1  0.75005748  0.83829411  0.11168717  1
  O2-  O407  1  0.75001852  0.50233380  0.58971382  1
  O2-  O408  1  0.75003517  0.49314707  0.13030755  1
  O2-  O409  1  0.24998776  0.49874962  0.40079974  1
  O2-  O410  1  0.74984958  0.16676083  0.59186481  1
  O2-  O411  1  0.74996822  0.83272074  0.61369559  1
  O2-  O412  1  0.75000436  0.16638957  0.41026257  1
  O2-  O413  1  0.24993508  0.50365363  0.08378939  1
  O2-  O414  1  0.24991285  0.16827959  0.38823149  1
  O2-  O415  1  0.25001457  0.83408424  0.83036181  1
  O2-  O416  1  0.75000264  0.16599245  0.93086477  1
  O2-  O417  1  0.24998758  0.16633323  0.15392757  1
  O2-  O418  1  0.24995759  0.83389061  0.13489663  1
  O2-  O419  1  0.24988736  0.17025971  0.62735609  1
  O2-  O420  1  0.47269651  -0.00045024  0.87096992  1
  O2-  O421  1  0.46487546  0.00040825  0.62549495  1
  O2-  O422  1  0.52364821  0.65957745  0.37579529  1
  O2-  O423  1  0.97455978  0.00094553  0.62254729  1
  O2-  O424  1  0.47277411  -0.00092482  0.12503466  1
  O2-  O425  1  0.96560764  0.33736624  0.86869145  1
  O2-  O426  1  0.02404563  0.00050277  0.87482832  1
  O2-  O427  1  0.02789597  0.66664591  0.37551334  1
  O2-  O428  1  0.97603792  0.66673385  0.13112998  1
  O2-  O429  1  0.97072044  0.66336996  0.87246164  1
  O2-  O430  1  0.02942541  0.32890730  0.87985164  1
  O2-  O431  1  0.52798089  0.32996047  0.37509628  1
  O2-  O432  1  0.96205735  0.00063400  0.12405629  1
  O2-  O433  1  0.52765226  0.66654684  0.62513845  1
  O2-  O434  1  0.52594374  0.32992324  0.87692215  1
  O2-  O435  1  0.97246883  -0.00099999  0.37527620  1
  O2-  O436  1  0.52410090  0.66665096  0.12551766  1
  O2-  O437  1  0.52749232  0.00216111  0.37780653  1
  O2-  O438  1  0.47439425  0.33822466  0.61789758  1
  O2-  O439  1  0.47832642  0.32703781  0.12193435  1
  O2-  O440  1  0.53219456  0.00452001  0.61924698  1
  O2-  O441  1  0.03576234  -0.00295380  0.12200529  1
  O2-  O442  1  0.02994763  0.67447869  0.87279579  1
  O2-  O443  1  0.02579835  0.66177149  0.62199323  1
