# generated using pymatgen
data_La7(Ru4O11)2
_symmetry_space_group_name_H-M   'P 1'
_cell_length_a   23.99132547
_cell_length_b   16.83080087
_cell_length_c   15.42714043
_cell_angle_alpha   89.99861038
_cell_angle_beta   89.99925339
_cell_angle_gamma   90.00147437
_symmetry_Int_Tables_number   1
_chemical_formula_structural   La7(Ru4O11)2
_chemical_formula_sum   'La84 Ru96 O264'
_cell_volume   6229.37473008
_cell_formula_units_Z   12
loop_
 _symmetry_equiv_pos_site_id
 _symmetry_equiv_pos_as_xyz
  1  'x, y, z'
loop_
 _atom_type_symbol
 _atom_type_oxidation_number
  La3+  3.0
  Ru4+  4.0
  O2-  -2.0
loop_
 _atom_site_type_symbol
 _atom_site_label
 _atom_site_symmetry_multiplicity
 _atom_site_fract_x
 _atom_site_fract_y
 _atom_site_fract_z
 _atom_site_occupancy
  La3+  La0  1  0.14157959  0.00427236  0.12657230  1
  La3+  La1  1  0.14207461  0.00309246  0.37590671  1
  La3+  La2  1  0.13969466  0.00188855  0.62303865  1
  La3+  La3  1  0.13944827  0.00303448  0.87450666  1
  La3+  La4  1  0.14282584  0.33053286  0.12848250  1
  La3+  La5  1  0.14623898  0.33512721  0.37241851  1
  La3+  La6  1  0.13849232  0.33440298  0.62388060  1
  La3+  La7  1  0.14232620  0.33110069  0.87725653  1
  La3+  La8  1  0.13532945  0.66505713  0.12689666  1
  La3+  La9  1  0.14132327  0.66310888  0.37121174  1
  La3+  La10  1  0.14258300  0.66533837  0.62728527  1
  La3+  La11  1  0.13712539  0.67054835  0.87502560  1
  La3+  La12  1  0.63715694  0.00061692  0.12698417  1
  La3+  La13  1  0.63474441  0.00254379  0.37586874  1
  La3+  La14  1  0.63789985  0.00048390  0.62939403  1
  La3+  La15  1  0.63152183  -0.00167991  0.86883253  1
  La3+  La16  1  0.63871179  0.33309907  0.12727674  1
  La3+  La17  1  0.63651894  0.33263578  0.37750059  1
  La3+  La18  1  0.63940849  0.32958982  0.62107781  1
  La3+  La19  1  0.63771597  0.32958458  0.87333264  1
  La3+  La20  1  0.64192814  0.66507142  0.12115687  1
  La3+  La21  1  0.63855270  0.66487878  0.37486735  1
  La3+  La22  1  0.64230888  0.66331072  0.62438477  1
  La3+  La23  1  0.63862519  0.66575677  0.87625990  1
  La3+  La24  1  0.35868019  0.00248022  0.12601064  1
  La3+  La25  1  0.35910223  0.00174219  0.37571247  1
  La3+  La26  1  0.35905067  0.00144767  0.62285781  1
  La3+  La27  1  0.35970457  0.00322085  0.87520826  1
  La3+  La28  1  0.35630435  0.32882298  0.12611885  1
  La3+  La29  1  0.35423569  0.33605295  0.37236139  1
  La3+  La30  1  0.36079663  0.33436532  0.62218619  1
  La3+  La31  1  0.36089302  0.32877780  0.87333232  1
  La3+  La32  1  0.36066477  0.66619703  0.12810897  1
  La3+  La33  1  0.35253931  0.67141894  0.36811196  1
  La3+  La34  1  0.35354839  0.67106534  0.63059245  1
  La3+  La35  1  0.36385835  0.66556255  0.87210677  1
  La3+  La36  1  0.86526851  0.00033017  0.12490488  1
  La3+  La37  1  0.86396270  0.00142519  0.37453003  1
  La3+  La38  1  0.85976803  0.00291469  0.62662050  1
  La3+  La39  1  0.86343159  0.00331693  0.87378485  1
  La3+  La40  1  0.86178788  0.33375818  0.12513221  1
  La3+  La41  1  0.85896930  0.33389136  0.37547024  1
  La3+  La42  1  0.85814378  0.32977748  0.62389661  1
  La3+  La43  1  0.86174878  0.33027015  0.87249662  1
  La3+  La44  1  0.85900863  0.66594861  0.12279886  1
  La3+  La45  1  0.86108707  0.66386609  0.37728578  1
  La3+  La46  1  0.85984261  0.66532299  0.62650875  1
  La3+  La47  1  0.86053175  0.66683558  0.87466387  1
  La3+  La48  1  -0.00085687  0.16595328  0.61702923  1
  La3+  La49  1  0.50093821  0.83349264  0.63512252  1
  La3+  La50  1  -0.00000066  0.83188726  0.87624257  1
  La3+  La51  1  0.49734195  0.16831354  0.12855220  1
  La3+  La52  1  0.00026657  0.49982466  0.86550339  1
  La3+  La53  1  0.49640626  0.49897818  0.13825325  1
  La3+  La54  1  0.49983059  0.17296320  0.63818166  1
  La3+  La55  1  0.00216805  0.16895603  0.38225272  1
  La3+  La56  1  0.50162887  0.83652957  0.61854155  1
  La3+  La57  1  0.00038924  0.83349124  0.61853595  1
  La3+  La58  1  0.50196596  0.49926445  0.62361153  1
  La3+  La59  1  0.49532889  0.16025079  0.87184940  1
  La3+  La60  1  0.50501637  0.49735401  0.87469881  1
  La3+  La61  1  0.50505425  0.49105291  0.64416661  1
  La3+  La62  1  0.50882684  0.50030762  0.37273293  1
  La3+  La63  1  -0.00031493  0.17059704  0.13158677  1
  La3+  La64  1  -0.00041386  0.49869169  0.13786231  1
  La3+  La65  1  -0.00243128  0.83379264  0.11843772  1
  La3+  La66  1  -0.00225078  0.84585901  0.38143155  1
  La3+  La67  1  -0.01050923  0.50259204  0.62474362  1
  La3+  La68  1  -0.00150535  0.84520474  0.36460953  1
  La3+  La69  1  0.49034976  0.83733774  0.87465186  1
  La3+  La70  1  0.50153721  0.17231649  0.37902484  1
  La3+  La71  1  0.49936311  0.84337998  0.89103170  1
  La3+  La72  1  0.74939303  0.46620834  0.23269562  1
  La3+  La73  1  0.75007854  0.79148895  0.00330315  1
  La3+  La74  1  0.24981780  0.16931231  0.28732373  1
  La3+  La75  1  0.75003116  0.83404168  0.45962387  1
  La3+  La76  1  0.75026901  0.16860411  0.73628539  1
  La3+  La77  1  0.75094090  0.79539890  0.74206220  1
  La3+  La78  1  0.74979518  0.12697614  0.01437256  1
  La3+  La79  1  0.74982663  0.54024142  0.74819302  1
  La3+  La80  1  0.75060576  0.11536826  0.25874902  1
  La3+  La81  1  0.25075295  0.86722396  0.52110769  1
  La3+  La82  1  0.24970775  0.52854505  -0.03930020  1
  La3+  La83  1  0.25051314  0.82911381  0.06468380  1
  Ru4+  Ru84  1  0.00409903  -0.00153238  0.00226613  1
  Ru4+  Ru85  1  0.00468796  0.00752798  0.24857342  1
  Ru4+  Ru86  1  0.00003880  -0.00025538  0.50263436  1
  Ru4+  Ru87  1  -0.00080093  0.00199835  0.74722931  1
  Ru4+  Ru88  1  0.00104243  0.33447278  0.00450797  1
  Ru4+  Ru89  1  -0.00141521  0.33657138  0.25777466  1
  Ru4+  Ru90  1  0.00147928  0.33525472  0.50641099  1
  Ru4+  Ru91  1  0.00014829  0.33508858  0.74547762  1
  Ru4+  Ru92  1  -0.00277324  0.65980515  -0.00048417  1
  Ru4+  Ru93  1  0.00269624  0.66505429  0.24959290  1
  Ru4+  Ru94  1  -0.00060892  0.66635225  0.49689089  1
  Ru4+  Ru95  1  0.00001451  0.66741725  0.75086367  1
  Ru4+  Ru96  1  0.50234544  0.00313083  0.00143079  1
  Ru4+  Ru97  1  0.49580249  -0.01047271  0.25205966  1
  Ru4+  Ru98  1  0.49816593  0.00028250  0.49586164  1
  Ru4+  Ru99  1  0.49948642  0.00512149  0.75088397  1
  Ru4+  Ru100  1  0.50013461  0.33383576  -0.00544174  1
  Ru4+  Ru101  1  0.49835779  0.33852018  0.25884914  1
  Ru4+  Ru102  1  0.49831833  0.32356559  0.50009974  1
  Ru4+  Ru103  1  0.50510544  0.33597192  0.75435484  1
  Ru4+  Ru104  1  0.50052209  0.66455687  -0.00242471  1
  Ru4+  Ru105  1  0.50449024  0.67334613  0.25481068  1
  Ru4+  Ru106  1  0.49829228  0.66406100  0.49469587  1
  Ru4+  Ru107  1  0.50319636  0.67183128  0.74777273  1
  Ru4+  Ru108  1  0.11506295  0.16898953  -0.00013341  1
  Ru4+  Ru109  1  0.11180323  0.16514104  0.24944342  1
  Ru4+  Ru110  1  0.11531656  0.16748924  0.50033474  1
  Ru4+  Ru111  1  0.11246965  0.16532523  0.74901413  1
  Ru4+  Ru112  1  0.11018853  0.49842602  0.00111635  1
  Ru4+  Ru113  1  0.11417003  0.49858129  0.24959212  1
  Ru4+  Ru114  1  0.11130907  0.49591668  0.50007680  1
  Ru4+  Ru115  1  0.11297904  0.49496747  0.75209876  1
  Ru4+  Ru116  1  0.11346922  0.84020590  -0.00037300  1
  Ru4+  Ru117  1  0.11403428  0.83013700  0.24966205  1
  Ru4+  Ru118  1  0.11265921  0.83341994  0.50534109  1
  Ru4+  Ru119  1  0.11299981  0.83069161  0.75049461  1
  Ru4+  Ru120  1  0.61053757  0.16606167  0.00067689  1
  Ru4+  Ru121  1  0.61814996  0.16869277  0.25029730  1
  Ru4+  Ru122  1  0.61595770  0.16844971  0.50139984  1
  Ru4+  Ru123  1  0.61341580  0.16521491  0.74948453  1
  Ru4+  Ru124  1  0.61245601  0.49948748  -0.00142709  1
  Ru4+  Ru125  1  0.61123065  0.49844953  0.24940928  1
  Ru4+  Ru126  1  0.61853400  0.50643194  0.49824345  1
  Ru4+  Ru127  1  0.61428141  0.49717857  0.75297982  1
  Ru4+  Ru128  1  0.61079199  0.83433136  0.00039580  1
  Ru4+  Ru129  1  0.60676854  0.82627220  0.24798597  1
  Ru4+  Ru130  1  0.60930105  0.83645563  0.50022427  1
  Ru4+  Ru131  1  0.61345300  0.83110304  0.74702505  1
  Ru4+  Ru132  1  0.38435541  0.16764660  0.00005583  1
  Ru4+  Ru133  1  0.38648441  0.17004174  0.24904346  1
  Ru4+  Ru134  1  0.38487799  0.16247008  0.50074136  1
  Ru4+  Ru135  1  0.38424954  0.16111439  0.75152167  1
  Ru4+  Ru136  1  0.38948426  0.50140191  0.00303757  1
  Ru4+  Ru137  1  0.38680403  0.49492144  0.24886976  1
  Ru4+  Ru138  1  0.38607866  0.50094410  0.49746993  1
  Ru4+  Ru139  1  0.38214189  0.49459940  0.75291691  1
  Ru4+  Ru140  1  0.38880100  0.83383420  0.00284395  1
  Ru4+  Ru141  1  0.38683412  0.83454932  0.24944041  1
  Ru4+  Ru142  1  0.39027524  0.83428257  0.50122106  1
  Ru4+  Ru143  1  0.38504921  0.83248691  0.74771148  1
  Ru4+  Ru144  1  0.88734331  0.16987977  -0.00319583  1
  Ru4+  Ru145  1  0.88949572  0.16953689  0.25124185  1
  Ru4+  Ru146  1  0.88495885  0.16874235  0.49976084  1
  Ru4+  Ru147  1  0.88977323  0.16639732  0.75283862  1
  Ru4+  Ru148  1  0.88868711  0.50164127  -0.00025564  1
  Ru4+  Ru149  1  0.88966393  0.49627440  0.25234571  1
  Ru4+  Ru150  1  0.88623493  0.50125098  0.50020889  1
  Ru4+  Ru151  1  0.89066939  0.50162333  0.74865605  1
  Ru4+  Ru152  1  0.88964906  0.83120801  -0.00093498  1
  Ru4+  Ru153  1  0.88282959  0.82699665  0.24645326  1
  Ru4+  Ru154  1  0.89072028  0.83381142  0.49926593  1
  Ru4+  Ru155  1  0.89129293  0.83335188  0.74794225  1
  Ru4+  Ru156  1  0.24990332  0.70055222  0.01786627  1
  Ru4+  Ru157  1  0.24955779  0.58096690  0.74213072  1
  Ru4+  Ru158  1  0.24993844  0.76004496  0.25953959  1
  Ru4+  Ru159  1  0.75089296  0.93997762  0.75803009  1
  Ru4+  Ru160  1  0.25018818  0.57659871  0.49226533  1
  Ru4+  Ru161  1  0.75004016  0.61098199  0.25478293  1
  Ru4+  Ru162  1  0.75014989  0.58551817  -0.00145276  1
  Ru4+  Ru163  1  0.25003048  0.24202649  0.75249773  1
  Ru4+  Ru164  1  0.74953371  0.27589879  -0.00396771  1
  Ru4+  Ru165  1  0.75028467  0.93820060  0.00094318  1
  Ru4+  Ru166  1  0.75027285  0.42305374  0.49194585  1
  Ru4+  Ru167  1  0.24946620  0.90952999  0.74174118  1
  Ru4+  Ru168  1  0.25005861  0.90913562  0.26030776  1
  Ru4+  Ru169  1  0.25028824  0.72035186  0.49447837  1
  Ru4+  Ru170  1  0.24978202  0.94280256  -0.00946641  1
  Ru4+  Ru171  1  0.74953531  0.90907495  0.24331798  1
  Ru4+  Ru172  1  0.75061383  0.26394610  0.25471639  1
  Ru4+  Ru173  1  0.75037708  0.39842128  0.75591005  1
  Ru4+  Ru174  1  0.25002637  0.09318372  0.74380493  1
  Ru4+  Ru175  1  0.75035551  0.96980732  0.50974837  1
  Ru4+  Ru176  1  0.75007180  0.41687272  -0.00275071  1
  Ru4+  Ru177  1  0.74927877  0.75640485  0.24981114  1
  Ru4+  Ru178  1  0.25030803  0.39020982  0.00565668  1
  Ru4+  Ru179  1  0.75010601  0.69855785  0.52136543  1
  O2-  O180  1  0.16308829  0.08108339  -0.00053646  1
  O2-  O181  1  0.16452866  0.08095283  0.24908661  1
  O2-  O182  1  0.16396969  0.07976078  0.50074734  1
  O2-  O183  1  0.16605296  0.08285037  0.75078172  1
  O2-  O184  1  0.16994679  0.41632322  -0.00137798  1
  O2-  O185  1  0.16621749  0.41715261  0.24821508  1
  O2-  O186  1  0.16493111  0.41566438  0.50060517  1
  O2-  O187  1  0.16841550  0.41526143  0.74850633  1
  O2-  O188  1  0.16658529  0.74367245  0.00156465  1
  O2-  O189  1  0.16826625  0.74828932  0.24753191  1
  O2-  O190  1  0.16902071  0.74689260  0.49809498  1
  O2-  O191  1  0.16276469  0.74857164  0.75193847  1
  O2-  O192  1  0.66350073  0.07802865  0.00079341  1
  O2-  O193  1  0.66134957  0.07512349  0.25055869  1
  O2-  O194  1  0.66433045  0.07851995  0.49777697  1
  O2-  O195  1  0.66782707  0.08061045  0.75002880  1
  O2-  O196  1  0.66736109  0.41428273  0.00042958  1
  O2-  O197  1  0.66175742  0.41226436  0.25126810  1
  O2-  O198  1  0.66856572  0.41458331  0.49860632  1
  O2-  O199  1  0.66629537  0.41163494  0.74963627  1
  O2-  O200  1  0.66142126  0.74572801  -0.00100909  1
  O2-  O201  1  0.67003130  0.75087953  0.25194265  1
  O2-  O202  1  0.66645936  0.74568056  0.50026043  1
  O2-  O203  1  0.66635845  0.74440836  0.75434545  1
  O2-  O204  1  0.33270629  0.24944931  -0.00444956  1
  O2-  O205  1  0.33093564  0.25071234  0.25056877  1
  O2-  O206  1  0.33710796  0.25096905  0.50255572  1
  O2-  O207  1  0.33266899  0.25451526  0.74986271  1
  O2-  O208  1  0.33237918  0.58791503  0.00105902  1
  O2-  O209  1  0.33667221  0.58291640  0.24651758  1
  O2-  O210  1  0.32952981  0.58322551  0.49957722  1
  O2-  O211  1  0.33315127  0.58391866  0.75210417  1
  O2-  O212  1  0.33506995  0.92129340  -0.00111211  1
  O2-  O213  1  0.33290931  0.91708771  0.24999771  1
  O2-  O214  1  0.33624872  0.92241235  0.49936200  1
  O2-  O215  1  0.33307541  0.92060610  0.75102441  1
  O2-  O216  1  0.83110222  0.25486784  -0.00032041  1
  O2-  O217  1  0.83394860  0.25288390  0.24914841  1
  O2-  O218  1  0.83611998  0.25202765  0.49915430  1
  O2-  O219  1  0.83372396  0.25093294  0.74928526  1
  O2-  O220  1  0.83371536  0.58451964  -0.00203385  1
  O2-  O221  1  0.83156795  0.58704660  0.25005836  1
  O2-  O222  1  0.83489887  0.58533318  0.50170586  1
  O2-  O223  1  0.83446722  0.58886333  0.75276998  1
  O2-  O224  1  0.83230248  0.92121463  0.00011664  1
  O2-  O225  1  0.83256081  0.91784080  0.25200677  1
  O2-  O226  1  0.83313017  0.92263439  0.50002296  1
  O2-  O227  1  0.83159137  0.92103902  0.75174569  1
  O2-  O228  1  0.16723587  0.24871663  -0.00047076  1
  O2-  O229  1  0.16594768  0.25163090  0.25021873  1
  O2-  O230  1  0.16391696  0.25221411  0.50199657  1
  O2-  O231  1  0.16744045  0.25305800  0.74916578  1
  O2-  O232  1  0.16381024  0.58790369  0.00133845  1
  O2-  O233  1  0.16602267  0.58518585  0.24533547  1
  O2-  O234  1  0.16886856  0.58447441  0.49923825  1
  O2-  O235  1  0.16418385  0.58343048  0.75333067  1
  O2-  O236  1  0.16556503  0.92234384  0.00002281  1
  O2-  O237  1  0.16771828  0.91845910  0.24978163  1
  O2-  O238  1  0.16508219  0.92113594  0.49790347  1
  O2-  O239  1  0.16467271  0.92103583  0.75060280  1
  O2-  O240  1  0.66943397  0.25382775  -0.00117389  1
  O2-  O241  1  0.66786021  0.25356400  0.25097724  1
  O2-  O242  1  0.66637046  0.25182985  0.49789781  1
  O2-  O243  1  0.66732716  0.25247819  0.74802045  1
  O2-  O244  1  0.66810539  0.58376515  -0.00046282  1
  O2-  O245  1  0.66796978  0.58790898  0.24994864  1
  O2-  O246  1  0.66774057  0.58666602  0.49963554  1
  O2-  O247  1  0.66481301  0.58924687  0.75193817  1
  O2-  O248  1  0.66827682  0.92084023  0.00088614  1
  O2-  O249  1  0.66539617  0.91685621  0.25192486  1
  O2-  O250  1  0.66882741  0.92162962  0.49888948  1
  O2-  O251  1  0.66928152  0.91955256  0.74988524  1
  O2-  O252  1  0.33619852  0.08083990  -0.00133471  1
  O2-  O253  1  0.33230981  0.08247959  0.25140501  1
  O2-  O254  1  0.33232981  0.08134309  0.50123141  1
  O2-  O255  1  0.33374236  0.08057314  0.74925920  1
  O2-  O256  1  0.33477610  0.41426447  -0.00253253  1
  O2-  O257  1  0.33207052  0.41704470  0.25147964  1
  O2-  O258  1  0.33330846  0.41688857  0.50163538  1
  O2-  O259  1  0.33252237  0.41260252  0.75021336  1
  O2-  O260  1  0.33282268  0.74420672  0.00025208  1
  O2-  O261  1  0.33149984  0.75111407  0.24750252  1
  O2-  O262  1  0.33186222  0.74744211  0.50006416  1
  O2-  O263  1  0.33375027  0.75044735  0.75343590  1
  O2-  O264  1  0.83556910  0.07625642  -0.00269180  1
  O2-  O265  1  0.84046283  0.07454504  0.25085264  1
  O2-  O266  1  0.83437312  0.07822697  0.49787250  1
  O2-  O267  1  0.83290985  0.08093545  0.75072415  1
  O2-  O268  1  0.83262096  0.41287217  -0.00044696  1
  O2-  O269  1  0.83557723  0.41328111  0.24870847  1
  O2-  O270  1  0.83231872  0.41551948  0.49888642  1
  O2-  O271  1  0.83504720  0.41303032  0.75127891  1
  O2-  O272  1  0.83919923  0.74511386  -0.00119855  1
  O2-  O273  1  0.82879890  0.74861643  0.25219315  1
  O2-  O274  1  0.83041014  0.74389959  0.50111402  1
  O2-  O275  1  0.83950352  0.74508329  0.75306815  1
  O2-  O276  1  0.03958369  0.56669455  0.53052381  1
  O2-  O277  1  0.96000601  0.55376779  0.27832785  1
  O2-  O278  1  0.04037750  0.77957466  0.47312114  1
  O2-  O279  1  0.44777720  0.57201313  0.96181753  1
  O2-  O280  1  0.55003778  0.56778131  0.25669924  1
  O2-  O281  1  0.55042301  0.09486584  0.23111469  1
  O2-  O282  1  0.44810342  0.56761369  0.76900965  1
  O2-  O283  1  0.55070580  0.42950275  0.52050450  1
  O2-  O284  1  0.46861357  0.54973174  0.50483748  1
  O2-  O285  1  0.52787156  0.79665524  0.25376225  1
  O2-  O286  1  0.03227984  0.45016847  -0.00566877  1
  O2-  O287  1  0.45103072  0.57718499  0.73146448  1
  O2-  O288  1  0.94564411  0.08377986  0.02469938  1
  O2-  O289  1  0.45111266  0.76318876  0.01784307  1
  O2-  O290  1  0.04605073  0.57494254  0.98108747  1
  O2-  O291  1  0.96424369  0.76858049  0.28142928  1
  O2-  O292  1  0.94806796  0.91228855  0.27106998  1
  O2-  O293  1  0.55637214  0.91552444  0.74704801  1
  O2-  O294  1  0.04534080  0.23266415  0.26118803  1
  O2-  O295  1  0.95342190  0.09657282  0.48889032  1
  O2-  O296  1  0.54614275  0.23877309  0.22832159  1
  O2-  O297  1  0.55050919  0.09345768  0.27025424  1
  O2-  O298  1  0.45201194  0.57354219  0.25650888  1
  O2-  O299  1  0.94717434  0.43050022  0.01306160  1
  O2-  O300  1  0.54980390  0.23716223  0.26698023  1
  O2-  O301  1  0.54193184  0.90153936  0.75316328  1
  O2-  O302  1  0.44517979  0.41706139  0.30261051  1
  O2-  O303  1  0.04674989  0.76391828  0.98120475  1
  O2-  O304  1  0.55153601  0.24486017  0.77218453  1
  O2-  O305  1  0.95159963  0.89786904  0.23561590  1
  O2-  O306  1  0.04013653  0.22066538  0.72297151  1
  O2-  O307  1  0.95421381  0.90252700  0.98571998  1
  O2-  O308  1  0.47044799  0.54792678  0.48646018  1
  O2-  O309  1  0.55078476  0.57005774  0.76296889  1
  O2-  O310  1  0.03735385  0.44890146  0.71689924  1
  O2-  O311  1  0.04773910  0.76376613  0.02036380  1
  O2-  O312  1  0.44921680  0.23335987  0.76501178  1
  O2-  O313  1  0.54984955  0.75704251  0.99237134  1
  O2-  O314  1  0.04674644  0.43089633  0.51238036  1
  O2-  O315  1  0.95648790  0.10018967  0.26619947  1
  O2-  O316  1  0.54696446  0.90210954  0.01610114  1
  O2-  O317  1  0.55063610  0.43198738  0.48142187  1
  O2-  O318  1  0.53568829  0.22372355  0.96454264  1
  O2-  O319  1  0.45532169  0.11112040  0.27989039  1
  O2-  O320  1  0.45239303  0.42517540  0.76279563  1
  O2-  O321  1  0.05044823  0.90342789  0.25661476  1
  O2-  O322  1  0.54477121  0.76795355  0.51252550  1
  O2-  O323  1  0.53735640  0.77118558  0.78363423  1
  O2-  O324  1  0.43546859  0.39761400  0.53358492  1
  O2-  O325  1  0.06582314  0.40907920  0.27602590  1
  O2-  O326  1  0.93734728  0.07176624  0.78250812  1
  O2-  O327  1  0.06482039  0.59468242  0.27037835  1
  O2-  O328  1  0.93496808  0.74111747  0.47911592  1
  O2-  O329  1  0.91996033  0.73275743  0.19129298  1
  O2-  O330  1  0.56216549  0.07664566  0.77596614  1
  O2-  O331  1  0.43379630  0.08090032  0.43894723  1
  O2-  O332  1  0.57919192  0.26768646  0.05494198  1
  O2-  O333  1  0.41937877  0.41496542  0.16549355  1
  O2-  O334  1  0.93637603  0.26044877  0.02471290  1
  O2-  O335  1  0.45067606  0.42423893  0.29756284  1
  O2-  O336  1  0.93678971  0.59748360  0.71867311  1
  O2-  O337  1  0.42580515  0.62579844  0.58612086  1
  O2-  O338  1  0.43185047  0.24895185  0.18947832  1
  O2-  O339  1  0.56126764  0.92827220  0.66858187  1
  O2-  O340  1  0.93802473  0.26440743  0.78228505  1
  O2-  O341  1  0.43517938  0.25778099  0.02387351  1
  O2-  O342  1  0.44089323  0.06951793  0.57305620  1
  O2-  O343  1  0.07119836  0.72184113  0.56706136  1
  O2-  O344  1  0.07217319  0.39466131  0.81762836  1
  O2-  O345  1  0.57906427  0.72778240  0.69127471  1
  O2-  O346  1  0.92987162  0.59303136  0.20814303  1
  O2-  O347  1  0.06156558  0.92919575  0.53537029  1
  O2-  O348  1  0.06165721  0.06761684  0.71804285  1
  O2-  O349  1  0.56408015  0.91707662  0.80977205  1
  O2-  O350  1  0.08410268  0.38612629  0.03800681  1
  O2-  O351  1  0.43636599  0.93259809  0.71473387  1
  O2-  O352  1  0.06855003  0.26349814  0.79802811  1
  O2-  O353  1  0.43485824  0.26002888  0.31897372  1
  O2-  O354  1  0.07368646  0.59930104  0.45745795  1
  O2-  O355  1  0.43340382  0.74160082  0.77040844  1
  O2-  O356  1  0.44673468  0.57385557  0.94981836  1
  O2-  O357  1  0.06005700  0.25215198  0.02601034  1
  O2-  O358  1  0.93416033  0.40631164  0.27558346  1
  O2-  O359  1  0.43665131  0.26057779  0.78222015  1
  O2-  O360  1  0.56216387  0.40364795  0.96530863  1
  O2-  O361  1  0.55686350  0.25206014  0.77903736  1
  O2-  O362  1  0.56294964  0.25608097  0.52680295  1
  O2-  O363  1  0.43339348  0.60684912  0.08941337  1
  O2-  O364  1  0.56216554  0.93352967  0.47107140  1
  O2-  O365  1  0.41096551  0.60852850  0.42775669  1
  O2-  O366  1  0.56684340  0.07441002  0.97292101  1
  O2-  O367  1  0.42586746  0.06566618  0.20341991  1
  O2-  O368  1  0.57726316  0.70683349  0.20392269  1
  O2-  O369  1  0.56563524  0.59070332  0.97666237  1
  O2-  O370  1  0.93845756  0.92645739  0.71664153  1
  O2-  O371  1  0.94349868  0.08348206  0.02454786  1
  O2-  O372  1  0.24922212  0.32976175  0.10167481  1
  O2-  O373  1  0.74955279  -0.00109419  0.15198093  1
  O2-  O374  1  0.74990351  0.00123753  0.64931529  1
  O2-  O375  1  0.24950046  0.67308121  0.81872830  1
  O2-  O376  1  0.24997439  -0.00363993  0.18293155  1
  O2-  O377  1  0.75031867  0.66517663  0.90322022  1
  O2-  O378  1  0.75019138  0.33797022  0.34898222  1
  O2-  O379  1  0.25059574  0.33346513  0.89813495  1
  O2-  O380  1  0.24968730  -0.00372103  0.34338218  1
  O2-  O381  1  0.75002986  0.32950040  0.85567593  1
  O2-  O382  1  0.24876818  0.66423047  0.65142050  1
  O2-  O383  1  0.74996952  0.33495828  0.57200848  1
  O2-  O384  1  0.74991107  0.32374477  0.66309202  1
  O2-  O385  1  0.25000241  0.02763622  0.90979320  1
  O2-  O386  1  0.24959712  0.00052787  0.65230481  1
  O2-  O387  1  0.24950268  0.32932662  0.34584214  1
  O2-  O388  1  0.75057047  0.66591614  0.64963256  1
  O2-  O389  1  0.75025002  0.66395957  0.09677993  1
  O2-  O390  1  0.24900425  0.67088715  0.34611085  1
  O2-  O391  1  0.24971132  0.65229431  0.90713440  1
  O2-  O392  1  0.75033779  0.66939084  0.39822069  1
  O2-  O393  1  0.24979952  0.00118245  0.82095503  1
  O2-  O394  1  0.25013490  0.01699036  0.08250098  1
  O2-  O395  1  0.75011375  0.33786933  0.14687655  1
  O2-  O396  1  0.75024391  0.18237434  0.37076445  1
  O2-  O397  1  0.75022288  0.50076575  0.37251945  1
  O2-  O398  1  0.75013516  0.16667001  0.59877286  1
  O2-  O399  1  0.24993735  0.83218863  0.66066057  1
  O2-  O400  1  0.75012280  0.85550489  0.87460104  1
  O2-  O401  1  0.25008251  0.49613243  0.66832685  1
  O2-  O402  1  0.25004515  0.16691837  0.06469947  1
  O2-  O403  1  0.24997060  0.16821341  0.84340687  1
  O2-  O404  1  0.75009723  0.17391486  0.88406534  1
  O2-  O405  1  0.25008156  0.50017621  0.18196303  1
  O2-  O406  1  0.75003888  0.49917059  0.90595091  1
  O2-  O407  1  0.24981984  0.50421441  0.35498143  1
  O2-  O408  1  0.75006032  0.18858274  0.13971685  1
  O2-  O409  1  0.25006240  0.16640301  0.14673850  1
  O2-  O410  1  0.25001327  0.82807981  0.37503601  1
  O2-  O411  1  0.24988008  0.83808535  0.90924102  1
  O2-  O412  1  0.24999789  0.82702060  0.82001068  1
  O2-  O413  1  0.24982482  0.16616221  0.41229835  1
  O2-  O414  1  0.24995807  0.17016141  0.65477365  1
  O2-  O415  1  0.74992271  0.84184140  0.13831063  1
  O2-  O416  1  0.75001410  0.83420790  0.60446354  1
  O2-  O417  1  0.24988211  0.49326571  0.09722651  1
  O2-  O418  1  0.74996316  0.50095903  0.08552987  1
  O2-  O419  1  0.24974544  0.49745196  0.57939581  1
  O2-  O420  1  0.47853316  0.33478168  0.11290984  1
  O2-  O421  1  0.03261733  0.68037535  0.36464238  1
  O2-  O422  1  0.53081731  0.00041440  0.12793445  1
  O2-  O423  1  0.02922179  0.00413643  0.37417308  1
  O2-  O424  1  0.46654851  0.68310468  0.36575532  1
  O2-  O425  1  0.53754391  0.66795259  0.87406202  1
  O2-  O426  1  0.04497559  0.32805538  0.61958565  1
  O2-  O427  1  0.52332824  0.65893442  0.61569897  1
  O2-  O428  1  0.46694492  0.67688255  0.86880343  1
  O2-  O429  1  0.02848901  0.33395607  0.13899566  1
  O2-  O430  1  0.95475549  0.33396628  0.62214088  1
  O2-  O431  1  0.51469493  0.00110224  0.88228983  1
  O2-  O432  1  0.97970035  0.66312782  0.11430448  1
  O2-  O433  1  0.03118544  0.32694882  0.38318351  1
  O2-  O434  1  0.53317684  0.34960101  0.13985347  1
  O2-  O435  1  0.54484998  0.66499883  0.38273510  1
  O2-  O436  1  0.47085605  -0.00849289  0.11691244  1
  O2-  O437  1  0.52749589  0.33063069  0.37784380  1
  O2-  O438  1  0.96871160  0.32623919  0.38304428  1
  O2-  O439  1  0.52495386  0.33695948  0.62989229  1
  O2-  O440  1  0.97654745  -0.00243833  0.12705795  1
  O2-  O441  1  0.47765903  -0.01261833  0.36616398  1
  O2-  O442  1  0.96275829  0.65992310  0.37749442  1
  O2-  O443  1  0.96745988  0.33650946  0.13580831  1
