# generated using pymatgen
data_La7(Ru4O11)2
_symmetry_space_group_name_H-M   'P 1'
_cell_length_a   23.99830419
_cell_length_b   16.84000403
_cell_length_c   15.43455650
_cell_angle_alpha   89.99711027
_cell_angle_beta   90.00135319
_cell_angle_gamma   90.00193938
_symmetry_Int_Tables_number   1
_chemical_formula_structural   La7(Ru4O11)2
_chemical_formula_sum   'La84 Ru96 O264'
_cell_volume   6237.59106658
_cell_formula_units_Z   12
loop_
 _symmetry_equiv_pos_site_id
 _symmetry_equiv_pos_as_xyz
  1  'x, y, z'
loop_
 _atom_type_symbol
 _atom_type_oxidation_number
  La3+  3.0
  Ru4+  4.0
  O2-  -2.0
loop_
 _atom_site_type_symbol
 _atom_site_label
 _atom_site_symmetry_multiplicity
 _atom_site_fract_x
 _atom_site_fract_y
 _atom_site_fract_z
 _atom_site_occupancy
  La3+  La0  1  0.13618224  -0.00471004  0.12676307  1
  La3+  La1  1  0.13329999  -0.00092243  0.36455061  1
  La3+  La2  1  0.14231962  0.00505402  0.62890332  1
  La3+  La3  1  0.14286687  0.00180333  0.87114485  1
  La3+  La4  1  0.13963562  0.33104540  0.12592210  1
  La3+  La5  1  0.14414861  0.33509906  0.37730659  1
  La3+  La6  1  0.13241504  0.33490989  0.63442249  1
  La3+  La7  1  0.14133208  0.33225119  0.86797931  1
  La3+  La8  1  0.13914098  0.66395598  0.12504936  1
  La3+  La9  1  0.13466061  0.67573183  0.37220418  1
  La3+  La10  1  0.14963920  0.66645426  0.63113014  1
  La3+  La11  1  0.14778820  0.66092257  0.86954086  1
  La3+  La12  1  0.63907415  0.00256077  0.11888940  1
  La3+  La13  1  0.63344973  0.00198398  0.38705394  1
  La3+  La14  1  0.63215089  -0.00076310  0.62357957  1
  La3+  La15  1  0.65437871  0.01020688  0.87089070  1
  La3+  La16  1  0.63973040  0.34146345  0.11932218  1
  La3+  La17  1  0.64389717  0.33680256  0.38161845  1
  La3+  La18  1  0.64873222  0.33336745  0.63013049  1
  La3+  La19  1  0.65432997  0.32805793  0.87973536  1
  La3+  La20  1  0.64521126  0.66266377  0.11912207  1
  La3+  La21  1  0.63607240  0.66151443  0.37607258  1
  La3+  La22  1  0.64443014  0.66674534  0.62778922  1
  La3+  La23  1  0.63726794  0.66647183  0.87882313  1
  La3+  La24  1  0.36524581  0.00371408  0.11875749  1
  La3+  La25  1  0.35513297  -0.00115203  0.37348171  1
  La3+  La26  1  0.36430049  -0.00129367  0.63604226  1
  La3+  La27  1  0.36424551  0.00391108  0.87332851  1
  La3+  La28  1  0.35291073  0.33058327  0.12493842  1
  La3+  La29  1  0.37072121  0.33063363  0.37684318  1
  La3+  La30  1  0.35932019  0.34857042  0.63608374  1
  La3+  La31  1  0.36399770  0.34287824  0.87633685  1
  La3+  La32  1  0.35728595  0.66302504  0.12023146  1
  La3+  La33  1  0.36696136  0.67217450  0.37469966  1
  La3+  La34  1  0.35559525  0.66246560  0.63398849  1
  La3+  La35  1  0.34832007  0.66328524  0.87182421  1
  La3+  La36  1  0.85763570  0.00222074  0.12281668  1
  La3+  La37  1  0.86695107  0.00307963  0.38131757  1
  La3+  La38  1  0.85079003  0.00183104  0.62503151  1
  La3+  La39  1  0.85320344  0.00289538  0.87347777  1
  La3+  La40  1  0.87084701  0.33996811  0.12081258  1
  La3+  La41  1  0.85366749  0.32874390  0.37351203  1
  La3+  La42  1  0.86002097  0.32987241  0.62768160  1
  La3+  La43  1  0.84267464  0.32795139  0.87872736  1
  La3+  La44  1  0.85438672  0.66617627  0.12246002  1
  La3+  La45  1  0.86829725  0.65847474  0.37721417  1
  La3+  La46  1  0.85652772  0.66404403  0.62555210  1
  La3+  La47  1  0.85196241  0.67508528  0.87460312  1
  La3+  La48  1  0.50246690  0.17719763  0.10445466  1
  La3+  La49  1  0.50044004  0.51035866  0.86750515  1
  La3+  La50  1  -0.00777858  0.84061695  0.62285338  1
  La3+  La51  1  0.50842830  0.84626961  0.86370350  1
  La3+  La52  1  -0.00464670  0.49932443  0.87547162  1
  La3+  La53  1  0.49679349  0.49936336  0.12470277  1
  La3+  La54  1  0.50304611  0.18123008  0.62552460  1
  La3+  La55  1  0.00147046  0.17117778  0.62214132  1
  La3+  La56  1  0.49261365  0.84248395  0.39032018  1
  La3+  La57  1  0.50039921  0.49527283  0.37816425  1
  La3+  La58  1  0.00096198  0.83822471  0.64106216  1
  La3+  La59  1  -0.00364508  0.84319357  0.14104794  1
  La3+  La60  1  0.00414022  0.83077349  0.12809162  1
  La3+  La61  1  0.50369878  0.14682159  0.35584432  1
  La3+  La62  1  0.00671032  0.49806119  0.38042363  1
  La3+  La63  1  0.50080725  0.14950527  0.37151227  1
  La3+  La64  1  -0.00436171  0.50402198  0.89757729  1
  La3+  La65  1  -0.00179128  0.16464845  0.64255372  1
  La3+  La66  1  0.50289936  0.48484957  0.62009058  1
  La3+  La67  1  0.49613124  0.17783426  0.12479823  1
  La3+  La68  1  0.49543321  0.82900004  0.62104913  1
  La3+  La69  1  0.49669311  0.82735038  0.60436164  1
  La3+  La70  1  0.02450796  0.50272477  0.61200590  1
  La3+  La71  1  0.49411741  0.85201956  0.37094853  1
  La3+  La72  1  0.24946450  0.48357815  0.22756732  1
  La3+  La73  1  0.75099682  0.16657778  -0.00824517  1
  La3+  La74  1  0.24749232  0.86082552  0.43656243  1
  La3+  La75  1  0.24702165  0.15613757  0.23301267  1
  La3+  La76  1  0.74855496  0.23203757  0.25393609  1
  La3+  La77  1  0.74979516  0.76426265  0.28302996  1
  La3+  La78  1  0.25077344  0.81635748  0.75149011  1
  La3+  La79  1  0.24937675  0.16316495  0.43539830  1
  La3+  La80  1  0.24643450  0.77852617  -0.00395384  1
  La3+  La81  1  0.24860432  0.51519726  0.55581308  1
  La3+  La82  1  0.75497611  0.78564211  0.50207951  1
  La3+  La83  1  0.24825395  0.21718826  -0.03441610  1
  Ru4+  Ru84  1  -0.00205767  0.00730603  -0.02114311  1
  Ru4+  Ru85  1  0.00804141  0.01820279  0.26147394  1
  Ru4+  Ru86  1  0.00021031  0.00283289  0.49270691  1
  Ru4+  Ru87  1  -0.00198764  -0.00949782  0.74420202  1
  Ru4+  Ru88  1  0.01190772  0.34689532  0.02339633  1
  Ru4+  Ru89  1  0.00278001  0.30800551  0.24988516  1
  Ru4+  Ru90  1  -0.01349585  0.34406742  0.48565415  1
  Ru4+  Ru91  1  -0.00396754  0.34134440  0.73629260  1
  Ru4+  Ru92  1  -0.01357311  0.68452309  -0.01290978  1
  Ru4+  Ru93  1  -0.00484586  0.65674774  0.25274127  1
  Ru4+  Ru94  1  -0.01262510  0.67452300  0.49396519  1
  Ru4+  Ru95  1  -0.00177104  0.64929787  0.75086107  1
  Ru4+  Ru96  1  0.50055463  -0.01713584  0.00509708  1
  Ru4+  Ru97  1  0.50186233  -0.01317458  0.23895359  1
  Ru4+  Ru98  1  0.48952575  0.01321267  0.51505888  1
  Ru4+  Ru99  1  0.51184414  0.01591919  0.76909088  1
  Ru4+  Ru100  1  0.49812700  0.34158743  -0.00200668  1
  Ru4+  Ru101  1  0.49940911  0.34227039  0.25666122  1
  Ru4+  Ru102  1  0.50254485  0.32783031  0.47975303  1
  Ru4+  Ru103  1  0.49789624  0.32983377  0.75949808  1
  Ru4+  Ru104  1  0.50074034  0.66720340  0.00176995  1
  Ru4+  Ru105  1  0.50575402  0.67648476  0.24225555  1
  Ru4+  Ru106  1  0.49963193  0.66676387  0.50595352  1
  Ru4+  Ru107  1  0.49031708  0.65435304  0.75387256  1
  Ru4+  Ru108  1  0.10360434  0.17208200  0.00786475  1
  Ru4+  Ru109  1  0.09903241  0.15958353  0.24677898  1
  Ru4+  Ru110  1  0.10823181  0.16041596  0.47607509  1
  Ru4+  Ru111  1  0.11537815  0.15938579  0.75762398  1
  Ru4+  Ru112  1  0.10963410  0.48619507  0.00489100  1
  Ru4+  Ru113  1  0.10531505  0.50837304  0.24598190  1
  Ru4+  Ru114  1  0.10769008  0.49841916  0.49310689  1
  Ru4+  Ru115  1  0.11726972  0.50461758  0.74241978  1
  Ru4+  Ru116  1  0.10775932  0.83469312  -0.00981569  1
  Ru4+  Ru117  1  0.11377933  0.82815582  0.25447770  1
  Ru4+  Ru118  1  0.10822854  0.83107226  0.50014479  1
  Ru4+  Ru119  1  0.10874387  0.84001041  0.76107529  1
  Ru4+  Ru120  1  0.61108461  0.16711062  -0.01041461  1
  Ru4+  Ru121  1  0.61351845  0.16896405  0.25555249  1
  Ru4+  Ru122  1  0.61679562  0.17550414  0.50443229  1
  Ru4+  Ru123  1  0.61014015  0.15989823  0.75648105  1
  Ru4+  Ru124  1  0.61090030  0.49912455  -0.00247974  1
  Ru4+  Ru125  1  0.61362960  0.49983558  0.25053933  1
  Ru4+  Ru126  1  0.61182335  0.50295836  0.50021757  1
  Ru4+  Ru127  1  0.61403334  0.49592326  0.74872455  1
  Ru4+  Ru128  1  0.60369384  0.84020700  0.00402857  1
  Ru4+  Ru129  1  0.60924793  0.83281546  0.24069817  1
  Ru4+  Ru130  1  0.61865447  0.82680199  0.50378674  1
  Ru4+  Ru131  1  0.62209458  0.84196983  0.76271430  1
  Ru4+  Ru132  1  0.38290730  0.17097632  -0.00490176  1
  Ru4+  Ru133  1  0.38291072  0.16531094  0.25420685  1
  Ru4+  Ru134  1  0.38706575  0.16750747  0.51517438  1
  Ru4+  Ru135  1  0.39228547  0.16546204  0.75341391  1
  Ru4+  Ru136  1  0.39102046  0.48712271  0.00297655  1
  Ru4+  Ru137  1  0.38843638  0.50729203  0.24802823  1
  Ru4+  Ru138  1  0.38906046  0.50676933  0.49135469  1
  Ru4+  Ru139  1  0.38871731  0.50459489  0.75131134  1
  Ru4+  Ru140  1  0.39335973  0.82521068  0.02112233  1
  Ru4+  Ru141  1  0.38709402  0.82922982  0.25202024  1
  Ru4+  Ru142  1  0.39314825  0.83330527  0.50486461  1
  Ru4+  Ru143  1  0.39255991  0.83153055  0.74811121  1
  Ru4+  Ru144  1  0.88958256  0.16659965  -0.00022497  1
  Ru4+  Ru145  1  0.89085985  0.16217398  0.24962679  1
  Ru4+  Ru146  1  0.88320177  0.16682067  0.49692904  1
  Ru4+  Ru147  1  0.88247041  0.17185495  0.75072369  1
  Ru4+  Ru148  1  0.88521075  0.49711377  0.00601899  1
  Ru4+  Ru149  1  0.88890822  0.50933497  0.24108738  1
  Ru4+  Ru150  1  0.88959320  0.49104898  0.50143446  1
  Ru4+  Ru151  1  0.88928452  0.50327594  0.75189882  1
  Ru4+  Ru152  1  0.89260905  0.83293712  -0.00921498  1
  Ru4+  Ru153  1  0.88688054  0.83443806  0.25394435  1
  Ru4+  Ru154  1  0.89614980  0.83528934  0.50487790  1
  Ru4+  Ru155  1  0.88066025  0.83515404  0.75389187  1
  Ru4+  Ru156  1  0.75105732  0.42708436  0.76542663  1
  Ru4+  Ru157  1  0.75061383  0.93555315  0.49827243  1
  Ru4+  Ru158  1  0.24917926  0.07229991  0.00515036  1
  Ru4+  Ru159  1  0.24976243  0.39550569  0.46842388  1
  Ru4+  Ru160  1  0.75035019  0.92289651  -0.00902086  1
  Ru4+  Ru161  1  0.74912573  0.43757291  0.50406020  1
  Ru4+  Ru162  1  0.25123018  0.73213616  0.50996584  1
  Ru4+  Ru163  1  0.74978756  0.57122984  0.48842492  1
  Ru4+  Ru164  1  0.25025663  0.33245840  0.24758576  1
  Ru4+  Ru165  1  0.25009732  0.26856215  0.54369491  1
  Ru4+  Ru166  1  0.74907961  0.93168156  0.25600072  1
  Ru4+  Ru167  1  0.24912233  0.06498814  0.54662143  1
  Ru4+  Ru168  1  0.74966455  0.07215199  0.25208040  1
  Ru4+  Ru169  1  0.24822531  0.60802165  0.42936533  1
  Ru4+  Ru170  1  0.24968559  0.56375073  -0.00366510  1
  Ru4+  Ru171  1  0.75023915  0.58867081  0.00022945  1
  Ru4+  Ru172  1  0.74913467  0.56836390  0.74554445  1
  Ru4+  Ru173  1  0.25176673  0.93140232  -0.01174218  1
  Ru4+  Ru174  1  0.25088888  0.62318010  0.26511637  1
  Ru4+  Ru175  1  0.74890217  0.74017947  -0.00852122  1
  Ru4+  Ru176  1  0.25116265  0.92008911  0.23071471  1
  Ru4+  Ru177  1  0.25154781  0.24977259  0.75630785  1
  Ru4+  Ru178  1  0.74764713  0.57106554  0.26388740  1
  Ru4+  Ru179  1  0.25447748  0.92321477  0.57776497  1
  O2-  O180  1  0.16666074  0.08525500  -0.00131315  1
  O2-  O181  1  0.16401618  0.08343558  0.25412466  1
  O2-  O182  1  0.17227971  0.07931611  0.49383550  1
  O2-  O183  1  0.16597992  0.08036381  0.75176110  1
  O2-  O184  1  0.16423311  0.41133950  0.00085087  1
  O2-  O185  1  0.16363737  0.41706194  0.24851624  1
  O2-  O186  1  0.16684058  0.41274757  0.50527761  1
  O2-  O187  1  0.16342400  0.41406225  0.74988410  1
  O2-  O188  1  0.15574460  0.74098381  0.00133289  1
  O2-  O189  1  0.16207092  0.74740976  0.24807118  1
  O2-  O190  1  0.16625532  0.74966455  0.50245848  1
  O2-  O191  1  0.15884543  0.75127687  0.75222473  1
  O2-  O192  1  0.67011840  0.08425002  0.01128937  1
  O2-  O193  1  0.66452080  0.07576104  0.25342264  1
  O2-  O194  1  0.66555424  0.08333155  0.50589275  1
  O2-  O195  1  0.66894792  0.08276100  0.74037131  1
  O2-  O196  1  0.66777040  0.42005258  0.00511950  1
  O2-  O197  1  0.66573773  0.41617769  0.24891380  1
  O2-  O198  1  0.67106817  0.41777321  0.50113127  1
  O2-  O199  1  0.67087406  0.41693133  0.75563316  1
  O2-  O200  1  0.66355409  0.74875160  -0.00258408  1
  O2-  O201  1  0.65927944  0.74070653  0.25268332  1
  O2-  O202  1  0.66555990  0.73530281  0.49501717  1
  O2-  O203  1  0.65758606  0.74255206  0.75088177  1
  O2-  O204  1  0.33376239  0.25985109  -0.00653390  1
  O2-  O205  1  0.32710408  0.25312037  0.25852855  1
  O2-  O206  1  0.32666284  0.25046540  0.49269090  1
  O2-  O207  1  0.33458613  0.25102234  0.75124635  1
  O2-  O208  1  0.33428516  0.57693523  -0.00190802  1
  O2-  O209  1  0.33297563  0.59218437  0.25629550  1
  O2-  O210  1  0.33204565  0.58835690  0.49716420  1
  O2-  O211  1  0.33198761  0.58006133  0.74226181  1
  O2-  O212  1  0.33994002  0.91865792  -0.00389894  1
  O2-  O213  1  0.33679915  0.92063396  0.24065902  1
  O2-  O214  1  0.33291795  0.92018099  0.50373810  1
  O2-  O215  1  0.33490862  0.91814380  0.75404764  1
  O2-  O216  1  0.83828208  0.25390680  0.00945824  1
  O2-  O217  1  0.83996581  0.25919779  0.24132615  1
  O2-  O218  1  0.83706234  0.25561984  0.50448201  1
  O2-  O219  1  0.82967687  0.25437306  0.74327662  1
  O2-  O220  1  0.83148106  0.58231900  -0.00463521  1
  O2-  O221  1  0.82593216  0.58474786  0.25170587  1
  O2-  O222  1  0.83316985  0.57727072  0.50060194  1
  O2-  O223  1  0.82897158  0.57962704  0.75117558  1
  O2-  O224  1  0.83476035  0.91852659  0.00073846  1
  O2-  O225  1  0.83549340  0.92176206  0.25687484  1
  O2-  O226  1  0.83377785  0.91959436  0.49673722  1
  O2-  O227  1  0.83471427  0.92253227  0.74975249  1
  O2-  O228  1  0.16048264  0.25354535  -0.00215697  1
  O2-  O229  1  0.16816174  0.24596713  0.24670860  1
  O2-  O230  1  0.16383733  0.24849108  0.50727005  1
  O2-  O231  1  0.16672290  0.25050215  0.74355073  1
  O2-  O232  1  0.16175316  0.57866730  0.00094748  1
  O2-  O233  1  0.17036964  0.58917788  0.24848258  1
  O2-  O234  1  0.16404245  0.58841404  0.49481342  1
  O2-  O235  1  0.16870567  0.58483998  0.74878272  1
  O2-  O236  1  0.16591608  0.91852609  -0.00527353  1
  O2-  O237  1  0.16714777  0.91652479  0.24615734  1
  O2-  O238  1  0.16330260  0.91957201  0.49853856  1
  O2-  O239  1  0.17346218  0.91428968  0.75417123  1
  O2-  O240  1  0.66610383  0.25128056  0.00743401  1
  O2-  O241  1  0.65577115  0.26460933  0.24944965  1
  O2-  O242  1  0.67414673  0.25205924  0.49648274  1
  O2-  O243  1  0.66197959  0.24906970  0.74946858  1
  O2-  O244  1  0.66928335  0.58208387  -0.00275103  1
  O2-  O245  1  0.66725362  0.58594398  0.25076027  1
  O2-  O246  1  0.66701420  0.58342154  0.49729469  1
  O2-  O247  1  0.67026562  0.58312848  0.75469874  1
  O2-  O248  1  0.66716366  0.92028151  0.00479072  1
  O2-  O249  1  0.66180054  0.91813377  0.25332045  1
  O2-  O250  1  0.66825842  0.91973777  0.49717043  1
  O2-  O251  1  0.67021986  0.92014634  0.73939914  1
  O2-  O252  1  0.33330553  0.08174060  -0.00502416  1
  O2-  O253  1  0.33260174  0.07963409  0.24537236  1
  O2-  O254  1  0.32980966  0.08104812  0.50409751  1
  O2-  O255  1  0.33946064  0.08254146  0.74962925  1
  O2-  O256  1  0.32613532  0.42349050  -0.00989461  1
  O2-  O257  1  0.32837638  0.40921083  0.25388017  1
  O2-  O258  1  0.33241831  0.41432258  0.49620040  1
  O2-  O259  1  0.33557705  0.41940544  0.76076519  1
  O2-  O260  1  0.33901075  0.74402828  -0.00253214  1
  O2-  O261  1  0.33717081  0.75036096  0.24887864  1
  O2-  O262  1  0.33494942  0.74464319  0.50150978  1
  O2-  O263  1  0.33988362  0.74867233  0.74950441  1
  O2-  O264  1  0.83860078  0.08055353  0.00461225  1
  O2-  O265  1  0.83659699  0.07822892  0.25298478  1
  O2-  O266  1  0.83230017  0.08048697  0.49865114  1
  O2-  O267  1  0.83793778  0.08168295  0.74901832  1
  O2-  O268  1  0.83054943  0.41662454  0.00444190  1
  O2-  O269  1  0.84260289  0.41820455  0.24575408  1
  O2-  O270  1  0.82687923  0.41510405  0.50831337  1
  O2-  O271  1  0.83349457  0.41811856  0.74866192  1
  O2-  O272  1  0.83447442  0.74972832  -0.00188818  1
  O2-  O273  1  0.83903481  0.74074579  0.25308721  1
  O2-  O274  1  0.84657993  0.73884427  0.49976592  1
  O2-  O275  1  0.83940704  0.74328013  0.74497067  1
  O2-  O276  1  0.05413470  0.24562777  0.72979936  1
  O2-  O277  1  0.95763365  0.43173727  0.55599799  1
  O2-  O278  1  0.53615475  0.88840115  0.06590129  1
  O2-  O279  1  0.45370656  0.23515646  0.26484838  1
  O2-  O280  1  0.44866114  0.43391043  0.49248313  1
  O2-  O281  1  0.94856983  0.89685700  0.76892317  1
  O2-  O282  1  0.55384474  0.56863968  0.74664314  1
  O2-  O283  1  0.54402349  0.44229268  0.24727071  1
  O2-  O284  1  0.45255812  0.08901791  0.75152113  1
  O2-  O285  1  0.54537801  0.77769788  0.28654994  1
  O2-  O286  1  0.44170567  0.58526477  0.02821558  1
  O2-  O287  1  0.44900538  0.57439035  0.68456787  1
  O2-  O288  1  0.44683487  0.24344605  0.74705457  1
  O2-  O289  1  0.04341931  0.22837036  0.76001000  1
  O2-  O290  1  0.56211122  0.41131972  0.97138797  1
  O2-  O291  1  0.95353068  0.78562788  0.93650891  1
  O2-  O292  1  0.05467520  0.55092487  0.17244940  1
  O2-  O293  1  0.94108795  0.23873608  0.23505884  1
  O2-  O294  1  0.96324761  0.53722672  0.71473831  1
  O2-  O295  1  0.44969789  0.79706918  0.95401951  1
  O2-  O296  1  0.43881173  0.23095008  0.44842371  1
  O2-  O297  1  0.05124510  0.91689158  0.01290303  1
  O2-  O298  1  0.94269301  0.57834128  0.47713460  1
  O2-  O299  1  0.05077353  0.75453446  1.00270550  1
  O2-  O300  1  0.55238101  0.23804235  0.74815924  1
  O2-  O301  1  0.44371137  0.09552128  0.01126354  1
  O2-  O302  1  0.53184840  0.10716299  0.97686831  1
  O2-  O303  1  0.44594501  0.08559551  0.24104156  1
  O2-  O304  1  0.03732729  0.45805007  0.04814005  1
  O2-  O305  1  0.47468575  0.45944675  -0.00590732  1
  O2-  O306  1  0.03562257  0.21137385  0.21661474  1
  O2-  O307  1  0.05269339  0.90960694  0.23550839  1
  O2-  O308  1  0.04316629  0.90022607  0.50043297  1
  O2-  O309  1  0.55650302  0.75272449  0.97442112  1
  O2-  O310  1  0.55331046  0.42478721  0.49948100  1
  O2-  O311  1  0.54105374  0.21771239  0.47031530  1
  O2-  O312  1  0.45114966  0.91191720  0.72718944  1
  O2-  O313  1  0.03676278  0.10328418  0.03471593  1
  O2-  O314  1  0.55641345  0.58270442  0.97617582  1
  O2-  O315  1  0.03889506  0.84288911  0.80337454  1
  O2-  O316  1  0.53891230  0.90394810  0.50187648  1
  O2-  O317  1  0.04774341  0.75571624  0.25925934  1
  O2-  O318  1  0.03531785  0.10363334  0.31161930  1
  O2-  O319  1  0.96342203  0.49860411  0.25960587  1
  O2-  O320  1  0.44943597  0.41974064  0.73494071  1
  O2-  O321  1  0.54926334  0.24872488  0.97690706  1
  O2-  O322  1  0.55198705  0.86408743  0.71147350  1
  O2-  O323  1  0.55410661  0.08692017  0.22966012  1
  O2-  O324  1  0.94457539  0.08759321  0.51991145  1
  O2-  O325  1  0.07182757  0.07003800  0.96531322  1
  O2-  O326  1  0.06530949  0.61347126  0.67891586  1
  O2-  O327  1  0.93842090  0.40581568  0.00707645  1
  O2-  O328  1  0.43582297  0.72669903  0.07977912  1
  O2-  O329  1  0.92318264  0.61572546  0.20863466  1
  O2-  O330  1  0.44242709  0.59872894  0.46186159  1
  O2-  O331  1  0.94514614  0.58348396  0.01410034  1
  O2-  O332  1  0.91892950  0.40233802  0.42943852  1
  O2-  O333  1  0.58540798  0.26210665  0.57552461  1
  O2-  O334  1  0.56885973  0.08713434  0.67869971  1
  O2-  O335  1  0.44298270  0.41852985  0.73131490  1
  O2-  O336  1  0.56120872  0.09137389  0.82483366  1
  O2-  O337  1  0.43530037  0.06252029  0.01888741  1
  O2-  O338  1  0.56154483  0.74479046  0.52037498  1
  O2-  O339  1  0.06100023  0.92490040  0.20234994  1
  O2-  O340  1  0.92967649  0.61893707  0.82155874  1
  O2-  O341  1  0.56349388  0.69445725  0.16988339  1
  O2-  O342  1  0.06695314  0.59495265  0.30882639  1
  O2-  O343  1  0.94842724  0.57314487  0.48418605  1
  O2-  O344  1  0.56389861  0.07743538  0.47572714  1
  O2-  O345  1  0.93718003  0.94060946  0.97399901  1
  O2-  O346  1  0.44027167  0.73256067  0.28991110  1
  O2-  O347  1  0.07491207  0.31945479  0.29220535  1
  O2-  O348  1  0.40839850  0.23618130  0.60378414  1
  O2-  O349  1  0.58104663  0.05973798  0.97291021  1
  O2-  O350  1  0.44315102  0.23880670  0.44950962  1
  O2-  O351  1  0.43625404  0.42565408  0.26338117  1
  O2-  O352  1  0.55983129  0.90816977  0.52317220  1
  O2-  O353  1  0.08277200  0.11471048  0.58312591  1
  O2-  O354  1  0.93570076  0.26629721  0.71581146  1
  O2-  O355  1  0.05959308  0.38801141  0.91781637  1
  O2-  O356  1  0.93324653  0.73426350  0.07109959  1
  O2-  O357  1  0.06099244  0.26326720  0.03439521  1
  O2-  O358  1  0.94316907  0.75623453  0.22428828  1
  O2-  O359  1  0.43588637  0.06109321  0.41997171  1
  O2-  O360  1  0.42277964  0.59470057  0.82104580  1
  O2-  O361  1  0.06198731  0.06733985  0.44033050  1
  O2-  O362  1  0.07469338  0.56519609  0.83037235  1
  O2-  O363  1  0.05778321  0.41549885  0.73210031  1
  O2-  O364  1  0.41119665  0.37675759  0.02581618  1
  O2-  O365  1  0.56985855  0.92651331  0.94541718  1
  O2-  O366  1  0.07701171  0.92880628  0.69853874  1
  O2-  O367  1  0.55857754  0.59091130  0.97205168  1
  O2-  O368  1  0.06767902  0.07092635  0.18051945  1
  O2-  O369  1  0.43533673  0.08232922  0.57289303  1
  O2-  O370  1  0.57730555  0.94790787  0.80863132  1
  O2-  O371  1  0.44218748  0.24577080  0.02011620  1
  O2-  O372  1  0.74714188  0.65975754  0.89062032  1
  O2-  O373  1  0.24928864  0.00365410  0.40755893  1
  O2-  O374  1  0.25190756  0.01583666  0.31508448  1
  O2-  O375  1  0.24637623  0.32623726  0.12384691  1
  O2-  O376  1  0.74850790  0.66532410  0.10509072  1
  O2-  O377  1  0.24977624  0.67890685  0.68654010  1
  O2-  O378  1  0.24850758  0.65732783  0.91529551  1
  O2-  O379  1  0.25155732  0.70728619  0.36311977  1
  O2-  O380  1  0.75025039  -0.00002557  0.14454131  1
  O2-  O381  1  0.75484497  0.00080735  0.89966085  1
  O2-  O382  1  0.25101552  -0.00241431  0.11193006  1
  O2-  O383  1  0.24907646  0.68092652  0.82658382  1
  O2-  O384  1  0.24840175  0.32168062  0.65153638  1
  O2-  O385  1  0.74890930  0.66200926  0.67069167  1
  O2-  O386  1  0.74997689  0.35175979  0.87175008  1
  O2-  O387  1  0.24944736  0.65553711  0.05987935  1
  O2-  O388  1  0.25216461  0.65053934  0.59972018  1
  O2-  O389  1  0.75071299  0.65731955  0.57807917  1
  O2-  O390  1  0.74840772  0.66317949  0.39496903  1
  O2-  O391  1  0.24877447  0.69379257  0.17988348  1
  O2-  O392  1  0.24859398  0.31355089  0.37445255  1
  O2-  O393  1  0.24987208  0.00908667  0.89017398  1
  O2-  O394  1  0.24916741  0.32417992  0.85143517  1
  O2-  O395  1  0.25194695  0.00874213  0.66259769  1
  O2-  O396  1  0.24911164  0.49890819  0.08903942  1
  O2-  O397  1  0.75001867  0.87760353  0.37499724  1
  O2-  O398  1  0.75088297  0.82717878  0.69180051  1
  O2-  O399  1  0.24990205  0.48389061  0.67342787  1
  O2-  O400  1  0.75017945  0.13752360  0.35592057  1
  O2-  O401  1  0.24953734  0.50732377  0.83017000  1
  O2-  O402  1  0.24920454  0.49850219  0.38681340  1
  O2-  O403  1  0.75008428  0.85096375  0.17990852  1
  O2-  O404  1  0.24965375  0.81857670  0.17326990  1
  O2-  O405  1  0.75139577  0.16729943  0.43856180  1
  O2-  O406  1  0.24977580  0.16424160  0.82649402  1
  O2-  O407  1  0.74964090  0.86899979  0.61269452  1
  O2-  O408  1  0.74897256  0.50407279  0.35600539  1
  O2-  O409  1  0.74925885  0.83079807  0.83606638  1
  O2-  O410  1  0.75149853  0.14802424  0.14553213  1
  O2-  O411  1  0.75156150  0.16946228  0.86549697  1
  O2-  O412  1  0.25177238  0.83585068  0.30674866  1
  O2-  O413  1  0.25186533  0.86349486  0.88409795  1
  O2-  O414  1  0.74966194  0.83108646  0.92028481  1
  O2-  O415  1  0.24936349  0.81071706  0.60366475  1
  O2-  O416  1  0.25265309  0.86851305  0.10266629  1
  O2-  O417  1  0.24731958  0.48764988  0.91102515  1
  O2-  O418  1  0.75032520  0.83106388  0.05754778  1
  O2-  O419  1  0.25192896  0.15169630  0.09855224  1
  O2-  O420  1  0.02089335  0.66910563  0.87670761  1
  O2-  O421  1  0.54738038  0.32509107  0.12366790  1
  O2-  O422  1  0.97528490  0.33313365  0.13417051  1
  O2-  O423  1  0.47585706  -0.00874008  0.12542660  1
  O2-  O424  1  0.02621959  0.31885482  0.60174959  1
  O2-  O425  1  0.52294221  0.67418922  0.63554127  1
  O2-  O426  1  0.98335889  0.32147979  0.36786395  1
  O2-  O427  1  0.47138431  -0.01257754  0.88209240  1
  O2-  O428  1  0.46530362  0.35747059  0.37026040  1
  O2-  O429  1  0.95860601  0.68548833  0.36072933  1
  O2-  O430  1  0.96628292  -0.00941020  0.37088769  1
  O2-  O431  1  0.52865762  -0.01517611  0.36305588  1
  O2-  O432  1  0.48878276  0.68019074  0.87283644  1
  O2-  O433  1  0.96891205  0.68526654  0.62623843  1
  O2-  O434  1  0.46982290  0.33573754  0.88119075  1
  O2-  O435  1  0.02845341  0.00952116  0.61675150  1
  O2-  O436  1  0.02169339  0.00289253  0.85628094  1
  O2-  O437  1  0.04900499  0.67588378  0.42981822  1
  O2-  O438  1  0.54229839  0.36260649  0.66573433  1
  O2-  O439  1  0.55429531  0.32828970  0.36262328  1
  O2-  O440  1  0.94022011  -0.02048611  0.64653478  1
  O2-  O441  1  0.51579938  -0.01055272  0.62656311  1
  O2-  O442  1  0.47547211  0.33228063  0.59219114  1
  O2-  O443  1  0.45544275  0.33408465  0.15476124  1
