# generated using pymatgen
data_La7(Ru4O11)2
_symmetry_space_group_name_H-M   'P 1'
_cell_length_a   23.98973985
_cell_length_b   16.82940416
_cell_length_c   15.42708922
_cell_angle_alpha   89.99980665
_cell_angle_beta   89.99957649
_cell_angle_gamma   90.00062228
_symmetry_Int_Tables_number   1
_chemical_formula_structural   La7(Ru4O11)2
_chemical_formula_sum   'La84 Ru96 O264'
_cell_volume   6228.42543906
_cell_formula_units_Z   12
loop_
 _symmetry_equiv_pos_site_id
 _symmetry_equiv_pos_as_xyz
  1  'x, y, z'
loop_
 _atom_type_symbol
 _atom_type_oxidation_number
  La3+  3.0
  Ru4+  4.0
  O2-  -2.0
loop_
 _atom_site_type_symbol
 _atom_site_label
 _atom_site_symmetry_multiplicity
 _atom_site_fract_x
 _atom_site_fract_y
 _atom_site_fract_z
 _atom_site_occupancy
  La3+  La0  1  0.13871436  -0.00056048  0.12311632  1
  La3+  La1  1  0.13788118  0.00076997  0.37547214  1
  La3+  La2  1  0.13872452  -0.00050141  0.62588883  1
  La3+  La3  1  0.13986328  -0.00026674  0.87576040  1
  La3+  La4  1  0.14119207  0.33267945  0.12627237  1
  La3+  La5  1  0.14142835  0.33545061  0.37225573  1
  La3+  La6  1  0.13930517  0.33573992  0.62501908  1
  La3+  La7  1  0.14112489  0.33349112  0.87610111  1
  La3+  La8  1  0.13881893  0.66837087  0.12713889  1
  La3+  La9  1  0.14211822  0.66563937  0.37427681  1
  La3+  La10  1  0.14122151  0.66313326  0.62329949  1
  La3+  La11  1  0.13967645  0.66634057  0.87448564  1
  La3+  La12  1  0.63980011  0.00044037  0.12828947  1
  La3+  La13  1  0.63741699  0.00144580  0.37279632  1
  La3+  La14  1  0.63873882  -0.00181352  0.62475675  1
  La3+  La15  1  0.63762013  -0.00149915  0.87452814  1
  La3+  La16  1  0.63596609  0.33226229  0.12532781  1
  La3+  La17  1  0.64000613  0.32968453  0.37199796  1
  La3+  La18  1  0.63581458  0.33269655  0.62531147  1
  La3+  La19  1  0.63515482  0.33222611  0.87502856  1
  La3+  La20  1  0.63816063  0.66619824  0.12589922  1
  La3+  La21  1  0.63847285  0.66828041  0.37416869  1
  La3+  La22  1  0.63895953  0.66926468  0.62496440  1
  La3+  La23  1  0.63799662  0.66797051  0.87633381  1
  La3+  La24  1  0.36257488  -0.00061891  0.12338162  1
  La3+  La25  1  0.36305251  0.00078359  0.37443720  1
  La3+  La26  1  0.36159804  -0.00036100  0.62488283  1
  La3+  La27  1  0.36000636  -0.00145662  0.87653996  1
  La3+  La28  1  0.35766443  0.33195587  0.12329440  1
  La3+  La29  1  0.35910092  0.33370246  0.37305442  1
  La3+  La30  1  0.36129752  0.33484500  0.62576784  1
  La3+  La31  1  0.35843880  0.33310051  0.87631098  1
  La3+  La32  1  0.36167173  0.66789060  0.12593740  1
  La3+  La33  1  0.35709523  0.66727248  0.37327331  1
  La3+  La34  1  0.35794041  0.66559069  0.62428618  1
  La3+  La35  1  0.35971396  0.66768739  0.87522688  1
  La3+  La36  1  0.86200850  0.00207096  0.12791750  1
  La3+  La37  1  0.85878585  0.00131837  0.37337766  1
  La3+  La38  1  0.86034029  -0.00128320  0.62569451  1
  La3+  La39  1  0.86318019  -0.00029015  0.87521083  1
  La3+  La40  1  0.86314571  0.33415059  0.12514215  1
  La3+  La41  1  0.86117566  0.33241635  0.37083085  1
  La3+  La42  1  0.86257771  0.33144115  0.62638957  1
  La3+  La43  1  0.86338481  0.33336865  0.87634259  1
  La3+  La44  1  0.86100919  0.66607351  0.12476037  1
  La3+  La45  1  0.86095130  0.66731454  0.37426415  1
  La3+  La46  1  0.86171241  0.66805067  0.62581884  1
  La3+  La47  1  0.86209566  0.66744748  0.87539822  1
  La3+  La48  1  -0.00062047  0.83179962  0.11451766  1
  La3+  La49  1  0.00048230  0.16640043  0.62439300  1
  La3+  La50  1  0.49971773  0.16881597  0.88532092  1
  La3+  La51  1  0.00114695  0.83233654  0.61755375  1
  La3+  La52  1  0.49770883  0.49545477  0.63205995  1
  La3+  La53  1  0.50042934  0.16731676  0.11656150  1
  La3+  La54  1  -0.00312352  0.49845720  0.86513396  1
  La3+  La55  1  0.49786431  0.83763108  0.13429996  1
  La3+  La56  1  -0.00089038  0.16659475  0.64095024  1
  La3+  La57  1  0.00054503  0.16607404  0.38460365  1
  La3+  La58  1  -0.00087335  0.49834646  0.61705619  1
  La3+  La59  1  0.00107631  0.16686770  0.12069367  1
  La3+  La60  1  0.50113203  0.83171867  0.11308984  1
  La3+  La61  1  0.00378761  0.83013114  0.12950562  1
  La3+  La62  1  0.50152613  0.49985381  0.88562862  1
  La3+  La63  1  0.49980404  0.16653473  0.63531313  1
  La3+  La64  1  -0.00094276  0.83275877  0.88725990  1
  La3+  La65  1  0.00041365  0.83506503  0.36088906  1
  La3+  La66  1  0.00140028  0.16811901  0.88216217  1
  La3+  La67  1  -0.00350784  0.49880052  0.88209734  1
  La3+  La68  1  0.00018791  0.83444987  0.86513608  1
  La3+  La69  1  -0.00464507  0.83967846  0.38096083  1
  La3+  La70  1  -0.00062338  0.49961746  0.36608162  1
  La3+  La71  1  0.50105572  0.49952353  0.38501386  1
  La3+  La72  1  0.74985010  0.53161767  0.05187099  1
  La3+  La73  1  0.74960909  0.83301155  0.28452906  1
  La3+  La74  1  0.25023798  0.79521812  0.53186561  1
  La3+  La75  1  0.74972090  0.56830875  0.75680312  1
  La3+  La76  1  0.25000637  0.20178972  0.24913075  1
  La3+  La77  1  0.74993172  0.19969741  0.03006446  1
  La3+  La78  1  0.24972759  0.49982443  0.23046876  1
  La3+  La79  1  0.24999830  0.50249738  0.48908323  1
  La3+  La80  1  0.74948687  0.50387693  0.48963996  1
  La3+  La81  1  0.25044832  0.14046167  0.52602041  1
  La3+  La82  1  0.75002792  0.19732620  0.76611986  1
  La3+  La83  1  0.25056711  0.46308833  0.02970860  1
  Ru4+  Ru84  1  0.00199563  -0.00202663  0.00240873  1
  Ru4+  Ru85  1  0.00055752  0.00445668  0.24744593  1
  Ru4+  Ru86  1  0.00155276  -0.00249437  0.49884641  1
  Ru4+  Ru87  1  0.00072405  0.00266849  0.75073432  1
  Ru4+  Ru88  1  0.00334347  0.32836941  0.00246852  1
  Ru4+  Ru89  1  -0.00024832  0.33512386  0.25000937  1
  Ru4+  Ru90  1  -0.00264795  0.33595466  0.50002325  1
  Ru4+  Ru91  1  0.00114554  0.33425846  0.75027813  1
  Ru4+  Ru92  1  -0.00345745  0.66713459  0.00232452  1
  Ru4+  Ru93  1  -0.00001595  0.66238579  0.24918411  1
  Ru4+  Ru94  1  -0.00416964  0.66972892  0.50352724  1
  Ru4+  Ru95  1  0.00009145  0.66479198  0.74643301  1
  Ru4+  Ru96  1  0.49890379  0.00103737  0.00046642  1
  Ru4+  Ru97  1  0.50017411  -0.00060553  0.25441772  1
  Ru4+  Ru98  1  0.50218009  -0.00169702  0.49536139  1
  Ru4+  Ru99  1  0.49854727  -0.00584818  0.75367045  1
  Ru4+  Ru100  1  0.49917522  0.34101301  0.00137890  1
  Ru4+  Ru101  1  0.49800938  0.33528115  0.24833757  1
  Ru4+  Ru102  1  0.49896451  0.33247889  0.50144977  1
  Ru4+  Ru103  1  0.50075077  0.33346147  0.75056217  1
  Ru4+  Ru104  1  0.50031685  0.66369861  0.00019105  1
  Ru4+  Ru105  1  0.50113607  0.66336728  0.25288927  1
  Ru4+  Ru106  1  0.49966139  0.66607996  0.49716037  1
  Ru4+  Ru107  1  0.49980331  0.67679692  0.74804956  1
  Ru4+  Ru108  1  0.11398480  0.16946446  0.00010977  1
  Ru4+  Ru109  1  0.11069428  0.16747660  0.24979432  1
  Ru4+  Ru110  1  0.11397044  0.16341444  0.49872253  1
  Ru4+  Ru111  1  0.11327716  0.16466248  0.75074331  1
  Ru4+  Ru112  1  0.11525878  0.49667219  0.00331097  1
  Ru4+  Ru113  1  0.11163689  0.49856918  0.24872444  1
  Ru4+  Ru114  1  0.11537046  0.49679919  0.50060161  1
  Ru4+  Ru115  1  0.11434947  0.50008684  0.75040472  1
  Ru4+  Ru116  1  0.11674842  0.83363105  0.00065380  1
  Ru4+  Ru117  1  0.11375393  0.83158477  0.25009360  1
  Ru4+  Ru118  1  0.11318909  0.83408288  0.50166450  1
  Ru4+  Ru119  1  0.11399360  0.83487163  0.74778559  1
  Ru4+  Ru120  1  0.61454148  0.16149092  -0.00030204  1
  Ru4+  Ru121  1  0.61500931  0.16527552  0.24963347  1
  Ru4+  Ru122  1  0.61259854  0.16630576  0.50033762  1
  Ru4+  Ru123  1  0.61245334  0.16818095  0.74910057  1
  Ru4+  Ru124  1  0.61036250  0.50226845  0.00093804  1
  Ru4+  Ru125  1  0.61060336  0.50078816  0.24908369  1
  Ru4+  Ru126  1  0.61165193  0.50117267  0.49947416  1
  Ru4+  Ru127  1  0.61312564  0.49978213  0.75095005  1
  Ru4+  Ru128  1  0.61343112  0.83242271  -0.00040702  1
  Ru4+  Ru129  1  0.61243471  0.83414547  0.25126717  1
  Ru4+  Ru130  1  0.61247010  0.83544582  0.50043773  1
  Ru4+  Ru131  1  0.61134267  0.83247757  0.74949236  1
  Ru4+  Ru132  1  0.38570540  0.16842286  0.00021101  1
  Ru4+  Ru133  1  0.39034281  0.16669280  0.25138681  1
  Ru4+  Ru134  1  0.39052131  0.16669492  0.49833459  1
  Ru4+  Ru135  1  0.38739265  0.16721776  0.74951723  1
  Ru4+  Ru136  1  0.39048864  0.50099294  0.00149081  1
  Ru4+  Ru137  1  0.38879328  0.49668045  0.24869761  1
  Ru4+  Ru138  1  0.38743630  0.50099673  0.50018062  1
  Ru4+  Ru139  1  0.38389462  0.49816275  0.74990295  1
  Ru4+  Ru140  1  0.38524622  0.83345351  -0.00155265  1
  Ru4+  Ru141  1  0.38600733  0.83139157  0.25105980  1
  Ru4+  Ru142  1  0.38793790  0.83252304  0.49988832  1
  Ru4+  Ru143  1  0.39120256  0.83226307  0.74984806  1
  Ru4+  Ru144  1  0.88544378  0.17091615  0.00014857  1
  Ru4+  Ru145  1  0.88560259  0.16719991  0.24975438  1
  Ru4+  Ru146  1  0.88562699  0.16581181  0.49892238  1
  Ru4+  Ru147  1  0.88893772  0.16777781  0.75007398  1
  Ru4+  Ru148  1  0.88625975  0.50514203  0.00197488  1
  Ru4+  Ru149  1  0.88859258  0.49816714  0.25135341  1
  Ru4+  Ru150  1  0.88858118  0.49873893  0.50040313  1
  Ru4+  Ru151  1  0.88806394  0.50250435  0.74861615  1
  Ru4+  Ru152  1  0.88572369  0.83346256  0.00060371  1
  Ru4+  Ru153  1  0.88533012  0.83390880  0.25012503  1
  Ru4+  Ru154  1  0.88705594  0.83174771  0.50024354  1
  Ru4+  Ru155  1  0.88523726  0.83276588  0.74939300  1
  Ru4+  Ru156  1  0.74979097  0.40445138  0.23986374  1
  Ru4+  Ru157  1  0.74973399  0.75271188  0.74993757  1
  Ru4+  Ru158  1  0.25013441  0.93321780  0.48617531  1
  Ru4+  Ru159  1  0.25028498  0.24366006  0.75163867  1
  Ru4+  Ru160  1  0.75017149  0.05834114  0.74661214  1
  Ru4+  Ru161  1  0.74974852  0.58748833  0.23997301  1
  Ru4+  Ru162  1  0.75006044  0.40030437  0.75980718  1
  Ru4+  Ru163  1  0.74995697  0.62993521  0.52073054  1
  Ru4+  Ru164  1  0.74978976  0.74561979  -0.00621162  1
  Ru4+  Ru165  1  0.74947722  0.23530232  0.49381304  1
  Ru4+  Ru166  1  0.25020480  0.09093085  0.75495770  1
  Ru4+  Ru167  1  0.74986485  0.06434421  -0.01329750  1
  Ru4+  Ru168  1  0.74943376  0.08891424  0.49814732  1
  Ru4+  Ru169  1  0.24988922  0.05983351  0.24364172  1
  Ru4+  Ru170  1  0.74994660  0.39238510  -0.00104919  1
  Ru4+  Ru171  1  0.75000890  0.37469552  0.47745399  1
  Ru4+  Ru172  1  0.74985919  0.91840992  0.49958133  1
  Ru4+  Ru173  1  0.25019157  0.08793108  -0.00819998  1
  Ru4+  Ru174  1  0.24994136  0.74926686  0.74556164  1
  Ru4+  Ru175  1  0.74979674  0.91968610  -0.00539120  1
  Ru4+  Ru176  1  0.25009993  0.91540747  0.75464438  1
  Ru4+  Ru177  1  0.25006832  0.91453397  0.24682872  1
  Ru4+  Ru178  1  0.25015896  0.27631760  0.49224214  1
  Ru4+  Ru179  1  0.25022643  0.60442098  0.00626397  1
  O2-  O180  1  0.16786858  0.08008524  0.00189959  1
  O2-  O181  1  0.16642575  0.07859003  0.24906194  1
  O2-  O182  1  0.16689565  0.07903655  0.49891570  1
  O2-  O183  1  0.16876720  0.08144105  0.75018360  1
  O2-  O184  1  0.16657969  0.41322192  -0.00111588  1
  O2-  O185  1  0.16713490  0.41584034  0.24922731  1
  O2-  O186  1  0.16673506  0.41307151  0.50075390  1
  O2-  O187  1  0.16562038  0.41346413  0.74875343  1
  O2-  O188  1  0.16689967  0.74714225  0.00087219  1
  O2-  O189  1  0.16717885  0.74884317  0.24865142  1
  O2-  O190  1  0.16631158  0.74689358  0.49729929  1
  O2-  O191  1  0.16645648  0.74760610  0.75052563  1
  O2-  O192  1  0.66735068  0.07988158  0.00024206  1
  O2-  O193  1  0.66667930  0.08228063  0.25111356  1
  O2-  O194  1  0.66858937  0.08072848  0.50001809  1
  O2-  O195  1  0.66851933  0.07972006  0.75063853  1
  O2-  O196  1  0.66676400  0.41252492  0.00023278  1
  O2-  O197  1  0.66703089  0.41415687  0.24870592  1
  O2-  O198  1  0.66707457  0.41117313  0.50041010  1
  O2-  O199  1  0.66713680  0.41371831  0.74948756  1
  O2-  O200  1  0.66633876  0.74761462  -0.00085802  1
  O2-  O201  1  0.66763897  0.74745746  0.25083347  1
  O2-  O202  1  0.66801244  0.74866119  0.50014801  1
  O2-  O203  1  0.66762419  0.74736755  0.74992856  1
  O2-  O204  1  0.33306874  0.24995276  -0.00056072  1
  O2-  O205  1  0.33594219  0.25219073  0.24999558  1
  O2-  O206  1  0.33201347  0.25294520  0.50105884  1
  O2-  O207  1  0.33133108  0.25134424  0.74890247  1
  O2-  O208  1  0.33221760  0.58627828  0.00044774  1
  O2-  O209  1  0.33446826  0.58498009  0.24879319  1
  O2-  O210  1  0.33480499  0.58561454  0.49820597  1
  O2-  O211  1  0.33227745  0.58542222  0.75002679  1
  O2-  O212  1  0.33408999  0.91912874  0.00140838  1
  O2-  O213  1  0.33313424  0.91953913  0.24961579  1
  O2-  O214  1  0.33373398  0.92040626  0.49976970  1
  O2-  O215  1  0.33397829  0.91918130  0.75046643  1
  O2-  O216  1  0.83371407  0.25463488  0.00028014  1
  O2-  O217  1  0.83513540  0.25271006  0.24836911  1
  O2-  O218  1  0.83281398  0.25179056  0.49996508  1
  O2-  O219  1  0.83478142  0.25439457  0.74879336  1
  O2-  O220  1  0.83211565  0.58713279  -0.00099170  1
  O2-  O221  1  0.83310384  0.58517015  0.24933450  1
  O2-  O222  1  0.83424624  0.58858907  0.50077605  1
  O2-  O223  1  0.83693103  0.58810021  0.75013754  1
  O2-  O224  1  0.83270892  0.91990778  0.00043430  1
  O2-  O225  1  0.83104167  0.91821197  0.25023247  1
  O2-  O226  1  0.82988174  0.91990835  0.50107968  1
  O2-  O227  1  0.83319968  0.91975332  0.74860165  1
  O2-  O228  1  0.16550754  0.25066062  -0.00002333  1
  O2-  O229  1  0.16428431  0.25304087  0.25002920  1
  O2-  O230  1  0.16820270  0.25400015  0.50191343  1
  O2-  O231  1  0.16728568  0.25235526  0.74835910  1
  O2-  O232  1  0.16756248  0.58666516  0.00028198  1
  O2-  O233  1  0.16615432  0.58560532  0.24839061  1
  O2-  O234  1  0.16600030  0.58495129  0.49908691  1
  O2-  O235  1  0.16543792  0.58548145  0.75049728  1
  O2-  O236  1  0.16650216  0.91978461  0.00194259  1
  O2-  O237  1  0.16665819  0.92007784  0.24819613  1
  O2-  O238  1  0.16608988  0.91995601  0.49949038  1
  O2-  O239  1  0.16740459  0.91946356  0.75024379  1
  O2-  O240  1  0.66627844  0.25424653  0.00099489  1
  O2-  O241  1  0.66488348  0.25163777  0.24744796  1
  O2-  O242  1  0.66783957  0.25222053  0.50004482  1
  O2-  O243  1  0.66408712  0.25412954  0.74982399  1
  O2-  O244  1  0.66841499  0.58750922  -0.00180797  1
  O2-  O245  1  0.66760255  0.58462307  0.24964226  1
  O2-  O246  1  0.66530732  0.58758679  0.50033225  1
  O2-  O247  1  0.66384514  0.58862826  0.74926750  1
  O2-  O248  1  0.66746654  0.91979057  -0.00095694  1
  O2-  O249  1  0.66748646  0.91895182  0.25196177  1
  O2-  O250  1  0.66792511  0.91777266  0.49968454  1
  O2-  O251  1  0.66622840  0.91820095  0.74982341  1
  O2-  O252  1  0.33225755  0.08140913  0.00102312  1
  O2-  O253  1  0.33265396  0.08006808  0.24901131  1
  O2-  O254  1  0.33477789  0.07910899  0.49976991  1
  O2-  O255  1  0.33240547  0.08083561  0.75077449  1
  O2-  O256  1  0.33526116  0.41404977  -0.00121983  1
  O2-  O257  1  0.33200308  0.41683038  0.25071613  1
  O2-  O258  1  0.33340737  0.41270446  0.49995322  1
  O2-  O259  1  0.33463149  0.41468642  0.74878803  1
  O2-  O260  1  0.33346222  0.74792541  0.00150356  1
  O2-  O261  1  0.33275606  0.74938347  0.24957218  1
  O2-  O262  1  0.33593377  0.74685407  0.49780340  1
  O2-  O263  1  0.33323383  0.74813346  0.74985082  1
  O2-  O264  1  0.83341395  0.08007370  -0.00020768  1
  O2-  O265  1  0.83266256  0.08140263  0.24952579  1
  O2-  O266  1  0.83062723  0.08166736  0.50154732  1
  O2-  O267  1  0.83282390  0.07947984  0.74919179  1
  O2-  O268  1  0.83286664  0.41268875  0.00061990  1
  O2-  O269  1  0.83212314  0.41346297  0.24776209  1
  O2-  O270  1  0.83430303  0.41150708  0.49947729  1
  O2-  O271  1  0.83397085  0.41273146  0.75043544  1
  O2-  O272  1  0.83281300  0.74682476  0.00028165  1
  O2-  O273  1  0.83287914  0.74755095  0.25061132  1
  O2-  O274  1  0.83389612  0.74769925  0.50083809  1
  O2-  O275  1  0.83191969  0.74754092  0.74925389  1
  O2-  O276  1  0.95288639  0.90275531  0.75728385  1
  O2-  O277  1  0.46551652  0.46146287  0.24905175  1
  O2-  O278  1  0.45498401  0.90643834  0.76508008  1
  O2-  O279  1  0.54580235  0.23466903  0.76342295  1
  O2-  O280  1  0.95250375  0.23708137  0.51082859  1
  O2-  O281  1  0.04655438  0.90523348  0.01494445  1
  O2-  O282  1  0.96072336  0.10533079  0.53197023  1
  O2-  O283  1  0.03865623  0.77382644  0.47099750  1
  O2-  O284  1  0.55009623  0.76718946  0.73678858  1
  O2-  O285  1  0.55104277  0.43112195  0.26744066  1
  O2-  O286  1  0.45468226  0.76431769  0.98640124  1
  O2-  O287  1  0.54778903  0.90360602  0.26266935  1
  O2-  O288  1  0.04683625  0.56843138  0.26476225  1
  O2-  O289  1  0.54166921  0.10356997  0.78005116  1
  O2-  O290  1  0.04727229  0.76324014  0.01247310  1
  O2-  O291  1  0.04546045  0.42973206  0.48874982  1
  O2-  O292  1  0.04977853  0.57012369  0.51733919  1
  O2-  O293  1  0.45570672  0.43017998  0.01338213  1
  O2-  O294  1  0.54629778  0.90100809  0.51359396  1
  O2-  O295  1  0.45490596  0.09816541  0.48647162  1
  O2-  O296  1  0.94803196  0.43214452  0.98316384  1
  O2-  O297  1  0.05494170  0.58120384  0.96714886  1
  O2-  O298  1  0.95361836  0.76055338  0.23624203  1
  O2-  O299  1  0.96021010  0.89184594  0.22000136  1
  O2-  O300  1  0.45159296  0.90182870  0.26637441  1
  O2-  O301  1  0.45091268  0.76494452  0.73643142  1
  O2-  O302  1  0.04744079  0.76475411  0.75877481  1
  O2-  O303  1  0.04729442  0.57035375  0.47818960  1
  O2-  O304  1  0.04121106  0.43860754  0.96997666  1
  O2-  O305  1  0.55070038  0.42567548  0.76867769  1
  O2-  O306  1  0.45173475  0.43227647  0.51296511  1
  O2-  O307  1  0.95110178  0.09603472  0.01874980  1
  O2-  O308  1  0.04600223  0.23561230  0.73724058  1
  O2-  O309  1  0.95483901  0.23843872  0.01321938  1
  O2-  O310  1  0.55493381  0.42087889  0.54454150  1
  O2-  O311  1  0.94332218  0.08758945  0.23035488  1
  O2-  O312  1  0.04998804  0.09728746  0.01538144  1
  O2-  O313  1  0.45141661  0.09919789  0.76458956  1
  O2-  O314  1  0.45476567  0.90500672  0.98436889  1
  O2-  O315  1  0.54830938  0.23462091  0.98834027  1
  O2-  O316  1  0.94232868  0.41317001  0.27547525  1
  O2-  O317  1  0.54051865  0.56198004  0.72623219  1
  O2-  O318  1  0.95147023  0.09711701  0.97948184  1
  O2-  O319  1  0.05421516  0.25022696  0.53545479  1
  O2-  O320  1  0.54721509  0.76346381  0.23781822  1
  O2-  O321  1  0.95059744  0.57033293  0.51452768  1
  O2-  O322  1  0.45615370  0.23489871  0.26250545  1
  O2-  O323  1  0.95433300  0.43118298  0.76114136  1
  O2-  O324  1  0.56002822  0.41369096  0.77535401  1
  O2-  O325  1  0.43315603  0.59353951  0.02770171  1
  O2-  O326  1  0.43566703  0.26447315  0.71685490  1
  O2-  O327  1  0.92879271  0.94443635  0.30614539  1
  O2-  O328  1  0.56261941  0.07038065  0.21622235  1
  O2-  O329  1  0.93698420  0.59565478  0.71603226  1
  O2-  O330  1  0.93556979  0.73664220  0.96741260  1
  O2-  O331  1  0.07095957  0.38951918  0.05226081  1
  O2-  O332  1  0.43264852  0.59167596  0.70254878  1
  O2-  O333  1  0.05466835  0.58075851  0.96708196  1
  O2-  O334  1  0.93492979  0.73702572  0.78399197  1
  O2-  O335  1  0.06468356  0.07532698  0.77700370  1
  O2-  O336  1  0.56455000  0.93050537  0.03364979  1
  O2-  O337  1  0.93542552  0.59826500  0.28372454  1
  O2-  O338  1  0.43399326  0.59070878  0.79819616  1
  O2-  O339  1  0.92777757  0.06061225  0.44253162  1
  O2-  O340  1  0.56294191  0.07049064  0.96651289  1
  O2-  O341  1  0.56965001  0.39008094  0.42213921  1
  O2-  O342  1  0.07492857  0.72769086  0.54914627  1
  O2-  O343  1  0.07228426  0.59750751  0.05350084  1
  O2-  O344  1  0.43535791  0.26318704  0.94059049  1
  O2-  O345  1  0.93541362  0.59540168  0.03271137  1
  O2-  O346  1  0.56541921  0.59313739  0.02644140  1
  O2-  O347  1  0.06391416  0.92952978  0.71454580  1
  O2-  O348  1  0.56595448  0.59481779  0.22349245  1
  O2-  O349  1  0.56690567  0.74117869  0.54512434  1
  O2-  O350  1  0.93822190  0.40473506  0.96274051  1
  O2-  O351  1  0.43574080  0.06836611  0.28128105  1
  O2-  O352  1  0.94552046  0.41988423  0.27104026  1
  O2-  O353  1  0.56327662  0.25954343  0.97188164  1
  O2-  O354  1  0.93589608  0.26308756  0.78395838  1
  O2-  O355  1  0.43535148  0.07390296  0.02675853  1
  O2-  O356  1  0.93610343  0.92663558  0.47039165  1
  O2-  O357  1  0.42304687  0.37620006  0.20538241  1
  O2-  O358  1  0.06386552  0.40123489  0.21740105  1
  O2-  O359  1  0.06423386  0.07279677  0.47254014  1
  O2-  O360  1  0.43603374  0.26237445  0.05979226  1
  O2-  O361  1  0.07300844  0.26142171  0.44763270  1
  O2-  O362  1  0.94673374  0.08670361  0.22925443  1
  O2-  O363  1  0.57235283  0.06363478  0.70777007  1
  O2-  O364  1  0.93471585  0.92691429  0.97207421  1
  O2-  O365  1  0.06408592  0.73526412  0.28287765  1
  O2-  O366  1  0.55233051  0.43138853  0.54081272  1
  O2-  O367  1  0.43451374  0.73768619  0.22322203  1
  O2-  O368  1  0.57245748  0.60146904  0.79355077  1
  O2-  O369  1  0.05469525  0.24938623  0.53501531  1
  O2-  O370  1  0.56629075  0.74057147  0.45417078  1
  O2-  O371  1  0.43684120  0.26578312  0.46902441  1
  O2-  O372  1  0.25022174  0.00231565  0.68354379  1
  O2-  O373  1  0.24996094  0.33362461  0.91829531  1
  O2-  O374  1  0.75022096  0.33655381  0.34394456  1
  O2-  O375  1  0.25002759  0.67119788  0.59830942  1
  O2-  O376  1  0.24991571  0.66327119  0.82619419  1
  O2-  O377  1  0.25012548  0.00155232  0.90679689  1
  O2-  O378  1  0.75013445  0.00025298  0.17548361  1
  O2-  O379  1  0.25020992  0.33003657  0.34976463  1
  O2-  O380  1  0.75003879  0.66949957  0.32277870  1
  O2-  O381  1  0.24995023  0.66517221  0.34608093  1
  O2-  O382  1  0.25006140  -0.00317229  0.34962293  1
  O2-  O383  1  0.75017234  0.32863636  0.85118752  1
  O2-  O384  1  0.25013288  0.67591202  0.91686609  1
  O2-  O385  1  0.75010248  0.67389168  0.16998038  1
  O2-  O386  1  0.74993519  0.66566002  0.07682176  1
  O2-  O387  1  0.75013701  0.67804282  0.41498316  1
  O2-  O388  1  0.24986204  0.33481910  0.17108848  1
  O2-  O389  1  0.75020193  -0.00432099  0.08410246  1
  O2-  O390  1  0.24974799  0.33310214  0.07993699  1
  O2-  O391  1  0.24996202  0.33488013  0.82873714  1
  O2-  O392  1  0.74999716  0.66798312  0.65535251  1
  O2-  O393  1  0.25012998  0.00629981  0.57148008  1
  O2-  O394  1  0.74998830  0.32224116  0.67678981  1
  O2-  O395  1  0.74998517  0.32178089  0.58128926  1
  O2-  O396  1  0.75004218  0.83206504  0.91618578  1
  O2-  O397  1  0.74997797  0.16023359  0.62993364  1
  O2-  O398  1  0.74997424  0.83496343  0.82732898  1
  O2-  O399  1  0.75028213  0.49832270  0.37448005  1
  O2-  O400  1  0.74981383  0.47952417  0.84441813  1
  O2-  O401  1  0.24992035  0.83219870  0.83323232  1
  O2-  O402  1  0.24979725  0.84076989  0.40334047  1
  O2-  O403  1  0.24989980  0.83233727  0.91795564  1
  O2-  O404  1  0.24998730  0.83586480  0.66361853  1
  O2-  O405  1  0.74999356  0.49743842  0.29634307  1
  O2-  O406  1  0.74989674  0.16614100  0.35369326  1
  O2-  O407  1  0.24998767  0.50387759  0.90107507  1
  O2-  O408  1  0.74994387  0.46983315  0.67130091  1
  O2-  O409  1  0.25001014  0.49771594  0.61249345  1
  O2-  O410  1  0.75008817  0.49542208  0.92819881  1
  O2-  O411  1  0.25006461  0.49987663  0.81778606  1
  O2-  O412  1  0.24992924  0.83009003  0.31665268  1
  O2-  O413  1  0.24993169  0.16327864  0.91069173  1
  O2-  O414  1  0.75007092  0.83307403  0.15592033  1
  O2-  O415  1  0.25000616  0.50015080  0.35643083  1
  O2-  O416  1  0.24991989  0.16779302  0.38958716  1
  O2-  O417  1  0.75022637  0.51391447  0.60790807  1
  O2-  O418  1  0.75004781  0.15943985  0.89863700  1
  O2-  O419  1  0.74998531  0.83210128  0.06950358  1
  O2-  O420  1  0.52893703  0.67270398  0.12308485  1
  O2-  O421  1  0.47367844  -0.00395298  0.12965873  1
  O2-  O422  1  0.02525092  0.67143414  0.86858689  1
  O2-  O423  1  0.02413704  0.33622120  0.36723656  1
  O2-  O424  1  0.96129291  0.00523109  0.86527641  1
  O2-  O425  1  0.52721628  0.00183239  0.37938726  1
  O2-  O426  1  0.52478918  0.32480993  0.63025876  1
  O2-  O427  1  0.02902980  0.33156991  0.87407222  1
  O2-  O428  1  0.52956360  0.67259907  0.88108541  1
  O2-  O429  1  0.03831946  -0.00504630  0.88195099  1
  O2-  O430  1  0.52845747  0.66109915  0.62847209  1
  O2-  O431  1  0.52393957  0.66019027  0.37083663  1
  O2-  O432  1  0.97492854  -0.00602269  0.12178447  1
  O2-  O433  1  0.47131640  0.66647360  0.12511751  1
  O2-  O434  1  0.02453304  0.66195027  0.63231198  1
  O2-  O435  1  0.52134186  0.33571158  0.87792393  1
  O2-  O436  1  0.52714253  -0.00191748  0.61907141  1
  O2-  O437  1  0.46874307  0.00024417  0.62219440  1
  O2-  O438  1  0.02674461  -0.00313710  0.36888040  1
  O2-  O439  1  0.97099775  0.33492433  0.62548779  1
  O2-  O440  1  0.47043833  0.66979495  0.61549146  1
  O2-  O441  1  0.52837348  0.33191147  0.12422118  1
  O2-  O442  1  0.02472549  0.67456777  0.13316286  1
  O2-  O443  1  0.47098314  0.67041002  0.87992977  1
