# generated using pymatgen
data_La7(Ru4O11)2
_symmetry_space_group_name_H-M   'P 1'
_cell_length_a   23.99032952
_cell_length_b   16.83053188
_cell_length_c   15.42794194
_cell_angle_alpha   90.00114297
_cell_angle_beta   89.99971967
_cell_angle_gamma   89.99995411
_symmetry_Int_Tables_number   1
_chemical_formula_structural   La7(Ru4O11)2
_chemical_formula_sum   'La84 Ru96 O264'
_cell_volume   6229.34020579
_cell_formula_units_Z   12
loop_
 _symmetry_equiv_pos_site_id
 _symmetry_equiv_pos_as_xyz
  1  'x, y, z'
loop_
 _atom_type_symbol
 _atom_type_oxidation_number
  La3+  3.0
  Ru4+  4.0
  O2-  -2.0
loop_
 _atom_site_type_symbol
 _atom_site_label
 _atom_site_symmetry_multiplicity
 _atom_site_fract_x
 _atom_site_fract_y
 _atom_site_fract_z
 _atom_site_occupancy
  La3+  La0  1  0.13594079  -0.00237365  0.12635434  1
  La3+  La1  1  0.13778074  -0.00261403  0.37448080  1
  La3+  La2  1  0.13968779  0.00131122  0.62756227  1
  La3+  La3  1  0.14086907  0.00137295  0.87178907  1
  La3+  La4  1  0.13808569  0.33452551  0.12499411  1
  La3+  La5  1  0.13530956  0.33556595  0.37617935  1
  La3+  La6  1  0.13592513  0.33402337  0.62316547  1
  La3+  La7  1  0.13972689  0.33363408  0.87532754  1
  La3+  La8  1  0.13891240  0.66403154  0.12448184  1
  La3+  La9  1  0.13743786  0.66371491  0.37721157  1
  La3+  La10  1  0.14090134  0.66573839  0.61945872  1
  La3+  La11  1  0.13912354  0.66554689  0.87843745  1
  La3+  La12  1  0.64101474  -0.00305006  0.12500711  1
  La3+  La13  1  0.63762160  -0.00122139  0.36960544  1
  La3+  La14  1  0.63620277  0.00115697  0.62815345  1
  La3+  La15  1  0.63942741  -0.00033098  0.87489668  1
  La3+  La16  1  0.63927722  0.33260580  0.12417231  1
  La3+  La17  1  0.63827813  0.33464423  0.37687233  1
  La3+  La18  1  0.64032589  0.33502224  0.62571460  1
  La3+  La19  1  0.64001978  0.33461637  0.87310908  1
  La3+  La20  1  0.64167211  0.66593623  0.12802401  1
  La3+  La21  1  0.63494123  0.66473340  0.37186017  1
  La3+  La22  1  0.63808857  0.66342650  0.62710002  1
  La3+  La23  1  0.64513580  0.66747582  0.87687602  1
  La3+  La24  1  0.36297540  -0.00084786  0.12378566  1
  La3+  La25  1  0.36204602  -0.00299185  0.37313303  1
  La3+  La26  1  0.36089899  0.00061700  0.63016384  1
  La3+  La27  1  0.36145674  0.00091216  0.87169900  1
  La3+  La28  1  0.36206884  0.33328621  0.12481361  1
  La3+  La29  1  0.36029054  0.33717395  0.37600785  1
  La3+  La30  1  0.36082532  0.33337301  0.62594433  1
  La3+  La31  1  0.36133239  0.33292273  0.87428913  1
  La3+  La32  1  0.36138040  0.66605403  0.12498461  1
  La3+  La33  1  0.35921789  0.66445645  0.37809957  1
  La3+  La34  1  0.35892724  0.66633652  0.61994812  1
  La3+  La35  1  0.36064072  0.66467203  0.87744820  1
  La3+  La36  1  0.85701395  -0.00241784  0.12535436  1
  La3+  La37  1  0.86170541  -0.00093512  0.36957528  1
  La3+  La38  1  0.86513386  0.00052394  0.62759898  1
  La3+  La39  1  0.86028893  -0.00014396  0.87515861  1
  La3+  La40  1  0.86189531  0.33298801  0.12349780  1
  La3+  La41  1  0.86256602  0.33246638  0.37545278  1
  La3+  La42  1  0.86030876  0.33574009  0.62859674  1
  La3+  La43  1  0.85935001  0.33545361  0.87126899  1
  La3+  La44  1  0.85665986  0.66726020  0.12587520  1
  La3+  La45  1  0.86094847  0.66576003  0.37183043  1
  La3+  La46  1  0.86312762  0.66452578  0.62763107  1
  La3+  La47  1  0.85609983  0.66601078  0.87577386  1
  La3+  La48  1  0.00092289  0.50176058  0.13323420  1
  La3+  La49  1  0.49834753  0.17022191  0.38399438  1
  La3+  La50  1  0.00134097  0.82652352  0.37074590  1
  La3+  La51  1  0.49779052  0.16860571  0.36727889  1
  La3+  La52  1  -0.00080858  0.16563189  0.13140188  1
  La3+  La53  1  0.00236364  0.16731474  0.85952971  1
  La3+  La54  1  0.50045465  0.83461105  0.61246594  1
  La3+  La55  1  0.49984683  0.83462895  0.88494632  1
  La3+  La56  1  0.50220741  0.84043269  0.13148697  1
  La3+  La57  1  0.49742094  0.50290053  0.87968701  1
  La3+  La58  1  0.00198854  0.49880103  0.36755498  1
  La3+  La59  1  0.00072266  0.50260339  0.86403345  1
  La3+  La60  1  0.50434838  0.82729570  0.36970136  1
  La3+  La61  1  0.49717629  0.83178433  0.63406196  1
  La3+  La62  1  0.00079871  0.83327256  0.88570563  1
  La3+  La63  1  0.00291623  0.17020151  0.88156332  1
  La3+  La64  1  0.50359075  0.16426317  0.62126050  1
  La3+  La65  1  -0.00143905  0.50063914  0.63085517  1
  La3+  La66  1  0.00416577  0.83842718  0.12914404  1
  La3+  La67  1  0.49859112  0.50035216  0.13239094  1
  La3+  La68  1  -0.00285744  0.83086712  0.86411699  1
  La3+  La69  1  0.49850537  0.16676575  0.88518365  1
  La3+  La70  1  -0.00267446  0.49737773  0.88462808  1
  La3+  La71  1  0.50351750  0.17255605  0.64184585  1
  La3+  La72  1  0.74947710  0.81254135  0.48339157  1
  La3+  La73  1  0.74955313  0.20947564  0.50358877  1
  La3+  La74  1  0.75045507  0.13423272  0.22410551  1
  La3+  La75  1  0.24972399  0.79955178  0.00157125  1
  La3+  La76  1  0.25000359  0.87129414  0.74826044  1
  La3+  La77  1  0.25052756  0.16734070  0.24274592  1
  La3+  La78  1  0.74994155  0.83074444  0.02769960  1
  La3+  La79  1  0.25009986  0.50368835  0.00362264  1
  La3+  La80  1  0.75014668  0.83439784  0.72171488  1
  La3+  La81  1  0.74997438  0.53503860  -0.02801400  1
  La3+  La82  1  0.75019812  0.53316273  0.47529628  1
  La3+  La83  1  0.25001739  0.17346391  0.55853899  1
  Ru4+  Ru84  1  -0.00141667  -0.00149793  0.00130503  1
  Ru4+  Ru85  1  0.00100671  0.00380801  0.25092778  1
  Ru4+  Ru86  1  -0.00162497  -0.00061798  0.49956907  1
  Ru4+  Ru87  1  -0.00252575  0.00150061  0.74653655  1
  Ru4+  Ru88  1  0.00077946  0.32864304  0.00293165  1
  Ru4+  Ru89  1  0.00008666  0.33378082  0.25137788  1
  Ru4+  Ru90  1  0.00138360  0.32713239  0.50058539  1
  Ru4+  Ru91  1  0.00349407  0.32696768  0.74529014  1
  Ru4+  Ru92  1  -0.00362012  0.67229284  0.00350221  1
  Ru4+  Ru93  1  0.00203775  0.66807547  0.24745862  1
  Ru4+  Ru94  1  -0.00281678  0.67065250  0.50219946  1
  Ru4+  Ru95  1  -0.00049016  0.66571249  0.74625474  1
  Ru4+  Ru96  1  0.50479141  0.00629589  0.00042567  1
  Ru4+  Ru97  1  0.49537076  -0.00397748  0.25106734  1
  Ru4+  Ru98  1  0.50107919  -0.00368375  0.49883861  1
  Ru4+  Ru99  1  0.49823855  -0.00868564  0.74851824  1
  Ru4+  Ru100  1  0.50081893  0.33177865  -0.00167870  1
  Ru4+  Ru101  1  0.50039394  0.32980403  0.24942525  1
  Ru4+  Ru102  1  0.49974118  0.34037914  0.50042036  1
  Ru4+  Ru103  1  0.49567428  0.33204986  0.75347465  1
  Ru4+  Ru104  1  0.50241564  0.66410273  0.00617325  1
  Ru4+  Ru105  1  0.49642013  0.67055196  0.24882653  1
  Ru4+  Ru106  1  0.49651223  0.66504490  0.49621365  1
  Ru4+  Ru107  1  0.50017644  0.66607508  0.74499889  1
  Ru4+  Ru108  1  0.11225355  0.16896541  -0.00050564  1
  Ru4+  Ru109  1  0.11003769  0.16456903  0.25019919  1
  Ru4+  Ru110  1  0.10852244  0.16671040  0.50261404  1
  Ru4+  Ru111  1  0.11311982  0.16428667  0.74978124  1
  Ru4+  Ru112  1  0.11525263  0.49593717  0.00118438  1
  Ru4+  Ru113  1  0.11369455  0.50247184  0.24967592  1
  Ru4+  Ru114  1  0.11735783  0.49734043  0.50069423  1
  Ru4+  Ru115  1  0.11308289  0.50245792  0.74869758  1
  Ru4+  Ru116  1  0.11119195  0.83084699  0.00013437  1
  Ru4+  Ru117  1  0.11337462  0.83447944  0.25015440  1
  Ru4+  Ru118  1  0.11378295  0.83079875  0.50091238  1
  Ru4+  Ru119  1  0.11193013  0.83246954  0.75040399  1
  Ru4+  Ru120  1  0.61263096  0.16764501  -0.00043621  1
  Ru4+  Ru121  1  0.61402121  0.17030715  0.24809726  1
  Ru4+  Ru122  1  0.60968358  0.16755086  0.49871051  1
  Ru4+  Ru123  1  0.61780928  0.17187642  0.75140549  1
  Ru4+  Ru124  1  0.61238330  0.50101199  0.00112045  1
  Ru4+  Ru125  1  0.61603183  0.49815839  0.24940322  1
  Ru4+  Ru126  1  0.61240091  0.49720127  0.50225029  1
  Ru4+  Ru127  1  0.61760783  0.50113203  0.74892425  1
  Ru4+  Ru128  1  0.61231479  0.83433391  -0.00033360  1
  Ru4+  Ru129  1  0.61575092  0.83477743  0.25026606  1
  Ru4+  Ru130  1  0.60887224  0.83256740  0.50040405  1
  Ru4+  Ru131  1  0.61360573  0.83300164  0.75000990  1
  Ru4+  Ru132  1  0.38807409  0.16686612  -0.00059241  1
  Ru4+  Ru133  1  0.39050379  0.16764871  0.24846361  1
  Ru4+  Ru134  1  0.38660282  0.16803379  0.49889220  1
  Ru4+  Ru135  1  0.38187852  0.17069063  0.75282708  1
  Ru4+  Ru136  1  0.38541902  0.49505303  0.00276715  1
  Ru4+  Ru137  1  0.38625304  0.50243853  0.24955333  1
  Ru4+  Ru138  1  0.38798648  0.49848374  0.50079560  1
  Ru4+  Ru139  1  0.38636852  0.49661449  0.74701115  1
  Ru4+  Ru140  1  0.38383512  0.82931109  -0.00038597  1
  Ru4+  Ru141  1  0.38588236  0.83341134  0.24967134  1
  Ru4+  Ru142  1  0.38593078  0.83138342  0.50006477  1
  Ru4+  Ru143  1  0.38789007  0.83407599  0.74993927  1
  Ru4+  Ru144  1  0.88541688  0.16884588  0.00150006  1
  Ru4+  Ru145  1  0.88970190  0.16597451  0.24984726  1
  Ru4+  Ru146  1  0.89078445  0.16981451  0.49800130  1
  Ru4+  Ru147  1  0.88758067  0.16440613  0.74888729  1
  Ru4+  Ru148  1  0.88773520  0.50017758  0.00181006  1
  Ru4+  Ru149  1  0.88596250  0.50152086  0.25050599  1
  Ru4+  Ru150  1  0.88949370  0.50014330  0.50029950  1
  Ru4+  Ru151  1  0.88155938  0.50175710  0.74856837  1
  Ru4+  Ru152  1  0.88739958  0.83298883  -0.00028026  1
  Ru4+  Ru153  1  0.88463133  0.83263892  0.24968007  1
  Ru4+  Ru154  1  0.89132835  0.83320177  0.50034329  1
  Ru4+  Ru155  1  0.88863451  0.83424474  0.74886654  1
  Ru4+  Ru156  1  0.74970519  0.42005140  0.24482880  1
  Ru4+  Ru157  1  0.25027264  0.26050663  -0.01356153  1
  Ru4+  Ru158  1  0.24961842  0.94202023  -0.00271349  1
  Ru4+  Ru159  1  0.24971701  0.75397450  0.25084820  1
  Ru4+  Ru160  1  0.24964777  0.25095689  0.75186982  1
  Ru4+  Ru161  1  0.25003509  0.42056826  0.25689906  1
  Ru4+  Ru162  1  0.75007448  0.94019819  0.49794763  1
  Ru4+  Ru163  1  0.74984327  0.09022255  0.75795382  1
  Ru4+  Ru164  1  0.74975426  0.68615793  0.50087332  1
  Ru4+  Ru165  1  0.75017200  0.27771087  0.25306126  1
  Ru4+  Ru166  1  0.24991247  0.03640276  0.22452310  1
  Ru4+  Ru167  1  0.75056749  0.39807069  0.49536673  1
  Ru4+  Ru168  1  0.25009351  0.72861280  0.73297876  1
  Ru4+  Ru169  1  0.75023247  0.39522617  0.00225626  1
  Ru4+  Ru170  1  0.25022300  0.58859058  0.73252663  1
  Ru4+  Ru171  1  0.24994283  0.29595686  0.26679392  1
  Ru4+  Ru172  1  0.74968647  0.08098205  0.49793998  1
  Ru4+  Ru173  1  0.25016521  0.07398277  -0.01690526  1
  Ru4+  Ru174  1  0.24994757  0.29890117  0.50291539  1
  Ru4+  Ru175  1  0.75022532  0.24600305  0.75599251  1
  Ru4+  Ru176  1  0.25013931  0.90367642  0.50766465  1
  Ru4+  Ru177  1  0.75025021  0.08162035  0.00106003  1
  Ru4+  Ru178  1  0.24979841  0.04274943  0.52102798  1
  Ru4+  Ru179  1  0.24995364  0.40618408  0.73881002  1
  O2-  O180  1  0.16847238  0.07968990  -0.00027523  1
  O2-  O181  1  0.16527958  0.07905614  0.24982582  1
  O2-  O182  1  0.16702979  0.07851927  0.49916084  1
  O2-  O183  1  0.16427682  0.08285589  0.75089805  1
  O2-  O184  1  0.16751316  0.41180175  -0.00009378  1
  O2-  O185  1  0.16720052  0.41304337  0.24998907  1
  O2-  O186  1  0.16593933  0.41368936  0.50181625  1
  O2-  O187  1  0.16760623  0.41243455  0.74983573  1
  O2-  O188  1  0.16497127  0.74718545  -0.00080754  1
  O2-  O189  1  0.16608247  0.74752177  0.25048376  1
  O2-  O190  1  0.16417857  0.74934084  0.49917909  1
  O2-  O191  1  0.16729857  0.74649828  0.74938306  1
  O2-  O192  1  0.66799713  0.08255843  -0.00063510  1
  O2-  O193  1  0.66630038  0.08100279  0.24972442  1
  O2-  O194  1  0.66638143  0.07887451  0.50039992  1
  O2-  O195  1  0.66744731  0.08108168  0.74999939  1
  O2-  O196  1  0.66894555  0.41240449  -0.00094360  1
  O2-  O197  1  0.66809266  0.41567233  0.25060423  1
  O2-  O198  1  0.66758325  0.41341491  0.49877832  1
  O2-  O199  1  0.66604158  0.41590644  0.74978557  1
  O2-  O200  1  0.66461606  0.74858364  0.00098390  1
  O2-  O201  1  0.66557726  0.74781776  0.25138596  1
  O2-  O202  1  0.66502462  0.74294918  0.50076278  1
  O2-  O203  1  0.66781538  0.74701203  0.74797066  1
  O2-  O204  1  0.33178459  0.25367582  -0.00043820  1
  O2-  O205  1  0.33330093  0.25518654  0.24940864  1
  O2-  O206  1  0.33189808  0.25382602  0.50065227  1
  O2-  O207  1  0.33133732  0.25234830  0.75131590  1
  O2-  O208  1  0.33246479  0.58605782  0.00079687  1
  O2-  O209  1  0.33453840  0.58479123  0.25010021  1
  O2-  O210  1  0.33364747  0.58256283  0.49889335  1
  O2-  O211  1  0.33203386  0.58483863  0.75046472  1
  O2-  O212  1  0.33297266  0.91899880  0.00030332  1
  O2-  O213  1  0.33179487  0.91856265  0.24975180  1
  O2-  O214  1  0.33404767  0.92005595  0.49973026  1
  O2-  O215  1  0.33442530  0.91960266  0.75013384  1
  O2-  O216  1  0.83379412  0.25106060  0.00135772  1
  O2-  O217  1  0.83310650  0.25356099  0.25049920  1
  O2-  O218  1  0.83710975  0.25431610  0.49972983  1
  O2-  O219  1  0.83346853  0.25194626  0.74964705  1
  O2-  O220  1  0.83719675  0.58685631  0.00138322  1
  O2-  O221  1  0.83379452  0.58441399  0.25159457  1
  O2-  O222  1  0.83483067  0.58946439  0.50106321  1
  O2-  O223  1  0.83449137  0.58742205  0.74753025  1
  O2-  O224  1  0.83412861  0.91930460  -0.00165666  1
  O2-  O225  1  0.83337684  0.91582559  0.25079865  1
  O2-  O226  1  0.83441082  0.92212647  0.50021743  1
  O2-  O227  1  0.83426184  0.91845486  0.74968620  1
  O2-  O228  1  0.16825571  0.25326338  0.00003171  1
  O2-  O229  1  0.16568651  0.25612422  0.25004260  1
  O2-  O230  1  0.16751150  0.25447874  0.50016889  1
  O2-  O231  1  0.16725174  0.25379705  0.75039244  1
  O2-  O232  1  0.16590119  0.58496278  -0.00025431  1
  O2-  O233  1  0.16701384  0.58495539  0.25131231  1
  O2-  O234  1  0.16622911  0.58460381  0.50016535  1
  O2-  O235  1  0.16721719  0.58597953  0.74973642  1
  O2-  O236  1  0.16727973  0.92126433  0.00047325  1
  O2-  O237  1  0.16797107  0.91949257  0.24948915  1
  O2-  O238  1  0.16730428  0.91980397  0.49884537  1
  O2-  O239  1  0.16387356  0.91972394  0.75004892  1
  O2-  O240  1  0.66701587  0.25170682  0.00066683  1
  O2-  O241  1  0.66889453  0.25440678  0.24883230  1
  O2-  O242  1  0.66413044  0.25581679  0.49836959  1
  O2-  O243  1  0.66784184  0.25252043  0.75057399  1
  O2-  O244  1  0.66308510  0.58593889  0.00128329  1
  O2-  O245  1  0.66662579  0.58433789  0.25191233  1
  O2-  O246  1  0.66700922  0.58928297  0.50054140  1
  O2-  O247  1  0.66784451  0.58560697  0.74667650  1
  O2-  O248  1  0.66805269  0.91950719  -0.00132859  1
  O2-  O249  1  0.66708321  0.91751005  0.24870396  1
  O2-  O250  1  0.66577411  0.92302599  0.50072682  1
  O2-  O251  1  0.66623543  0.91905098  0.74934134  1
  O2-  O252  1  0.33181264  0.08059450  -0.00051578  1
  O2-  O253  1  0.33462804  0.07862322  0.24993126  1
  O2-  O254  1  0.33396234  0.07844709  0.49982258  1
  O2-  O255  1  0.33477251  0.08242720  0.74967243  1
  O2-  O256  1  0.33260636  0.41155660  0.00032995  1
  O2-  O257  1  0.33416968  0.41406672  0.24847124  1
  O2-  O258  1  0.33165974  0.41694775  0.50102503  1
  O2-  O259  1  0.33228357  0.41554361  0.75045717  1
  O2-  O260  1  0.33312296  0.74733379  0.00139826  1
  O2-  O261  1  0.33247039  0.74871076  0.24980555  1
  O2-  O262  1  0.33323165  0.74928270  0.49795267  1
  O2-  O263  1  0.33249202  0.74661945  0.75014886  1
  O2-  O264  1  0.83004098  0.08171501  -0.00182718  1
  O2-  O265  1  0.83508777  0.08029796  0.25025872  1
  O2-  O266  1  0.83265034  0.08062909  0.50088049  1
  O2-  O267  1  0.83205303  0.08191653  0.75016849  1
  O2-  O268  1  0.83138005  0.41179684  -0.00017910  1
  O2-  O269  1  0.83163498  0.41478619  0.25049179  1
  O2-  O270  1  0.83389422  0.41143297  0.49847709  1
  O2-  O271  1  0.83450168  0.41530028  0.74828775  1
  O2-  O272  1  0.83386748  0.74808797  0.00072881  1
  O2-  O273  1  0.83259179  0.74929402  0.25005401  1
  O2-  O274  1  0.83562249  0.74457901  0.50068199  1
  O2-  O275  1  0.83260564  0.74629454  0.74837499  1
  O2-  O276  1  0.44943738  0.76234502  0.21091320  1
  O2-  O277  1  0.96615934  0.10950778  0.49409794  1
  O2-  O278  1  0.95111738  0.43186022  0.76482761  1
  O2-  O279  1  0.04779227  0.57040602  0.97831753  1
  O2-  O280  1  0.45326771  0.24046893  0.53971120  1
  O2-  O281  1  0.46112531  0.89001974  0.28233981  1
  O2-  O282  1  0.45057384  0.09433184  0.73173628  1
  O2-  O283  1  0.94717876  0.09771187  0.96081017  1
  O2-  O284  1  0.55523883  0.41944184  0.78374198  1
  O2-  O285  1  0.04801418  0.43102548  0.73671026  1
  O2-  O286  1  0.04377394  0.57049007  0.01700729  1
  O2-  O287  1  0.95399947  0.09876463  0.23752051  1
  O2-  O288  1  0.53936000  0.55656735  0.74967601  1
  O2-  O289  1  0.54613209  0.23254270  0.98991077  1
  O2-  O290  1  0.95065709  0.89888094  0.51302682  1
  O2-  O291  1  0.04561144  0.90113692  0.01323582  1
  O2-  O292  1  0.47345252  0.46145178  0.51744122  1
  O2-  O293  1  0.46066500  0.77547568  0.02837856  1
  O2-  O294  1  0.54421737  0.76387855  0.76355057  1
  O2-  O295  1  0.04541656  0.23280751  0.25911951  1
  O2-  O296  1  0.54872422  0.10399737  0.76918137  1
  O2-  O297  1  0.45210130  0.90497248  0.98672906  1
  O2-  O298  1  0.04831206  0.23319434  0.73733858  1
  O2-  O299  1  0.96236124  0.77278140  0.21631905  1
  O2-  O300  1  0.95395792  0.76757577  0.73674796  1
  O2-  O301  1  0.04333447  0.89302654  0.47239078  1
  O2-  O302  1  0.04627254  0.90263137  0.75977944  1
  O2-  O303  1  0.95266740  0.24146768  0.48502497  1
  O2-  O304  1  0.95070853  0.23729291  0.76272887  1
  O2-  O305  1  0.45327409  0.09637693  0.50824971  1
  O2-  O306  1  0.95981096  0.89204317  0.27998917  1
  O2-  O307  1  0.95379699  0.42936808  0.24053200  1
  O2-  O308  1  0.55123612  0.56816040  0.23545630  1
  O2-  O309  1  0.55543402  0.58188586  0.47577297  1
  O2-  O310  1  0.45240847  0.56078224  0.77579929  1
  O2-  O311  1  0.04752785  0.56712145  0.48433464  1
  O2-  O312  1  0.55006362  0.09390198  0.73159761  1
  O2-  O313  1  0.04948122  0.10062782  0.98975637  1
  O2-  O314  1  0.44605143  0.58105302  0.97797434  1
  O2-  O315  1  0.54625825  0.90152046  0.73902770  1
  O2-  O316  1  0.95447652  0.56985649  0.26505363  1
  O2-  O317  1  0.53827268  0.44494793  0.97360242  1
  O2-  O318  1  0.04596037  0.42827334  0.01635733  1
  O2-  O319  1  0.53556830  0.22147560  0.21089793  1
  O2-  O320  1  0.04678642  0.23507016  0.23883412  1
  O2-  O321  1  0.45009194  0.10189162  0.77002183  1
  O2-  O322  1  0.55318425  0.09040369  0.29740131  1
  O2-  O323  1  0.54943331  0.76705817  0.23633227  1
  O2-  O324  1  0.43199602  0.40173289  0.42963071  1
  O2-  O325  1  0.56658368  0.39667654  0.69430401  1
  O2-  O326  1  0.43025966  0.72311017  0.32896228  1
  O2-  O327  1  0.94352777  0.08945874  0.95443281  1
  O2-  O328  1  0.06584328  0.40734961  0.27721733  1
  O2-  O329  1  0.06442844  0.92663267  0.22402201  1
  O2-  O330  1  0.42633888  0.38773912  0.56482911  1
  O2-  O331  1  0.06445151  0.59371433  0.22268265  1
  O2-  O332  1  0.57633721  0.61147896  0.78398162  1
  O2-  O333  1  0.43011041  0.26781580  0.41675488  1
  O2-  O334  1  0.43572795  0.40374239  0.71834561  1
  O2-  O335  1  0.44409308  0.58464596  0.97869545  1
  O2-  O336  1  0.55530361  0.58298545  0.47632023  1
  O2-  O337  1  0.44161476  0.75212688  0.20463912  1
  O2-  O338  1  0.56469191  0.39961813  0.52985629  1
  O2-  O339  1  0.42710336  0.73180712  0.95725643  1
  O2-  O340  1  0.42331500  0.93748583  0.20138155  1
  O2-  O341  1  0.43530056  0.26581182  0.21751590  1
  O2-  O342  1  0.56586357  0.92565934  0.97128396  1
  O2-  O343  1  0.43604932  0.59634529  0.53172426  1
  O2-  O344  1  0.93875100  0.40709445  0.78548314  1
  O2-  O345  1  0.43669600  0.73960633  0.71637242  1
  O2-  O346  1  0.57155778  0.38714910  0.05659464  1
  O2-  O347  1  0.93520256  0.40081062  0.93645889  1
  O2-  O348  1  0.57549501  0.06903403  0.18322601  1
  O2-  O349  1  0.06500672  0.07459300  0.53062869  1
  O2-  O350  1  0.93455903  0.07296044  0.72399285  1
  O2-  O351  1  0.56646875  0.92483616  0.27833062  1
  O2-  O352  1  0.43795274  0.73944838  0.53330941  1
  O2-  O353  1  0.93303248  0.41095961  0.05754726  1
  O2-  O354  1  0.57120999  0.27998154  0.30624915  1
  O2-  O355  1  0.92462448  0.05775505  0.46820449  1
  O2-  O356  1  0.92770420  0.72159698  0.30791841  1
  O2-  O357  1  0.92923162  0.94257391  0.19703572  1
  O2-  O358  1  0.55287922  0.09129747  0.28508720  1
  O2-  O359  1  0.43679455  0.26219445  0.78444805  1
  O2-  O360  1  0.06284894  0.59407026  0.47340440  1
  O2-  O361  1  0.06441510  0.73511699  0.78411236  1
  O2-  O362  1  0.44516323  0.24819432  0.55061774  1
  O2-  O363  1  0.93681454  0.73592036  0.96719161  1
  O2-  O364  1  0.43454728  0.92484572  0.77914433  1
  O2-  O365  1  0.92922945  0.05697773  0.08093911  1
  O2-  O366  1  0.06747995  0.25921201  0.52650920  1
  O2-  O367  1  0.06846543  0.93542005  0.54515794  1
  O2-  O368  1  0.43380460  0.92472120  0.97044922  1
  O2-  O369  1  0.55508003  0.41935192  0.78254654  1
  O2-  O370  1  0.56049064  0.59854290  0.21995008  1
  O2-  O371  1  0.43104644  0.60191497  0.70389492  1
  O2-  O372  1  0.74983889  0.00700751  0.59591813  1
  O2-  O373  1  0.74981683  0.00715348  0.40191946  1
  O2-  O374  1  0.25016966  0.66745890  0.92681948  1
  O2-  O375  1  0.24988665  -0.01575532  0.32496469  1
  O2-  O376  1  0.75020371  0.33629371  0.67425321  1
  O2-  O377  1  0.75018444  0.32242201  0.58477024  1
  O2-  O378  1  0.75022284  0.66605290  0.90547061  1
  O2-  O379  1  0.24980098  0.33789184  0.14574187  1
  O2-  O380  1  0.24990873  -0.00174871  0.64541443  1
  O2-  O381  1  0.25005980  0.66613761  0.17196014  1
  O2-  O382  1  0.75000968  0.32887490  0.84428797  1
  O2-  O383  1  0.24968945  0.33912258  0.39241408  1
  O2-  O384  1  0.75003787  0.66679795  0.16892404  1
  O2-  O385  1  0.24928582  0.66512023  0.60717202  1
  O2-  O386  1  0.25008562  -0.00200996  0.85569952  1
  O2-  O387  1  0.74987987  -0.00504568  0.68616702  1
  O2-  O388  1  0.24983298  0.33225988  0.84661482  1
  O2-  O389  1  0.74958122  0.00438827  0.09181377  1
  O2-  O390  1  0.75017649  0.00069152  0.31324834  1
  O2-  O391  1  0.74982156  0.00435251  0.84506755  1
  O2-  O392  1  0.25011731  -0.01096878  0.41737533  1
  O2-  O393  1  0.75007023  0.66689137  0.07983249  1
  O2-  O394  1  0.25005529  0.66084898  0.83318640  1
  O2-  O395  1  0.25013408  0.66878676  0.07952882  1
  O2-  O396  1  0.75001429  0.83367864  0.14284986  1
  O2-  O397  1  0.74993517  0.16991882  0.36118335  1
  O2-  O398  1  0.25024846  0.51320764  0.19917693  1
  O2-  O399  1  0.24974682  0.16698672  0.36033369  1
  O2-  O400  1  0.24988420  0.82824980  0.41860462  1
  O2-  O401  1  0.74994847  0.16616406  0.65776441  1
  O2-  O402  1  0.75006964  0.49580227  0.60594439  1
  O2-  O403  1  0.25027763  0.50004921  0.88416677  1
  O2-  O404  1  0.25009776  0.50377082  0.33572901  1
  O2-  O405  1  0.24973482  0.16413537  0.12509337  1
  O2-  O406  1  0.75018010  0.83656349  0.36661715  1
  O2-  O407  1  0.24977068  0.49752285  0.12088888  1
  O2-  O408  1  0.75004148  0.48780566  0.11510881  1
  O2-  O409  1  0.25007339  0.83525411  0.32940855  1
  O2-  O410  1  0.75029354  0.83852570  0.60612409  1
  O2-  O411  1  0.74955355  0.83264771  0.83440447  1
  O2-  O412  1  0.24983592  0.49979161  0.80093673  1
  O2-  O413  1  0.24985648  0.16745847  0.68268827  1
  O2-  O414  1  0.24994019  0.16669036  0.04400881  1
  O2-  O415  1  0.75008990  0.49776900  0.84541675  1
  O2-  O416  1  0.75001045  0.83420648  0.91017461  1
  O2-  O417  1  0.25032022  0.16527292  0.43666863  1
  O2-  O418  1  0.25008365  0.49859635  0.41745323  1
  O2-  O419  1  0.24995407  0.83477967  0.59374363  1
  O2-  O420  1  0.54254639  -0.00090502  0.61936597  1
  O2-  O421  1  0.52748506  0.67107910  0.37408830  1
  O2-  O422  1  0.02404602  0.33488493  0.38296511  1
  O2-  O423  1  0.53098386  0.67129451  0.88758830  1
  O2-  O424  1  0.97522463  -0.00340987  0.62477301  1
  O2-  O425  1  0.97185926  0.66332502  0.62097371  1
  O2-  O426  1  0.47051556  0.00763294  0.87655995  1
  O2-  O427  1  0.02683169  0.00598236  0.12147466  1
  O2-  O428  1  0.02476884  0.67251616  0.12223248  1
  O2-  O429  1  0.46887606  0.00812298  0.11568322  1
  O2-  O430  1  0.47231658  0.66917750  0.86331239  1
  O2-  O431  1  0.02563766  0.67189122  0.37119333  1
  O2-  O432  1  0.02416100  0.33949879  0.62287594  1
  O2-  O433  1  0.45822650  -0.00510765  0.62468267  1
  O2-  O434  1  0.97746623  -0.00349043  0.37084125  1
  O2-  O435  1  0.53180271  0.00365467  0.87351687  1
  O2-  O436  1  0.53765133  -0.00327496  0.39165038  1
  O2-  O437  1  0.47503212  0.65646069  0.12130812  1
  O2-  O438  1  0.97573853  0.32321825  0.13148484  1
  O2-  O439  1  0.95959209  -0.01164171  0.86530281  1
  O2-  O440  1  0.53079900  -0.00870221  0.11699023  1
  O2-  O441  1  0.45712877  0.00234254  0.37540732  1
  O2-  O442  1  0.52471601  0.32491468  0.87829231  1
  O2-  O443  1  0.04310495  0.00080049  0.87425656  1
