# generated using pymatgen
data_La7(Ru4O11)2
_symmetry_space_group_name_H-M   'P 1'
_cell_length_a   23.99134569
_cell_length_b   16.83167800
_cell_length_c   15.42755371
_cell_angle_alpha   89.99974764
_cell_angle_beta   90.00127583
_cell_angle_gamma   89.99800010
_symmetry_Int_Tables_number   1
_chemical_formula_structural   La7(Ru4O11)2
_chemical_formula_sum   'La84 Ru96 O264'
_cell_volume   6229.87150954
_cell_formula_units_Z   12
loop_
 _symmetry_equiv_pos_site_id
 _symmetry_equiv_pos_as_xyz
  1  'x, y, z'
loop_
 _atom_type_symbol
 _atom_type_oxidation_number
  La3+  3.0
  Ru4+  4.0
  O2-  -2.0
loop_
 _atom_site_type_symbol
 _atom_site_label
 _atom_site_symmetry_multiplicity
 _atom_site_fract_x
 _atom_site_fract_y
 _atom_site_fract_z
 _atom_site_occupancy
  La3+  La0  1  0.14252199  0.00379903  0.12557817  1
  La3+  La1  1  0.13538763  0.00277417  0.37096412  1
  La3+  La2  1  0.13497844  -0.00084036  0.62971369  1
  La3+  La3  1  0.13976254  0.00172883  0.87238252  1
  La3+  La4  1  0.14484800  0.32731627  0.12146981  1
  La3+  La5  1  0.13884867  0.33031915  0.37626957  1
  La3+  La6  1  0.13517815  0.32929007  0.62238307  1
  La3+  La7  1  0.14409375  0.32887312  0.87852795  1
  La3+  La8  1  0.13833098  0.66788370  0.12426144  1
  La3+  La9  1  0.13807671  0.66902322  0.37211213  1
  La3+  La10  1  0.13618214  0.66971895  0.62517605  1
  La3+  La11  1  0.13396323  0.66778659  0.88062773  1
  La3+  La12  1  0.63984798  -0.00405736  0.12235359  1
  La3+  La13  1  0.63892637  -0.00136313  0.37672745  1
  La3+  La14  1  0.64171795  -0.00363037  0.62313702  1
  La3+  La15  1  0.63849453  -0.00316929  0.87832213  1
  La3+  La16  1  0.64058558  0.33285359  0.12275709  1
  La3+  La17  1  0.63967664  0.33411773  0.37570505  1
  La3+  La18  1  0.63801372  0.33548848  0.62128945  1
  La3+  La19  1  0.63688568  0.33311824  0.87851539  1
  La3+  La20  1  0.63599032  0.66863729  0.12361604  1
  La3+  La21  1  0.63906338  0.66949805  0.37479865  1
  La3+  La22  1  0.63604565  0.67014607  0.62610380  1
  La3+  La23  1  0.63770685  0.66902640  0.87297593  1
  La3+  La24  1  0.35642096  0.00539658  0.12243344  1
  La3+  La25  1  0.36204750  0.00114761  0.37338487  1
  La3+  La26  1  0.36363893  -0.00121133  0.62980635  1
  La3+  La27  1  0.36201765  -0.00026187  0.87892531  1
  La3+  La28  1  0.35862865  0.33043133  0.11904015  1
  La3+  La29  1  0.36210472  0.32932712  0.37914644  1
  La3+  La30  1  0.36726229  0.32921683  0.62137355  1
  La3+  La31  1  0.35934450  0.32927137  0.87891548  1
  La3+  La32  1  0.36427260  0.66513631  0.12617469  1
  La3+  La33  1  0.35918442  0.67014030  0.37232820  1
  La3+  La34  1  0.36318129  0.66733387  0.62729424  1
  La3+  La35  1  0.36676944  0.66733164  0.87874510  1
  La3+  La36  1  0.85885651  -0.00324660  0.12621170  1
  La3+  La37  1  0.86203117  -0.00335152  0.37532926  1
  La3+  La38  1  0.85866705  -0.00274403  0.62340018  1
  La3+  La39  1  0.85981846  -0.00847015  0.88049980  1
  La3+  La40  1  0.86084618  0.33420669  0.12241196  1
  La3+  La41  1  0.85998695  0.33264685  0.37566129  1
  La3+  La42  1  0.85938638  0.33450755  0.62177318  1
  La3+  La43  1  0.86452688  0.33676994  0.88123971  1
  La3+  La44  1  0.86657397  0.66310188  0.13134203  1
  La3+  La45  1  0.86579849  0.66388960  0.36792013  1
  La3+  La46  1  0.86158719  0.67088364  0.62549290  1
  La3+  La47  1  0.86210734  0.66814850  0.87345204  1
  La3+  La48  1  0.49937527  0.16798671  0.63783997  1
  La3+  La49  1  0.50013546  0.84207271  0.36670651  1
  La3+  La50  1  -0.00439179  0.83325079  0.11280959  1
  La3+  La51  1  0.50032793  0.83752887  0.12899246  1
  La3+  La52  1  0.50011024  0.16803290  0.36630188  1
  La3+  La53  1  0.00243958  0.83407929  0.61915845  1
  La3+  La54  1  0.50693335  0.83005406  0.87959968  1
  La3+  La55  1  -0.00130139  0.49658594  0.63723606  1
  La3+  La56  1  -0.00096651  0.50423105  0.13421639  1
  La3+  La57  1  0.50180376  0.82831338  0.86461121  1
  La3+  La58  1  0.50078869  0.83737636  0.11187122  1
  La3+  La59  1  0.50044792  0.83446883  0.63680816  1
  La3+  La60  1  0.49723247  0.50425787  0.86192245  1
  La3+  La61  1  -0.00245426  0.50334866  0.35901849  1
  La3+  La62  1  0.50704918  0.50529113  0.13547328  1
  La3+  La63  1  0.00204700  0.50418244  0.61716863  1
  La3+  La64  1  0.00230258  0.16781127  0.61553504  1
  La3+  La65  1  0.00287204  0.16490513  0.13214664  1
  La3+  La66  1  0.50467212  0.50996980  0.11961637  1
  La3+  La67  1  0.50324765  0.50012330  0.88230087  1
  La3+  La68  1  0.00180407  0.83536888  0.86645080  1
  La3+  La69  1  0.50378036  0.83246190  0.38574533  1
  La3+  La70  1  0.00298528  0.83794489  0.13150517  1
  La3+  La71  1  -0.00129638  0.16402725  0.36862753  1
  La3+  La72  1  0.75005570  0.20362544  0.03017856  1
  La3+  La73  1  0.24857740  0.56883165  0.24002171  1
  La3+  La74  1  0.24981391  0.83058441  0.25793149  1
  La3+  La75  1  0.75012096  0.16298507  0.24185877  1
  La3+  La76  1  0.74983090  0.54504885  0.71987487  1
  La3+  La77  1  0.74963174  0.49492330  0.19458366  1
  La3+  La78  1  0.25019434  0.50971053  0.72744037  1
  La3+  La79  1  0.24904662  0.87974976  -0.00738422  1
  La3+  La80  1  0.25000708  0.50615501  0.55660411  1
  La3+  La81  1  0.75026513  0.12021576  0.50075004  1
  La3+  La82  1  0.24956187  0.10467352  0.75379874  1
  La3+  La83  1  0.74850732  0.15064192  0.75454033  1
  Ru4+  Ru84  1  0.00302191  0.00897090  -0.00270111  1
  Ru4+  Ru85  1  -0.00564869  -0.00398402  0.24935704  1
  Ru4+  Ru86  1  -0.00326800  -0.00507989  0.49958068  1
  Ru4+  Ru87  1  -0.00319991  -0.00244302  0.74505914  1
  Ru4+  Ru88  1  0.00292954  0.33714070  0.00002402  1
  Ru4+  Ru89  1  0.00061282  0.33385343  0.25221156  1
  Ru4+  Ru90  1  0.00180753  0.32980446  0.50247092  1
  Ru4+  Ru91  1  0.00109317  0.33151498  0.75219800  1
  Ru4+  Ru92  1  -0.00134085  0.65538509  -0.00225343  1
  Ru4+  Ru93  1  0.00315706  0.66582334  0.24996965  1
  Ru4+  Ru94  1  -0.00124332  0.66939432  0.49605082  1
  Ru4+  Ru95  1  -0.00056096  0.66891933  0.75226824  1
  Ru4+  Ru96  1  0.49626241  0.01285671  -0.00001422  1
  Ru4+  Ru97  1  0.49846515  0.00326064  0.24785026  1
  Ru4+  Ru98  1  0.49976890  0.00433260  0.50194730  1
  Ru4+  Ru99  1  0.49843911  0.00340529  0.74511782  1
  Ru4+  Ru100  1  0.49748097  0.32380393  -0.00842858  1
  Ru4+  Ru101  1  0.50063811  0.33651264  0.25495137  1
  Ru4+  Ru102  1  0.50353959  0.33843066  0.50403860  1
  Ru4+  Ru103  1  0.50113904  0.33284920  0.74444133  1
  Ru4+  Ru104  1  0.50494799  0.67155660  0.00434422  1
  Ru4+  Ru105  1  0.49534808  0.66145351  0.26519084  1
  Ru4+  Ru106  1  0.50029384  0.66004914  0.49979346  1
  Ru4+  Ru107  1  0.49521735  0.66261017  0.74583540  1
  Ru4+  Ru108  1  0.11364465  0.16791855  0.00028278  1
  Ru4+  Ru109  1  0.11551387  0.17136442  0.25109448  1
  Ru4+  Ru110  1  0.11449608  0.16790311  0.50029961  1
  Ru4+  Ru111  1  0.11296658  0.17456815  0.75237233  1
  Ru4+  Ru112  1  0.10940762  0.49457107  -0.00162180  1
  Ru4+  Ru113  1  0.10880015  0.50000742  0.25087307  1
  Ru4+  Ru114  1  0.11030916  0.49635598  0.49885554  1
  Ru4+  Ru115  1  0.11048348  0.49731763  0.75028682  1
  Ru4+  Ru116  1  0.11600887  0.83969232  -0.00140688  1
  Ru4+  Ru117  1  0.11208091  0.83235434  0.25290663  1
  Ru4+  Ru118  1  0.11203986  0.83439072  0.50103925  1
  Ru4+  Ru119  1  0.11393272  0.83628909  0.74910017  1
  Ru4+  Ru120  1  0.60651091  0.16612237  -0.00365625  1
  Ru4+  Ru121  1  0.61007112  0.16610104  0.25060208  1
  Ru4+  Ru122  1  0.61029670  0.16542189  0.49852582  1
  Ru4+  Ru123  1  0.60839426  0.16657408  0.74886172  1
  Ru4+  Ru124  1  0.61831805  0.49266752  -0.00018775  1
  Ru4+  Ru125  1  0.61055331  0.49810000  0.25303674  1
  Ru4+  Ru126  1  0.61041792  0.50166415  0.50042744  1
  Ru4+  Ru127  1  0.60996868  0.49977009  0.75109078  1
  Ru4+  Ru128  1  0.61890472  0.83281708  0.00032492  1
  Ru4+  Ru129  1  0.61961329  0.83756695  0.24903211  1
  Ru4+  Ru130  1  0.61672073  0.83438871  0.50138832  1
  Ru4+  Ru131  1  0.61890126  0.83770952  0.74673942  1
  Ru4+  Ru132  1  0.38800883  0.16714847  -0.00029425  1
  Ru4+  Ru133  1  0.38959373  0.16718552  0.24960414  1
  Ru4+  Ru134  1  0.38274329  0.16409706  0.50035062  1
  Ru4+  Ru135  1  0.38992536  0.16569144  0.74949701  1
  Ru4+  Ru136  1  0.38053123  0.49314473  -0.00238262  1
  Ru4+  Ru137  1  0.38758326  0.49703464  0.25700782  1
  Ru4+  Ru138  1  0.39094276  0.49935551  0.50125016  1
  Ru4+  Ru139  1  0.39056753  0.50069382  0.74708632  1
  Ru4+  Ru140  1  0.38132436  0.83728860  0.00499774  1
  Ru4+  Ru141  1  0.38543198  0.83685167  0.24880201  1
  Ru4+  Ru142  1  0.38515680  0.83390615  0.50201127  1
  Ru4+  Ru143  1  0.38454260  0.83634352  0.74786112  1
  Ru4+  Ru144  1  0.89063401  0.16704605  0.00034837  1
  Ru4+  Ru145  1  0.89096243  0.16652291  0.24966099  1
  Ru4+  Ru146  1  0.88922534  0.16681561  0.49737745  1
  Ru4+  Ru147  1  0.88772125  0.16609162  0.75175585  1
  Ru4+  Ru148  1  0.88679721  0.49530018  0.00041393  1
  Ru4+  Ru149  1  0.88765511  0.49750003  0.24607332  1
  Ru4+  Ru150  1  0.88619995  0.50223862  0.49750141  1
  Ru4+  Ru151  1  0.88909400  0.50167269  0.75089060  1
  Ru4+  Ru152  1  0.88130079  0.83123256  -0.00278167  1
  Ru4+  Ru153  1  0.88462707  0.83510628  0.25321910  1
  Ru4+  Ru154  1  0.88657283  0.83518640  0.49792686  1
  Ru4+  Ru155  1  0.88437347  0.83337446  0.74915123  1
  Ru4+  Ru156  1  0.74948771  0.27297242  0.49934649  1
  Ru4+  Ru157  1  0.75029129  0.06303180  -0.01518256  1
  Ru4+  Ru158  1  0.75002824  0.41471828  0.76622605  1
  Ru4+  Ru159  1  0.25003771  0.61831713  0.46090617  1
  Ru4+  Ru160  1  0.74966320  0.28413594  0.76531110  1
  Ru4+  Ru161  1  0.25026431  0.23771455  0.25070238  1
  Ru4+  Ru162  1  0.25022882  0.37988319  0.74810119  1
  Ru4+  Ru163  1  0.24978016  0.08049036  0.48963850  1
  Ru4+  Ru164  1  0.74985681  0.57986708  -0.00703570  1
  Ru4+  Ru165  1  0.24964359  0.08785280  0.25444214  1
  Ru4+  Ru166  1  0.75053792  0.75369596  -0.00202987  1
  Ru4+  Ru167  1  0.74923151  0.62953359  0.23679741  1
  Ru4+  Ru168  1  0.25023083  0.24942521  0.74388207  1
  Ru4+  Ru169  1  0.24898019  0.91499266  0.49887623  1
  Ru4+  Ru170  1  0.24990129  0.76978113  0.75944520  1
  Ru4+  Ru171  1  0.74998170  0.01362574  0.73262609  1
  Ru4+  Ru172  1  0.75028136  0.58181055  0.50121958  1
  Ru4+  Ru173  1  0.25006931  0.58123764  -0.00545399  1
  Ru4+  Ru174  1  0.24937071  0.72841293  0.01736037  1
  Ru4+  Ru175  1  0.24977858  0.37257295  0.52055998  1
  Ru4+  Ru176  1  0.24928391  0.76786780  0.49254002  1
  Ru4+  Ru177  1  0.24981272  0.62866315  0.79363543  1
  Ru4+  Ru178  1  0.75012478  0.36176286  0.24291230  1
  Ru4+  Ru179  1  0.24954911  0.40863949  0.23889965  1
  O2-  O180  1  0.16233939  0.08264175  -0.00038356  1
  O2-  O181  1  0.16838233  0.08106844  0.25179939  1
  O2-  O182  1  0.16705779  0.07911485  0.49920790  1
  O2-  O183  1  0.15930764  0.07847976  0.74699039  1
  O2-  O184  1  0.16699249  0.41896145  -0.00073014  1
  O2-  O185  1  0.16476327  0.41287308  0.25187532  1
  O2-  O186  1  0.16693073  0.41185039  0.50174286  1
  O2-  O187  1  0.16508934  0.41245372  0.74777850  1
  O2-  O188  1  0.16717164  0.74517885  0.00006420  1
  O2-  O189  1  0.16858556  0.74825384  0.25113100  1
  O2-  O190  1  0.16754880  0.74888358  0.49952266  1
  O2-  O191  1  0.16638047  0.74919420  0.75100906  1
  O2-  O192  1  0.66700382  0.08145676  0.00055152  1
  O2-  O193  1  0.66590042  0.08068230  0.25170175  1
  O2-  O194  1  0.66186546  0.07727762  0.49910127  1
  O2-  O195  1  0.66448316  0.07735242  0.74945066  1
  O2-  O196  1  0.66717146  0.41154253  -0.00267020  1
  O2-  O197  1  0.66830689  0.41231898  0.24703805  1
  O2-  O198  1  0.66713479  0.41507067  0.50243189  1
  O2-  O199  1  0.66500181  0.41365272  0.75054877  1
  O2-  O200  1  0.66915733  0.74641591  -0.00035369  1
  O2-  O201  1  0.66725566  0.74716916  0.24887329  1
  O2-  O202  1  0.66561413  0.74650959  0.50410549  1
  O2-  O203  1  0.66672792  0.74667829  0.74739517  1
  O2-  O204  1  0.33280638  0.25189408  0.00211549  1
  O2-  O205  1  0.33499721  0.25170416  0.25108568  1
  O2-  O206  1  0.33470900  0.25196937  0.49995773  1
  O2-  O207  1  0.33538331  0.25234353  0.74800843  1
  O2-  O208  1  0.33351850  0.58558056  0.00013643  1
  O2-  O209  1  0.33852516  0.58654910  0.24957404  1
  O2-  O210  1  0.33493163  0.58738265  0.50078667  1
  O2-  O211  1  0.33308520  0.58933860  0.74986733  1
  O2-  O212  1  0.33551942  0.92439419  -0.00139616  1
  O2-  O213  1  0.33239768  0.92102713  0.25285615  1
  O2-  O214  1  0.33157449  0.91936338  0.49982627  1
  O2-  O215  1  0.33179329  0.91805609  0.74766817  1
  O2-  O216  1  0.83595742  0.25497297  -0.00290183  1
  O2-  O217  1  0.83322886  0.25413655  0.24863896  1
  O2-  O218  1  0.83174758  0.25400199  0.50121200  1
  O2-  O219  1  0.83442462  0.25646195  0.75074325  1
  O2-  O220  1  0.83408760  0.58457654  0.00020372  1
  O2-  O221  1  0.83075510  0.58746294  0.25050680  1
  O2-  O222  1  0.83423048  0.58569055  0.50188624  1
  O2-  O223  1  0.83403651  0.58906193  0.75071210  1
  O2-  O224  1  0.83258209  0.91703649  0.00252344  1
  O2-  O225  1  0.83203505  0.91725921  0.24951361  1
  O2-  O226  1  0.83231012  0.91732953  0.50027279  1
  O2-  O227  1  0.83362513  0.91852443  0.74778289  1
  O2-  O228  1  0.16748190  0.24986731  -0.00148413  1
  O2-  O229  1  0.16660559  0.25232897  0.25233039  1
  O2-  O230  1  0.16580495  0.25217664  0.49964896  1
  O2-  O231  1  0.16648229  0.25240908  0.74686567  1
  O2-  O232  1  0.16576565  0.58421877  -0.00165939  1
  O2-  O233  1  0.15749162  0.58851342  0.25179106  1
  O2-  O234  1  0.16611719  0.58990617  0.50080825  1
  O2-  O235  1  0.16479764  0.58979577  0.74939475  1
  O2-  O236  1  0.16160713  0.92598112  0.00050873  1
  O2-  O237  1  0.16628954  0.91981038  0.25217867  1
  O2-  O238  1  0.16872011  0.92001109  0.49978941  1
  O2-  O239  1  0.16821602  0.91795668  0.74880087  1
  O2-  O240  1  0.66298219  0.25382836  -0.00189086  1
  O2-  O241  1  0.66673020  0.25341435  0.24734850  1
  O2-  O242  1  0.66669524  0.25236969  0.50105108  1
  O2-  O243  1  0.66469182  0.25600511  0.75224209  1
  O2-  O244  1  0.66913187  0.58496251  -0.00036738  1
  O2-  O245  1  0.66829539  0.58915967  0.24747141  1
  O2-  O246  1  0.66515515  0.58568244  0.50361215  1
  O2-  O247  1  0.66658084  0.59071006  0.74791824  1
  O2-  O248  1  0.66664326  0.91870857  -0.00001993  1
  O2-  O249  1  0.66698529  0.92149628  0.25081412  1
  O2-  O250  1  0.66778604  0.91856357  0.49934809  1
  O2-  O251  1  0.66910787  0.92064580  0.74886327  1
  O2-  O252  1  0.33481567  0.08425903  -0.00087815  1
  O2-  O253  1  0.33282737  0.08137546  0.25328486  1
  O2-  O254  1  0.33387319  0.07913427  0.49907037  1
  O2-  O255  1  0.33857334  0.07656357  0.74889863  1
  O2-  O256  1  0.33037012  0.41365631  0.00298930  1
  O2-  O257  1  0.33541523  0.41264517  0.25092829  1
  O2-  O258  1  0.33292230  0.41162204  0.50093947  1
  O2-  O259  1  0.33594008  0.41213024  0.74848179  1
  O2-  O260  1  0.33318888  0.74485457  0.00125253  1
  O2-  O261  1  0.33315410  0.74765675  0.24950967  1
  O2-  O262  1  0.33194814  0.75020749  0.50029399  1
  O2-  O263  1  0.33165036  0.74855598  0.75025547  1
  O2-  O264  1  0.83410594  0.08107962  0.00012664  1
  O2-  O265  1  0.83355863  0.08092678  0.25065914  1
  O2-  O266  1  0.83778732  0.07830186  0.50042809  1
  O2-  O267  1  0.82993705  0.07895329  0.74689737  1
  O2-  O268  1  0.83201975  0.41637363  -0.00015510  1
  O2-  O269  1  0.83320905  0.41260223  0.24965647  1
  O2-  O270  1  0.83391758  0.41259039  0.50129138  1
  O2-  O271  1  0.83527762  0.41388579  0.75127913  1
  O2-  O272  1  0.83296139  0.74596794  0.00093775  1
  O2-  O273  1  0.83485064  0.74618539  0.24894113  1
  O2-  O274  1  0.83463679  0.74904318  0.50178652  1
  O2-  O275  1  0.83362262  0.74630731  0.74822708  1
  O2-  O276  1  0.54816582  0.23861642  0.98684023  1
  O2-  O277  1  0.95055710  0.90534359  0.75942203  1
  O2-  O278  1  0.95518946  0.23738437  0.01682370  1
  O2-  O279  1  0.05295230  0.08982774  0.72779175  1
  O2-  O280  1  0.95560534  0.90723631  0.98605197  1
  O2-  O281  1  0.04868385  0.76802581  0.97980051  1
  O2-  O282  1  0.54799724  0.56392104  0.01122611  1
  O2-  O283  1  0.95442441  0.76799317  0.23988298  1
  O2-  O284  1  0.95354178  0.57535490  0.26654679  1
  O2-  O285  1  0.54250013  0.43604146  0.52711748  1
  O2-  O286  1  0.46394806  0.43403296  0.03555423  1
  O2-  O287  1  0.04380090  0.09973190  0.99451868  1
  O2-  O288  1  0.45392689  0.90132204  0.51451019  1
  O2-  O289  1  0.54916077  0.90115974  0.01206056  1
  O2-  O290  1  0.95505227  0.42912994  0.76457533  1
  O2-  O291  1  0.04556168  0.24184416  0.76299744  1
  O2-  O292  1  0.45451935  0.76074780  0.98009007  1
  O2-  O293  1  0.05495547  0.91234007  0.72382921  1
  O2-  O294  1  0.45280557  0.57087869  0.98947047  1
  O2-  O295  1  0.54773364  0.56973013  0.49929091  1
  O2-  O296  1  0.04468162  0.09420185  0.26057075  1
  O2-  O297  1  0.94901276  0.76378772  0.98728428  1
  O2-  O298  1  0.44988511  0.77148048  0.01671886  1
  O2-  O299  1  0.95715528  0.55690639  0.24678776  1
  O2-  O300  1  0.95450837  0.42953959  0.50829252  1
  O2-  O301  1  0.54823391  0.76518488  0.52138811  1
  O2-  O302  1  0.04735052  0.56968102  0.74192239  1
  O2-  O303  1  0.95885857  0.12075115  0.72997694  1
  O2-  O304  1  0.04949197  0.76341332  0.01874020  1
  O2-  O305  1  0.04481837  0.56413128  0.48548121  1
  O2-  O306  1  0.45377605  0.42920079  0.26329373  1
  O2-  O307  1  0.45427896  0.10546348  0.24154588  1
  O2-  O308  1  0.03020338  0.46428920  0.99845750  1
  O2-  O309  1  0.44946826  0.76363168  0.26055825  1
  O2-  O310  1  0.04955975  0.76078630  0.73841003  1
  O2-  O311  1  0.54887490  0.77126486  0.22770753  1
  O2-  O312  1  0.95021793  0.76221551  0.75929256  1
  O2-  O313  1  0.05381457  0.09237647  0.76647841  1
  O2-  O314  1  0.54791654  0.57258341  0.50783841  1
  O2-  O315  1  0.54753077  0.76400924  0.26605405  1
  O2-  O316  1  0.95826292  0.11425545  0.73639049  1
  O2-  O317  1  0.44844235  0.75573091  0.48884014  1
  O2-  O318  1  0.44808350  0.43458743  0.51083508  1
  O2-  O319  1  0.54359655  0.76660818  0.76198861  1
  O2-  O320  1  0.45532902  0.23661159  0.51323264  1
  O2-  O321  1  0.02501428  0.45721863  0.00346682  1
  O2-  O322  1  0.45830261  0.90155911  0.96227487  1
  O2-  O323  1  0.45720787  0.56920804  0.21331209  1
  O2-  O324  1  0.93529772  0.92721154  0.27244972  1
  O2-  O325  1  0.93632976  0.40225693  0.21686083  1
  O2-  O326  1  0.43690190  0.59303516  0.71508061  1
  O2-  O327  1  0.06341615  0.25829524  0.52408603  1
  O2-  O328  1  0.43515971  0.74554609  0.77184345  1
  O2-  O329  1  0.55833242  0.92436815  0.03815267  1
  O2-  O330  1  0.43691587  0.07864406  0.72217262  1
  O2-  O331  1  0.06713551  0.74555914  0.18898911  1
  O2-  O332  1  0.06455649  0.60049702  0.96480706  1
  O2-  O333  1  0.57003843  0.39770558  0.46048285  1
  O2-  O334  1  0.91425897  0.04195213  0.79953602  1
  O2-  O335  1  0.56012719  0.07613215  0.46544751  1
  O2-  O336  1  0.93814198  0.93089922  0.57177210  1
  O2-  O337  1  0.56031687  0.75375907  0.78801259  1
  O2-  O338  1  0.06531816  0.07747709  0.27344198  1
  O2-  O339  1  0.56748062  0.74522456  0.97242289  1
  O2-  O340  1  0.05601148  0.92145203  0.71995793  1
  O2-  O341  1  0.56641762  0.40671917  0.27355865  1
  O2-  O342  1  0.93741052  0.08005327  0.47362968  1
  O2-  O343  1  0.07100539  0.37718984  0.91963331  1
  O2-  O344  1  0.42277961  0.40050098  0.94277596  1
  O2-  O345  1  0.43268174  0.58861809  0.97617022  1
  O2-  O346  1  0.43579583  0.07645616  0.97345839  1
  O2-  O347  1  0.93324263  0.92289016  0.97938240  1
  O2-  O348  1  0.06120972  0.06966887  0.53362595  1
  O2-  O349  1  0.43633159  0.92121464  0.72155163  1
  O2-  O350  1  0.56457774  0.07004525  0.96819226  1
  O2-  O351  1  0.93018569  0.59863800  0.22577500  1
  O2-  O352  1  0.56299529  0.59172033  0.77165783  1
  O2-  O353  1  0.56682586  0.58723748  0.30832686  1
  O2-  O354  1  0.06534426  0.74406702  0.31213893  1
  O2-  O355  1  0.93776272  0.26248392  0.46493414  1
  O2-  O356  1  0.43624112  0.57510901  0.19276123  1
  O2-  O357  1  0.06117864  0.25489645  0.03645027  1
  O2-  O358  1  0.93799548  0.73523800  0.47052122  1
  O2-  O359  1  0.07487235  0.38659624  0.08571108  1
  O2-  O360  1  0.42324191  0.92483787  0.08523381  1
  O2-  O361  1  0.43482180  0.25509586  0.97632183  1
  O2-  O362  1  0.57062985  0.58579863  0.18933378  1
  O2-  O363  1  0.93423531  0.91746383  0.44016028  1
  O2-  O364  1  0.93644218  0.59752125  0.71434816  1
  O2-  O365  1  0.93417856  0.39756633  0.96624957  1
  O2-  O366  1  0.56429456  0.58350933  0.03211196  1
  O2-  O367  1  0.43536376  0.25772768  0.52023033  1
  O2-  O368  1  0.43928703  0.90579437  0.93728973  1
  O2-  O369  1  0.56395968  0.92810363  0.46496120  1
  O2-  O370  1  0.43132915  0.61001093  0.34013611  1
  O2-  O371  1  0.56240711  0.92995658  0.71702361  1
  O2-  O372  1  0.24972767  0.67686187  0.68406151  1
  O2-  O373  1  0.74983944  0.00379947  0.60518111  1
  O2-  O374  1  0.25033553  0.31388955  0.42884578  1
  O2-  O375  1  0.25059046  0.32652284  0.85959248  1
  O2-  O376  1  0.24957960  0.66909856  0.35026357  1
  O2-  O377  1  0.75001502  0.66574795  0.90556956  1
  O2-  O378  1  0.25153667  0.32650394  0.14935207  1
  O2-  O379  1  0.74991362  -0.00938368  0.08178921  1
  O2-  O380  1  0.25022782  0.32816133  0.31727206  1
  O2-  O381  1  0.74969114  -0.00092435  0.85641078  1
  O2-  O382  1  0.25009894  0.67480753  0.56399904  1
  O2-  O383  1  0.24953270  -0.00402329  0.17487424  1
  O2-  O384  1  0.24926150  0.00170715  0.08330341  1
  O2-  O385  1  0.74995053  0.33395925  0.10707160  1
  O2-  O386  1  0.74997873  0.66339546  0.09506643  1
  O2-  O387  1  0.24924455  0.00299704  0.92135772  1
  O2-  O388  1  0.24979029  0.66586102  0.90606638  1
  O2-  O389  1  0.75050228  0.33815934  0.64069176  1
  O2-  O390  1  0.75017054  0.68335633  0.33898851  1
  O2-  O391  1  0.24951314  -0.00513732  0.83011157  1
  O2-  O392  1  0.75017563  0.66808744  0.43323672  1
  O2-  O393  1  0.25013899  0.66810286  0.13994655  1
  O2-  O394  1  0.75026445  0.32878294  0.35933650  1
  O2-  O395  1  0.74986146  0.00700946  0.17171490  1
  O2-  O396  1  0.75016176  0.18436703  0.61846100  1
  O2-  O397  1  0.24999563  0.17674154  0.55240513  1
  O2-  O398  1  0.74998550  0.49544794  0.86247555  1
  O2-  O399  1  0.24978193  0.16572556  0.08171001  1
  O2-  O400  1  0.25010467  0.16370764  0.16582725  1
  O2-  O401  1  0.75001787  0.83409685  0.33471296  1
  O2-  O402  1  0.74993233  0.17708242  0.37460972  1
  O2-  O403  1  0.25002863  0.15734917  0.40236503  1
  O2-  O404  1  0.74993368  0.83328641  0.41472123  1
  O2-  O405  1  0.75020283  0.49393014  0.43472153  1
  O2-  O406  1  0.24994063  0.16420016  0.94481850  1
  O2-  O407  1  0.25045038  0.48019979  0.14132225  1
  O2-  O408  1  0.74999662  0.16304066  0.89821258  1
  O2-  O409  1  0.74995501  0.50247644  0.34569705  1
  O2-  O410  1  0.25010217  0.81811094  0.86332760  1
  O2-  O411  1  0.25012526  0.18165581  0.86393526  1
  O2-  O412  1  0.25003503  0.50890324  0.86748388  1
  O2-  O413  1  0.24991174  0.18189367  0.63909908  1
  O2-  O414  1  0.25055169  0.47551056  0.33885611  1
  O2-  O415  1  0.24977343  0.50492479  0.42412477  1
  O2-  O416  1  0.75006835  0.83037859  0.83492242  1
  O2-  O417  1  0.74985093  0.83650908  0.91931076  1
  O2-  O418  1  0.25008886  0.49032323  0.05121336  1
  O2-  O419  1  0.25004627  0.82071266  0.12146315  1
  O2-  O420  1  0.46210753  0.66537147  0.86826904  1
  O2-  O421  1  0.47225707  -0.00005872  0.37433880  1
  O2-  O422  1  0.47976708  0.00515968  0.61772704  1
  O2-  O423  1  0.95661670  0.67407774  0.11084981  1
  O2-  O424  1  0.02220863  0.65804625  0.38070366  1
  O2-  O425  1  0.02657587  0.66712200  0.61950757  1
  O2-  O426  1  0.53597173  0.65453767  0.88880333  1
  O2-  O427  1  0.48228470  0.00734163  0.13225126  1
  O2-  O428  1  0.54482933  0.32777914  0.63110513  1
  O2-  O429  1  0.51993081  0.31688113  0.37505909  1
  O2-  O430  1  0.53831972  0.68527654  0.11894035  1
  O2-  O431  1  0.97375874  0.00238335  0.88251091  1
  O2-  O432  1  0.04071996  0.64934195  0.11634933  1
  O2-  O433  1  0.45802662  0.67692394  0.11315739  1
  O2-  O434  1  0.48102498  0.33242880  0.86035981  1
  O2-  O435  1  0.97492034  0.01288347  0.36570076  1
  O2-  O436  1  0.48156340  0.00361719  0.85931182  1
  O2-  O437  1  0.02543788  0.34185122  0.62964468  1
  O2-  O438  1  0.97282523  0.00256436  0.12160440  1
  O2-  O439  1  0.03821228  -0.00741090  0.88041529  1
  O2-  O440  1  0.97234110  0.66177679  0.87616522  1
  O2-  O441  1  0.03487319  -0.00522154  0.38285213  1
  O2-  O442  1  0.52501433  0.68131927  0.38144974  1
  O2-  O443  1  0.45805544  0.33635073  0.63775803  1
