# generated using pymatgen
data_La7(Ru4O11)2
_symmetry_space_group_name_H-M   'P 1'
_cell_length_a   23.99601289
_cell_length_b   16.83621181
_cell_length_c   15.43238150
_cell_angle_alpha   89.99782902
_cell_angle_beta   89.99845679
_cell_angle_gamma   89.99536907
_symmetry_Int_Tables_number   1
_chemical_formula_structural   La7(Ru4O11)2
_chemical_formula_sum   'La84 Ru96 O264'
_cell_volume   6234.71227780
_cell_formula_units_Z   12
loop_
 _symmetry_equiv_pos_site_id
 _symmetry_equiv_pos_as_xyz
  1  'x, y, z'
loop_
 _atom_type_symbol
 _atom_type_oxidation_number
  La3+  3.0
  Ru4+  4.0
  O2-  -2.0
loop_
 _atom_site_type_symbol
 _atom_site_label
 _atom_site_symmetry_multiplicity
 _atom_site_fract_x
 _atom_site_fract_y
 _atom_site_fract_z
 _atom_site_occupancy
  La3+  La0  1  0.14464047  -0.00520467  0.12725892  1
  La3+  La1  1  0.14123393  0.00271967  0.37809923  1
  La3+  La2  1  0.12901922  0.00625542  0.61664979  1
  La3+  La3  1  0.13673589  -0.00027728  0.88002935  1
  La3+  La4  1  0.14212135  0.33502268  0.12579771  1
  La3+  La5  1  0.14984772  0.33687728  0.38054039  1
  La3+  La6  1  0.13957399  0.33369775  0.62655373  1
  La3+  La7  1  0.14421278  0.33467612  0.86599393  1
  La3+  La8  1  0.14707539  0.66989968  0.12411623  1
  La3+  La9  1  0.14104948  0.66450644  0.37869818  1
  La3+  La10  1  0.13154485  0.66123801  0.62000959  1
  La3+  La11  1  0.14203300  0.66372979  0.87489300  1
  La3+  La12  1  0.64092407  -0.00584961  0.12736531  1
  La3+  La13  1  0.64185578  -0.00597845  0.37435692  1
  La3+  La14  1  0.64329083  0.00063083  0.63023204  1
  La3+  La15  1  0.64152395  -0.00714499  0.87523398  1
  La3+  La16  1  0.63359731  0.33182779  0.12264530  1
  La3+  La17  1  0.63634313  0.33926361  0.37648163  1
  La3+  La18  1  0.64390504  0.34032651  0.62331642  1
  La3+  La19  1  0.63335269  0.32417547  0.88076821  1
  La3+  La20  1  0.63933032  0.66770275  0.12208893  1
  La3+  La21  1  0.64268815  0.66338073  0.37623685  1
  La3+  La22  1  0.63745686  0.66624258  0.62236946  1
  La3+  La23  1  0.64607981  0.66662453  0.88242413  1
  La3+  La24  1  0.35796147  -0.00529834  0.12623874  1
  La3+  La25  1  0.35655638  -0.00133098  0.37339440  1
  La3+  La26  1  0.36656080  0.00632059  0.62966417  1
  La3+  La27  1  0.35195754  -0.00502122  0.87410368  1
  La3+  La28  1  0.35528444  0.33451516  0.12747460  1
  La3+  La29  1  0.35620513  0.33830460  0.38584490  1
  La3+  La30  1  0.34832513  0.32404342  0.62947152  1
  La3+  La31  1  0.36192591  0.32629493  0.86906328  1
  La3+  La32  1  0.35905472  0.66637833  0.12614567  1
  La3+  La33  1  0.35480188  0.66708870  0.36998205  1
  La3+  La34  1  0.36444601  0.65962285  0.62345921  1
  La3+  La35  1  0.36682970  0.65918720  0.87781732  1
  La3+  La36  1  0.85259737  -0.00521021  0.12653152  1
  La3+  La37  1  0.85942507  -0.00730927  0.37557785  1
  La3+  La38  1  0.86595267  -0.00065296  0.62679034  1
  La3+  La39  1  0.85672278  -0.00806171  0.87824599  1
  La3+  La40  1  0.86013219  0.33846402  0.11946697  1
  La3+  La41  1  0.85706869  0.33185083  0.37233159  1
  La3+  La42  1  0.85868598  0.33562128  0.62527591  1
  La3+  La43  1  0.86313883  0.33315338  0.87031858  1
  La3+  La44  1  0.86143556  0.66571191  0.12386639  1
  La3+  La45  1  0.85436505  0.66377934  0.37127391  1
  La3+  La46  1  0.87234221  0.66543455  0.62505723  1
  La3+  La47  1  0.85184855  0.66813592  0.88176981  1
  La3+  La48  1  -0.00221706  0.49147087  0.39946534  1
  La3+  La49  1  0.00213769  0.82506537  0.86145484  1
  La3+  La50  1  -0.00181769  0.51026683  0.86875986  1
  La3+  La51  1  0.50189914  0.83005794  0.88687205  1
  La3+  La52  1  0.50546341  0.17437368  0.11420774  1
  La3+  La53  1  0.48930436  0.83089906  0.36534334  1
  La3+  La54  1  -0.00603227  0.49802915  0.37889045  1
  La3+  La55  1  0.50272174  0.16928879  0.13566101  1
  La3+  La56  1  0.50540531  0.15358353  0.38947274  1
  La3+  La57  1  0.50416526  0.83748560  0.86616320  1
  La3+  La58  1  0.50277304  0.49448832  0.10816091  1
  La3+  La59  1  0.00095288  0.17293518  0.13211093  1
  La3+  La60  1  -0.00048332  0.17053668  0.86492012  1
  La3+  La61  1  0.49335359  0.49899226  0.62656511  1
  La3+  La62  1  0.00279656  0.49335130  0.87935984  1
  La3+  La63  1  0.00030089  0.50077256  0.13102236  1
  La3+  La64  1  0.50218268  0.16056487  0.36889324  1
  La3+  La65  1  0.50245711  0.49501943  0.87109237  1
  La3+  La66  1  -0.00459460  0.16288136  0.63083660  1
  La3+  La67  1  0.50847379  0.50963193  0.37762604  1
  La3+  La68  1  0.00200570  0.17932750  0.88489636  1
  La3+  La69  1  0.50399791  0.16714316  0.62671381  1
  La3+  La70  1  0.00477004  0.15070346  0.39631837  1
  La3+  La71  1  0.50027595  0.50032776  0.12937289  1
  La3+  La72  1  0.74937612  0.85277142  -0.00113720  1
  La3+  La73  1  0.75277647  0.87665775  0.53697363  1
  La3+  La74  1  0.24868255  0.82753654  0.48114293  1
  La3+  La75  1  0.75053441  0.18741700  0.26651660  1
  La3+  La76  1  0.74513448  0.45075202  0.79940304  1
  La3+  La77  1  0.74553239  0.20284512  0.49216862  1
  La3+  La78  1  0.75120939  0.51266734  0.45773323  1
  La3+  La79  1  0.25039820  0.82044233  0.74545495  1
  La3+  La80  1  0.75175808  0.11504066  0.00337167  1
  La3+  La81  1  0.24963782  0.82926777  0.01339394  1
  La3+  La82  1  0.24783865  0.11725547  0.24855027  1
  La3+  La83  1  0.75164026  0.09721244  0.78167740  1
  Ru4+  Ru84  1  -0.00302354  -0.01237261  0.00582993  1
  Ru4+  Ru85  1  -0.00397200  -0.00161757  0.26041331  1
  Ru4+  Ru86  1  -0.00541901  -0.00866498  0.50596213  1
  Ru4+  Ru87  1  -0.00262471  0.00404379  0.75276032  1
  Ru4+  Ru88  1  0.00133228  0.33067597  -0.00880363  1
  Ru4+  Ru89  1  -0.00460349  0.32628850  0.24590094  1
  Ru4+  Ru90  1  0.00057685  0.32949147  0.51768330  1
  Ru4+  Ru91  1  -0.00363967  0.33655292  0.72928132  1
  Ru4+  Ru92  1  0.00055439  0.67511944  0.00147532  1
  Ru4+  Ru93  1  -0.00200113  0.67221943  0.24363419  1
  Ru4+  Ru94  1  -0.00586314  0.68414997  0.50508853  1
  Ru4+  Ru95  1  0.00034631  0.67543879  0.73428744  1
  Ru4+  Ru96  1  0.50296989  -0.00072052  0.00896495  1
  Ru4+  Ru97  1  0.49821240  -0.01697385  0.23816260  1
  Ru4+  Ru98  1  0.50551410  -0.01094267  0.49559213  1
  Ru4+  Ru99  1  0.49243582  0.00661449  0.74542969  1
  Ru4+  Ru100  1  0.49375444  0.33692714  -0.02620291  1
  Ru4+  Ru101  1  0.49625746  0.33832059  0.26183457  1
  Ru4+  Ru102  1  0.49614828  0.34093712  0.50091523  1
  Ru4+  Ru103  1  0.50889011  0.32698651  0.76436431  1
  Ru4+  Ru104  1  0.50277020  0.67297692  0.00266028  1
  Ru4+  Ru105  1  0.49773048  0.67110483  0.24531819  1
  Ru4+  Ru106  1  0.50013070  0.66716784  0.51093693  1
  Ru4+  Ru107  1  0.50707850  0.66355809  0.74015390  1
  Ru4+  Ru108  1  0.10490035  0.16553648  -0.00351228  1
  Ru4+  Ru109  1  0.10797255  0.17155043  0.24808238  1
  Ru4+  Ru110  1  0.11415105  0.17415816  0.50286690  1
  Ru4+  Ru111  1  0.11373834  0.16678510  0.75143544  1
  Ru4+  Ru112  1  0.11409020  0.49877877  0.01172752  1
  Ru4+  Ru113  1  0.11066912  0.49751723  0.24618863  1
  Ru4+  Ru114  1  0.11657492  0.49931946  0.50044689  1
  Ru4+  Ru115  1  0.11816410  0.51311000  0.74387808  1
  Ru4+  Ru116  1  0.10873225  0.83650725  0.00555853  1
  Ru4+  Ru117  1  0.11418541  0.83283537  0.24843699  1
  Ru4+  Ru118  1  0.10614573  0.83533790  0.50489516  1
  Ru4+  Ru119  1  0.10700187  0.82774594  0.74728801  1
  Ru4+  Ru120  1  0.61438670  0.16015462  -0.00830845  1
  Ru4+  Ru121  1  0.61763991  0.16667594  0.25216530  1
  Ru4+  Ru122  1  0.60617717  0.16629580  0.50263686  1
  Ru4+  Ru123  1  0.60775533  0.17771110  0.74621558  1
  Ru4+  Ru124  1  0.61242380  0.50263682  0.00208249  1
  Ru4+  Ru125  1  0.61553206  0.50309278  0.25197255  1
  Ru4+  Ru126  1  0.61276921  0.50235848  0.49668335  1
  Ru4+  Ru127  1  0.60665452  0.50531750  0.74481991  1
  Ru4+  Ru128  1  0.61050310  0.83345615  0.00333150  1
  Ru4+  Ru129  1  0.61257933  0.83250038  0.24820903  1
  Ru4+  Ru130  1  0.60797487  0.84042133  0.51094323  1
  Ru4+  Ru131  1  0.61534861  0.83762828  0.74721593  1
  Ru4+  Ru132  1  0.38653631  0.16082165  -0.01033134  1
  Ru4+  Ru133  1  0.38365039  0.17179713  0.26196472  1
  Ru4+  Ru134  1  0.38365701  0.16600888  0.50141777  1
  Ru4+  Ru135  1  0.38567207  0.16029723  0.75219056  1
  Ru4+  Ru136  1  0.38174460  0.49537584  -0.00612998  1
  Ru4+  Ru137  1  0.38556044  0.49810044  0.25574978  1
  Ru4+  Ru138  1  0.38692829  0.49958208  0.50306599  1
  Ru4+  Ru139  1  0.38607061  0.50252495  0.74760683  1
  Ru4+  Ru140  1  0.38991263  0.82985703  0.00428194  1
  Ru4+  Ru141  1  0.38585293  0.83052339  0.25186476  1
  Ru4+  Ru142  1  0.38634236  0.83423660  0.50531069  1
  Ru4+  Ru143  1  0.38896863  0.83755018  0.73823653  1
  Ru4+  Ru144  1  0.89178508  0.17189051  0.00081392  1
  Ru4+  Ru145  1  0.89687990  0.17582320  0.24392916  1
  Ru4+  Ru146  1  0.88720446  0.16543276  0.50002408  1
  Ru4+  Ru147  1  0.89884107  0.16505781  0.75660115  1
  Ru4+  Ru148  1  0.89076794  0.50217280  0.00263042  1
  Ru4+  Ru149  1  0.89368445  0.50434777  0.24601351  1
  Ru4+  Ru150  1  0.89212942  0.49474380  0.50709539  1
  Ru4+  Ru151  1  0.89001990  0.49477164  0.74067649  1
  Ru4+  Ru152  1  0.89803077  0.83955604  0.00717724  1
  Ru4+  Ru153  1  0.89141901  0.83653554  0.25241670  1
  Ru4+  Ru154  1  0.90053463  0.82500213  0.49101267  1
  Ru4+  Ru155  1  0.88815570  0.83309423  0.74627784  1
  Ru4+  Ru156  1  0.24777964  0.07398843  0.01903438  1
  Ru4+  Ru157  1  0.24773450  0.24558715  0.00390062  1
  Ru4+  Ru158  1  0.74970863  0.74588966  0.25967457  1
  Ru4+  Ru159  1  0.75101376  0.34556036  0.50961516  1
  Ru4+  Ru160  1  0.75080034  0.60395788  0.73803844  1
  Ru4+  Ru161  1  0.24903097  0.67549333  0.74980724  1
  Ru4+  Ru162  1  0.74778971  0.32103521  0.22507394  1
  Ru4+  Ru163  1  0.25223529  0.67420913  0.49163314  1
  Ru4+  Ru164  1  0.24557192  0.96223164  0.74895352  1
  Ru4+  Ru165  1  0.75132023  0.27525388  0.76509995  1
  Ru4+  Ru166  1  0.24972796  0.57202860  0.01452127  1
  Ru4+  Ru167  1  0.25022227  0.97177007  0.52679206  1
  Ru4+  Ru168  1  0.24823671  0.43286339  -0.00030923  1
  Ru4+  Ru169  1  0.74960084  0.74973646  0.74153705  1
  Ru4+  Ru170  1  0.24960799  0.42569022  0.72402282  1
  Ru4+  Ru171  1  0.75039877  0.72540431  0.49278657  1
  Ru4+  Ru172  1  0.74982224  0.42251230  0.00403128  1
  Ru4+  Ru173  1  0.24749515  0.09945280  0.74486442  1
  Ru4+  Ru174  1  0.75249769  0.45178781  0.22699592  1
  Ru4+  Ru175  1  0.24854708  0.57961250  0.24348020  1
  Ru4+  Ru176  1  0.74947852  0.27510766  -0.01366535  1
  Ru4+  Ru177  1  0.75002672  0.05443158  0.51101406  1
  Ru4+  Ru178  1  0.24909425  0.26929159  0.28991960  1
  Ru4+  Ru179  1  0.75230266  0.04865117  0.24406024  1
  O2-  O180  1  0.16380566  0.07703735  -0.00051274  1
  O2-  O181  1  0.15614351  0.07629223  0.24968848  1
  O2-  O182  1  0.16189398  0.08462566  0.50299489  1
  O2-  O183  1  0.16608381  0.07816944  0.75259545  1
  O2-  O184  1  0.16669875  0.41584474  -0.00013063  1
  O2-  O185  1  0.16098073  0.41647948  0.24836658  1
  O2-  O186  1  0.16508956  0.41633041  0.50181213  1
  O2-  O187  1  0.16562982  0.42200944  0.74493176  1
  O2-  O188  1  0.16762205  0.75024206  -0.00160681  1
  O2-  O189  1  0.16137164  0.74899320  0.24913741  1
  O2-  O190  1  0.17149217  0.74615961  0.49693877  1
  O2-  O191  1  0.17302573  0.74485998  0.74409025  1
  O2-  O192  1  0.66074142  0.07414867  -0.00111626  1
  O2-  O193  1  0.66950658  0.07573411  0.25048346  1
  O2-  O194  1  0.66532430  0.07713521  0.49997017  1
  O2-  O195  1  0.65778891  0.08038253  0.75329168  1
  O2-  O196  1  0.66592681  0.41309621  0.00028790  1
  O2-  O197  1  0.67088244  0.41805163  0.24484733  1
  O2-  O198  1  0.67486248  0.41434152  0.49669834  1
  O2-  O199  1  0.65534953  0.41440407  0.75303373  1
  O2-  O200  1  0.66927071  0.74856967  0.00887579  1
  O2-  O201  1  0.66547651  0.74533070  0.24953275  1
  O2-  O202  1  0.66344756  0.74703019  0.49906242  1
  O2-  O203  1  0.66328004  0.74525321  0.74865040  1
  O2-  O204  1  0.33331439  0.25150242  0.00018513  1
  O2-  O205  1  0.32830167  0.25487666  0.25744981  1
  O2-  O206  1  0.33568273  0.25221533  0.49952068  1
  O2-  O207  1  0.33568974  0.24573578  0.75194041  1
  O2-  O208  1  0.33220561  0.58616814  -0.00285248  1
  O2-  O209  1  0.33036790  0.58549279  0.24999148  1
  O2-  O210  1  0.33365467  0.58849580  0.49968421  1
  O2-  O211  1  0.33184685  0.59163421  0.75255602  1
  O2-  O212  1  0.32771700  0.91437576  0.00181182  1
  O2-  O213  1  0.33382494  0.91653945  0.24824540  1
  O2-  O214  1  0.32503492  0.92077046  0.50277585  1
  O2-  O215  1  0.32699302  0.92178548  0.74326731  1
  O2-  O216  1  0.83033843  0.25287801  -0.00228632  1
  O2-  O217  1  0.83589730  0.25506996  0.24727099  1
  O2-  O218  1  0.83414026  0.25657308  0.49818180  1
  O2-  O219  1  0.83554017  0.25420151  0.75520011  1
  O2-  O220  1  0.83913922  0.58517472  0.00382545  1
  O2-  O221  1  0.83722858  0.58578371  0.24341113  1
  O2-  O222  1  0.83677944  0.58174759  0.50146028  1
  O2-  O223  1  0.83381927  0.58701259  0.75189433  1
  O2-  O224  1  0.83519491  0.91249629  -0.00303303  1
  O2-  O225  1  0.83630810  0.91140441  0.25128825  1
  O2-  O226  1  0.84273743  0.91604632  0.50221892  1
  O2-  O227  1  0.84071183  0.92101551  0.74990220  1
  O2-  O228  1  0.16303967  0.25271528  0.00070288  1
  O2-  O229  1  0.16611058  0.25077225  0.25150609  1
  O2-  O230  1  0.16709068  0.25050612  0.50762824  1
  O2-  O231  1  0.16437214  0.24979791  0.75107505  1
  O2-  O232  1  0.16983754  0.58314509  0.00204375  1
  O2-  O233  1  0.16528024  0.58717971  0.25046894  1
  O2-  O234  1  0.17022473  0.58893560  0.49741923  1
  O2-  O235  1  0.17771693  0.59095076  0.75147325  1
  O2-  O236  1  0.17314481  0.91521392  -0.00756861  1
  O2-  O237  1  0.16986531  0.91413327  0.24704817  1
  O2-  O238  1  0.17010005  0.92009253  0.50101329  1
  O2-  O239  1  0.16284058  0.92026754  0.75034466  1
  O2-  O240  1  0.66827061  0.25089370  0.00095953  1
  O2-  O241  1  0.66581343  0.26153345  0.25179721  1
  O2-  O242  1  0.65962424  0.26089353  0.49814655  1
  O2-  O243  1  0.66628535  0.25561478  0.75653276  1
  O2-  O244  1  0.66192772  0.58632051  0.00810996  1
  O2-  O245  1  0.66455076  0.58863204  0.24727544  1
  O2-  O246  1  0.66778978  0.58624322  0.50207128  1
  O2-  O247  1  0.66811532  0.58978048  0.74852152  1
  O2-  O248  1  0.66116309  0.91969325  -0.00046915  1
  O2-  O249  1  0.66559152  0.91550347  0.24984491  1
  O2-  O250  1  0.66319297  0.91847710  0.49684154  1
  O2-  O251  1  0.66686343  0.91743093  0.75032765  1
  O2-  O252  1  0.32693087  0.07865533  0.00972106  1
  O2-  O253  1  0.33801509  0.07808098  0.24727057  1
  O2-  O254  1  0.33577780  0.07872392  0.50064626  1
  O2-  O255  1  0.32591817  0.08391830  0.74757943  1
  O2-  O256  1  0.32840199  0.41598732  -0.00317541  1
  O2-  O257  1  0.33855700  0.41416743  0.25539556  1
  O2-  O258  1  0.33250528  0.42141707  0.49765612  1
  O2-  O259  1  0.33295925  0.42074438  0.74880044  1
  O2-  O260  1  0.33260022  0.74695021  -0.00622619  1
  O2-  O261  1  0.33313614  0.74780099  0.24424012  1
  O2-  O262  1  0.33218236  0.74442490  0.50098634  1
  O2-  O263  1  0.33437195  0.74404175  0.75097999  1
  O2-  O264  1  0.84518933  0.07990342  -0.00312438  1
  O2-  O265  1  0.83863605  0.08129445  0.25043199  1
  O2-  O266  1  0.83242938  0.07693840  0.50070318  1
  O2-  O267  1  0.84161055  0.07732884  0.74743238  1
  O2-  O268  1  0.83381682  0.41464819  -0.00240820  1
  O2-  O269  1  0.83326995  0.41797683  0.24629906  1
  O2-  O270  1  0.82892371  0.41431952  0.49767100  1
  O2-  O271  1  0.82981730  0.41786698  0.75390615  1
  O2-  O272  1  0.83730317  0.75301686  0.00422770  1
  O2-  O273  1  0.83008698  0.74628753  0.24851319  1
  O2-  O274  1  0.83145655  0.74833231  0.50692542  1
  O2-  O275  1  0.83247096  0.74463050  0.74851615  1
  O2-  O276  1  0.97004003  0.44440609  0.54448455  1
  O2-  O277  1  0.94415601  0.24088315  0.47738623  1
  O2-  O278  1  0.04344749  0.57386495  0.25612606  1
  O2-  O279  1  0.45183042  0.75748043  0.76742367  1
  O2-  O280  1  0.56019384  0.24399632  0.01175699  1
  O2-  O281  1  0.04992821  0.58910729  0.48184794  1
  O2-  O282  1  0.46087881  0.43849431  0.48073110  1
  O2-  O283  1  0.45172383  0.57662890  0.01869940  1
  O2-  O284  1  0.97500732  0.79591826  0.51322696  1
  O2-  O285  1  0.04100991  0.80025582  0.70097310  1
  O2-  O286  1  0.94434193  0.75098637  0.98004276  1
  O2-  O287  1  0.45624643  0.23941782  0.49403622  1
  O2-  O288  1  0.55134758  0.09732253  0.99030231  1
  O2-  O289  1  0.06178687  0.08243840  0.49076513  1
  O2-  O290  1  0.45341169  0.56468219  0.98179949  1
  O2-  O291  1  0.48815299  0.11344393  0.75409207  1
  O2-  O292  1  0.45507280  0.09632737  0.50736811  1
  O2-  O293  1  0.44195098  0.23689348  0.75997857  1
  O2-  O294  1  0.05568187  0.41489332  0.77147144  1
  O2-  O295  1  0.96975708  0.78275158  0.24439972  1
  O2-  O296  1  0.04716774  0.08162307  0.52259767  1
  O2-  O297  1  0.96692055  0.47347993  0.74059633  1
  O2-  O298  1  0.54879304  0.89570202  0.24258571  1
  O2-  O299  1  0.04290772  0.09870904  0.24729198  1
  O2-  O300  1  0.54838203  0.57784107  0.25634362  1
  O2-  O301  1  0.44959716  0.24976914  0.72558782  1
  O2-  O302  1  0.45632749  0.89612567  0.01146272  1
  O2-  O303  1  0.44564192  0.23891251  0.99183644  1
  O2-  O304  1  0.54799534  0.24746256  0.97770862  1
  O2-  O305  1  0.03794689  0.21920776  0.52427807  1
  O2-  O306  1  0.54966897  0.89920016  0.26240140  1
  O2-  O307  1  0.45434121  0.56766159  0.76080286  1
  O2-  O308  1  0.05195121  0.76489332  0.01534733  1
  O2-  O309  1  0.94341615  0.75398301  0.73465171  1
  O2-  O310  1  0.97841322  0.87699470  -0.00790026  1
  O2-  O311  1  0.54689230  0.20267401  0.80220871  1
  O2-  O312  1  0.96169176  0.10097493  0.00579840  1
  O2-  O313  1  0.05123866  0.56819733  0.51376441  1
  O2-  O314  1  0.44917825  0.58011959  0.51271685  1
  O2-  O315  1  0.45563671  0.10116433  0.03401275  1
  O2-  O316  1  0.54966866  0.88025017  0.45084493  1
  O2-  O317  1  0.94975443  0.58052677  0.50426647  1
  O2-  O318  1  0.05668870  0.43835994  0.74163993  1
  O2-  O319  1  0.46184649  0.87719146  0.51940912  1
  O2-  O320  1  0.96464992  0.21933429  0.29329090  1
  O2-  O321  1  0.45516108  0.43959455  0.46331536  1
  O2-  O322  1  0.44382772  0.89907781  0.24191071  1
  O2-  O323  1  0.04271803  0.89280382  0.21606410  1
  O2-  O324  1  0.93313315  0.28718861  0.18193420  1
  O2-  O325  1  0.41365745  0.04695710  0.76853315  1
  O2-  O326  1  0.43358505  0.90893230  0.68300201  1
  O2-  O327  1  0.56831545  0.40767945  0.48220878  1
  O2-  O328  1  0.56184349  0.60020325  0.46388607  1
  O2-  O329  1  0.06264005  0.07449194  0.71830426  1
  O2-  O330  1  0.93748304  0.93193600  0.27843122  1
  O2-  O331  1  0.43284830  0.36209462  0.59204448  1
  O2-  O332  1  0.92175907  0.72307651  0.22690836  1
  O2-  O333  1  0.42269764  0.90074407  0.83400365  1
  O2-  O334  1  0.44162046  0.08614112  0.27491082  1
  O2-  O335  1  0.07106411  0.57756550  0.67806258  1
  O2-  O336  1  0.56383780  0.74025567  0.98681682  1
  O2-  O337  1  0.56490656  0.28818520  0.68065666  1
  O2-  O338  1  0.05873560  0.40685656  0.03876061  1
  O2-  O339  1  0.55907342  0.92594645  0.76291702  1
  O2-  O340  1  0.93677212  0.59993631  0.72164407  1
  O2-  O341  1  0.93911725  0.92504595  0.47162066  1
  O2-  O342  1  0.06633460  0.31398566  0.43736509  1
  O2-  O343  1  0.94253547  0.75196081  0.72564002  1
  O2-  O344  1  0.41951565  0.22922900  0.17404121  1
  O2-  O345  1  0.06131403  0.58817108  0.98821421  1
  O2-  O346  1  0.57270178  0.57921795  0.82292499  1
  O2-  O347  1  0.56018900  0.41498810  0.23145129  1
  O2-  O348  1  0.05589764  0.24903120  0.73247855  1
  O2-  O349  1  0.42144117  0.42999651  0.07746632  1
  O2-  O350  1  0.43588731  0.26367837  0.32409748  1
  O2-  O351  1  0.42937036  0.42282351  0.93122788  1
  O2-  O352  1  0.56174518  0.59082296  0.66890190  1
  O2-  O353  1  0.93565885  0.38650721  0.42421517  1
  O2-  O354  1  0.40983171  0.07022022  0.93268394  1
  O2-  O355  1  0.07054146  0.93019530  0.28704193  1
  O2-  O356  1  0.43477945  0.58649542  0.22542155  1
  O2-  O357  1  0.91706593  0.36990288  0.73275668  1
  O2-  O358  1  0.93761989  0.07630774  0.52115867  1
  O2-  O359  1  0.06240646  0.92748428  0.53110749  1
  O2-  O360  1  0.94050945  0.26420892  0.02637088  1
  O2-  O361  1  0.06903041  0.74074108  0.51706633  1
  O2-  O362  1  0.07959070  0.73704161  0.81044249  1
  O2-  O363  1  0.06705618  0.93924334  0.02777976  1
  O2-  O364  1  0.56174834  0.08005979  0.23227802  1
  O2-  O365  1  0.92277651  0.96486331  0.04527936  1
  O2-  O366  1  0.92262413  0.70862418  0.45008332  1
  O2-  O367  1  0.43710042  0.73428388  0.28658482  1
  O2-  O368  1  0.56845446  0.95187254  0.56875368  1
  O2-  O369  1  0.42018831  0.93960470  0.52460875  1
  O2-  O370  1  0.07385871  0.57512968  0.82628541  1
  O2-  O371  1  0.56146380  0.25519642  0.22943594  1
  O2-  O372  1  0.24802445  -0.00984325  0.33042474  1
  O2-  O373  1  0.24893842  0.66273558  0.35588276  1
  O2-  O374  1  0.74919808  0.34026304  0.64402601  1
  O2-  O375  1  0.75077213  -0.02698160  0.42299713  1
  O2-  O376  1  0.74877380  0.67301552  0.83637857  1
  O2-  O377  1  0.74935356  0.33773871  0.09776652  1
  O2-  O378  1  0.24871460  0.34009780  0.07271493  1
  O2-  O379  1  0.75005554  -0.01170640  0.62392958  1
  O2-  O380  1  0.24719409  0.00801731  0.12764298  1
  O2-  O381  1  0.25153530  0.33713583  0.38575899  1
  O2-  O382  1  0.75098608  0.67095209  0.93023251  1
  O2-  O383  1  0.24861747  0.02226652  0.41481551  1
  O2-  O384  1  0.24868650  0.33790906  0.92682320  1
  O2-  O385  1  0.24915898  0.67431096  0.17016752  1
  O2-  O386  1  0.74966637  0.32860058  0.36627427  1
  O2-  O387  1  0.25107642  0.67325247  0.07884128  1
  O2-  O388  1  0.75098299  -0.03194424  0.15496275  1
  O2-  O389  1  0.24727022  0.33640986  0.64732594  1
  O2-  O390  1  0.24924505  0.33804496  0.20171664  1
  O2-  O391  1  0.75092052  -0.00945331  0.06639154  1
  O2-  O392  1  0.74920057  0.65958337  0.38437161  1
  O2-  O393  1  0.25020340  0.34144314  0.80039402  1
  O2-  O394  1  0.75107294  0.00470206  0.89443820  1
  O2-  O395  1  0.75153678  -0.02717095  0.32789500  1
  O2-  O396  1  0.24995083  0.18354687  0.37407383  1
  O2-  O397  1  0.75063650  0.51094846  0.67439180  1
  O2-  O398  1  0.75004882  0.20680098  0.87948473  1
  O2-  O399  1  0.75209984  0.12209098  0.60498291  1
  O2-  O400  1  0.24933903  0.51149082  0.14814823  1
  O2-  O401  1  0.75007873  0.49568492  0.58993918  1
  O2-  O402  1  0.75169026  0.80309316  0.12502326  1
  O2-  O403  1  0.75013244  0.81303116  0.41440344  1
  O2-  O404  1  0.74968677  0.84465670  0.19960224  1
  O2-  O405  1  0.24946236  0.15300846  0.93647994  1
  O2-  O406  1  0.74952770  0.81813235  0.86685325  1
  O2-  O407  1  0.74885305  0.82051073  0.65756837  1
  O2-  O408  1  0.75031443  0.50393885  0.92885991  1
  O2-  O409  1  0.74981517  0.83504762  0.32967547  1
  O2-  O410  1  0.74827290  0.20180546  0.68724040  1
  O2-  O411  1  0.25121661  0.15746176  0.57794746  1
  O2-  O412  1  0.74983486  0.85588259  0.79192929  1
  O2-  O413  1  0.75006163  0.17459728  0.12645863  1
  O2-  O414  1  0.25037419  0.48651183  0.63168911  1
  O2-  O415  1  0.74979036  0.50804785  0.32125620  1
  O2-  O416  1  0.75222992  0.11423281  0.38463120  1
  O2-  O417  1  0.24868524  0.18007930  0.81282496  1
  O2-  O418  1  0.24949363  0.16942991  0.10003820  1
  O2-  O419  1  0.24898077  0.17677353  0.65806092  1
  O2-  O420  1  0.54857472  0.02334937  0.38565837  1
  O2-  O421  1  0.53036959  0.32232630  0.37657337  1
  O2-  O422  1  0.54811983  0.36217786  0.87298423  1
  O2-  O423  1  0.97795080  0.64770035  0.11828108  1
  O2-  O424  1  0.48712169  0.02016570  0.62425666  1
  O2-  O425  1  0.01921282  0.00854622  0.38573571  1
  O2-  O426  1  0.48076129  -0.00920301  0.87822188  1
  O2-  O427  1  0.46780484  0.33541706  0.14656716  1
  O2-  O428  1  0.45951699  0.32600641  0.85811654  1
  O2-  O429  1  0.95577293  0.32669758  0.87603075  1
  O2-  O430  1  0.04532658  0.34895397  0.61600720  1
  O2-  O431  1  0.48167723  0.67915974  0.12064499  1
  O2-  O432  1  0.54698403  0.35901091  0.08102038  1
  O2-  O433  1  0.45571787  -0.01440018  0.39042134  1
  O2-  O434  1  0.45537774  0.00533313  0.13479960  1
  O2-  O435  1  0.00215537  0.67003892  0.87480052  1
  O2-  O436  1  0.04997955  0.32023610  0.88953008  1
  O2-  O437  1  0.97274751  -0.00826760  0.63308907  1
  O2-  O438  1  0.01535137  0.66849915  0.61601903  1
  O2-  O439  1  0.53918475  0.00070301  0.88932864  1
  O2-  O440  1  0.54828542  -0.00963140  0.10698365  1
  O2-  O441  1  0.51376311  0.67942625  0.87345774  1
  O2-  O442  1  0.47053557  0.67412446  0.62814612  1
  O2-  O443  1  0.95621034  0.30007700  0.62075100  1
