# generated using pymatgen
data_La7(Ru4O11)2
_symmetry_space_group_name_H-M   'P 1'
_cell_length_a   23.99397665
_cell_length_b   16.83425428
_cell_length_c   15.43229947
_cell_angle_alpha   89.99971694
_cell_angle_beta   89.99595554
_cell_angle_gamma   89.99748848
_symmetry_Int_Tables_number   1
_chemical_formula_structural   La7(Ru4O11)2
_chemical_formula_sum   'La84 Ru96 O264'
_cell_volume   6233.42524810
_cell_formula_units_Z   12
loop_
 _symmetry_equiv_pos_site_id
 _symmetry_equiv_pos_as_xyz
  1  'x, y, z'
loop_
 _atom_type_symbol
 _atom_type_oxidation_number
  La3+  3.0
  Ru4+  4.0
  O2-  -2.0
loop_
 _atom_site_type_symbol
 _atom_site_label
 _atom_site_symmetry_multiplicity
 _atom_site_fract_x
 _atom_site_fract_y
 _atom_site_fract_z
 _atom_site_occupancy
  La3+  La0  1  0.14035623  0.00176901  0.13034254  1
  La3+  La1  1  0.14160303  -0.00125814  0.37217431  1
  La3+  La2  1  0.13671728  -0.00393684  0.62693135  1
  La3+  La3  1  0.13970791  0.00655573  0.87568294  1
  La3+  La4  1  0.14300540  0.33395930  0.12845572  1
  La3+  La5  1  0.15227712  0.33316541  0.38008369  1
  La3+  La6  1  0.14444273  0.32696266  0.62411543  1
  La3+  La7  1  0.13102200  0.33075280  0.87407573  1
  La3+  La8  1  0.14109698  0.66598020  0.13077363  1
  La3+  La9  1  0.15049054  0.66636039  0.36941470  1
  La3+  La10  1  0.14442134  0.66557885  0.62224320  1
  La3+  La11  1  0.12897355  0.67133808  0.87352580  1
  La3+  La12  1  0.64262929  -0.00348267  0.11926368  1
  La3+  La13  1  0.63280609  0.00109224  0.38184211  1
  La3+  La14  1  0.64731289  -0.00109590  0.62804179  1
  La3+  La15  1  0.63457042  -0.00163678  0.87224891  1
  La3+  La16  1  0.64916532  0.33900928  0.12913659  1
  La3+  La17  1  0.64636891  0.34157807  0.37922065  1
  La3+  La18  1  0.63227910  0.33983889  0.62566454  1
  La3+  La19  1  0.64258814  0.33016460  0.88021860  1
  La3+  La20  1  0.64807656  0.66480844  0.12581501  1
  La3+  La21  1  0.63827483  0.66563449  0.37553457  1
  La3+  La22  1  0.64808299  0.67219274  0.62354655  1
  La3+  La23  1  0.64386530  0.66466072  0.87683014  1
  La3+  La24  1  0.36757850  0.00597485  0.12812181  1
  La3+  La25  1  0.35773729  -0.00151076  0.37059100  1
  La3+  La26  1  0.36517447  0.00131267  0.62484142  1
  La3+  La27  1  0.36071402  -0.00583540  0.87911799  1
  La3+  La28  1  0.35715068  0.33265173  0.12604783  1
  La3+  La29  1  0.34793871  0.33474429  0.38034427  1
  La3+  La30  1  0.36600193  0.32910870  0.62058796  1
  La3+  La31  1  0.36381050  0.32823618  0.87295672  1
  La3+  La32  1  0.35851475  0.66848442  0.12631681  1
  La3+  La33  1  0.35419099  0.66333050  0.36772593  1
  La3+  La34  1  0.36174595  0.66720357  0.62155949  1
  La3+  La35  1  0.36578493  0.66709083  0.88095903  1
  La3+  La36  1  0.87608590  -0.01612067  0.13806738  1
  La3+  La37  1  0.86719571  -0.01065355  0.36483643  1
  La3+  La38  1  0.85947596  -0.00086960  0.62236955  1
  La3+  La39  1  0.86490235  -0.00157945  0.88001499  1
  La3+  La40  1  0.85989079  0.33559271  0.12057603  1
  La3+  La41  1  0.86140053  0.33389765  0.37943353  1
  La3+  La42  1  0.85889491  0.33959745  0.62748750  1
  La3+  La43  1  0.85754002  0.33419337  0.87881531  1
  La3+  La44  1  0.85653841  0.66367501  0.12731815  1
  La3+  La45  1  0.85663138  0.67132664  0.37404028  1
  La3+  La46  1  0.85256165  0.66690084  0.62159596  1
  La3+  La47  1  0.85832055  0.66278914  0.87517255  1
  La3+  La48  1  0.50136497  0.50722727  0.89132919  1
  La3+  La49  1  0.49334269  0.15378390  0.12074141  1
  La3+  La50  1  -0.01039090  0.49818185  0.09568854  1
  La3+  La51  1  -0.00408511  0.82694525  0.12020641  1
  La3+  La52  1  -0.00051008  0.17082992  0.11904267  1
  La3+  La53  1  0.49019631  0.15152429  0.86686823  1
  La3+  La54  1  -0.00240273  0.50812959  0.34973880  1
  La3+  La55  1  0.50054285  0.83133938  0.12251899  1
  La3+  La56  1  0.49131496  0.47672203  0.38040028  1
  La3+  La57  1  0.49590406  0.84450385  0.62899585  1
  La3+  La58  1  -0.00668906  0.51604142  0.36932256  1
  La3+  La59  1  -0.00059369  0.17382257  0.63558495  1
  La3+  La60  1  0.00531733  0.83815276  0.13217032  1
  La3+  La61  1  -0.00461697  0.81631657  0.62731526  1
  La3+  La62  1  -0.01097211  0.50027889  0.11265878  1
  La3+  La63  1  -0.00417626  0.84505865  0.87670368  1
  La3+  La64  1  -0.00579304  0.84524769  0.36817420  1
  La3+  La65  1  0.49346271  0.50562105  0.87241269  1
  La3+  La66  1  0.49888360  0.50998413  0.13211140  1
  La3+  La67  1  0.49013984  0.48218617  0.39575239  1
  La3+  La68  1  0.50164050  0.83142215  0.37391490  1
  La3+  La69  1  0.51114537  0.17860006  0.62661860  1
  La3+  La70  1  -0.00028715  0.49272242  0.62114464  1
  La3+  La71  1  0.00305198  0.48972276  0.64282386  1
  La3+  La72  1  0.74787268  0.23833486  0.50953077  1
  La3+  La73  1  0.25201588  0.78194643  0.77829980  1
  La3+  La74  1  0.25160041  0.49819651  0.50038434  1
  La3+  La75  1  0.25140464  0.87501199  0.05266043  1
  La3+  La76  1  0.24846971  0.49010642  -0.02488436  1
  La3+  La77  1  0.74751250  0.83091461  0.21143939  1
  La3+  La78  1  0.25010469  0.49448740  0.78748304  1
  La3+  La79  1  0.74968340  0.49794036  0.28240683  1
  La3+  La80  1  0.75070544  0.50373271  0.51587609  1
  La3+  La81  1  0.74894810  0.82537356  0.54841153  1
  La3+  La82  1  0.75251671  0.11033382  0.76697848  1
  La3+  La83  1  0.75098218  0.15278195  0.23752214  1
  Ru4+  Ru84  1  -0.00036595  0.00996765  0.00095722  1
  Ru4+  Ru85  1  0.00019601  0.00356888  0.25517212  1
  Ru4+  Ru86  1  0.00349280  0.00388412  0.48971980  1
  Ru4+  Ru87  1  0.00683921  -0.00381268  0.75956870  1
  Ru4+  Ru88  1  0.00631872  0.32506046  -0.00089287  1
  Ru4+  Ru89  1  0.00673862  0.32893279  0.25994715  1
  Ru4+  Ru90  1  -0.00938644  0.31688051  0.50097785  1
  Ru4+  Ru91  1  0.00236815  0.33564566  0.75285563  1
  Ru4+  Ru92  1  -0.00420487  0.65733919  -0.00526241  1
  Ru4+  Ru93  1  0.00916622  0.66730938  0.24657927  1
  Ru4+  Ru94  1  -0.00628482  0.66761367  0.50484718  1
  Ru4+  Ru95  1  0.00537072  0.66837336  0.75831165  1
  Ru4+  Ru96  1  0.49775405  -0.00401756  0.00394980  1
  Ru4+  Ru97  1  0.50208719  -0.00543195  0.25096724  1
  Ru4+  Ru98  1  0.50054976  0.00750574  0.49751491  1
  Ru4+  Ru99  1  0.50377600  -0.00238541  0.74065163  1
  Ru4+  Ru100  1  0.50011782  0.32719867  0.01122912  1
  Ru4+  Ru101  1  0.51244583  0.33713391  0.23927499  1
  Ru4+  Ru102  1  0.49926782  0.33193657  0.50904010  1
  Ru4+  Ru103  1  0.50028583  0.33072371  0.74365289  1
  Ru4+  Ru104  1  0.50416307  0.67896079  -0.00027820  1
  Ru4+  Ru105  1  0.49458376  0.66277350  0.24791954  1
  Ru4+  Ru106  1  0.50371377  0.67511040  0.50121126  1
  Ru4+  Ru107  1  0.49791059  0.66222785  0.74642349  1
  Ru4+  Ru108  1  0.11202768  0.16969634  0.00156751  1
  Ru4+  Ru109  1  0.11098106  0.16647031  0.24871558  1
  Ru4+  Ru110  1  0.11104864  0.16651041  0.50170816  1
  Ru4+  Ru111  1  0.10925754  0.16725039  0.75245399  1
  Ru4+  Ru112  1  0.11155812  0.50341771  -0.00064031  1
  Ru4+  Ru113  1  0.11549414  0.49769091  0.25001014  1
  Ru4+  Ru114  1  0.11254029  0.49585917  0.50332618  1
  Ru4+  Ru115  1  0.10872899  0.50045707  0.75102817  1
  Ru4+  Ru116  1  0.11530039  0.83995442  -0.00096664  1
  Ru4+  Ru117  1  0.11555881  0.83185179  0.25155776  1
  Ru4+  Ru118  1  0.11275428  0.83368085  0.49756113  1
  Ru4+  Ru119  1  0.10704169  0.83997711  0.74924487  1
  Ru4+  Ru120  1  0.61439441  0.17569070  0.00310427  1
  Ru4+  Ru121  1  0.61221362  0.17531402  0.25750414  1
  Ru4+  Ru122  1  0.61225281  0.16791907  0.49946814  1
  Ru4+  Ru123  1  0.60978806  0.16749657  0.74949740  1
  Ru4+  Ru124  1  0.61323496  0.50094150  0.00004512  1
  Ru4+  Ru125  1  0.60933768  0.49826175  0.24527478  1
  Ru4+  Ru126  1  0.60864122  0.50718553  0.50809963  1
  Ru4+  Ru127  1  0.61387869  0.49543174  0.74922946  1
  Ru4+  Ru128  1  0.61605190  0.83807793  -0.00429219  1
  Ru4+  Ru129  1  0.60846338  0.83344281  0.24834853  1
  Ru4+  Ru130  1  0.60888542  0.82668584  0.49582932  1
  Ru4+  Ru131  1  0.60598993  0.83991704  0.75346785  1
  Ru4+  Ru132  1  0.38610993  0.17538009  -0.00575304  1
  Ru4+  Ru133  1  0.38344396  0.16557121  0.25532376  1
  Ru4+  Ru134  1  0.38740881  0.16809641  0.49514415  1
  Ru4+  Ru135  1  0.38877650  0.16341093  0.75127095  1
  Ru4+  Ru136  1  0.38337587  0.49275423  0.00102455  1
  Ru4+  Ru137  1  0.38360504  0.50445836  0.24456062  1
  Ru4+  Ru138  1  0.38844370  0.50095873  0.50066108  1
  Ru4+  Ru139  1  0.38967453  0.49858819  0.74923549  1
  Ru4+  Ru140  1  0.39201277  0.83476564  -0.00464832  1
  Ru4+  Ru141  1  0.38730601  0.82647967  0.25076375  1
  Ru4+  Ru142  1  0.38781576  0.83264938  0.50048268  1
  Ru4+  Ru143  1  0.39192291  0.83412477  0.74936856  1
  Ru4+  Ru144  1  0.88674174  0.16724874  0.00211557  1
  Ru4+  Ru145  1  0.89429693  0.16640699  0.25272313  1
  Ru4+  Ru146  1  0.89802756  0.17538154  0.50219115  1
  Ru4+  Ru147  1  0.89181037  0.16779727  0.74865184  1
  Ru4+  Ru148  1  0.88243788  0.50774924  -0.00130872  1
  Ru4+  Ru149  1  0.88274927  0.49457645  0.24598191  1
  Ru4+  Ru150  1  0.88867384  0.50555420  0.50372786  1
  Ru4+  Ru151  1  0.88867492  0.50267688  0.75530347  1
  Ru4+  Ru152  1  0.88498673  0.83552458  0.00073228  1
  Ru4+  Ru153  1  0.88832674  0.83636967  0.25227918  1
  Ru4+  Ru154  1  0.89202419  0.83146010  0.49563742  1
  Ru4+  Ru155  1  0.89161397  0.83339068  0.75078800  1
  Ru4+  Ru156  1  0.25030228  0.92808333  0.76168311  1
  Ru4+  Ru157  1  0.75069575  0.74736153  0.76755129  1
  Ru4+  Ru158  1  0.24920545  0.09316068  0.26992814  1
  Ru4+  Ru159  1  0.75009204  0.27293496  0.75165240  1
  Ru4+  Ru160  1  0.25056022  0.34800168  -0.02020518  1
  Ru4+  Ru161  1  0.25153528  0.61332413  0.04486419  1
  Ru4+  Ru162  1  0.24937277  0.23308124  0.75198399  1
  Ru4+  Ru163  1  0.75152132  0.30312542  0.27856292  1
  Ru4+  Ru164  1  0.74956405  0.56739268  0.75439482  1
  Ru4+  Ru165  1  0.24955814  0.24222276  0.26386835  1
  Ru4+  Ru166  1  0.24943983  0.62615089  0.73514568  1
  Ru4+  Ru167  1  0.75091402  0.08459913  -0.01058841  1
  Ru4+  Ru168  1  0.24988233  0.90954999  0.48069885  1
  Ru4+  Ru169  1  0.25003452  0.08393812  0.00207288  1
  Ru4+  Ru170  1  0.25048753  0.36836903  0.72694617  1
  Ru4+  Ru171  1  0.25029858  0.74522117  0.47602550  1
  Ru4+  Ru172  1  0.24938961  0.09558059  0.48947933  1
  Ru4+  Ru173  1  0.75049798  0.42439640  -0.00691406  1
  Ru4+  Ru174  1  0.75197683  0.04593802  0.49901515  1
  Ru4+  Ru175  1  0.24895286  0.74453200  -0.01363764  1
  Ru4+  Ru176  1  0.74895829  0.01041278  0.23788472  1
  Ru4+  Ru177  1  0.75160809  0.91751342  0.75863193  1
  Ru4+  Ru178  1  0.24951553  0.09511451  0.76469713  1
  Ru4+  Ru179  1  0.75010902  0.74658134  0.00381583  1
  O2-  O180  1  0.16521607  0.08098494  0.00086819  1
  O2-  O181  1  0.16727553  0.07959896  0.25182176  1
  O2-  O182  1  0.16544450  0.08153898  0.50049401  1
  O2-  O183  1  0.16711754  0.08379015  0.75029724  1
  O2-  O184  1  0.16719495  0.40822198  -0.00424914  1
  O2-  O185  1  0.16821990  0.41854306  0.24225315  1
  O2-  O186  1  0.17123913  0.41498855  0.50206993  1
  O2-  O187  1  0.17036173  0.40862167  0.75304946  1
  O2-  O188  1  0.16614732  0.74805513  -0.00199345  1
  O2-  O189  1  0.16903323  0.75129738  0.24746388  1
  O2-  O190  1  0.16631699  0.74801895  0.49816140  1
  O2-  O191  1  0.15970679  0.74923336  0.75256980  1
  O2-  O192  1  0.66389136  0.08031655  -0.00375708  1
  O2-  O193  1  0.66240266  0.07947864  0.24948891  1
  O2-  O194  1  0.66543444  0.08128681  0.49418136  1
  O2-  O195  1  0.66292107  0.07831743  0.75465034  1
  O2-  O196  1  0.66737401  0.41477283  -0.00544431  1
  O2-  O197  1  0.66972449  0.41983808  0.25636096  1
  O2-  O198  1  0.66684814  0.41911040  0.51162182  1
  O2-  O199  1  0.66219194  0.41192285  0.74729598  1
  O2-  O200  1  0.66496905  0.75038343  -0.00074193  1
  O2-  O201  1  0.66574969  0.74662671  0.25201985  1
  O2-  O202  1  0.66954923  0.74763009  0.49591572  1
  O2-  O203  1  0.66758571  0.75234176  0.75507316  1
  O2-  O204  1  0.32997276  0.25405783  -0.00659804  1
  O2-  O205  1  0.33397655  0.25338275  0.25211607  1
  O2-  O206  1  0.33220351  0.24900454  0.50618874  1
  O2-  O207  1  0.33046780  0.24672735  0.74988467  1
  O2-  O208  1  0.33093412  0.58729626  -0.00223451  1
  O2-  O209  1  0.32901699  0.58342665  0.25255454  1
  O2-  O210  1  0.33693187  0.58834103  0.50448832  1
  O2-  O211  1  0.33494511  0.58903012  0.74898937  1
  O2-  O212  1  0.33465930  0.92103910  0.00382652  1
  O2-  O213  1  0.33644851  0.91706082  0.24509953  1
  O2-  O214  1  0.33426545  0.91788226  0.49856917  1
  O2-  O215  1  0.33161593  0.92045624  0.75346231  1
  O2-  O216  1  0.83734052  0.24961658  -0.00262662  1
  O2-  O217  1  0.83691070  0.25387245  0.25099385  1
  O2-  O218  1  0.83589049  0.24679093  0.49115645  1
  O2-  O219  1  0.83610235  0.25483127  0.75337896  1
  O2-  O220  1  0.83532397  0.59123486  -0.00199460  1
  O2-  O221  1  0.82983474  0.58713738  0.25489283  1
  O2-  O222  1  0.83300055  0.58684902  0.49503506  1
  O2-  O223  1  0.83221327  0.58511646  0.74899876  1
  O2-  O224  1  0.83578597  0.92072917  -0.00303030  1
  O2-  O225  1  0.82777355  0.91804365  0.24622313  1
  O2-  O226  1  0.83440400  0.91892541  0.50274646  1
  O2-  O227  1  0.83482686  0.92069516  0.75575115  1
  O2-  O228  1  0.16237899  0.25326073  -0.00308807  1
  O2-  O229  1  0.16453229  0.24936834  0.25073708  1
  O2-  O230  1  0.16341825  0.24700092  0.50505514  1
  O2-  O231  1  0.16716593  0.24672408  0.75440303  1
  O2-  O232  1  0.16602525  0.58887188  -0.00280342  1
  O2-  O233  1  0.16813948  0.57994082  0.24309345  1
  O2-  O234  1  0.16360585  0.58347245  0.50118104  1
  O2-  O235  1  0.16481324  0.58837855  0.75381928  1
  O2-  O236  1  0.16509915  0.92588827  -0.00106719  1
  O2-  O237  1  0.16863983  0.91774004  0.24897847  1
  O2-  O238  1  0.16430840  0.91882683  0.49847401  1
  O2-  O239  1  0.16803890  0.92211686  0.74903482  1
  O2-  O240  1  0.66762823  0.24718175  -0.00554279  1
  O2-  O241  1  0.67191350  0.25165726  0.24834340  1
  O2-  O242  1  0.65662471  0.25893200  0.50731751  1
  O2-  O243  1  0.66274077  0.25648292  0.75030601  1
  O2-  O244  1  0.66139172  0.58524466  -0.00134838  1
  O2-  O245  1  0.66974769  0.58231061  0.25617688  1
  O2-  O246  1  0.67328418  0.58231725  0.48756625  1
  O2-  O247  1  0.66708453  0.58542392  0.75169672  1
  O2-  O248  1  0.67129654  0.91552534  -0.00096238  1
  O2-  O249  1  0.66444785  0.92196043  0.24815905  1
  O2-  O250  1  0.66405286  0.91444389  0.49887665  1
  O2-  O251  1  0.66807321  0.91611609  0.75931899  1
  O2-  O252  1  0.33313117  0.08266984  -0.00291814  1
  O2-  O253  1  0.32972290  0.07910428  0.25166787  1
  O2-  O254  1  0.33213564  0.08394377  0.50113873  1
  O2-  O255  1  0.32889498  0.08378592  0.75037376  1
  O2-  O256  1  0.32980706  0.40688143  -0.00415311  1
  O2-  O257  1  0.33806929  0.41511999  0.25060934  1
  O2-  O258  1  0.33790445  0.41261649  0.50642735  1
  O2-  O259  1  0.33160293  0.41143687  0.74890370  1
  O2-  O260  1  0.33308697  0.75019828  -0.00244405  1
  O2-  O261  1  0.32996518  0.75225106  0.24890415  1
  O2-  O262  1  0.33283851  0.74490760  0.49831403  1
  O2-  O263  1  0.34355062  0.74320935  0.74893220  1
  O2-  O264  1  0.83344054  0.07875994  -0.00471248  1
  O2-  O265  1  0.83624899  0.07552726  0.24603474  1
  O2-  O266  1  0.84239791  0.07951270  0.50033571  1
  O2-  O267  1  0.84579572  0.07472461  0.74956049  1
  O2-  O268  1  0.83421654  0.41485531  -0.00265041  1
  O2-  O269  1  0.82905338  0.41319658  0.25792395  1
  O2-  O270  1  0.82873534  0.41333741  0.50068491  1
  O2-  O271  1  0.83862505  0.41596807  0.75182659  1
  O2-  O272  1  0.83387939  0.74799556  -0.00136411  1
  O2-  O273  1  0.83361627  0.74804591  0.24650962  1
  O2-  O274  1  0.83637954  0.75004966  0.49971651  1
  O2-  O275  1  0.83436387  0.74627145  0.75304068  1
  O2-  O276  1  0.44096519  0.91422418  0.02148656  1
  O2-  O277  1  0.45055124  0.56827292  0.73329529  1
  O2-  O278  1  0.95534889  0.89928328  0.23958772  1
  O2-  O279  1  0.97940376  0.19671323  0.48844265  1
  O2-  O280  1  0.95845067  0.89921963  0.51326838  1
  O2-  O281  1  0.03585744  0.45359869  0.47069608  1
  O2-  O282  1  0.55065377  0.56517616  0.76360378  1
  O2-  O283  1  0.94536477  0.42572512  0.00537955  1
  O2-  O284  1  0.95536182  0.24320447  0.25803383  1
  O2-  O285  1  0.94935186  0.08964528  0.26046701  1
  O2-  O286  1  0.03599202  0.43800379  0.21243339  1
  O2-  O287  1  0.95095699  0.91000229  0.00682797  1
  O2-  O288  1  0.53633471  0.89218116  0.79915633  1
  O2-  O289  1  0.45455975  0.76442011  0.00058669  1
  O2-  O290  1  0.55420075  0.25420396  0.51415990  1
  O2-  O291  1  0.04658413  0.57296870  0.18840701  1
  O2-  O292  1  0.53224709  0.11327341  0.48848039  1
  O2-  O293  1  0.52757769  0.20754921  0.24481871  1
  O2-  O294  1  0.53927947  0.56776274  0.46253606  1
  O2-  O295  1  0.53636202  0.87802813  0.98590812  1
  O2-  O296  1  0.04670714  0.09931223  0.75688349  1
  O2-  O297  1  0.44792004  0.55941810  0.29597075  1
  O2-  O298  1  0.05185943  0.42692106  0.00358113  1
  O2-  O299  1  0.04767960  0.09249955  0.52183523  1
  O2-  O300  1  0.53495311  0.22419881  0.21223230  1
  O2-  O301  1  0.54674107  0.55736000  0.29697993  1
  O2-  O302  1  0.94692041  0.57332154  0.23929091  1
  O2-  O303  1  0.45276659  0.90131469  0.26235270  1
  O2-  O304  1  0.45517178  0.76838087  0.49872207  1
  O2-  O305  1  0.45450506  0.76685512  0.50875285  1
  O2-  O306  1  0.54234968  0.21972545  0.96077410  1
  O2-  O307  1  0.04717396  0.76474612  0.79209055  1
  O2-  O308  1  0.45774220  0.56675962  0.00863436  1
  O2-  O309  1  0.54798538  0.42527185  0.51739690  1
  O2-  O310  1  0.94566378  0.91311476  0.22126825  1
  O2-  O311  1  0.45461515  0.76485591  0.99116737  1
  O2-  O312  1  0.44309057  0.12050602  0.55315857  1
  O2-  O313  1  0.54370329  0.12017134  0.45490414  1
  O2-  O314  1  0.52665137  0.20644846  -0.01218838  1
  O2-  O315  1  0.95567516  0.43663465  0.76911065  1
  O2-  O316  1  0.45370542  0.42534535  0.24433681  1
  O2-  O317  1  0.05096114  0.09643314  0.22624241  1
  O2-  O318  1  0.04381942  0.77136151  0.00628051  1
  O2-  O319  1  0.54125100  0.76814992  0.72456851  1
  O2-  O320  1  0.44403760  0.08024213  0.22712638  1
  O2-  O321  1  0.05104941  0.91903148  0.68422241  1
  O2-  O322  1  0.94998361  0.75430904  0.24788128  1
  O2-  O323  1  0.46568831  0.11139814  0.71907309  1
  O2-  O324  1  0.55288759  0.41930563  0.01709328  1
  O2-  O325  1  0.93630032  0.40176129  0.21420597  1
  O2-  O326  1  0.44348879  0.07913179  0.22542437  1
  O2-  O327  1  0.41573991  0.07189785  0.81566321  1
  O2-  O328  1  0.56567154  0.74070917  0.42024977  1
  O2-  O329  1  0.94182677  0.42025710  0.52492910  1
  O2-  O330  1  0.43459231  0.92452998  0.72894474  1
  O2-  O331  1  0.93670470  0.07340976  0.03890605  1
  O2-  O332  1  0.07947151  0.91178982  0.84575897  1
  O2-  O333  1  0.56575053  0.41340191  0.18134056  1
  O2-  O334  1  0.93965035  0.60249158  0.77363235  1
  O2-  O335  1  0.43866665  0.40730586  0.78830073  1
  O2-  O336  1  0.43348814  0.26585344  0.52004495  1
  O2-  O337  1  0.57788784  0.28239342  0.07607789  1
  O2-  O338  1  0.57210041  0.01428038  0.54994856  1
  O2-  O339  1  0.56597439  0.41703558  0.33031069  1
  O2-  O340  1  0.56820380  0.75942551  0.57068873  1
  O2-  O341  1  0.06592386  0.73409518  0.18347635  1
  O2-  O342  1  0.05587515  0.75790655  0.80527756  1
  O2-  O343  1  0.44034611  0.26387309  0.92152030  1
  O2-  O344  1  0.57231223  0.93432633  0.68486566  1
  O2-  O345  1  0.43087395  0.75897183  0.17610116  1
  O2-  O346  1  0.93241853  0.93249790  0.27677532  1
  O2-  O347  1  0.43183500  0.03922141  0.43794963  1
  O2-  O348  1  0.43252620  0.74776402  0.31869546  1
  O2-  O349  1  0.05087635  0.91786582  0.69577767  1
  O2-  O350  1  0.05393225  0.74977375  0.03384481  1
  O2-  O351  1  0.57576746  0.94749519  0.98163927  1
  O2-  O352  1  0.43359162  0.25738273  0.72648112  1
  O2-  O353  1  0.05724336  0.71136657  0.64481869  1
  O2-  O354  1  0.58681985  0.59516523  0.56804998  1
  O2-  O355  1  0.43858678  0.08097568  0.02197668  1
  O2-  O356  1  0.06450099  0.93334391  0.21775447  1
  O2-  O357  1  0.94202375  0.25707919  0.03149464  1
  O2-  O358  1  0.06497608  0.41068984  0.77395945  1
  O2-  O359  1  0.42326344  0.59709170  0.17976729  1
  O2-  O360  1  0.57035212  0.61709512  0.17805568  1
  O2-  O361  1  0.58014681  0.27839789  0.32343112  1
  O2-  O362  1  0.43543392  0.58100991  0.01861321  1
  O2-  O363  1  0.07753428  0.58860506  0.31808251  1
  O2-  O364  1  0.91796311  0.28401344  0.53022314  1
  O2-  O365  1  0.56340483  0.08039648  0.72247663  1
  O2-  O366  1  0.08126803  0.40414790  0.56829491  1
  O2-  O367  1  0.06562238  0.76836595  0.32363264  1
  O2-  O368  1  0.42766157  0.24257312  0.07092288  1
  O2-  O369  1  0.08149801  0.39821186  0.31638152  1
  O2-  O370  1  0.57220077  0.72905366  0.78933741  1
  O2-  O371  1  0.93666830  0.40946863  0.03767060  1
  O2-  O372  1  0.74919541  0.35263248  0.83685589  1
  O2-  O373  1  0.75352383  -0.01016882  0.65630949  1
  O2-  O374  1  0.75132472  0.67068819  0.56949299  1
  O2-  O375  1  0.24888341  0.66191116  0.86421789  1
  O2-  O376  1  0.75080513  0.67894567  0.89202381  1
  O2-  O377  1  0.25004955  0.33648080  0.18121757  1
  O2-  O378  1  0.75276167  0.34396315  0.16528771  1
  O2-  O379  1  0.24916934  -0.00094822  0.55367451  1
  O2-  O380  1  0.75112356  0.67261304  0.09596079  1
  O2-  O381  1  0.25193087  0.33416133  0.42143272  1
  O2-  O382  1  0.24852350  0.67957198  0.13899927  1
  O2-  O383  1  0.24931959  0.31230744  0.09085035  1
  O2-  O384  1  0.25245512  0.67833391  0.62674578  1
  O2-  O385  1  0.25143440  0.68155431  0.37664753  1
  O2-  O386  1  0.75064133  0.66630653  0.68877711  1
  O2-  O387  1  0.75014011  0.32582346  0.92426629  1
  O2-  O388  1  0.24958215  0.01381681  0.68247570  1
  O2-  O389  1  0.75244296  0.35057226  0.39725025  1
  O2-  O390  1  0.75071119  0.33045387  0.07262482  1
  O2-  O391  1  0.25043517  0.00266469  0.39434512  1
  O2-  O392  1  0.24920046  0.00576661  0.09656708  1
  O2-  O393  1  0.74955325  -0.00665790  0.35900930  1
  O2-  O394  1  0.25000914  0.33828778  0.32951484  1
  O2-  O395  1  0.74900146  0.00861220  0.10304251  1
  O2-  O396  1  0.24973491  0.50404184  0.64889246  1
  O2-  O397  1  0.74974481  0.20947966  0.65954109  1
  O2-  O398  1  0.75181799  0.12041921  0.42098124  1
  O2-  O399  1  0.24963143  0.16389594  0.17841311  1
  O2-  O400  1  0.24954732  0.16316200  0.39630304  1
  O2-  O401  1  0.75124574  0.82903368  0.33992411  1
  O2-  O402  1  0.75066905  0.21864150  0.35867877  1
  O2-  O403  1  0.74978752  0.51232237  0.06000125  1
  O2-  O404  1  0.75035195  0.18796939  0.02325725  1
  O2-  O405  1  0.75062104  0.83398916  0.42427829  1
  O2-  O406  1  0.75060528  0.83078077  0.07555333  1
  O2-  O407  1  0.75034249  0.16232128  0.89326817  1
  O2-  O408  1  0.24969224  0.17331805  0.04811253  1
  O2-  O409  1  0.75017366  0.50298405  0.65516014  1
  O2-  O410  1  0.74990273  0.50554371  0.84539054  1
  O2-  O411  1  0.25007916  0.50783320  0.11051838  1
  O2-  O412  1  0.24966115  0.84477321  0.90513287  1
  O2-  O413  1  0.75082751  0.16677214  0.10542679  1
  O2-  O414  1  0.24915022  0.85914203  0.66647029  1
  O2-  O415  1  0.25027131  0.82343920  0.55420397  1
  O2-  O416  1  0.75028026  0.49954289  0.14940469  1
  O2-  O417  1  0.25069252  0.50071825  0.37439107  1
  O2-  O418  1  0.75068386  0.11292246  0.58801658  1
  O2-  O419  1  0.75092398  0.83132013  0.68420702  1
  O2-  O420  1  0.52977336  -0.01173800  0.37226059  1
  O2-  O421  1  0.04329635  0.66364808  0.42022531  1
  O2-  O422  1  0.02321284  0.32039329  0.87892346  1
  O2-  O423  1  0.02795146  0.31653813  0.12678523  1
  O2-  O424  1  0.53648590  0.02702574  0.86098291  1
  O2-  O425  1  0.45518885  0.65882522  0.85864915  1
  O2-  O426  1  0.01591952  0.01276825  0.88433814  1
  O2-  O427  1  0.96752663  0.66203019  0.11269103  1
  O2-  O428  1  0.95536568  0.34062600  0.65214123  1
  O2-  O429  1  0.54879667  0.64957150  0.90497233  1
  O2-  O430  1  0.04665314  0.29867451  0.64990920  1
  O2-  O431  1  0.47857202  0.35225300  0.62900135  1
  O2-  O432  1  0.94790533  0.66268539  0.38408240  1
  O2-  O433  1  0.02239111  0.64347931  0.88483743  1
  O2-  O434  1  0.48435311  -0.00540217  0.13048537  1
  O2-  O435  1  0.46596253  -0.01673972  0.89544721  1
  O2-  O436  1  0.95274319  0.01295515  0.40394811  1
  O2-  O437  1  0.01376638  0.31978034  0.38580984  1
  O2-  O438  1  0.04749455  -0.01164673  0.37541775  1
  O2-  O439  1  0.49355542  0.67058886  0.11792517  1
  O2-  O440  1  0.47292190  0.34552785  0.12954837  1
  O2-  O441  1  0.47850971  0.65228195  0.38815474  1
  O2-  O442  1  0.50904708  0.66276446  0.63163194  1
  O2-  O443  1  0.47392945  -0.01098359  0.61270003  1
