# generated using pymatgen
data_La7(Ru4O11)2
_symmetry_space_group_name_H-M   'P 1'
_cell_length_a   23.99114167
_cell_length_b   16.83157046
_cell_length_c   15.42803848
_cell_angle_alpha   89.99946925
_cell_angle_beta   89.99941959
_cell_angle_gamma   89.99968173
_symmetry_Int_Tables_number   1
_chemical_formula_structural   La7(Ru4O11)2
_chemical_formula_sum   'La84 Ru96 O264'
_cell_volume   6229.97448812
_cell_formula_units_Z   12
loop_
 _symmetry_equiv_pos_site_id
 _symmetry_equiv_pos_as_xyz
  1  'x, y, z'
loop_
 _atom_type_symbol
 _atom_type_oxidation_number
  La3+  3.0
  Ru4+  4.0
  O2-  -2.0
loop_
 _atom_site_type_symbol
 _atom_site_label
 _atom_site_symmetry_multiplicity
 _atom_site_fract_x
 _atom_site_fract_y
 _atom_site_fract_z
 _atom_site_occupancy
  La3+  La0  1  0.13676762  0.00348572  0.12807378  1
  La3+  La1  1  0.15175556  0.00164483  0.37562984  1
  La3+  La2  1  0.13458627  -0.00144287  0.62108789  1
  La3+  La3  1  0.13550952  0.00168748  0.87630485  1
  La3+  La4  1  0.13800922  0.33753726  0.12556622  1
  La3+  La5  1  0.13631289  0.33594605  0.37703331  1
  La3+  La6  1  0.14106999  0.33331893  0.62030295  1
  La3+  La7  1  0.13861861  0.33026474  0.87281838  1
  La3+  La8  1  0.14500134  0.66473227  0.12694049  1
  La3+  La9  1  0.15060334  0.66663031  0.37227971  1
  La3+  La10  1  0.14446402  0.66869352  0.62264138  1
  La3+  La11  1  0.13632767  0.66098402  0.87365327  1
  La3+  La12  1  0.63706689  -0.00338914  0.12750785  1
  La3+  La13  1  0.63577446  -0.00649256  0.37699910  1
  La3+  La14  1  0.63762902  -0.00304913  0.62060977  1
  La3+  La15  1  0.63375413  -0.00036356  0.87527577  1
  La3+  La16  1  0.63349635  0.33530289  0.12338216  1
  La3+  La17  1  0.63708334  0.33899954  0.37593468  1
  La3+  La18  1  0.63717899  0.33233976  0.62977735  1
  La3+  La19  1  0.64192231  0.33470202  0.87298588  1
  La3+  La20  1  0.63188121  0.66345262  0.12759328  1
  La3+  La21  1  0.63879265  0.67164952  0.37573178  1
  La3+  La22  1  0.64069885  0.67026081  0.62312440  1
  La3+  La23  1  0.63650888  0.66397604  0.87686464  1
  La3+  La24  1  0.35635372  0.00245394  0.13153973  1
  La3+  La25  1  0.35139163  -0.00243191  0.37481333  1
  La3+  La26  1  0.36243567  -0.00007265  0.61775686  1
  La3+  La27  1  0.35909868  -0.00192044  0.87614264  1
  La3+  La28  1  0.36480256  0.33987086  0.12855999  1
  La3+  La29  1  0.36320554  0.33625313  0.37435799  1
  La3+  La30  1  0.35576318  0.33101102  0.62287953  1
  La3+  La31  1  0.36191512  0.33347484  0.87436128  1
  La3+  La32  1  0.35538828  0.66344770  0.12846877  1
  La3+  La33  1  0.35030196  0.66752462  0.37210357  1
  La3+  La34  1  0.35887505  0.66398368  0.62485963  1
  La3+  La35  1  0.36057787  0.66323706  0.87321551  1
  La3+  La36  1  0.86522439  -0.00170864  0.12465432  1
  La3+  La37  1  0.85944687  -0.00188719  0.37644299  1
  La3+  La38  1  0.86952909  0.00275140  0.63485560  1
  La3+  La39  1  0.86578908  0.02107748  0.86883679  1
  La3+  La40  1  0.86361269  0.33429708  0.12268868  1
  La3+  La41  1  0.86515167  0.33085021  0.37848778  1
  La3+  La42  1  0.87018420  0.32329006  0.63097722  1
  La3+  La43  1  0.86870794  0.32209700  0.86338208  1
  La3+  La44  1  0.86208330  0.66695829  0.12640701  1
  La3+  La45  1  0.86161660  0.66903082  0.37579226  1
  La3+  La46  1  0.86198756  0.66930245  0.62017575  1
  La3+  La47  1  0.86407503  0.66640107  0.87409336  1
  La3+  La48  1  -0.00126141  0.83498815  0.13109992  1
  La3+  La49  1  0.00121260  0.83019810  0.87854988  1
  La3+  La50  1  0.50116450  0.17101484  0.64219639  1
  La3+  La51  1  0.49930986  0.83410032  0.11853055  1
  La3+  La52  1  -0.00079149  0.51044796  0.63060396  1
  La3+  La53  1  0.00289295  0.49081740  0.88852662  1
  La3+  La54  1  0.49362540  0.18224757  0.87767961  1
  La3+  La55  1  0.50102957  0.83073641  0.63393342  1
  La3+  La56  1  0.00160560  0.50148308  0.13318999  1
  La3+  La57  1  0.49244273  0.83060863  0.61549595  1
  La3+  La58  1  0.50302732  0.50440967  0.36906917  1
  La3+  La59  1  0.50422688  0.50067385  0.35261749  1
  La3+  La60  1  0.50209492  0.49983134  0.13101348  1
  La3+  La61  1  -0.00228327  0.83918265  0.38758604  1
  La3+  La62  1  -0.00322666  0.16622772  0.86842425  1
  La3+  La63  1  -0.00005672  0.50832971  0.61384677  1
  La3+  La64  1  0.00185475  0.16838727  0.64528562  1
  La3+  La65  1  -0.00237330  0.50270707  0.37687609  1
  La3+  La66  1  -0.00689253  0.16410063  0.62762819  1
  La3+  La67  1  0.49380498  0.18039112  0.86060191  1
  La3+  La68  1  0.49946478  0.16639267  0.35804661  1
  La3+  La69  1  0.50830193  0.82195244  0.87096782  1
  La3+  La70  1  0.00033934  0.16332915  0.37165923  1
  La3+  La71  1  0.49728314  0.16426904  0.38039162  1
  La3+  La72  1  0.24974932  0.82467935  0.25892178  1
  La3+  La73  1  0.75048110  0.88697715  0.75526742  1
  La3+  La74  1  0.75160574  0.55609506  0.28835976  1
  La3+  La75  1  0.75026068  0.83208100  0.50179622  1
  La3+  La76  1  0.25028107  0.11309856  0.74309692  1
  La3+  La77  1  0.25077923  0.49838953  0.50615051  1
  La3+  La78  1  0.75140406  0.43119046  0.75647728  1
  La3+  La79  1  0.25042028  0.83525025  0.52090525  1
  La3+  La80  1  0.75029169  0.15214197  0.18534520  1
  La3+  La81  1  0.74970346  0.19926040  0.72750405  1
  La3+  La82  1  0.74981798  0.49907400  0.03259956  1
  La3+  La83  1  0.74993179  0.82629121  0.01913449  1
  Ru4+  Ru84  1  -0.00035150  -0.00231760  0.00133107  1
  Ru4+  Ru85  1  0.00103894  0.00207931  0.24129338  1
  Ru4+  Ru86  1  -0.00346024  -0.00191847  0.50698280  1
  Ru4+  Ru87  1  -0.00332692  -0.00209698  0.75647268  1
  Ru4+  Ru88  1  -0.00153156  0.33080628  0.00012007  1
  Ru4+  Ru89  1  -0.00287037  0.33118493  0.25301664  1
  Ru4+  Ru90  1  0.00230016  0.33243418  0.49667397  1
  Ru4+  Ru91  1  -0.00433291  0.33548418  0.74987239  1
  Ru4+  Ru92  1  0.00054344  0.66751618  0.00025120  1
  Ru4+  Ru93  1  -0.00102029  0.66690334  0.24406842  1
  Ru4+  Ru94  1  0.00244265  0.67455692  0.50110137  1
  Ru4+  Ru95  1  -0.00575316  0.66380184  0.75523927  1
  Ru4+  Ru96  1  0.49766310  -0.00210773  0.00207779  1
  Ru4+  Ru97  1  0.50117535  -0.00433725  0.25175855  1
  Ru4+  Ru98  1  0.49242832  0.00269511  0.50203021  1
  Ru4+  Ru99  1  0.50257025  -0.00320629  0.75513758  1
  Ru4+  Ru100  1  0.49857000  0.33825663  -0.00267188  1
  Ru4+  Ru101  1  0.50072316  0.31784331  0.24195380  1
  Ru4+  Ru102  1  0.49675937  0.34110190  0.50212241  1
  Ru4+  Ru103  1  0.50776469  0.34627355  0.75133298  1
  Ru4+  Ru104  1  0.50239438  0.66704641  -0.00383947  1
  Ru4+  Ru105  1  0.49441373  0.67415801  0.24261496  1
  Ru4+  Ru106  1  0.49583268  0.65779312  0.50072834  1
  Ru4+  Ru107  1  0.49973960  0.65843844  0.75050499  1
  Ru4+  Ru108  1  0.11453675  0.17299744  0.00260463  1
  Ru4+  Ru109  1  0.11391673  0.16146770  0.25076383  1
  Ru4+  Ru110  1  0.11712816  0.16635303  0.49826589  1
  Ru4+  Ru111  1  0.11473863  0.16272655  0.75266951  1
  Ru4+  Ru112  1  0.11454932  0.49746270  0.00221534  1
  Ru4+  Ru113  1  0.11354369  0.49759299  0.24882627  1
  Ru4+  Ru114  1  0.11773515  0.50814176  0.49875259  1
  Ru4+  Ru115  1  0.11382087  0.51022954  0.74715232  1
  Ru4+  Ru116  1  0.11273569  0.83008418  0.00005221  1
  Ru4+  Ru117  1  0.11015065  0.83426019  0.24941861  1
  Ru4+  Ru118  1  0.11236949  0.83186973  0.49833265  1
  Ru4+  Ru119  1  0.11405476  0.83307464  0.75185541  1
  Ru4+  Ru120  1  0.61160450  0.16329133  0.00529156  1
  Ru4+  Ru121  1  0.60596150  0.16701956  0.24753659  1
  Ru4+  Ru122  1  0.61287440  0.16340714  0.49963055  1
  Ru4+  Ru123  1  0.61464067  0.16657862  0.75024663  1
  Ru4+  Ru124  1  0.61075936  0.50127863  0.00083652  1
  Ru4+  Ru125  1  0.61942494  0.50068306  0.24877431  1
  Ru4+  Ru126  1  0.60809351  0.50320674  0.50524831  1
  Ru4+  Ru127  1  0.60371627  0.49789286  0.74812728  1
  Ru4+  Ru128  1  0.60836081  0.83189335  0.00185425  1
  Ru4+  Ru129  1  0.61155158  0.83331228  0.25037273  1
  Ru4+  Ru130  1  0.61652161  0.83281476  0.49931049  1
  Ru4+  Ru131  1  0.61012794  0.83159528  0.75348979  1
  Ru4+  Ru132  1  0.38773373  0.16683597  0.00040154  1
  Ru4+  Ru133  1  0.38501710  0.16366950  0.25039414  1
  Ru4+  Ru134  1  0.38518763  0.16308617  0.49936785  1
  Ru4+  Ru135  1  0.38293250  0.16285903  0.74943165  1
  Ru4+  Ru136  1  0.38622529  0.50018947  -0.00217388  1
  Ru4+  Ru137  1  0.38290046  0.50270813  0.24684941  1
  Ru4+  Ru138  1  0.39067923  0.50525985  0.50421538  1
  Ru4+  Ru139  1  0.38693991  0.50788690  0.75194476  1
  Ru4+  Ru140  1  0.38907091  0.83499440  0.00138225  1
  Ru4+  Ru141  1  0.39006608  0.83634782  0.24988528  1
  Ru4+  Ru142  1  0.38802631  0.83491994  0.49876370  1
  Ru4+  Ru143  1  0.39047298  0.83455220  0.75022826  1
  Ru4+  Ru144  1  0.88980415  0.16799337  -0.00458615  1
  Ru4+  Ru145  1  0.89309373  0.16815306  0.24667842  1
  Ru4+  Ru146  1  0.88325182  0.15881940  0.50504931  1
  Ru4+  Ru147  1  0.89026297  0.16649589  0.75110059  1
  Ru4+  Ru148  1  0.88854329  0.49646079  -0.00240912  1
  Ru4+  Ru149  1  0.89213573  0.50060647  0.24888472  1
  Ru4+  Ru150  1  0.88251437  0.49745362  0.49866757  1
  Ru4+  Ru151  1  0.88980081  0.50187140  0.74669604  1
  Ru4+  Ru152  1  0.88983291  0.83643765  0.00257406  1
  Ru4+  Ru153  1  0.88818947  0.83125082  0.24930882  1
  Ru4+  Ru154  1  0.88877768  0.83638448  0.49811533  1
  Ru4+  Ru155  1  0.89244348  0.83133469  0.74706732  1
  Ru4+  Ru156  1  0.75030816  0.89314582  0.25974112  1
  Ru4+  Ru157  1  0.25037959  0.75915194  0.00566599  1
  Ru4+  Ru158  1  0.74964714  0.08838240  0.50110792  1
  Ru4+  Ru159  1  0.25026837  0.90651011  0.75291060  1
  Ru4+  Ru160  1  0.75043249  0.96670398  -0.00674967  1
  Ru4+  Ru161  1  0.74975633  0.22575319  0.50319535  1
  Ru4+  Ru162  1  0.74958613  0.41631584  0.49719237  1
  Ru4+  Ru163  1  0.25048219  0.25402243  0.01975148  1
  Ru4+  Ru164  1  0.74973598  0.03161504  0.26358492  1
  Ru4+  Ru165  1  0.74938192  0.05941748  0.75163989  1
  Ru4+  Ru166  1  0.74981410  0.60147502  0.74095052  1
  Ru4+  Ru167  1  0.24983126  0.24039005  0.24642842  1
  Ru4+  Ru168  1  0.24937754  0.27069287  0.72508015  1
  Ru4+  Ru169  1  0.74987049  0.59323276  0.49713712  1
  Ru4+  Ru170  1  0.75119209  0.41804042  0.24417513  1
  Ru4+  Ru171  1  0.74930840  0.68730602  -0.00007630  1
  Ru4+  Ru172  1  0.74975042  0.73703368  0.74808309  1
  Ru4+  Ru173  1  0.25025579  0.08509419  0.01752319  1
  Ru4+  Ru174  1  0.74979931  0.26315161  0.26530461  1
  Ru4+  Ru175  1  0.25057689  0.75027081  0.74997527  1
  Ru4+  Ru176  1  0.24948693  0.90475901  0.00925261  1
  Ru4+  Ru177  1  0.25030109  0.43378036  0.74690206  1
  Ru4+  Ru178  1  0.75028342  0.10193811  -0.00752763  1
  Ru4+  Ru179  1  0.75032300  0.24664530  -0.01973261  1
  O2-  O180  1  0.16638112  0.07994700  0.00142292  1
  O2-  O181  1  0.16877268  0.08270844  0.24965220  1
  O2-  O182  1  0.16333411  0.08010902  0.50417964  1
  O2-  O183  1  0.16199546  0.07386328  0.74622709  1
  O2-  O184  1  0.16628746  0.41554045  0.00066591  1
  O2-  O185  1  0.16884115  0.41253986  0.25171417  1
  O2-  O186  1  0.16765144  0.41467847  0.49539228  1
  O2-  O187  1  0.16367383  0.41542757  0.74890138  1
  O2-  O188  1  0.16681221  0.74850542  -0.00027901  1
  O2-  O189  1  0.16141085  0.74813138  0.24975710  1
  O2-  O190  1  0.16588279  0.74911782  0.49971311  1
  O2-  O191  1  0.16679411  0.74753982  0.75395911  1
  O2-  O192  1  0.67059829  0.08298241  -0.00243547  1
  O2-  O193  1  0.66639045  0.08000894  0.25162541  1
  O2-  O194  1  0.66783177  0.08052210  0.49894897  1
  O2-  O195  1  0.66803731  0.07843279  0.75040752  1
  O2-  O196  1  0.66257204  0.41497874  0.00108406  1
  O2-  O197  1  0.66600450  0.41183853  0.24844094  1
  O2-  O198  1  0.66478836  0.41604203  0.50169579  1
  O2-  O199  1  0.66041042  0.41275333  0.74795755  1
  O2-  O200  1  0.66560925  0.74476376  -0.00006759  1
  O2-  O201  1  0.66242786  0.74920323  0.24678645  1
  O2-  O202  1  0.66674558  0.74830252  0.49740567  1
  O2-  O203  1  0.66603557  0.74771583  0.75285027  1
  O2-  O204  1  0.33454465  0.25337656  0.00525066  1
  O2-  O205  1  0.33465021  0.25469126  0.24922853  1
  O2-  O206  1  0.33832004  0.25132148  0.49577146  1
  O2-  O207  1  0.33203953  0.25176726  0.74885937  1
  O2-  O208  1  0.33099698  0.58167252  -0.00056662  1
  O2-  O209  1  0.33226041  0.58173662  0.25110220  1
  O2-  O210  1  0.32910136  0.58270420  0.49954072  1
  O2-  O211  1  0.33209632  0.58388893  0.74998435  1
  O2-  O212  1  0.33205539  0.91784174  -0.00131418  1
  O2-  O213  1  0.33166565  0.91768182  0.24810590  1
  O2-  O214  1  0.33190118  0.91961517  0.50789805  1
  O2-  O215  1  0.33405168  0.91905767  0.74867279  1
  O2-  O216  1  0.83316422  0.25083238  -0.00296930  1
  O2-  O217  1  0.83399063  0.25431040  0.25177629  1
  O2-  O218  1  0.83351612  0.25051588  0.49968262  1
  O2-  O219  1  0.83359114  0.25259652  0.75090918  1
  O2-  O220  1  0.83432499  0.58682942  0.00160286  1
  O2-  O221  1  0.84114453  0.58946492  0.24781466  1
  O2-  O222  1  0.83354283  0.58638145  0.49700698  1
  O2-  O223  1  0.83226861  0.58701970  0.75145429  1
  O2-  O224  1  0.83174999  0.92260100  -0.00077008  1
  O2-  O225  1  0.83101180  0.91798653  0.24926936  1
  O2-  O226  1  0.83148331  0.91950517  0.50314083  1
  O2-  O227  1  0.83890328  0.92263948  0.74630001  1
  O2-  O228  1  0.16658882  0.25207979  0.00339376  1
  O2-  O229  1  0.16458994  0.25376986  0.25196024  1
  O2-  O230  1  0.16319901  0.25480506  0.49755628  1
  O2-  O231  1  0.16527111  0.25355601  0.74605667  1
  O2-  O232  1  0.16439911  0.58496008  -0.00247941  1
  O2-  O233  1  0.16182728  0.58278142  0.25036241  1
  O2-  O234  1  0.17388214  0.58590496  0.49868550  1
  O2-  O235  1  0.16963403  0.58544160  0.75368311  1
  O2-  O236  1  0.16573934  0.91904593  0.00104278  1
  O2-  O237  1  0.16506680  0.92112238  0.24811788  1
  O2-  O238  1  0.16789543  0.91787345  0.50804252  1
  O2-  O239  1  0.16526012  0.91883962  0.74950301  1
  O2-  O240  1  0.66528935  0.24798158  0.00031188  1
  O2-  O241  1  0.66591197  0.25420691  0.24807421  1
  O2-  O242  1  0.66670435  0.25038720  0.49999220  1
  O2-  O243  1  0.66610086  0.25352087  0.75002011  1
  O2-  O244  1  0.67159842  0.58903416  0.00040063  1
  O2-  O245  1  0.66412945  0.59263771  0.24571503  1
  O2-  O246  1  0.67013431  0.58415493  0.49506108  1
  O2-  O247  1  0.66349656  0.58521532  0.75086181  1
  O2-  O248  1  0.66913166  0.92345348  -0.00308161  1
  O2-  O249  1  0.66913795  0.91651105  0.25121856  1
  O2-  O250  1  0.66725582  0.92051871  0.49958873  1
  O2-  O251  1  0.66122392  0.92628224  0.74866963  1
  O2-  O252  1  0.33474233  0.08040249  -0.00009554  1
  O2-  O253  1  0.33260912  0.08395827  0.24970892  1
  O2-  O254  1  0.33356473  0.08183613  0.50679724  1
  O2-  O255  1  0.33989317  0.07101199  0.74755323  1
  O2-  O256  1  0.33672844  0.41551877  0.00386700  1
  O2-  O257  1  0.33386805  0.41327877  0.25107435  1
  O2-  O258  1  0.33130754  0.41702297  0.49438595  1
  O2-  O259  1  0.33558678  0.41521581  0.74908271  1
  O2-  O260  1  0.33515545  0.75063924  0.00015871  1
  O2-  O261  1  0.33580038  0.75065259  0.24921542  1
  O2-  O262  1  0.33542811  0.74757516  0.50315441  1
  O2-  O263  1  0.33273062  0.74758548  0.75247474  1
  O2-  O264  1  0.83271545  0.08509507  0.00276775  1
  O2-  O265  1  0.83587721  0.07874935  0.24873211  1
  O2-  O266  1  0.83053649  0.07982544  0.50045899  1
  O2-  O267  1  0.83069764  0.08072480  0.74741587  1
  O2-  O268  1  0.83484934  0.41526928  0.00021006  1
  O2-  O269  1  0.83476363  0.41276758  0.25121014  1
  O2-  O270  1  0.83380646  0.41042179  0.49836622  1
  O2-  O271  1  0.84479566  0.40868819  0.75004959  1
  O2-  O272  1  0.83420850  0.74504877  -0.00080323  1
  O2-  O273  1  0.83667356  0.74829355  0.24849520  1
  O2-  O274  1  0.83661973  0.74881221  0.49697386  1
  O2-  O275  1  0.83257548  0.75050464  0.75224652  1
  O2-  O276  1  0.05111765  0.56689247  0.79708336  1
  O2-  O277  1  0.54119762  0.90541608  0.48254191  1
  O2-  O278  1  0.95356538  0.10024022  0.23627332  1
  O2-  O279  1  0.04815127  0.89478270  0.53234509  1
  O2-  O280  1  0.45467905  0.24485702  0.75660550  1
  O2-  O281  1  0.96033265  0.88699573  0.70984140  1
  O2-  O282  1  0.95567508  0.76933377  0.99445050  1
  O2-  O283  1  0.53965804  0.76143821  0.48066995  1
  O2-  O284  1  0.05045241  0.43160157  0.52263942  1
  O2-  O285  1  0.97551170  0.88764532  0.74067003  1
  O2-  O286  1  0.94836363  0.43029574  0.50581592  1
  O2-  O287  1  0.95084283  0.57085357  0.50932998  1
  O2-  O288  1  0.53675693  0.11598515  0.96993219  1
  O2-  O289  1  0.54904342  0.43054703  0.25902393  1
  O2-  O290  1  0.55346072  0.41895477  0.51487817  1
  O2-  O291  1  0.94509290  0.08630437  0.76447460  1
  O2-  O292  1  0.55272123  0.76073098  0.51414454  1
  O2-  O293  1  0.45266683  0.42446951  0.02258917  1
  O2-  O294  1  0.04366773  0.09910245  0.48704574  1
  O2-  O295  1  0.45464060  0.44649888  0.46190210  1
  O2-  O296  1  0.45217605  0.43208139  0.24231561  1
  O2-  O297  1  0.55332031  0.90424275  0.51683235  1
  O2-  O298  1  0.54557014  0.23905089  0.49218146  1
  O2-  O299  1  0.53002894  0.21165214  0.20724651  1
  O2-  O300  1  0.95635062  0.09899865  0.74764537  1
  O2-  O301  1  0.04689187  0.43341359  0.48391573  1
  O2-  O302  1  0.54741146  0.56714857  0.76417988  1
  O2-  O303  1  0.44985497  0.09153177  0.76127461  1
  O2-  O304  1  0.04631027  0.89424924  0.99236065  1
  O2-  O305  1  0.95736652  0.88401458  0.54581630  1
  O2-  O306  1  0.46097336  0.88630078  0.96142710  1
  O2-  O307  1  0.04588948  0.09303610  0.97889955  1
  O2-  O308  1  0.52357541  0.54696199  0.49823063  1
  O2-  O309  1  0.54283509  0.57430659  0.24062273  1
  O2-  O310  1  0.05273172  0.23447023  0.76895070  1
  O2-  O311  1  0.95288597  0.23425714  0.48040660  1
  O2-  O312  1  0.94950964  0.23619318  0.51924802  1
  O2-  O313  1  0.55068720  0.09656214  0.76457413  1
  O2-  O314  1  0.04216584  0.56188942  0.01171391  1
  O2-  O315  1  0.55402573  0.24979892  0.73059177  1
  O2-  O316  1  0.46637004  0.55491619  0.99301417  1
  O2-  O317  1  0.04744264  0.76017485  0.47863443  1
  O2-  O318  1  0.95496958  0.23633890  0.00873029  1
  O2-  O319  1  0.95690140  0.54163138  0.78541196  1
  O2-  O320  1  0.95448018  0.23702566  0.74636933  1
  O2-  O321  1  0.46295429  0.11332618  0.53683734  1
  O2-  O322  1  0.94687690  0.24605330  0.77001752  1
  O2-  O323  1  0.04794326  0.10728170  0.01490317  1
  O2-  O324  1  0.56226150  0.92617413  0.28142899  1
  O2-  O325  1  0.44050646  0.07494367  0.27694437  1
  O2-  O326  1  0.43059385  0.58125095  0.56300069  1
  O2-  O327  1  0.93337723  0.06821635  0.70752669  1
  O2-  O328  1  0.06100373  0.40442573  0.21753320  1
  O2-  O329  1  0.06542600  0.07546408  0.22689731  1
  O2-  O330  1  0.93816134  0.74198520  0.72226133  1
  O2-  O331  1  0.07189662  0.93363070  0.45768072  1
  O2-  O332  1  0.56151592  0.91833165  0.03532263  1
  O2-  O333  1  0.43859870  0.74673560  0.21750381  1
  O2-  O334  1  0.06359249  0.07193288  0.77610029  1
  O2-  O335  1  0.93711783  0.40130449  0.96937301  1
  O2-  O336  1  0.56277857  0.92229642  0.77446743  1
  O2-  O337  1  0.56653213  0.59048840  0.02827011  1
  O2-  O338  1  0.43863928  0.59814652  0.41859939  1
  O2-  O339  1  0.43093355  0.37932095  0.56519605  1
  O2-  O340  1  0.56586514  0.41365497  0.80995189  1
  O2-  O341  1  0.55903877  0.41424837  0.29031268  1
  O2-  O342  1  0.92451806  0.93592870  0.44800538  1
  O2-  O343  1  0.92830905  0.60401987  0.68425812  1
  O2-  O344  1  0.06385389  0.59194560  0.51816625  1
  O2-  O345  1  0.42937666  0.06016901  0.43274751  1
  O2-  O346  1  0.43506068  0.25044747  0.78037351  1
  O2-  O347  1  0.43783435  0.58941944  0.21436067  1
  O2-  O348  1  0.57322070  0.05915371  0.05965254  1
  O2-  O349  1  0.92854805  0.26883723  0.71763455  1
  O2-  O350  1  0.44170935  0.40484696  0.22260735  1
  O2-  O351  1  0.43735644  0.92081114  0.47248098  1
  O2-  O352  1  0.57082599  0.27180075  0.31230116  1
  O2-  O353  1  0.93797311  0.26309785  0.22010236  1
  O2-  O354  1  0.07957852  0.58720536  0.66399362  1
  O2-  O355  1  0.05812966  0.57841348  0.80248266  1
  O2-  O356  1  0.43958945  0.92357748  0.27713053  1
  O2-  O357  1  0.92570314  0.95263999  0.82162665  1
  O2-  O358  1  0.56175084  0.07042798  0.22317184  1
  O2-  O359  1  0.93984756  0.59219456  0.53581673  1
  O2-  O360  1  0.42339193  0.61006398  0.97376622  1
  O2-  O361  1  0.06142676  0.26491191  0.78480677  1
  O2-  O362  1  0.93746661  0.92999389  0.03040823  1
  O2-  O363  1  0.56203773  0.41153374  0.67756534  1
  O2-  O364  1  0.93730003  0.92746789  0.21849149  1
  O2-  O365  1  0.05976936  0.40180708  0.03153896  1
  O2-  O366  1  0.43208205  0.95290025  0.06847252  1
  O2-  O367  1  0.93868152  0.40938727  0.21409400  1
  O2-  O368  1  0.43440304  0.58946838  0.77665045  1
  O2-  O369  1  0.55857350  0.25643219  0.72104573  1
  O2-  O370  1  0.56458080  0.58838116  0.22860482  1
  O2-  O371  1  0.58508943  0.61870268  0.52836280  1
  O2-  O372  1  0.74960474  0.33299248  0.16382112  1
  O2-  O373  1  0.24885206  0.66824200  0.35188685  1
  O2-  O374  1  0.24835523  -0.00405188  0.40122141  1
  O2-  O375  1  0.24915536  0.34136935  0.81904169  1
  O2-  O376  1  0.25050489  0.67033940  0.16794335  1
  O2-  O377  1  0.25027112  -0.00211402  0.94014970  1
  O2-  O378  1  0.75059921  0.32596649  0.67273376  1
  O2-  O379  1  0.24987070  0.67378596  0.65857793  1
  O2-  O380  1  0.75027865  0.32406998  0.57837020  1
  O2-  O381  1  0.24967331  0.33419833  0.94799520  1
  O2-  O382  1  0.75037879  0.35440295  0.33791151  1
  O2-  O383  1  0.25033883  0.66699504  0.07703725  1
  O2-  O384  1  0.75098395  0.32583590  0.85548266  1
  O2-  O385  1  0.24866707  0.33648067  0.61510148  1
  O2-  O386  1  0.75007475  0.00870926  0.59976852  1
  O2-  O387  1  0.75030957  0.31651636  0.44525466  1
  O2-  O388  1  0.24971876  -0.00530620  0.10048079  1
  O2-  O389  1  0.74978179  -0.00714049  0.37812055  1
  O2-  O390  1  0.74985803  0.68037275  0.41832663  1
  O2-  O391  1  0.75026957  0.66437708  0.60135810  1
  O2-  O392  1  0.75053837  -0.00760856  0.13690979  1
  O2-  O393  1  0.74965107  0.33559166  0.04154254  1
  O2-  O394  1  0.25006074  -0.00239932  0.81128806  1
  O2-  O395  1  0.74969922  0.67793591  0.32635771  1
  O2-  O396  1  0.74997569  0.17077436  0.36672759  1
  O2-  O397  1  0.24995622  0.49531430  0.83621836  1
  O2-  O398  1  0.75011204  0.84057293  0.35978269  1
  O2-  O399  1  0.75017073  0.49760569  0.41234655  1
  O2-  O400  1  0.24996122  0.83288029  0.66253946  1
  O2-  O401  1  0.24978509  0.83406578  0.39061674  1
  O2-  O402  1  0.75043417  0.50338278  0.56417963  1
  O2-  O403  1  0.24989534  0.49763517  0.65176689  1
  O2-  O404  1  0.25004176  0.16834919  0.94095472  1
  O2-  O405  1  0.24994747  0.17562042  0.15160314  1
  O2-  O406  1  0.24981520  0.83282620  0.11098978  1
  O2-  O407  1  0.75025400  0.48382534  0.90503082  1
  O2-  O408  1  0.25007672  0.16267312  0.32945149  1
  O2-  O409  1  0.74944114  0.52298774  0.65653300  1
  O2-  O410  1  0.25002827  0.18720235  0.85357706  1
  O2-  O411  1  0.24993603  0.83090850  0.90494961  1
  O2-  O412  1  0.24974700  0.17416107  0.41196977  1
  O2-  O413  1  0.74978502  0.81772803  0.87596448  1
  O2-  O414  1  0.75011981  0.15764373  0.87493923  1
  O2-  O415  1  0.74990283  0.49879841  0.16219436  1
  O2-  O416  1  0.74985250  0.81423500  0.63986273  1
  O2-  O417  1  0.24962664  0.16297396  0.55317443  1
  O2-  O418  1  0.24973096  0.18716561  0.63269969  1
  O2-  O419  1  0.74893584  0.54122368  0.83911797  1
  O2-  O420  1  0.04567809  0.67297909  0.12845419  1
  O2-  O421  1  0.02259200  -0.00920767  0.87861711  1
  O2-  O422  1  0.03103019  0.00533488  0.35929433  1
  O2-  O423  1  0.97103272  0.01117324  0.36900008  1
  O2-  O424  1  0.45528771  0.68789536  0.64302268  1
  O2-  O425  1  0.45387080  0.33988395  0.88817661  1
  O2-  O426  1  0.46189838  0.68925989  0.86993137  1
  O2-  O427  1  0.95562443  0.66304681  0.87517144  1
  O2-  O428  1  0.54523228  0.31441520  0.89926629  1
  O2-  O429  1  0.01881334  0.68278619  0.62362069  1
  O2-  O430  1  0.52313336  0.68178710  0.12230786  1
  O2-  O431  1  0.54674132  0.66979689  0.87791584  1
  O2-  O432  1  0.46903570  0.32602632  0.36674438  1
  O2-  O433  1  0.54453785  0.68048964  0.64630668  1
  O2-  O434  1  0.02945146  0.00627598  0.62783969  1
  O2-  O435  1  0.52335628  -0.00102706  0.88031665  1
  O2-  O436  1  0.02423687  -0.01023362  0.12236853  1
  O2-  O437  1  0.97604108  0.34505746  0.62018389  1
  O2-  O438  1  0.52705792  -0.00049538  0.62569979  1
  O2-  O439  1  0.97428566  0.66621129  0.37335395  1
  O2-  O440  1  0.04444180  0.69285532  0.89798839  1
  O2-  O441  1  0.02933546  0.33012587  0.37199723  1
  O2-  O442  1  0.95379068  0.66316654  0.12548357  1
  O2-  O443  1  0.52913372  0.33694190  0.11962948  1
