# generated using pymatgen
data_La7(Ru4O11)2
_symmetry_space_group_name_H-M   'P 1'
_cell_length_a   23.98969072
_cell_length_b   16.83044302
_cell_length_c   15.42633911
_cell_angle_alpha   90.00141139
_cell_angle_beta   89.99971088
_cell_angle_gamma   90.00013296
_symmetry_Int_Tables_number   1
_chemical_formula_structural   La7(Ru4O11)2
_chemical_formula_sum   'La84 Ru96 O264'
_cell_volume   6228.49429066
_cell_formula_units_Z   12
loop_
 _symmetry_equiv_pos_site_id
 _symmetry_equiv_pos_as_xyz
  1  'x, y, z'
loop_
 _atom_type_symbol
 _atom_type_oxidation_number
  La3+  3.0
  Ru4+  4.0
  O2-  -2.0
loop_
 _atom_site_type_symbol
 _atom_site_label
 _atom_site_symmetry_multiplicity
 _atom_site_fract_x
 _atom_site_fract_y
 _atom_site_fract_z
 _atom_site_occupancy
  La3+  La0  1  0.13664341  -0.00212706  0.12562967  1
  La3+  La1  1  0.13594887  -0.00354817  0.37631436  1
  La3+  La2  1  0.13725799  -0.00206304  0.62314814  1
  La3+  La3  1  0.13898160  -0.00159255  0.87550317  1
  La3+  La4  1  0.13962251  0.33511464  0.12354310  1
  La3+  La5  1  0.14007257  0.33490891  0.37676611  1
  La3+  La6  1  0.14085810  0.33275043  0.62545012  1
  La3+  La7  1  0.14124866  0.33450093  0.87346269  1
  La3+  La8  1  0.13693395  0.66496379  0.12567732  1
  La3+  La9  1  0.14180195  0.66565920  0.37575417  1
  La3+  La10  1  0.13898087  0.66491945  0.62392719  1
  La3+  La11  1  0.13940615  0.66575179  0.87408813  1
  La3+  La12  1  0.63908690  0.00156242  0.12765359  1
  La3+  La13  1  0.63913070  -0.00063878  0.37237212  1
  La3+  La14  1  0.63716690  0.00127286  0.62501308  1
  La3+  La15  1  0.63802199  0.00186956  0.87548945  1
  La3+  La16  1  0.64062816  0.33221087  0.12668700  1
  La3+  La17  1  0.63957005  0.33343147  0.37434712  1
  La3+  La18  1  0.63886753  0.33373363  0.62451898  1
  La3+  La19  1  0.63822596  0.33252338  0.87384602  1
  La3+  La20  1  0.63656848  0.66614060  0.12625875  1
  La3+  La21  1  0.63655239  0.66594390  0.37496706  1
  La3+  La22  1  0.63602979  0.66645802  0.62411869  1
  La3+  La23  1  0.63646954  0.66602624  0.87498861  1
  La3+  La24  1  0.36283846  -0.00020518  0.12413523  1
  La3+  La25  1  0.36116779  -0.00054755  0.37409194  1
  La3+  La26  1  0.36011518  -0.00040887  0.62540603  1
  La3+  La27  1  0.36108638  -0.00086591  0.87488119  1
  La3+  La28  1  0.36322740  0.33154228  0.12191390  1
  La3+  La29  1  0.35958884  0.33256520  0.37561089  1
  La3+  La30  1  0.35975067  0.33326806  0.62568581  1
  La3+  La31  1  0.36094280  0.33145139  0.87702240  1
  La3+  La32  1  0.35882558  0.66515904  0.12521117  1
  La3+  La33  1  0.35894226  0.66591210  0.37526191  1
  La3+  La34  1  0.36069580  0.66500674  0.62423417  1
  La3+  La35  1  0.36046171  0.66504365  0.87557654  1
  La3+  La36  1  0.86305919  0.00078288  0.12714226  1
  La3+  La37  1  0.86276355  -0.00120813  0.37322611  1
  La3+  La38  1  0.86384283  0.00055135  0.62476825  1
  La3+  La39  1  0.86308538  0.00078150  0.87615236  1
  La3+  La40  1  0.86110040  0.33127041  0.12710805  1
  La3+  La41  1  0.85962909  0.33310955  0.37297474  1
  La3+  La42  1  0.85998148  0.33362914  0.62485580  1
  La3+  La43  1  0.86231378  0.33179177  0.87453767  1
  La3+  La44  1  0.86426600  0.66719903  0.12600469  1
  La3+  La45  1  0.86343503  0.66621483  0.37306456  1
  La3+  La46  1  0.86553693  0.66701716  0.62581613  1
  La3+  La47  1  0.86438688  0.66714867  0.87367013  1
  La3+  La48  1  0.50083272  0.16791088  0.61682318  1
  La3+  La49  1  0.49719787  0.16843714  0.11749638  1
  La3+  La50  1  -0.00030588  0.50152203  0.61709524  1
  La3+  La51  1  -0.00363295  0.83164611  0.61459739  1
  La3+  La52  1  0.50292108  0.83225354  0.63307182  1
  La3+  La53  1  -0.00183706  0.16188365  0.36579473  1
  La3+  La54  1  0.50170154  0.50390085  0.86699605  1
  La3+  La55  1  0.50005903  0.83156325  0.11547362  1
  La3+  La56  1  -0.00054170  0.50305592  0.38227965  1
  La3+  La57  1  0.49740055  0.83525502  0.13713580  1
  La3+  La58  1  0.50151155  0.49367362  0.88638748  1
  La3+  La59  1  0.49812003  0.83339667  0.86820620  1
  La3+  La60  1  0.50134879  0.83232916  0.61636565  1
  La3+  La61  1  0.00073380  0.83768880  0.36670482  1
  La3+  La62  1  0.49767710  0.16984915  0.86985810  1
  La3+  La63  1  0.49958053  0.16561420  0.88843852  1
  La3+  La64  1  0.00412859  0.83331584  0.63340096  1
  La3+  La65  1  0.50045850  0.83490787  0.88400011  1
  La3+  La66  1  -0.00020032  0.83431019  0.38393837  1
  La3+  La67  1  -0.00003981  0.49896881  0.11660536  1
  La3+  La68  1  0.50248687  0.50174317  0.61890499  1
  La3+  La69  1  0.50021048  0.50040708  0.11656429  1
  La3+  La70  1  0.50001352  0.16786047  0.38406894  1
  La3+  La71  1  -0.00039856  0.17050774  0.62929105  1
  La3+  La72  1  0.25037560  0.16732988  0.28302299  1
  La3+  La73  1  0.74996077  0.44941722  0.47853723  1
  La3+  La74  1  0.74993588  0.21080639  0.50601417  1
  La3+  La75  1  0.24991585  0.16757635  0.50556658  1
  La3+  La76  1  0.24949475  0.19535130  -0.00330056  1
  La3+  La77  1  0.74962030  0.48594863  -0.02209688  1
  La3+  La78  1  0.75003538  0.83894849  0.76606563  1
  La3+  La79  1  0.24997333  0.80216447  0.51918049  1
  La3+  La80  1  0.74994468  0.83433917  0.48999619  1
  La3+  La81  1  0.75031252  0.44702277  0.76320652  1
  La3+  La82  1  0.24967251  0.86098868  -0.00230985  1
  La3+  La83  1  0.74899182  0.84494441  -0.00589801  1
  Ru4+  Ru84  1  0.00009253  -0.00207896  0.00193081  1
  Ru4+  Ru85  1  -0.00279048  0.00396293  0.24858748  1
  Ru4+  Ru86  1  0.00379132  0.00339275  0.50106801  1
  Ru4+  Ru87  1  -0.00005436  -0.00120637  0.74894744  1
  Ru4+  Ru88  1  -0.00122791  0.33043095  -0.00144165  1
  Ru4+  Ru89  1  -0.00409260  0.33957483  0.24778833  1
  Ru4+  Ru90  1  0.00017149  0.33380591  0.49982227  1
  Ru4+  Ru91  1  0.00048411  0.33332185  0.75410839  1
  Ru4+  Ru92  1  0.00164093  0.67107661  0.00048261  1
  Ru4+  Ru93  1  0.00079170  0.66455201  0.24660772  1
  Ru4+  Ru94  1  -0.00067024  0.66564318  0.49992046  1
  Ru4+  Ru95  1  0.00275101  0.66228022  0.75403447  1
  Ru4+  Ru96  1  0.50264925  -0.00139936  -0.00155665  1
  Ru4+  Ru97  1  0.49921360  -0.00020943  0.25098363  1
  Ru4+  Ru98  1  0.50212392  0.00129037  0.49727873  1
  Ru4+  Ru99  1  0.49882640  0.00415855  0.74901129  1
  Ru4+  Ru100  1  0.49910345  0.33206231  -0.00019599  1
  Ru4+  Ru101  1  0.50141243  0.34017619  0.25140768  1
  Ru4+  Ru102  1  0.50187502  0.33336640  0.49774888  1
  Ru4+  Ru103  1  0.49686128  0.32760007  0.74737074  1
  Ru4+  Ru104  1  0.50382729  0.66706286  -0.00016611  1
  Ru4+  Ru105  1  0.50052448  0.66700858  0.25318164  1
  Ru4+  Ru106  1  0.49977388  0.66547628  0.49821972  1
  Ru4+  Ru107  1  0.50027743  0.66538565  0.74752152  1
  Ru4+  Ru108  1  0.10860284  0.16779045  0.00127410  1
  Ru4+  Ru109  1  0.11406565  0.16212482  0.24904364  1
  Ru4+  Ru110  1  0.11184100  0.16706666  0.50090436  1
  Ru4+  Ru111  1  0.11487389  0.17037222  0.74996082  1
  Ru4+  Ru112  1  0.11472283  0.49901347  -0.00112557  1
  Ru4+  Ru113  1  0.11248404  0.50269602  0.24929456  1
  Ru4+  Ru114  1  0.11482273  0.50068728  0.50082038  1
  Ru4+  Ru115  1  0.11354842  0.49888940  0.75036690  1
  Ru4+  Ru116  1  0.10775105  0.83373353  -0.00051100  1
  Ru4+  Ru117  1  0.11555240  0.83176975  0.25096143  1
  Ru4+  Ru118  1  0.11113516  0.83300403  0.49950643  1
  Ru4+  Ru119  1  0.11338282  0.83556994  0.75006509  1
  Ru4+  Ru120  1  0.61387639  0.16690342  0.00003242  1
  Ru4+  Ru121  1  0.61604354  0.16640116  0.25075564  1
  Ru4+  Ru122  1  0.61137941  0.16801999  0.49976904  1
  Ru4+  Ru123  1  0.61220197  0.16837612  0.74962627  1
  Ru4+  Ru124  1  0.61117982  0.49949886  0.00022193  1
  Ru4+  Ru125  1  0.61276189  0.49893035  0.24964444  1
  Ru4+  Ru126  1  0.61101468  0.50028660  0.49944190  1
  Ru4+  Ru127  1  0.61456330  0.50340409  0.74902513  1
  Ru4+  Ru128  1  0.61148560  0.83208749  -0.00025111  1
  Ru4+  Ru129  1  0.61351422  0.83556816  0.25073588  1
  Ru4+  Ru130  1  0.61057757  0.83335453  0.50130168  1
  Ru4+  Ru131  1  0.61299644  0.83319670  0.74933869  1
  Ru4+  Ru132  1  0.38613043  0.17181506  0.00049949  1
  Ru4+  Ru133  1  0.38664023  0.16268269  0.24906814  1
  Ru4+  Ru134  1  0.38724696  0.16686979  0.50038309  1
  Ru4+  Ru135  1  0.38666121  0.16891170  0.75051680  1
  Ru4+  Ru136  1  0.38513258  0.49880032  0.00088480  1
  Ru4+  Ru137  1  0.38480371  0.49841904  0.25001066  1
  Ru4+  Ru138  1  0.38494109  0.50082103  0.49922847  1
  Ru4+  Ru139  1  0.38408132  0.49944404  0.74893653  1
  Ru4+  Ru140  1  0.38652736  0.83545273  -0.00079621  1
  Ru4+  Ru141  1  0.38658770  0.83484222  0.24978242  1
  Ru4+  Ru142  1  0.38728739  0.83125894  0.49954220  1
  Ru4+  Ru143  1  0.38536072  0.83599120  0.75042194  1
  Ru4+  Ru144  1  0.88867687  0.17048971  0.00045210  1
  Ru4+  Ru145  1  0.88515131  0.16722584  0.25006078  1
  Ru4+  Ru146  1  0.88787124  0.16698620  0.50048321  1
  Ru4+  Ru147  1  0.88816237  0.16658989  0.74997573  1
  Ru4+  Ru148  1  0.88958294  0.49960391  0.00012017  1
  Ru4+  Ru149  1  0.88709428  0.49929856  0.25074809  1
  Ru4+  Ru150  1  0.88919166  0.49957722  0.50057430  1
  Ru4+  Ru151  1  0.88882281  0.49884503  0.74978101  1
  Ru4+  Ru152  1  0.89035660  0.83462894  -0.00018847  1
  Ru4+  Ru153  1  0.88669200  0.83432182  0.25054474  1
  Ru4+  Ru154  1  0.88607992  0.82898181  0.49918132  1
  Ru4+  Ru155  1  0.88599259  0.83715994  0.75100011  1
  Ru4+  Ru156  1  0.74998681  0.96377609  0.74220598  1
  Ru4+  Ru157  1  0.75029041  0.96425005  0.01503243  1
  Ru4+  Ru158  1  0.75013510  0.59201095  0.74682664  1
  Ru4+  Ru159  1  0.25034908  0.93726521  0.49354949  1
  Ru4+  Ru160  1  0.75010204  0.60619962  -0.01013913  1
  Ru4+  Ru161  1  0.75017039  0.75832947  0.25730029  1
  Ru4+  Ru162  1  0.24996574  0.72531029  0.00253211  1
  Ru4+  Ru163  1  0.24995785  0.75870273  0.75221194  1
  Ru4+  Ru164  1  0.74997167  0.24593716  0.75082749  1
  Ru4+  Ru165  1  0.75005447  0.09165192  0.00424988  1
  Ru4+  Ru166  1  0.24995696  0.04411454  0.24622114  1
  Ru4+  Ru167  1  0.75013236  0.58792185  0.50561020  1
  Ru4+  Ru168  1  0.24993303  0.06040054  0.00361150  1
  Ru4+  Ru169  1  0.74976810  0.71402502  0.52356038  1
  Ru4+  Ru170  1  0.75022357  0.57398615  0.25559494  1
  Ru4+  Ru171  1  0.25024219  0.29038717  0.24601020  1
  Ru4+  Ru172  1  0.75001852  0.95558960  0.51178529  1
  Ru4+  Ru173  1  0.25011591  0.75149695  0.25640207  1
  Ru4+  Ru174  1  0.75043662  0.72526617  -0.01457944  1
  Ru4+  Ru175  1  0.74984316  0.09088064  0.74792756  1
  Ru4+  Ru176  1  0.75007615  0.36501147  -0.00250389  1
  Ru4+  Ru177  1  0.24987427  0.08911934  0.74676577  1
  Ru4+  Ru178  1  0.74994851  0.71741892  0.73086615  1
  Ru4+  Ru179  1  0.74982686  0.07913220  0.50385468  1
  O2-  O180  1  0.16757011  0.08046620  0.00025887  1
  O2-  O181  1  0.16695793  0.07894238  0.24995814  1
  O2-  O182  1  0.16754799  0.08051351  0.49875203  1
  O2-  O183  1  0.16856054  0.08029337  0.75065398  1
  O2-  O184  1  0.16619855  0.41491157  0.00017577  1
  O2-  O185  1  0.16575968  0.41469608  0.25041095  1
  O2-  O186  1  0.16735905  0.41523092  0.49880099  1
  O2-  O187  1  0.16597081  0.41595491  0.75009915  1
  O2-  O188  1  0.16677151  0.74734816  0.00056755  1
  O2-  O189  1  0.16836895  0.74835963  0.25006888  1
  O2-  O190  1  0.16485770  0.74647880  0.50111529  1
  O2-  O191  1  0.16753975  0.74703584  0.74936024  1
  O2-  O192  1  0.66884592  0.08124182  0.00024592  1
  O2-  O193  1  0.66697990  0.08173189  0.24952672  1
  O2-  O194  1  0.66599085  0.07994507  0.50046549  1
  O2-  O195  1  0.66780059  0.07987304  0.74941927  1
  O2-  O196  1  0.66576898  0.41222190  -0.00027856  1
  O2-  O197  1  0.66612718  0.41568299  0.24934760  1
  O2-  O198  1  0.66381103  0.41300286  0.50184194  1
  O2-  O199  1  0.66435563  0.41213136  0.74907162  1
  O2-  O200  1  0.66522808  0.74513923  0.00008351  1
  O2-  O201  1  0.66673625  0.74702594  0.24950936  1
  O2-  O202  1  0.66636614  0.74520346  0.49976708  1
  O2-  O203  1  0.66551439  0.74611381  0.74972749  1
  O2-  O204  1  0.33200552  0.25340020  -0.00116379  1
  O2-  O205  1  0.33303864  0.25359988  0.24968373  1
  O2-  O206  1  0.33181887  0.25136716  0.50000473  1
  O2-  O207  1  0.33290154  0.25113056  0.75091074  1
  O2-  O208  1  0.33298079  0.58544669  -0.00032457  1
  O2-  O209  1  0.33217961  0.58422942  0.25110810  1
  O2-  O210  1  0.33388137  0.58484055  0.50181180  1
  O2-  O211  1  0.33291504  0.58667253  0.74905303  1
  O2-  O212  1  0.33248419  0.92010871  0.00147226  1
  O2-  O213  1  0.33384801  0.91833769  0.24942357  1
  O2-  O214  1  0.33236762  0.92067821  0.50057361  1
  O2-  O215  1  0.33284717  0.91939748  0.74973927  1
  O2-  O216  1  0.83327355  0.25180377  -0.00077600  1
  O2-  O217  1  0.83304191  0.25166776  0.24937216  1
  O2-  O218  1  0.83472021  0.25374676  0.49887573  1
  O2-  O219  1  0.83296605  0.25214918  0.75006454  1
  O2-  O220  1  0.83439416  0.58811938  -0.00051588  1
  O2-  O221  1  0.83215457  0.58622591  0.24986822  1
  O2-  O222  1  0.83240285  0.58701198  0.50035979  1
  O2-  O223  1  0.83348541  0.58740883  0.75016143  1
  O2-  O224  1  0.83370252  0.92099254  0.00049107  1
  O2-  O225  1  0.83408369  0.91924851  0.24927153  1
  O2-  O226  1  0.83393892  0.92135725  0.50081518  1
  O2-  O227  1  0.83401977  0.92132199  0.75034387  1
  O2-  O228  1  0.16655278  0.25355734  0.00000848  1
  O2-  O229  1  0.16639046  0.25421133  0.24959255  1
  O2-  O230  1  0.16913120  0.25194591  0.49862470  1
  O2-  O231  1  0.16654852  0.25022781  0.75099938  1
  O2-  O232  1  0.16750714  0.58475554  0.00122619  1
  O2-  O233  1  0.16840082  0.58598729  0.25010449  1
  O2-  O234  1  0.16682813  0.58430301  0.50095508  1
  O2-  O235  1  0.16666650  0.58591698  0.74893603  1
  O2-  O236  1  0.16652706  0.91953630  0.00079562  1
  O2-  O237  1  0.16663570  0.91794924  0.25041607  1
  O2-  O238  1  0.16787606  0.92101292  0.49981388  1
  O2-  O239  1  0.16654195  0.91945335  0.74977097  1
  O2-  O240  1  0.66678436  0.25243370  -0.00078592  1
  O2-  O241  1  0.66673469  0.25122557  0.24920216  1
  O2-  O242  1  0.66524186  0.25411320  0.50064584  1
  O2-  O243  1  0.66710753  0.25247554  0.74994539  1
  O2-  O244  1  0.66668838  0.58836873  0.00022894  1
  O2-  O245  1  0.66702833  0.58642949  0.25019156  1
  O2-  O246  1  0.66731957  0.58710849  0.50050344  1
  O2-  O247  1  0.66691349  0.58684540  0.74973229  1
  O2-  O248  1  0.66631628  0.92217699  0.00055886  1
  O2-  O249  1  0.66648401  0.91894828  0.24958331  1
  O2-  O250  1  0.66500095  0.92065749  0.50006020  1
  O2-  O251  1  0.66731906  0.92086071  0.75005197  1
  O2-  O252  1  0.33316129  0.08024732  0.00029696  1
  O2-  O253  1  0.33410450  0.08020630  0.24907407  1
  O2-  O254  1  0.33199849  0.08117967  0.49946577  1
  O2-  O255  1  0.33221977  0.08000477  0.75058212  1
  O2-  O256  1  0.33343822  0.41401949  -0.00027483  1
  O2-  O257  1  0.33251163  0.41658104  0.24994895  1
  O2-  O258  1  0.33235790  0.41568918  0.50033286  1
  O2-  O259  1  0.33380738  0.41535890  0.74981223  1
  O2-  O260  1  0.33245479  0.74695348  -0.00001717  1
  O2-  O261  1  0.33074965  0.74745789  0.25021935  1
  O2-  O262  1  0.33503437  0.74660801  0.50061307  1
  O2-  O263  1  0.33254044  0.74620668  0.74919880  1
  O2-  O264  1  0.83260346  0.08145874  0.00019866  1
  O2-  O265  1  0.83426049  0.08085928  0.24977228  1
  O2-  O266  1  0.83406675  0.08029433  0.50047674  1
  O2-  O267  1  0.83254862  0.08040519  0.74931532  1
  O2-  O268  1  0.83411603  0.41274049  -0.00072973  1
  O2-  O269  1  0.83409685  0.41497673  0.24934823  1
  O2-  O270  1  0.83612400  0.41282804  0.50066777  1
  O2-  O271  1  0.83617126  0.41271729  0.74940468  1
  O2-  O272  1  0.83440397  0.74586831  -0.00035312  1
  O2-  O273  1  0.83236859  0.74682057  0.24927090  1
  O2-  O274  1  0.83406172  0.74523352  0.50089975  1
  O2-  O275  1  0.83412725  0.74593720  0.75085392  1
  O2-  O276  1  0.45467216  0.09682422  0.51504850  1
  O2-  O277  1  0.45368097  0.57104843  0.75863955  1
  O2-  O278  1  0.03722422  0.55591592  0.99100077  1
  O2-  O279  1  0.04448347  0.43208398  0.76353024  1
  O2-  O280  1  0.45044570  0.90852172  0.54647170  1
  O2-  O281  1  0.05222794  0.57800697  0.23002040  1
  O2-  O282  1  0.95400270  0.23828961  0.73512959  1
  O2-  O283  1  0.53802452  0.10910522  0.21890223  1
  O2-  O284  1  0.45276725  0.09520163  0.01319015  1
  O2-  O285  1  0.45889434  0.43659995  0.52290592  1
  O2-  O286  1  0.54736375  0.43272504  0.72925293  1
  O2-  O287  1  0.54986118  0.56678770  0.23484519  1
  O2-  O288  1  0.95289255  0.76248867  0.73558269  1
  O2-  O289  1  0.95139905  0.23295018  0.01388376  1
  O2-  O290  1  0.45420785  0.23524687  0.51171273  1
  O2-  O291  1  0.44898483  0.76152417  0.95970339  1
  O2-  O292  1  0.54715178  0.76230112  0.76107342  1
  O2-  O293  1  0.54526479  0.10023386  0.73657288  1
  O2-  O294  1  0.54470344  0.90158356  0.26517481  1
  O2-  O295  1  0.04655043  0.76451615  0.01359512  1
  O2-  O296  1  0.45775121  0.22929897  0.00792602  1
  O2-  O297  1  0.45029552  0.24066990  0.98526518  1
  O2-  O298  1  0.95151331  0.09589282  0.73524900  1
  O2-  O299  1  0.45119681  0.42929092  0.76491902  1
  O2-  O300  1  0.95195536  0.90461431  0.73581919  1
  O2-  O301  1  0.45226264  0.23336612  0.26552558  1
  O2-  O302  1  0.95510162  0.09644671  0.51525024  1
  O2-  O303  1  0.04467356  0.42698049  0.98593975  1
  O2-  O304  1  0.45270635  0.76557052  0.73428944  1
  O2-  O305  1  0.45334470  0.56684729  0.98802979  1
  O2-  O306  1  0.54537906  0.76292221  0.23795187  1
  O2-  O307  1  0.04301509  0.89305726  0.50783259  1
  O2-  O308  1  0.95092650  0.56867723  0.01491807  1
  O2-  O309  1  0.04714187  0.89989261  0.76539004  1
  O2-  O310  1  0.47452360  0.45101776  0.27128848  1
  O2-  O311  1  0.96054759  0.22754169  0.46944929  1
  O2-  O312  1  0.54090652  0.89407378  0.77580211  1
  O2-  O313  1  0.95040162  0.90081181  0.48416286  1
  O2-  O314  1  0.46222028  0.55946405  0.24476350  1
  O2-  O315  1  0.05390773  0.24923257  0.28128311  1
  O2-  O316  1  0.04809535  0.90089484  0.23442582  1
  O2-  O317  1  0.04358426  0.10577007  0.72702940  1
  O2-  O318  1  0.45431371  0.57239795  0.51520300  1
  O2-  O319  1  0.04665959  0.90233142  0.98632876  1
  O2-  O320  1  0.04870161  0.23500917  0.01459110  1
  O2-  O321  1  0.54913923  0.23570321  0.01543781  1
  O2-  O322  1  0.54794340  0.42870237  0.76816427  1
  O2-  O323  1  0.04955176  0.90465952  0.48453633  1
  O2-  O324  1  0.43142745  0.39424952  0.45654421  1
  O2-  O325  1  0.93324667  0.92807253  0.97176801  1
  O2-  O326  1  0.43555490  0.07306293  0.02881935  1
  O2-  O327  1  0.44449936  0.91365998  0.54216989  1
  O2-  O328  1  0.06378696  0.06937499  0.28380867  1
  O2-  O329  1  0.56441779  0.26134932  0.47218653  1
  O2-  O330  1  0.06130135  0.92938481  0.22102424  1
  O2-  O331  1  0.57289932  0.93704423  0.70516435  1
  O2-  O332  1  0.93540813  0.92613974  0.46925978  1
  O2-  O333  1  0.07156933  0.06510992  0.79001471  1
  O2-  O334  1  0.05741390  0.58237971  0.22732541  1
  O2-  O335  1  0.56463158  0.93122290  0.05993864  1
  O2-  O336  1  0.56517320  0.26080075  0.29527804  1
  O2-  O337  1  0.93567677  0.74122231  0.27929020  1
  O2-  O338  1  0.42655139  0.93659671  0.43185748  1
  O2-  O339  1  0.43570271  0.93076954  0.96776098  1
  O2-  O340  1  0.43256252  0.26833222  0.03281847  1
  O2-  O341  1  0.42334479  0.73277444  0.06831743  1
  O2-  O342  1  0.93508859  0.59207975  0.27939359  1
  O2-  O343  1  0.56538024  0.07282793  0.97166977  1
  O2-  O344  1  0.56300801  0.73682086  0.53410376  1
  O2-  O345  1  0.56602063  0.92585980  0.94494019  1
  O2-  O346  1  0.05400548  0.24935478  0.28074267  1
  O2-  O347  1  0.06403321  0.26556220  0.71755458  1
  O2-  O348  1  0.43585892  0.26114125  0.72235211  1
  O2-  O349  1  0.56333182  0.26465545  0.19932617  1
  O2-  O350  1  0.93601381  0.74052643  0.71883441  1
  O2-  O351  1  0.06331296  0.40516058  0.55655732  1
  O2-  O352  1  0.06849971  0.93330504  0.53067601  1
  O2-  O353  1  0.42229393  0.61064936  0.21525582  1
  O2-  O354  1  0.93518924  0.73457364  0.03169152  1
  O2-  O355  1  0.06303677  0.40248241  0.44320125  1
  O2-  O356  1  0.43175902  0.39205913  0.18224984  1
  O2-  O357  1  0.07547257  0.61077760  0.96490422  1
  O2-  O358  1  0.06428335  0.26206782  0.53217506  1
  O2-  O359  1  0.56992554  0.05991144  0.29979599  1
  O2-  O360  1  0.42603976  0.38823204  0.31102779  1
  O2-  O361  1  0.06823185  0.26716539  0.20206225  1
  O2-  O362  1  0.56497824  0.59664834  0.46768937  1
  O2-  O363  1  0.93606184  0.26411185  0.28409748  1
  O2-  O364  1  0.43634623  0.93118079  0.78264651  1
  O2-  O365  1  0.44447802  0.75476519  0.95909287  1
  O2-  O366  1  0.43755216  0.25922437  0.28080124  1
  O2-  O367  1  0.56627081  0.59448856  0.97246613  1
  O2-  O368  1  0.93116843  0.27441990  0.54849773  1
  O2-  O369  1  0.06378341  0.59650818  0.53372208  1
  O2-  O370  1  0.93450064  0.59333066  0.52846713  1
  O2-  O371  1  0.06423188  0.06763996  0.03237359  1
  O2-  O372  1  0.24995690  -0.00146271  0.90243129  1
  O2-  O373  1  0.25008283  -0.00622635  0.14444935  1
  O2-  O374  1  0.24979710  0.33583645  0.35192604  1
  O2-  O375  1  0.24997018  0.66942788  0.40230798  1
  O2-  O376  1  0.75009048  0.00430059  0.90004020  1
  O2-  O377  1  0.25022320  0.66649833  0.90337354  1
  O2-  O378  1  0.25007880  0.33322294  0.66794017  1
  O2-  O379  1  0.74986858  0.66596502  0.18219797  1
  O2-  O380  1  0.74996606  0.33374514  0.57881977  1
  O2-  O381  1  0.74983364  0.66928701  0.09420034  1
  O2-  O382  1  0.25013203  0.33238499  0.84612652  1
  O2-  O383  1  0.75021144  0.66546562  0.85100717  1
  O2-  O384  1  0.24973967  -0.00268147  0.35207602  1
  O2-  O385  1  0.74994278  0.00245681  0.39459994  1
  O2-  O386  1  0.74995658  0.33504818  0.67178275  1
  O2-  O387  1  0.24995868  0.33220563  0.58149494  1
  O2-  O388  1  0.74999442  0.66299011  0.41178242  1
  O2-  O389  1  0.74994814  0.66616663  0.32276393  1
  O2-  O390  1  0.25006145  0.00164137  0.59525609  1
  O2-  O391  1  0.24989914  0.33805120  0.14512704  1
  O2-  O392  1  0.74991811  0.32910093  0.10345383  1
  O2-  O393  1  0.75004917  0.33142558  0.41960012  1
  O2-  O394  1  0.74991981  0.33259630  0.84367155  1
  O2-  O395  1  0.75016866  0.33339167  0.33029550  1
  O2-  O396  1  0.74995620  0.83002460  0.88127387  1
  O2-  O397  1  0.74998980  0.51073389  0.36805719  1
  O2-  O398  1  0.75004035  0.16058655  0.39485280  1
  O2-  O399  1  0.75002986  0.51246849  0.66275208  1
  O2-  O400  1  0.74989619  0.83214942  0.34190333  1
  O2-  O401  1  0.74992271  0.83193133  0.63654396  1
  O2-  O402  1  0.25017728  0.50004299  0.08519205  1
  O2-  O403  1  0.74990647  0.51478322  0.86074700  1
  O2-  O404  1  0.25000486  0.83018438  0.84041725  1
  O2-  O405  1  0.75003702  0.16640581  0.84182656  1
  O2-  O406  1  0.75015024  0.83256762  0.10999385  1
  O2-  O407  1  0.75006124  0.15807988  0.62732342  1
  O2-  O408  1  0.25001032  0.49927928  0.83999178  1
  O2-  O409  1  0.74992529  0.16699215  0.31434596  1
  O2-  O410  1  0.25007867  0.50014309  0.16490006  1
  O2-  O411  1  0.74987146  0.84134090  0.18740766  1
  O2-  O412  1  0.74997789  0.16362388  0.15373785  1
  O2-  O413  1  0.75004753  0.50143834  0.09980592  1
  O2-  O414  1  0.25008315  0.16338137  0.66076919  1
  O2-  O415  1  0.24988892  0.16605950  0.13936198  1
  O2-  O416  1  0.25012353  0.83791590  0.38862414  1
  O2-  O417  1  0.74990721  0.49362000  0.18129496  1
  O2-  O418  1  0.24998851  0.83013869  0.66312154  1
  O2-  O419  1  0.75011002  0.50867086  0.58686928  1
  O2-  O420  1  0.47220555  0.66247781  0.12665310  1
  O2-  O421  1  0.52543553  0.33942097  0.37676798  1
  O2-  O422  1  0.52353894  0.00351582  0.86813204  1
  O2-  O423  1  0.53750527  0.66660621  0.12317701  1
  O2-  O424  1  0.97247894  0.33590523  0.12495481  1
  O2-  O425  1  0.52850828  0.33226562  0.87427421  1
  O2-  O426  1  0.03761726  0.66759426  0.37556673  1
  O2-  O427  1  0.96589448  0.66720333  0.38301808  1
  O2-  O428  1  0.02594799  0.66828034  0.12333077  1
  O2-  O429  1  0.46469329  0.66205119  0.86979823  1
  O2-  O430  1  0.02803404  -0.00159951  0.87913540  1
  O2-  O431  1  0.02631758  0.00314211  0.62789606  1
  O2-  O432  1  0.97622823  0.66554552  0.62467673  1
  O2-  O433  1  0.02437330  0.66909720  0.86800933  1
  O2-  O434  1  0.47337366  -0.00413230  0.12887502  1
  O2-  O435  1  0.97247067  0.33423744  0.87522471  1
  O2-  O436  1  0.53593219  0.66970374  0.87396518  1
  O2-  O437  1  0.47433895  0.33574042  0.62362851  1
  O2-  O438  1  0.47547817  0.00575246  0.36914485  1
  O2-  O439  1  0.47217493  0.66736797  0.37363340  1
  O2-  O440  1  0.97052474  0.00265857  0.87275185  1
  O2-  O441  1  0.52553486  0.00369134  0.61856931  1
  O2-  O442  1  0.97373770  0.00360049  0.37003890  1
  O2-  O443  1  0.97185650  0.00024844  0.12473041  1
