# generated using pymatgen
data_La7(Ru4O11)2
_symmetry_space_group_name_H-M   'P 1'
_cell_length_a   23.99129668
_cell_length_b   16.83138026
_cell_length_c   15.42774376
_cell_angle_alpha   90.00162444
_cell_angle_beta   89.99954838
_cell_angle_gamma   89.99871500
_symmetry_Int_Tables_number   1
_chemical_formula_structural   La7(Ru4O11)2
_chemical_formula_sum   'La84 Ru96 O264'
_cell_volume   6229.82532768
_cell_formula_units_Z   12
loop_
 _symmetry_equiv_pos_site_id
 _symmetry_equiv_pos_as_xyz
  1  'x, y, z'
loop_
 _atom_type_symbol
 _atom_type_oxidation_number
  La3+  3.0
  Ru4+  4.0
  O2-  -2.0
loop_
 _atom_site_type_symbol
 _atom_site_label
 _atom_site_symmetry_multiplicity
 _atom_site_fract_x
 _atom_site_fract_y
 _atom_site_fract_z
 _atom_site_occupancy
  La3+  La0  1  0.14544060  -0.00005325  0.12742948  1
  La3+  La1  1  0.13801637  -0.00029656  0.37385908  1
  La3+  La2  1  0.13919940  -0.00306215  0.62990933  1
  La3+  La3  1  0.14239254  -0.00028639  0.87497647  1
  La3+  La4  1  0.13674481  0.33248717  0.12422328  1
  La3+  La5  1  0.13486518  0.33363944  0.37515571  1
  La3+  La6  1  0.13854988  0.33514546  0.62839482  1
  La3+  La7  1  0.13928428  0.33458950  0.87313711  1
  La3+  La8  1  0.13671422  0.66757767  0.12605061  1
  La3+  La9  1  0.13507034  0.66832499  0.37335853  1
  La3+  La10  1  0.13826110  0.66996512  0.62725668  1
  La3+  La11  1  0.13701825  0.66922641  0.87336693  1
  La3+  La12  1  0.63994085  0.00300248  0.12535976  1
  La3+  La13  1  0.64420055  -0.00018463  0.37901782  1
  La3+  La14  1  0.64176330  -0.00076738  0.62358849  1
  La3+  La15  1  0.63800402  0.00032424  0.87509756  1
  La3+  La16  1  0.63684940  0.33063618  0.12106942  1
  La3+  La17  1  0.63912817  0.33184261  0.37656116  1
  La3+  La18  1  0.64206696  0.33707224  0.62452679  1
  La3+  La19  1  0.64411651  0.33607122  0.88048347  1
  La3+  La20  1  0.63606822  0.66665036  0.12388150  1
  La3+  La21  1  0.63851767  0.66513047  0.37652500  1
  La3+  La22  1  0.64049225  0.66742484  0.62531079  1
  La3+  La23  1  0.63799103  0.66900564  0.87523187  1
  La3+  La24  1  0.36177962  0.00091442  0.12000576  1
  La3+  La25  1  0.36146628  0.00075315  0.37299926  1
  La3+  La26  1  0.36080453  -0.00288192  0.63054626  1
  La3+  La27  1  0.35985230  -0.00148649  0.87571637  1
  La3+  La28  1  0.36283645  0.33196942  0.12384955  1
  La3+  La29  1  0.36555596  0.33242984  0.37498567  1
  La3+  La30  1  0.36158252  0.33303845  0.62940235  1
  La3+  La31  1  0.36130755  0.33403273  0.87341563  1
  La3+  La32  1  0.36334532  0.66589597  0.12395090  1
  La3+  La33  1  0.36222727  0.66742585  0.37572761  1
  La3+  La34  1  0.35863608  0.66797771  0.62630692  1
  La3+  La35  1  0.36353715  0.66693666  0.87262379  1
  La3+  La36  1  0.85819998  0.00223154  0.12354625  1
  La3+  La37  1  0.85485156  0.00161119  0.37759294  1
  La3+  La38  1  0.85818192  0.00016237  0.62087495  1
  La3+  La39  1  0.86308870  0.00029228  0.87547464  1
  La3+  La40  1  0.86172980  0.33177159  0.12447334  1
  La3+  La41  1  0.85935929  0.33397337  0.37317749  1
  La3+  La42  1  0.86098033  0.33032160  0.62263811  1
  La3+  La43  1  0.85888460  0.33308016  0.87842732  1
  La3+  La44  1  0.86249358  0.66667854  0.12456927  1
  La3+  La45  1  0.86208652  0.66390868  0.37473558  1
  La3+  La46  1  0.86050633  0.66515517  0.62635520  1
  La3+  La47  1  0.86263309  0.66903531  0.87199839  1
  La3+  La48  1  0.00003200  0.83327850  0.36617357  1
  La3+  La49  1  0.50042651  0.49787000  0.63091611  1
  La3+  La50  1  0.00043461  0.16928645  0.36437703  1
  La3+  La51  1  -0.00413138  0.16716190  0.37903244  1
  La3+  La52  1  0.50058194  0.83493625  0.38573089  1
  La3+  La53  1  0.49700585  0.17187664  0.13019485  1
  La3+  La54  1  0.49970734  0.50273835  0.35971234  1
  La3+  La55  1  0.00241039  0.50589887  0.88120273  1
  La3+  La56  1  0.00460109  0.16750997  0.63748625  1
  La3+  La57  1  0.49975450  0.16851262  0.36263995  1
  La3+  La58  1  0.50703283  0.50377235  0.37711923  1
  La3+  La59  1  -0.00003871  0.17154877  0.11505979  1
  La3+  La60  1  -0.00120462  0.16722029  0.86923505  1
  La3+  La61  1  0.50108428  0.49939653  0.88162138  1
  La3+  La62  1  0.50311472  0.83600995  0.11051698  1
  La3+  La63  1  0.00033742  0.16901919  0.86900444  1
  La3+  La64  1  0.50060801  0.50035313  0.13231963  1
  La3+  La65  1  0.50082188  0.83377047  0.86799078  1
  La3+  La66  1  0.50092001  0.83332324  0.36372979  1
  La3+  La67  1  0.49957262  0.17048391  0.87972084  1
  La3+  La68  1  -0.00063437  0.83236385  0.11624793  1
  La3+  La69  1  0.00259017  0.15930757  0.61695451  1
  La3+  La70  1  -0.00023379  0.49712009  0.63187547  1
  La3+  La71  1  -0.00063412  0.50774844  0.61228243  1
  La3+  La72  1  0.24957087  0.56048618  -0.00163754  1
  La3+  La73  1  0.75022022  0.11844317  0.73700106  1
  La3+  La74  1  0.74971802  0.80449953  0.25413129  1
  La3+  La75  1  0.74990304  0.46150577  0.74554179  1
  La3+  La76  1  0.25010224  0.86770144  0.02091118  1
  La3+  La77  1  0.74982545  0.49647303  0.00260305  1
  La3+  La78  1  0.24933290  0.52048788  0.53621536  1
  La3+  La79  1  0.74991737  0.83674727  0.01617004  1
  La3+  La80  1  0.25085768  0.52546733  0.20558320  1
  La3+  La81  1  0.75032847  0.50565847  0.22175598  1
  La3+  La82  1  0.25009869  0.17043606  0.43173069  1
  La3+  La83  1  0.25000325  0.80154176  0.22645605  1
  Ru4+  Ru84  1  0.00175926  -0.00003171  -0.00052337  1
  Ru4+  Ru85  1  0.00137845  -0.00290571  0.24522858  1
  Ru4+  Ru86  1  -0.00058067  -0.00452901  0.49848387  1
  Ru4+  Ru87  1  0.00360953  -0.01192510  0.75106917  1
  Ru4+  Ru88  1  0.00440114  0.33503813  0.00277610  1
  Ru4+  Ru89  1  0.00198013  0.34429120  0.24291700  1
  Ru4+  Ru90  1  0.00216799  0.33720375  0.49419177  1
  Ru4+  Ru91  1  0.00047152  0.33116676  0.75482264  1
  Ru4+  Ru92  1  0.00017113  0.66682602  -0.00224665  1
  Ru4+  Ru93  1  -0.00056960  0.66295738  0.25648503  1
  Ru4+  Ru94  1  0.00073930  0.66770968  0.49666760  1
  Ru4+  Ru95  1  0.00385019  0.67718221  0.75219944  1
  Ru4+  Ru96  1  0.50177862  0.00630552  0.00110316  1
  Ru4+  Ru97  1  0.50195487  0.00099861  0.25024819  1
  Ru4+  Ru98  1  0.49848053  -0.00090530  0.50025561  1
  Ru4+  Ru99  1  0.50393861  -0.00350423  0.75056892  1
  Ru4+  Ru100  1  0.50149860  0.33209385  -0.00101991  1
  Ru4+  Ru101  1  0.49893031  0.33295235  0.24835212  1
  Ru4+  Ru102  1  0.49875245  0.33088878  0.50470583  1
  Ru4+  Ru103  1  0.49765655  0.33504511  0.74613577  1
  Ru4+  Ru104  1  0.50539583  0.67218319  0.00033883  1
  Ru4+  Ru105  1  0.50013919  0.66673213  0.24777647  1
  Ru4+  Ru106  1  0.50151406  0.66770855  0.50100087  1
  Ru4+  Ru107  1  0.49872971  0.67214249  0.75014672  1
  Ru4+  Ru108  1  0.11584396  0.16604129  0.00111095  1
  Ru4+  Ru109  1  0.11346574  0.16293426  0.24944748  1
  Ru4+  Ru110  1  0.11366160  0.16488193  0.49836166  1
  Ru4+  Ru111  1  0.11606128  0.16690106  0.75165521  1
  Ru4+  Ru112  1  0.10926633  0.50091672  0.00071222  1
  Ru4+  Ru113  1  0.10965883  0.50167318  0.25169757  1
  Ru4+  Ru114  1  0.11069016  0.50082859  0.49953499  1
  Ru4+  Ru115  1  0.11549017  0.49830647  0.75139960  1
  Ru4+  Ru116  1  0.11081988  0.83490018  0.00029649  1
  Ru4+  Ru117  1  0.10977188  0.83282274  0.24908040  1
  Ru4+  Ru118  1  0.11229736  0.83316466  0.49964448  1
  Ru4+  Ru119  1  0.11509614  0.83562294  0.74932131  1
  Ru4+  Ru120  1  0.61480616  0.16830862  0.00003028  1
  Ru4+  Ru121  1  0.61370377  0.16331675  0.25147121  1
  Ru4+  Ru122  1  0.61608184  0.16793282  0.50132174  1
  Ru4+  Ru123  1  0.61542053  0.17059131  0.74840838  1
  Ru4+  Ru124  1  0.61203770  0.49860493  0.00045430  1
  Ru4+  Ru125  1  0.61148823  0.50031699  0.25004199  1
  Ru4+  Ru126  1  0.61308008  0.50273123  0.49965417  1
  Ru4+  Ru127  1  0.61116250  0.49722767  0.74964323  1
  Ru4+  Ru128  1  0.61121205  0.83337747  -0.00017426  1
  Ru4+  Ru129  1  0.61012416  0.83296781  0.24896356  1
  Ru4+  Ru130  1  0.61363305  0.83649349  0.50001738  1
  Ru4+  Ru131  1  0.61217078  0.83169592  0.74883715  1
  Ru4+  Ru132  1  0.38662068  0.16305177  -0.00082981  1
  Ru4+  Ru133  1  0.38674205  0.16407057  0.24944381  1
  Ru4+  Ru134  1  0.39102447  0.16689907  0.50077610  1
  Ru4+  Ru135  1  0.38358017  0.16626231  0.74817692  1
  Ru4+  Ru136  1  0.38581519  0.49372498  0.00072625  1
  Ru4+  Ru137  1  0.39178020  0.50016969  0.24984411  1
  Ru4+  Ru138  1  0.38925318  0.49830695  0.50104371  1
  Ru4+  Ru139  1  0.38595836  0.49936852  0.75047490  1
  Ru4+  Ru140  1  0.38601996  0.83001662  0.00046474  1
  Ru4+  Ru141  1  0.38969108  0.83308095  0.25077845  1
  Ru4+  Ru142  1  0.38812063  0.83496016  0.49969077  1
  Ru4+  Ru143  1  0.38393473  0.82963536  0.74860058  1
  Ru4+  Ru144  1  0.88304471  0.16741818  0.00263588  1
  Ru4+  Ru145  1  0.88185808  0.16127706  0.24978242  1
  Ru4+  Ru146  1  0.88225251  0.16663146  0.49807687  1
  Ru4+  Ru147  1  0.88308943  0.17138091  0.75020996  1
  Ru4+  Ru148  1  0.88523054  0.50431963  0.00336023  1
  Ru4+  Ru149  1  0.89320565  0.50147191  0.25011365  1
  Ru4+  Ru150  1  0.88499671  0.50291010  0.49806462  1
  Ru4+  Ru151  1  0.88218304  0.49674221  0.75188721  1
  Ru4+  Ru152  1  0.88822820  0.83329831  0.00010793  1
  Ru4+  Ru153  1  0.88971707  0.83294156  0.24955161  1
  Ru4+  Ru154  1  0.88631715  0.83677214  0.49891451  1
  Ru4+  Ru155  1  0.88709499  0.82847962  0.74900356  1
  Ru4+  Ru156  1  0.25000969  0.23982874  -0.00622547  1
  Ru4+  Ru157  1  0.25000020  0.63379958  0.46247206  1
  Ru4+  Ru158  1  0.74996526  0.63415730  0.25625366  1
  Ru4+  Ru159  1  0.24995570  0.58196726  0.74757208  1
  Ru4+  Ru160  1  0.74982605  0.60702737  0.75299089  1
  Ru4+  Ru161  1  0.24984978  0.72939034  -0.00807835  1
  Ru4+  Ru162  1  0.24995265  0.93663363  0.26198731  1
  Ru4+  Ru163  1  0.75001532  0.24013342  0.25095510  1
  Ru4+  Ru164  1  0.24980818  0.90231656  0.50064585  1
  Ru4+  Ru165  1  0.25032356  0.26370518  0.54099496  1
  Ru4+  Ru166  1  0.25011339  0.24978688  0.75203091  1
  Ru4+  Ru167  1  0.24981749  0.76567111  0.50284745  1
  Ru4+  Ru168  1  0.25009780  0.39851975  0.25362903  1
  Ru4+  Ru169  1  0.25000437  0.63988143  0.27643942  1
  Ru4+  Ru170  1  0.75004796  0.91325474  0.74969508  1
  Ru4+  Ru171  1  0.74999792  0.42576366  0.49982498  1
  Ru4+  Ru172  1  0.25001125  0.40569379  -0.01060267  1
  Ru4+  Ru173  1  0.25019643  0.23025280  0.24876029  1
  Ru4+  Ru174  1  0.74972289  0.37446417  0.24301192  1
  Ru4+  Ru175  1  0.25003025  0.39222692  0.51875783  1
  Ru4+  Ru176  1  0.25016882  0.05385105  0.50354918  1
  Ru4+  Ru177  1  0.75028576  0.76290466  0.50336752  1
  Ru4+  Ru178  1  0.74992400  0.26630486  0.73684742  1
  Ru4+  Ru179  1  0.74982930  0.94610759  0.26768315  1
  O2-  O180  1  0.16798589  0.08395659  -0.00301363  1
  O2-  O181  1  0.16639087  0.08196194  0.25269527  1
  O2-  O182  1  0.16739071  0.07871820  0.50033152  1
  O2-  O183  1  0.16614834  0.08176423  0.75037509  1
  O2-  O184  1  0.16605947  0.41198503  0.00066544  1
  O2-  O185  1  0.16504399  0.41130895  0.24932441  1
  O2-  O186  1  0.16661412  0.41092051  0.49920268  1
  O2-  O187  1  0.16559853  0.41424422  0.75086726  1
  O2-  O188  1  0.16677230  0.74493071  0.00076909  1
  O2-  O189  1  0.16647333  0.74453629  0.25192451  1
  O2-  O190  1  0.16715664  0.74780012  0.49922825  1
  O2-  O191  1  0.16394436  0.74780870  0.75168957  1
  O2-  O192  1  0.66447009  0.08094576  -0.00247553  1
  O2-  O193  1  0.66747069  0.08295450  0.24902245  1
  O2-  O194  1  0.66619620  0.08519382  0.49896855  1
  O2-  O195  1  0.66387155  0.07612084  0.75269731  1
  O2-  O196  1  0.66746044  0.41556657  0.00321229  1
  O2-  O197  1  0.66619168  0.41175176  0.24920779  1
  O2-  O198  1  0.66936071  0.41418739  0.49850618  1
  O2-  O199  1  0.66501248  0.41248911  0.75120964  1
  O2-  O200  1  0.66729303  0.74472664  0.00058833  1
  O2-  O201  1  0.66518248  0.74484944  0.25060687  1
  O2-  O202  1  0.66701055  0.74563965  0.50018189  1
  O2-  O203  1  0.66542410  0.74796909  0.75144039  1
  O2-  O204  1  0.33397963  0.25344143  0.00062758  1
  O2-  O205  1  0.33436974  0.25329930  0.25099477  1
  O2-  O206  1  0.33392475  0.25438892  0.49921384  1
  O2-  O207  1  0.33371550  0.25183549  0.75164152  1
  O2-  O208  1  0.33790503  0.59050623  0.00008202  1
  O2-  O209  1  0.33418723  0.58967698  0.25027135  1
  O2-  O210  1  0.33575354  0.58719150  0.49930094  1
  O2-  O211  1  0.33254222  0.58575503  0.75069032  1
  O2-  O212  1  0.33549396  0.91995888  -0.00087432  1
  O2-  O213  1  0.33432074  0.91988225  0.25086238  1
  O2-  O214  1  0.33294376  0.91836262  0.49920937  1
  O2-  O215  1  0.33518266  0.91636580  0.75045024  1
  O2-  O216  1  0.83261399  0.25150226  0.00050061  1
  O2-  O217  1  0.83282299  0.25082376  0.24968114  1
  O2-  O218  1  0.83115066  0.25171476  0.49955246  1
  O2-  O219  1  0.83115090  0.25340079  0.74996898  1
  O2-  O220  1  0.83189294  0.58713356  -0.00005532  1
  O2-  O221  1  0.83225198  0.58689157  0.24857180  1
  O2-  O222  1  0.83404642  0.58384885  0.49942893  1
  O2-  O223  1  0.83284828  0.58674115  0.75253678  1
  O2-  O224  1  0.83422581  0.92003044  -0.00053270  1
  O2-  O225  1  0.83375856  0.91840448  0.24918149  1
  O2-  O226  1  0.83272829  0.91387081  0.50241462  1
  O2-  O227  1  0.83250567  0.91742642  0.75105220  1
  O2-  O228  1  0.16574324  0.25235296  0.00016990  1
  O2-  O229  1  0.16657501  0.25374232  0.25036007  1
  O2-  O230  1  0.16565255  0.25499517  0.50018633  1
  O2-  O231  1  0.16764843  0.25355643  0.75063231  1
  O2-  O232  1  0.16111613  0.58895408  -0.00067116  1
  O2-  O233  1  0.16669449  0.58864202  0.25037652  1
  O2-  O234  1  0.16409242  0.58947431  0.49869343  1
  O2-  O235  1  0.16642970  0.58621450  0.75034187  1
  O2-  O236  1  0.16326340  0.91926137  -0.00156725  1
  O2-  O237  1  0.16593662  0.91901128  0.25244957  1
  O2-  O238  1  0.16692157  0.91873342  0.49973138  1
  O2-  O239  1  0.16629207  0.91692692  0.75166930  1
  O2-  O240  1  0.66692345  0.25072094  0.00129284  1
  O2-  O241  1  0.66679399  0.25164484  0.24986218  1
  O2-  O242  1  0.66826817  0.24994395  0.49768103  1
  O2-  O243  1  0.66965007  0.25152328  0.74929676  1
  O2-  O244  1  0.66891456  0.58791593  0.00032401  1
  O2-  O245  1  0.66737877  0.58881901  0.24949052  1
  O2-  O246  1  0.66567443  0.58694439  0.49935303  1
  O2-  O247  1  0.66619727  0.58745182  0.75137146  1
  O2-  O248  1  0.66591950  0.91999748  -0.00132718  1
  O2-  O249  1  0.66875334  0.91949604  0.24993029  1
  O2-  O250  1  0.66551092  0.91551905  0.50134576  1
  O2-  O251  1  0.67031154  0.91861068  0.75184521  1
  O2-  O252  1  0.33361492  0.08353564  0.00006859  1
  O2-  O253  1  0.33236457  0.08132266  0.25283069  1
  O2-  O254  1  0.33450087  0.07886843  0.49912526  1
  O2-  O255  1  0.33244761  0.08350006  0.75131075  1
  O2-  O256  1  0.33375617  0.41299677  0.00058619  1
  O2-  O257  1  0.33389969  0.40975966  0.25020080  1
  O2-  O258  1  0.33322980  0.41231113  0.49902179  1
  O2-  O259  1  0.33516396  0.41476004  0.75045394  1
  O2-  O260  1  0.33360126  0.74544528  0.00087636  1
  O2-  O261  1  0.33335960  0.74490165  0.24942050  1
  O2-  O262  1  0.33210677  0.74761941  0.49904759  1
  O2-  O263  1  0.33319148  0.74953144  0.75257737  1
  O2-  O264  1  0.83480282  0.08090592  -0.00163809  1
  O2-  O265  1  0.83140792  0.08277419  0.24736479  1
  O2-  O266  1  0.83288729  0.08353229  0.50016932  1
  O2-  O267  1  0.83740136  0.07652016  0.75252346  1
  O2-  O268  1  0.83030060  0.41434099  0.00142412  1
  O2-  O269  1  0.83474388  0.41354025  0.24780693  1
  O2-  O270  1  0.82882994  0.41480053  0.49935334  1
  O2-  O271  1  0.83472251  0.41049999  0.75051985  1
  O2-  O272  1  0.83287560  0.74480743  0.00038519  1
  O2-  O273  1  0.83215943  0.74479540  0.24873484  1
  O2-  O274  1  0.83243783  0.74855378  0.50050996  1
  O2-  O275  1  0.83137583  0.75017612  0.75347120  1
  O2-  O276  1  0.46525122  0.78555864  0.75123705  1
  O2-  O277  1  0.03911493  0.12001744  -0.00450199  1
  O2-  O278  1  0.95258708  0.56923600  0.73809967  1
  O2-  O279  1  0.96454780  0.10667448  0.21226425  1
  O2-  O280  1  0.97371247  0.88441742  0.49984687  1
  O2-  O281  1  0.45362841  0.43395984  0.73717812  1
  O2-  O282  1  0.95054398  0.09603363  0.77054227  1
  O2-  O283  1  0.95160605  0.23657412  0.26468589  1
  O2-  O284  1  0.55389015  0.08744004  0.19851912  1
  O2-  O285  1  0.96139418  0.22651600  0.97228307  1
  O2-  O286  1  0.54763764  0.76394323  0.51501320  1
  O2-  O287  1  0.44835624  0.23319948  0.51443888  1
  O2-  O288  1  0.45120922  0.57163772  0.98104328  1
  O2-  O289  1  0.96147550  0.44808345  0.46869037  1
  O2-  O290  1  0.45154620  0.56866849  0.02041491  1
  O2-  O291  1  0.55077879  0.08830989  0.76957697  1
  O2-  O292  1  0.54898757  0.56525266  0.01377005  1
  O2-  O293  1  0.04781858  0.23521500  0.48593318  1
  O2-  O294  1  0.94538982  0.09245600  0.98538068  1
  O2-  O295  1  0.45308747  0.10528935  0.77857646  1
  O2-  O296  1  0.54531155  0.57091803  0.73759005  1
  O2-  O297  1  0.45067070  0.76361419  0.48582874  1
  O2-  O298  1  0.45179953  0.90344105  0.01194709  1
  O2-  O299  1  0.04584934  0.76444265  0.01435804  1
  O2-  O300  1  0.54915946  0.09035167  0.73081638  1
  O2-  O301  1  0.54003920  0.09819762  0.47043267  1
  O2-  O302  1  0.04801531  0.57120802  0.73868120  1
  O2-  O303  1  0.55254629  0.76219809  0.73455214  1
  O2-  O304  1  0.46311299  0.44015090  0.46966231  1
  O2-  O305  1  0.04658687  0.23634804  0.23542533  1
  O2-  O306  1  0.94580870  0.24108003  0.54843716  1
  O2-  O307  1  0.45406233  0.57433103  0.48844075  1
  O2-  O308  1  0.45345015  0.23485029  0.01350029  1
  O2-  O309  1  0.94579734  0.42027077  0.96833738  1
  O2-  O310  1  0.04536228  0.43089100  0.76558873  1
  O2-  O311  1  0.45297206  0.91327396  0.76526147  1
  O2-  O312  1  0.95145516  0.09771582  0.73140139  1
  O2-  O313  1  0.97176483  0.78855509  0.75055341  1
  O2-  O314  1  0.05038356  0.09451431  0.76462307  1
  O2-  O315  1  0.95473912  0.43061505  0.23499245  1
  O2-  O316  1  0.52831152  0.22096853  0.73678012  1
  O2-  O317  1  0.04675030  0.43178919  0.01510807  1
  O2-  O318  1  0.54481660  0.09756137  0.01273104  1
  O2-  O319  1  0.52709345  0.22170541  0.75558870  1
  O2-  O320  1  0.46347328  0.78067800  0.21258555  1
  O2-  O321  1  0.53714739  0.22306258  0.50530618  1
  O2-  O322  1  0.04079771  0.11011034  0.98060008  1
  O2-  O323  1  0.95872242  0.76880379  0.52829345  1
  O2-  O324  1  0.91696134  0.94683169  0.46389883  1
  O2-  O325  1  0.93390411  0.25799644  0.27959810  1
  O2-  O326  1  0.94235463  0.23752822  0.54085294  1
  O2-  O327  1  0.93440487  0.74553295  0.30774712  1
  O2-  O328  1  0.56679960  0.92716631  0.72605760  1
  O2-  O329  1  0.06147636  0.73794587  0.21546667  1
  O2-  O330  1  0.42832244  0.06527908  0.70947647  1
  O2-  O331  1  0.42304858  0.71086003  0.70165643  1
  O2-  O332  1  0.94569366  0.42016933  0.96843586  1
  O2-  O333  1  0.06266225  0.59719632  0.28185625  1
  O2-  O334  1  0.56582176  0.26064233  0.02904192  1
  O2-  O335  1  0.43007636  0.71935249  0.30846843  1
  O2-  O336  1  0.58041520  0.27195115  0.68071889  1
  O2-  O337  1  0.42571968  0.38694212  0.55802878  1
  O2-  O338  1  0.92237225  0.06387459  0.29811624  1
  O2-  O339  1  0.93075907  0.40743975  0.05724084  1
  O2-  O340  1  0.57219587  0.06863155  0.54047698  1
  O2-  O341  1  0.58302928  0.27465718  0.81957612  1
  O2-  O342  1  0.56417773  0.40668782  0.28283270  1
  O2-  O343  1  0.06456593  0.07417861  0.47263417  1
  O2-  O344  1  0.56327593  0.25944028  0.28408594  1
  O2-  O345  1  0.92432996  0.26216342  0.42213069  1
  O2-  O346  1  0.56554737  0.41042741  0.72176885  1
  O2-  O347  1  0.43669433  0.59418079  0.78647562  1
  O2-  O348  1  0.43894797  0.92788258  0.03261678  1
  O2-  O349  1  0.92832903  0.73477013  0.46020873  1
  O2-  O350  1  0.07791507  0.03137462  0.05713234  1
  O2-  O351  1  0.06480045  0.92678695  0.72578519  1
  O2-  O352  1  0.93745867  0.73652487  0.18347774  1
  O2-  O353  1  0.93435258  0.58766897  0.71991658  1
  O2-  O354  1  0.56227499  0.92723927  0.21715930  1
  O2-  O355  1  0.43621962  0.06822980  0.21803534  1
  O2-  O356  1  0.56936268  0.05811699  0.33247816  1
  O2-  O357  1  0.93030450  0.41160283  0.69953545  1
  O2-  O358  1  0.93258422  0.41272042  0.80247343  1
  O2-  O359  1  0.06714723  0.40857797  0.52694778  1
  O2-  O360  1  0.93433478  0.25909438  0.72447937  1
  O2-  O361  1  0.43416812  0.92770330  0.78583874  1
  O2-  O362  1  0.93445603  0.59233165  0.27589600  1
  O2-  O363  1  0.57676275  0.27848635  0.52978216  1
  O2-  O364  1  0.56299271  0.93006600  0.46385790  1
  O2-  O365  1  0.92924140  0.27090117  0.05830820  1
  O2-  O366  1  0.54941821  0.09089525  0.20705867  1
  O2-  O367  1  0.92470716  0.39968497  0.54442677  1
  O2-  O368  1  0.93421937  0.07620322  0.52862771  1
  O2-  O369  1  0.43666525  0.06902540  0.96564759  1
  O2-  O370  1  0.91851737  0.72065707  0.71225737  1
  O2-  O371  1  0.56424438  0.59304766  0.22429841  1
  O2-  O372  1  0.24982183  0.67684843  0.58280956  1
  O2-  O373  1  0.74977001  0.66849248  0.65298358  1
  O2-  O374  1  0.24998112  -0.00259032  0.07808065  1
  O2-  O375  1  0.24993505  0.67171991  0.68013887  1
  O2-  O376  1  0.24968374  0.00057848  0.83224720  1
  O2-  O377  1  0.24979708  -0.00054241  0.91898846  1
  O2-  O378  1  0.24989483  0.00167387  0.68050160  1
  O2-  O379  1  0.75041307  -0.00533772  0.07717673  1
  O2-  O380  1  0.25003159  0.33162991  0.65726888  1
  O2-  O381  1  0.75047034  0.00783418  0.16634798  1
  O2-  O382  1  0.74969562  0.32396830  0.35644802  1
  O2-  O383  1  0.25037973  0.00818383  0.16830773  1
  O2-  O384  1  0.25002823  -0.00876860  0.39307301  1
  O2-  O385  1  0.75016963  0.34065095  0.83230601  1
  O2-  O386  1  0.25027100  -0.01919656  0.59465298  1
  O2-  O387  1  0.75034383  0.33404987  0.92359522  1
  O2-  O388  1  0.24983644  0.32617376  0.89662557  1
  O2-  O389  1  0.24994952  0.31827146  0.16898811  1
  O2-  O390  1  0.24985205  0.33191446  0.41959617  1
  O2-  O391  1  0.24979813  0.30977415  0.33163205  1
  O2-  O392  1  0.25020347  0.67036102  0.14558394  1
  O2-  O393  1  0.75018816  -0.00295389  0.60855968  1
  O2-  O394  1  0.75017763  -0.00371156  0.39233416  1
  O2-  O395  1  0.24983914  0.32744758  0.07337276  1
  O2-  O396  1  0.74994454  0.51323034  0.87258160  1
  O2-  O397  1  0.25005311  0.83775754  0.36725203  1
  O2-  O398  1  0.24969098  0.49484086  0.32836804  1
  O2-  O399  1  0.75007594  0.83809293  0.88172707  1
  O2-  O400  1  0.74999345  0.50222104  0.61411642  1
  O2-  O401  1  0.24993250  0.16266180  0.59510435  1
  O2-  O402  1  0.24981867  0.82287136  0.89198538  1
  O2-  O403  1  0.24983632  0.83323955  0.64313343  1
  O2-  O404  1  0.24987990  0.15990634  0.16661052  1
  O2-  O405  1  0.75000319  0.16527135  0.93953104  1
  O2-  O406  1  0.25025434  0.49833403  0.40945128  1
  O2-  O407  1  0.24999615  0.16438718  0.07736555  1
  O2-  O408  1  0.24983948  0.49021921  0.80791930  1
  O2-  O409  1  0.75023319  0.16497155  0.16748981  1
  O2-  O410  1  0.74980075  0.82662836  0.40788343  1
  O2-  O411  1  0.75019179  0.16918431  0.08538504  1
  O2-  O412  1  0.24997144  0.16203260  0.68501644  1
  O2-  O413  1  0.75008959  0.17618882  0.85871378  1
  O2-  O414  1  0.74999665  0.49881573  0.36587787  1
  O2-  O415  1  0.24965980  0.47317452  0.09273150  1
  O2-  O416  1  0.25017090  0.49766616  0.65835211  1
  O2-  O417  1  0.25000662  0.48644789  0.89548211  1
  O2-  O418  1  0.74981391  0.82748465  0.58852105  1
  O2-  O419  1  0.75004051  0.18302185  0.62489469  1
  O2-  O420  1  0.97256455  -0.00161115  0.37582858  1
  O2-  O421  1  0.03777285  0.32821982  0.63089134  1
  O2-  O422  1  0.03701014  0.33406083  0.37374544  1
  O2-  O423  1  0.02770764  0.66667203  0.87371382  1
  O2-  O424  1  0.96648213  -0.00553546  0.62814635  1
  O2-  O425  1  0.46700995  -0.00472162  0.61280759  1
  O2-  O426  1  0.97723844  0.33443205  0.62821180  1
  O2-  O427  1  0.52847408  0.66809747  0.87634917  1
  O2-  O428  1  0.97291078  -0.00293322  0.87384417  1
  O2-  O429  1  0.45565999  0.33306873  0.87317877  1
  O2-  O430  1  0.51767810  0.34322601  0.62295877  1
  O2-  O431  1  0.04300820  0.33156134  0.87671081  1
  O2-  O432  1  0.52492474  0.33974645  0.12857655  1
  O2-  O433  1  0.03695019  -0.00739752  0.36901365  1
  O2-  O434  1  0.47094843  0.33058998  0.37301975  1
  O2-  O435  1  0.52540651  0.67439084  0.12011961  1
  O2-  O436  1  0.97480428  0.34491822  0.37055122  1
  O2-  O437  1  0.53784869  0.34481305  0.88897697  1
  O2-  O438  1  0.96696169  0.66131462  0.61574347  1
  O2-  O439  1  0.03999372  0.66859802  0.62136971  1
  O2-  O440  1  0.52773942  -0.00405536  0.62527682  1
  O2-  O441  1  0.03408641  0.00401685  0.61970256  1
  O2-  O442  1  0.96531333  0.31580787  0.86842787  1
  O2-  O443  1  0.98286913  0.65937498  0.38196863  1
