# generated using pymatgen
data_La7(Ru4O11)2
_symmetry_space_group_name_H-M   'P 1'
_cell_length_a   23.99328675
_cell_length_b   16.83435154
_cell_length_c   15.43019265
_cell_angle_alpha   89.99957427
_cell_angle_beta   90.00211021
_cell_angle_gamma   89.99825050
_symmetry_Int_Tables_number   1
_chemical_formula_structural   La7(Ru4O11)2
_chemical_formula_sum   'La84 Ru96 O264'
_cell_volume   6232.43107588
_cell_formula_units_Z   12
loop_
 _symmetry_equiv_pos_site_id
 _symmetry_equiv_pos_as_xyz
  1  'x, y, z'
loop_
 _atom_type_symbol
 _atom_type_oxidation_number
  La3+  3.0
  Ru4+  4.0
  O2-  -2.0
loop_
 _atom_site_type_symbol
 _atom_site_label
 _atom_site_symmetry_multiplicity
 _atom_site_fract_x
 _atom_site_fract_y
 _atom_site_fract_z
 _atom_site_occupancy
  La3+  La0  1  0.14268831  -0.00341376  0.11775670  1
  La3+  La1  1  0.13594741  0.00489551  0.37381579  1
  La3+  La2  1  0.13490606  0.00219402  0.62638153  1
  La3+  La3  1  0.13728852  -0.00057417  0.88593327  1
  La3+  La4  1  0.13368279  0.33097264  0.12941567  1
  La3+  La5  1  0.14053992  0.32844247  0.37526313  1
  La3+  La6  1  0.13360113  0.33222357  0.62521907  1
  La3+  La7  1  0.14390173  0.32773314  0.86982588  1
  La3+  La8  1  0.14450479  0.66770502  0.11612437  1
  La3+  La9  1  0.14041569  0.66255598  0.38097405  1
  La3+  La10  1  0.14422771  0.65866994  0.62036513  1
  La3+  La11  1  0.14123272  0.66081186  0.87469010  1
  La3+  La12  1  0.63419323  -0.00674387  0.12348609  1
  La3+  La13  1  0.62952462  -0.00283998  0.37145321  1
  La3+  La14  1  0.63895281  0.00506215  0.62928849  1
  La3+  La15  1  0.64391070  -0.00282488  0.87724123  1
  La3+  La16  1  0.64615398  0.33522196  0.11951149  1
  La3+  La17  1  0.63268099  0.33519020  0.37586204  1
  La3+  La18  1  0.65326971  0.33778744  0.62917051  1
  La3+  La19  1  0.65417421  0.33606455  0.87291016  1
  La3+  La20  1  0.65282162  0.66701253  0.12802578  1
  La3+  La21  1  0.63230407  0.66880718  0.37661588  1
  La3+  La22  1  0.63535028  0.66549840  0.62104179  1
  La3+  La23  1  0.64278668  0.67033302  0.87314229  1
  La3+  La24  1  0.35380894  -0.00416234  0.11885840  1
  La3+  La25  1  0.36844938  0.00021904  0.37460876  1
  La3+  La26  1  0.36841685  0.00151245  0.62343961  1
  La3+  La27  1  0.36844976  -0.00882138  0.88022651  1
  La3+  La28  1  0.36529635  0.32976765  0.12418476  1
  La3+  La29  1  0.35413086  0.32833032  0.37517697  1
  La3+  La30  1  0.36329981  0.33021850  0.62721562  1
  La3+  La31  1  0.35662330  0.33201195  0.87075811  1
  La3+  La32  1  0.35358092  0.66075560  0.12430900  1
  La3+  La33  1  0.36498342  0.66737281  0.37425929  1
  La3+  La34  1  0.35198960  0.66626692  0.62396055  1
  La3+  La35  1  0.35474793  0.66508598  0.88123157  1
  La3+  La36  1  0.86156693  -0.00234966  0.11856153  1
  La3+  La37  1  0.86766278  -0.00009238  0.37644326  1
  La3+  La38  1  0.86537903  0.00467171  0.62993709  1
  La3+  La39  1  0.85877133  0.00142324  0.87257820  1
  La3+  La40  1  0.85820924  0.33558367  0.11905943  1
  La3+  La41  1  0.87322004  0.33317726  0.37407639  1
  La3+  La42  1  0.85019093  0.33150621  0.63239778  1
  La3+  La43  1  0.85036926  0.33313038  0.87432844  1
  La3+  La44  1  0.86605891  0.66352090  0.13259765  1
  La3+  La45  1  0.84914077  0.67166793  0.38030909  1
  La3+  La46  1  0.85653210  0.66405825  0.62633944  1
  La3+  La47  1  0.85787566  0.66727385  0.87589697  1
  La3+  La48  1  -0.01011152  0.81798103  0.62220808  1
  La3+  La49  1  0.50502983  0.50667834  0.12275011  1
  La3+  La50  1  0.49690745  0.16356047  0.13352262  1
  La3+  La51  1  0.49924326  0.47956847  0.37208218  1
  La3+  La52  1  0.50198098  0.15810212  0.11327717  1
  La3+  La53  1  0.00070579  0.82724533  0.37726306  1
  La3+  La54  1  0.50018905  0.83180705  0.36061764  1
  La3+  La55  1  0.49597193  0.16413314  0.86208222  1
  La3+  La56  1  0.01183715  0.51340708  0.36902421  1
  La3+  La57  1  0.50072568  0.15707940  0.39160903  1
  La3+  La58  1  0.50166538  0.50441077  0.63079249  1
  La3+  La59  1  0.00155167  0.84059636  0.13330257  1
  La3+  La60  1  0.00260845  0.84375076  0.87900834  1
  La3+  La61  1  0.00173152  0.16933311  0.62724079  1
  La3+  La62  1  0.49790482  0.50068820  0.86600366  1
  La3+  La63  1  0.50373166  0.83868016  0.62713444  1
  La3+  La64  1  -0.00340075  0.51417848  0.61547014  1
  La3+  La65  1  0.50650776  0.50293075  0.88388656  1
  La3+  La66  1  0.49737465  0.50244321  0.60951354  1
  La3+  La67  1  0.50026805  0.16731517  0.37216933  1
  La3+  La68  1  -0.00503475  0.82457478  0.60517931  1
  La3+  La69  1  0.00404653  0.49216513  0.12368810  1
  La3+  La70  1  -0.00073811  0.49084667  0.87324853  1
  La3+  La71  1  -0.00035759  0.83370401  0.11251907  1
  La3+  La72  1  0.74969041  0.48653534  0.00645438  1
  La3+  La73  1  0.25070775  0.78768194  0.51306173  1
  La3+  La74  1  0.75049798  0.46772027  0.27900653  1
  La3+  La75  1  0.25059495  0.44286990  0.25886940  1
  La3+  La76  1  0.75150523  0.88525474  0.50108025  1
  La3+  La77  1  0.24794131  0.17765587  0.28239402  1
  La3+  La78  1  0.74956662  0.16376718  0.49202080  1
  La3+  La79  1  0.74976071  0.17983101  0.75976624  1
  La3+  La80  1  0.75076316  0.18313098  0.19585922  1
  La3+  La81  1  0.25057785  0.11624359  -0.05502990  1
  La3+  La82  1  0.25028051  0.83307149  0.79435810  1
  La3+  La83  1  0.25078935  0.85541294  0.23712644  1
  Ru4+  Ru84  1  -0.00605413  0.00821998  0.00013395  1
  Ru4+  Ru85  1  -0.00150425  0.00660382  0.25071728  1
  Ru4+  Ru86  1  0.00314946  0.00456345  0.49440142  1
  Ru4+  Ru87  1  0.00605878  -0.00000901  0.76022847  1
  Ru4+  Ru88  1  -0.00255562  0.33420284  0.00154995  1
  Ru4+  Ru89  1  0.00286949  0.32552148  0.24872043  1
  Ru4+  Ru90  1  0.00091762  0.33301701  0.49786632  1
  Ru4+  Ru91  1  0.00404245  0.33844617  0.75120726  1
  Ru4+  Ru92  1  -0.01269889  0.65927367  -0.00431371  1
  Ru4+  Ru93  1  0.00175616  0.66806975  0.25303528  1
  Ru4+  Ru94  1  0.00030777  0.67285587  0.48873921  1
  Ru4+  Ru95  1  0.00046645  0.66239001  0.74667855  1
  Ru4+  Ru96  1  0.49684053  -0.01628145  0.00694338  1
  Ru4+  Ru97  1  0.49986402  -0.00890355  0.24436536  1
  Ru4+  Ru98  1  0.49898256  -0.00186023  0.51024467  1
  Ru4+  Ru99  1  0.49822894  -0.00536837  0.75450971  1
  Ru4+  Ru100  1  0.50759548  0.32984787  0.00325919  1
  Ru4+  Ru101  1  0.49822286  0.33846772  0.25439284  1
  Ru4+  Ru102  1  0.49615900  0.33352565  0.50283976  1
  Ru4+  Ru103  1  0.51296389  0.31609362  0.74535621  1
  Ru4+  Ru104  1  0.48951991  0.68655172  0.00236085  1
  Ru4+  Ru105  1  0.50472186  0.66386144  0.24642746  1
  Ru4+  Ru106  1  0.49553870  0.66335042  0.49375106  1
  Ru4+  Ru107  1  0.49891078  0.65341035  0.75625792  1
  Ru4+  Ru108  1  0.10941010  0.16884954  -0.00037342  1
  Ru4+  Ru109  1  0.10679519  0.16226458  0.25260717  1
  Ru4+  Ru110  1  0.10966918  0.17004206  0.49793114  1
  Ru4+  Ru111  1  0.11185834  0.17310182  0.75385686  1
  Ru4+  Ru112  1  0.11262660  0.50098657  0.00596155  1
  Ru4+  Ru113  1  0.10910943  0.49792232  0.24577587  1
  Ru4+  Ru114  1  0.11755404  0.49440102  0.50169803  1
  Ru4+  Ru115  1  0.11057733  0.49628213  0.75715959  1
  Ru4+  Ru116  1  0.11728963  0.83030360  -0.00206004  1
  Ru4+  Ru117  1  0.11061672  0.83800569  0.25373913  1
  Ru4+  Ru118  1  0.10897440  0.83602056  0.50044113  1
  Ru4+  Ru119  1  0.11121029  0.83843594  0.75490695  1
  Ru4+  Ru120  1  0.61392498  0.17499720  0.00102414  1
  Ru4+  Ru121  1  0.61872507  0.17649213  0.24928967  1
  Ru4+  Ru122  1  0.60791030  0.16464333  0.50199056  1
  Ru4+  Ru123  1  0.60193748  0.17780248  0.74220182  1
  Ru4+  Ru124  1  0.60703288  0.50130373  -0.00169208  1
  Ru4+  Ru125  1  0.60889331  0.50412769  0.24579291  1
  Ru4+  Ru126  1  0.61796361  0.49658957  0.49924886  1
  Ru4+  Ru127  1  0.61580807  0.50027344  0.75326283  1
  Ru4+  Ru128  1  0.60460244  0.82852516  -0.00059016  1
  Ru4+  Ru129  1  0.61928075  0.83516455  0.24487128  1
  Ru4+  Ru130  1  0.60995749  0.83590482  0.50197281  1
  Ru4+  Ru131  1  0.61349486  0.83449452  0.74860073  1
  Ru4+  Ru132  1  0.38952361  0.16604821  -0.00258261  1
  Ru4+  Ru133  1  0.38221883  0.16934030  0.24973661  1
  Ru4+  Ru134  1  0.38571778  0.17079343  0.50317520  1
  Ru4+  Ru135  1  0.38828461  0.16787401  0.75232348  1
  Ru4+  Ru136  1  0.38609995  0.50094581  0.00004984  1
  Ru4+  Ru137  1  0.38742012  0.49207632  0.24640269  1
  Ru4+  Ru138  1  0.38437872  0.50297166  0.50131935  1
  Ru4+  Ru139  1  0.38823176  0.50382591  0.75160987  1
  Ru4+  Ru140  1  0.39168040  0.82586729  -0.00112010  1
  Ru4+  Ru141  1  0.39100408  0.83001173  0.24528429  1
  Ru4+  Ru142  1  0.38423508  0.84215981  0.50206823  1
  Ru4+  Ru143  1  0.38811062  0.83377948  0.75355744  1
  Ru4+  Ru144  1  0.88887502  0.16540972  -0.00106563  1
  Ru4+  Ru145  1  0.88933859  0.16408776  0.24740221  1
  Ru4+  Ru146  1  0.89303886  0.16954060  0.49823063  1
  Ru4+  Ru147  1  0.89230845  0.16218011  0.75156120  1
  Ru4+  Ru148  1  0.88998494  0.50646261  -0.00057050  1
  Ru4+  Ru149  1  0.89337676  0.50472419  0.25459415  1
  Ru4+  Ru150  1  0.88968884  0.49320517  0.50337160  1
  Ru4+  Ru151  1  0.88948742  0.48884870  0.74648085  1
  Ru4+  Ru152  1  0.88685853  0.83471664  -0.00061417  1
  Ru4+  Ru153  1  0.88411219  0.83043180  0.25297820  1
  Ru4+  Ru154  1  0.88976527  0.82827741  0.49755213  1
  Ru4+  Ru155  1  0.88743106  0.83194286  0.75263140  1
  Ru4+  Ru156  1  0.25064551  0.96233777  0.72510873  1
  Ru4+  Ru157  1  0.75039532  0.02495013  0.50873918  1
  Ru4+  Ru158  1  0.25000854  0.10015209  0.74390737  1
  Ru4+  Ru159  1  0.25028318  0.99364789  0.27709646  1
  Ru4+  Ru160  1  0.24932313  0.41790349  -0.00550813  1
  Ru4+  Ru161  1  0.24799835  0.93785709  0.50589564  1
  Ru4+  Ru162  1  0.75142934  0.76039067  -0.00089645  1
  Ru4+  Ru163  1  0.74922615  0.61009552  0.24509689  1
  Ru4+  Ru164  1  0.75126934  0.43690132  0.50298477  1
  Ru4+  Ru165  1  0.24878363  0.27950922  -0.00282849  1
  Ru4+  Ru166  1  0.24933047  0.58267504  0.25311122  1
  Ru4+  Ru167  1  0.24940949  0.68441055  0.77401469  1
  Ru4+  Ru168  1  0.75144414  0.29977770  0.29130663  1
  Ru4+  Ru169  1  0.24840572  0.71722615  0.22202707  1
  Ru4+  Ru170  1  0.75194760  0.90156922  0.24133827  1
  Ru4+  Ru171  1  0.24937308  0.08833406  0.50602452  1
  Ru4+  Ru172  1  0.25009073  0.42629824  0.75968029  1
  Ru4+  Ru173  1  0.75044012  0.30232034  0.45804678  1
  Ru4+  Ru174  1  0.25006364  0.41927773  0.49731690  1
  Ru4+  Ru175  1  0.74916465  0.72686202  0.49928621  1
  Ru4+  Ru176  1  0.75014927  0.05512046  0.27329147  1
  Ru4+  Ru177  1  0.75001757  0.91514659  0.75371334  1
  Ru4+  Ru178  1  0.74909627  0.09479575  -0.00526761  1
  Ru4+  Ru179  1  0.75015011  0.57747667  0.77080210  1
  O2-  O180  1  0.16301641  0.08402463  0.00086778  1
  O2-  O181  1  0.16760081  0.08226987  0.25279972  1
  O2-  O182  1  0.16530306  0.08255425  0.50463418  1
  O2-  O183  1  0.16471894  0.08309548  0.75062767  1
  O2-  O184  1  0.16935268  0.41468866  0.00230905  1
  O2-  O185  1  0.16288597  0.40872759  0.24625301  1
  O2-  O186  1  0.16898525  0.41209131  0.49681323  1
  O2-  O187  1  0.16676705  0.41413466  0.74227198  1
  O2-  O188  1  0.16239049  0.74361099  -0.00199028  1
  O2-  O189  1  0.16521673  0.74292739  0.24781251  1
  O2-  O190  1  0.16102999  0.74607925  0.49324803  1
  O2-  O191  1  0.16447895  0.74913242  0.75243306  1
  O2-  O192  1  0.66301673  0.08318314  -0.00208306  1
  O2-  O193  1  0.66501360  0.07812334  0.25324887  1
  O2-  O194  1  0.66420965  0.07809431  0.49522835  1
  O2-  O195  1  0.66024994  0.08805553  0.75230412  1
  O2-  O196  1  0.66146204  0.41608250  0.00172231  1
  O2-  O197  1  0.65851035  0.41390980  0.25234781  1
  O2-  O198  1  0.66949867  0.41410474  0.49198078  1
  O2-  O199  1  0.66845547  0.42031980  0.74944731  1
  O2-  O200  1  0.67398103  0.74967203  -0.00416700  1
  O2-  O201  1  0.66511299  0.74896079  0.25489829  1
  O2-  O202  1  0.66483284  0.74854353  0.50082297  1
  O2-  O203  1  0.66063872  0.74981204  0.74745362  1
  O2-  O204  1  0.33047709  0.25773689  -0.00438470  1
  O2-  O205  1  0.32872609  0.25610908  0.24398396  1
  O2-  O206  1  0.33617247  0.25509239  0.50356907  1
  O2-  O207  1  0.33748478  0.25353950  0.74867484  1
  O2-  O208  1  0.33375696  0.58121071  0.00062442  1
  O2-  O209  1  0.33286543  0.58034873  0.25558103  1
  O2-  O210  1  0.33335520  0.58332850  0.49169373  1
  O2-  O211  1  0.33677282  0.58533294  0.75104477  1
  O2-  O212  1  0.33782696  0.91191134  -0.00224603  1
  O2-  O213  1  0.33600712  0.92299246  0.25211798  1
  O2-  O214  1  0.32928440  0.92284236  0.50113676  1
  O2-  O215  1  0.33307129  0.92644470  0.74906986  1
  O2-  O216  1  0.83945164  0.24775536  0.00210824  1
  O2-  O217  1  0.83031250  0.25573729  0.25506544  1
  O2-  O218  1  0.83404436  0.25590479  0.49298772  1
  O2-  O219  1  0.84091779  0.24845208  0.75249732  1
  O2-  O220  1  0.82968723  0.58712654  0.00121558  1
  O2-  O221  1  0.82612246  0.58223629  0.24637013  1
  O2-  O222  1  0.84199696  0.58071573  0.50344334  1
  O2-  O223  1  0.83385799  0.58279697  0.74960429  1
  O2-  O224  1  0.83857890  0.91859606  -0.00013852  1
  O2-  O225  1  0.83548077  0.92070155  0.25137901  1
  O2-  O226  1  0.84419589  0.92838237  0.50122831  1
  O2-  O227  1  0.83315936  0.92164653  0.74626679  1
  O2-  O228  1  0.16558785  0.25586736  0.00094415  1
  O2-  O229  1  0.16410552  0.25223212  0.24680708  1
  O2-  O230  1  0.16420271  0.25392028  0.50295631  1
  O2-  O231  1  0.16812678  0.25115715  0.74397314  1
  O2-  O232  1  0.16321441  0.58245503  -0.00006063  1
  O2-  O233  1  0.16430171  0.58211792  0.24895392  1
  O2-  O234  1  0.16619410  0.58010285  0.49388790  1
  O2-  O235  1  0.16396122  0.57944530  0.75293028  1
  O2-  O236  1  0.16412362  0.91863558  -0.00209878  1
  O2-  O237  1  0.16435438  0.92450066  0.25145493  1
  O2-  O238  1  0.16417015  0.92305163  0.50180032  1
  O2-  O239  1  0.17229707  0.92591869  0.74535795  1
  O2-  O240  1  0.66888730  0.24895230  0.00328112  1
  O2-  O241  1  0.67232863  0.25996616  0.25407239  1
  O2-  O242  1  0.66537444  0.25689577  0.49371737  1
  O2-  O243  1  0.66594189  0.24718779  0.74834676  1
  O2-  O244  1  0.66635476  0.58514873  -0.00187532  1
  O2-  O245  1  0.67173006  0.58438477  0.26415674  1
  O2-  O246  1  0.66259565  0.58397349  0.49872221  1
  O2-  O247  1  0.66849485  0.58727811  0.74411298  1
  O2-  O248  1  0.66217061  0.91258416  0.00066203  1
  O2-  O249  1  0.67037314  0.91903138  0.25236695  1
  O2-  O250  1  0.66021642  0.92500892  0.49710524  1
  O2-  O251  1  0.66510596  0.91851089  0.75193261  1
  O2-  O252  1  0.33671004  0.08033639  -0.00758620  1
  O2-  O253  1  0.33186146  0.07863537  0.25402697  1
  O2-  O254  1  0.33131294  0.08005817  0.50424747  1
  O2-  O255  1  0.33461424  0.08239140  0.75215596  1
  O2-  O256  1  0.33070257  0.41513050  0.00015350  1
  O2-  O257  1  0.33921357  0.40473224  0.24675641  1
  O2-  O258  1  0.33434667  0.41289868  0.49962487  1
  O2-  O259  1  0.33239894  0.41103545  0.74908238  1
  O2-  O260  1  0.33586733  0.75283876  -0.00149227  1
  O2-  O261  1  0.33207384  0.74368317  0.25039138  1
  O2-  O262  1  0.34247221  0.74385932  0.49253367  1
  O2-  O263  1  0.33280914  0.74767099  0.75211963  1
  O2-  O264  1  0.83214757  0.08331906  0.00091115  1
  O2-  O265  1  0.83686947  0.07807943  0.25059707  1
  O2-  O266  1  0.83572911  0.07867533  0.49952919  1
  O2-  O267  1  0.83195331  0.07943131  0.74531657  1
  O2-  O268  1  0.83473477  0.41883759  -0.00099475  1
  O2-  O269  1  0.84065906  0.41384390  0.25238147  1
  O2-  O270  1  0.83209029  0.41618741  0.49508346  1
  O2-  O271  1  0.83091017  0.41866546  0.75024094  1
  O2-  O272  1  0.83329365  0.74504577  0.00364672  1
  O2-  O273  1  0.83399978  0.74785079  0.24945862  1
  O2-  O274  1  0.83321011  0.74807408  0.50544707  1
  O2-  O275  1  0.84019098  0.74640037  0.74735706  1
  O2-  O276  1  0.04616104  0.75793033  0.98816603  1
  O2-  O277  1  0.55196096  0.91126614  0.98113180  1
  O2-  O278  1  0.04508661  0.76992247  0.25593662  1
  O2-  O279  1  0.55198564  0.75784831  0.73459684  1
  O2-  O280  1  0.44768134  0.74680001  0.27077819  1
  O2-  O281  1  0.44678014  0.09288404  0.26317658  1
  O2-  O282  1  0.05207730  0.56934462  0.79447992  1
  O2-  O283  1  0.55361136  0.91102591  -0.00069976  1
  O2-  O284  1  0.55314616  0.56878819  0.51473116  1
  O2-  O285  1  0.45177083  0.90335893  0.24397665  1
  O2-  O286  1  0.04674426  0.90576389  0.01227259  1
  O2-  O287  1  0.05247538  0.56619268  0.50633381  1
  O2-  O288  1  0.55030750  0.09786648  0.27465256  1
  O2-  O289  1  0.05082194  0.24326465  0.49365742  1
  O2-  O290  1  0.97064262  0.55704209  0.23825445  1
  O2-  O291  1  0.95376144  0.22888209  0.29096227  1
  O2-  O292  1  0.45802576  0.57047374  0.00645102  1
  O2-  O293  1  0.46681153  0.82356949  0.02344499  1
  O2-  O294  1  0.45289967  0.42634314  0.98744482  1
  O2-  O295  1  0.44776548  0.56526607  0.23441650  1
  O2-  O296  1  0.55033877  0.75808169  0.50175452  1
  O2-  O297  1  0.96672824  0.56354942  0.22860791  1
  O2-  O298  1  0.53827260  0.54702168  0.28011142  1
  O2-  O299  1  0.94911128  0.56728552  0.74274855  1
  O2-  O300  1  0.04876114  0.42973010  0.00538382  1
  O2-  O301  1  0.95381456  0.45150520  0.44837967  1
  O2-  O302  1  0.54989303  0.10458541  0.23612475  1
  O2-  O303  1  0.54594458  0.89871871  0.45834064  1
  O2-  O304  1  0.03486380  0.87959471  0.72140477  1
  O2-  O305  1  0.44780308  0.77119394  0.51320487  1
  O2-  O306  1  0.04053613  0.44668951  0.70917250  1
  O2-  O307  1  0.55413145  0.76993460  0.26353827  1
  O2-  O308  1  0.55119101  0.08259399  0.76731197  1
  O2-  O309  1  0.94850049  0.24387757  0.48239958  1
  O2-  O310  1  0.94735207  0.08953357  0.52941890  1
  O2-  O311  1  0.05421552  0.42264563  0.51462793  1
  O2-  O312  1  0.50471430  0.20491189  0.72409003  1
  O2-  O313  1  0.95073292  0.41692729  0.24915093  1
  O2-  O314  1  0.55189226  0.90746347  0.74452794  1
  O2-  O315  1  0.45387132  0.55337125  0.45813927  1
  O2-  O316  1  0.45063311  0.75571935  0.47784841  1
  O2-  O317  1  0.54414511  0.23350320  0.51040380  1
  O2-  O318  1  0.95473677  0.90579678  0.49237875  1
  O2-  O319  1  0.05266482  0.23617483  0.25462248  1
  O2-  O320  1  0.05322428  0.08830847  0.48287053  1
  O2-  O321  1  0.51778321  0.78642979  0.02197380  1
  O2-  O322  1  0.44913047  0.89946111  0.75850390  1
  O2-  O323  1  0.45200094  0.90110128  0.25323202  1
  O2-  O324  1  0.43578743  0.61991060  0.57714626  1
  O2-  O325  1  0.43572456  0.07944938  0.47712866  1
  O2-  O326  1  0.56462025  0.94115298  0.58754205  1
  O2-  O327  1  0.93861955  0.74855863  0.22138103  1
  O2-  O328  1  0.43493643  0.92256104  0.53207518  1
  O2-  O329  1  0.05712238  0.25274189  0.77815156  1
  O2-  O330  1  0.43465124  0.25804521  0.27517670  1
  O2-  O331  1  0.43909697  0.59867008  0.22783457  1
  O2-  O332  1  0.93310283  0.58214380  0.92647768  1
  O2-  O333  1  0.06212665  0.74235692  0.53802705  1
  O2-  O334  1  0.93437198  0.41417999  0.02632465  1
  O2-  O335  1  0.55844073  0.59129647  0.54426058  1
  O2-  O336  1  0.06029476  0.59104416  0.82298039  1
  O2-  O337  1  0.06135785  0.61554197  0.66616664  1
  O2-  O338  1  0.92873078  0.41857762  0.82544171  1
  O2-  O339  1  0.58510338  0.60040482  0.18675520  1
  O2-  O340  1  0.44107980  0.41387975  0.72940101  1
  O2-  O341  1  0.56077399  0.24590768  0.94173495  1
  O2-  O342  1  0.57386980  0.26124306  0.81422041  1
  O2-  O343  1  0.90560198  0.60932619  0.30774366  1
  O2-  O344  1  0.56122472  0.71661116  0.91946147  1
  O2-  O345  1  0.08067298  0.93957486  0.80613059  1
  O2-  O346  1  0.92728389  0.26500922  0.21613090  1
  O2-  O347  1  0.56224989  0.73710990  0.27320460  1
  O2-  O348  1  0.56462022  0.40557594  0.53426661  1
  O2-  O349  1  0.94251295  0.07527998  0.77095262  1
  O2-  O350  1  0.05936795  0.59872561  0.51920714  1
  O2-  O351  1  0.56786546  0.92584746  0.23427839  1
  O2-  O352  1  0.06203741  0.06657734  0.27955598  1
  O2-  O353  1  0.56398261  0.26699717  0.22962924  1
  O2-  O354  1  0.92843299  0.37940301  0.55245952  1
  O2-  O355  1  0.55500089  0.91988420  0.42986255  1
  O2-  O356  1  0.57360265  0.28629932  0.67249452  1
  O2-  O357  1  0.93427170  0.07184774  0.97231511  1
  O2-  O358  1  0.43790642  0.72403649  0.91547316  1
  O2-  O359  1  0.58977980  0.74088369  0.06941720  1
  O2-  O360  1  0.43089677  0.93042457  0.97008470  1
  O2-  O361  1  0.93303169  0.58230796  0.06919303  1
  O2-  O362  1  0.93734955  0.40415194  0.68673847  1
  O2-  O363  1  0.56173478  0.26279315  0.07878765  1
  O2-  O364  1  0.43729414  0.25663406  0.02162281  1
  O2-  O365  1  0.42808848  0.71172527  0.07290762  1
  O2-  O366  1  0.06115294  0.40164838  0.21545609  1
  O2-  O367  1  0.07346663  0.39849307  0.82660420  1
  O2-  O368  1  0.93766255  0.92213375  0.78753187  1
  O2-  O369  1  0.05843503  0.92349681  0.04121783  1
  O2-  O370  1  0.55695735  0.41891856  0.77179003  1
  O2-  O371  1  0.56038021  0.73048876  0.71228863  1
  O2-  O372  1  0.75083270  0.35033578  0.17020466  1
  O2-  O373  1  0.25059266  0.34405990  0.36043785  1
  O2-  O374  1  0.25164790  0.66745245  0.35206003  1
  O2-  O375  1  0.74947942  -0.01408153  0.37692443  1
  O2-  O376  1  0.75150817  0.66588012  0.84270565  1
  O2-  O377  1  0.24723459  0.66165771  0.11338904  1
  O2-  O378  1  0.24979234  0.00737403  0.40366162  1
  O2-  O379  1  0.24970344  0.65002532  0.66129710  1
  O2-  O380  1  0.74811495  0.66147875  0.39515116  1
  O2-  O381  1  0.74996933  -0.00187563  0.91634431  1
  O2-  O382  1  0.24954608  0.00056125  0.06744316  1
  O2-  O383  1  0.74992975  -0.00006564  0.04760597  1
  O2-  O384  1  0.75201119  0.34480686  0.57486515  1
  O2-  O385  1  0.75113310  0.33614906  0.92218225  1
  O2-  O386  1  0.25170677  0.66554017  0.57051532  1
  O2-  O387  1  0.74967222  0.66059621  0.59952679  1
  O2-  O388  1  0.75110791  0.32808078  0.82804236  1
  O2-  O389  1  0.75113358  -0.00337363  0.16968130  1
  O2-  O390  1  0.25151911  0.33382194  0.85366040  1
  O2-  O391  1  0.75015790  0.32954822  0.07782502  1
  O2-  O392  1  0.24832606  0.67053796  0.89112392  1
  O2-  O393  1  0.24825997  0.01293925  0.15987368  1
  O2-  O394  1  0.74912329  0.00911477  0.82141371  1
  O2-  O395  1  0.74999293  0.32491833  0.68892800  1
  O2-  O396  1  0.25089661  0.49862096  0.57428509  1
  O2-  O397  1  0.75070377  0.15667455  0.62640772  1
  O2-  O398  1  0.75058320  0.15691708  0.90010907  1
  O2-  O399  1  0.75053250  0.80759951  0.39254663  1
  O2-  O400  1  0.75034839  0.16564122  0.34521681  1
  O2-  O401  1  0.75017824  0.50515440  0.41763840  1
  O2-  O402  1  0.74823026  0.52711781  0.14539818  1
  O2-  O403  1  0.25046434  0.16421020  0.14610877  1
  O2-  O404  1  0.74955159  0.50857619  0.85882882  1
  O2-  O405  1  0.25010753  0.85739597  0.63862259  1
  O2-  O406  1  0.24870054  0.83907794  0.91784635  1
  O2-  O407  1  0.25022363  0.16179382  0.42005059  1
  O2-  O408  1  0.25065372  0.49505753  0.66582504  1
  O2-  O409  1  0.25010104  0.49240396  0.84533873  1
  O2-  O410  1  0.24850711  0.82051495  0.10979402  1
  O2-  O411  1  0.74988095  0.80667834  0.60900420  1
  O2-  O412  1  0.25024792  0.18452844  0.06276088  1
  O2-  O413  1  0.75066073  0.82735702  0.83769292  1
  O2-  O414  1  0.25040055  0.15749287  0.64743499  1
  O2-  O415  1  0.75066550  0.83258678  0.14952213  1
  O2-  O416  1  0.75213308  0.84325324  0.92359859  1
  O2-  O417  1  0.75059454  0.81775877  0.69891202  1
  O2-  O418  1  0.24913745  0.85093988  0.38693833  1
  O2-  O419  1  0.75105333  0.80663062  0.30347946  1
  O2-  O420  1  0.02565136  0.34415674  0.37295689  1
  O2-  O421  1  0.50538413  0.35105907  0.87512269  1
  O2-  O422  1  0.47298951  0.33107020  0.61848631  1
  O2-  O423  1  0.04394569  0.65623090  0.37224567  1
  O2-  O424  1  0.01927478  0.01194238  0.88498967  1
  O2-  O425  1  0.44938036  0.01261852  0.11031168  1
  O2-  O426  1  0.97124443  -0.00349390  0.12875179  1
  O2-  O427  1  0.96777928  0.67609994  0.61865087  1
  O2-  O428  1  0.97206427  -0.00273287  0.36835776  1
  O2-  O429  1  0.02587026  0.31466680  0.62852487  1
  O2-  O430  1  0.98117504  0.32179252  0.88702454  1
  O2-  O431  1  0.47547147  0.34484620  0.13248228  1
  O2-  O432  1  0.95242163  0.69120395  0.40067889  1
  O2-  O433  1  0.47506269  0.01272048  0.63497726  1
  O2-  O434  1  0.51300493  0.65571781  0.11918002  1
  O2-  O435  1  0.97882726  0.69205230  0.86510683  1
  O2-  O436  1  0.47938380  -0.00244259  0.37628177  1
  O2-  O437  1  0.47846046  0.34002842  0.37982543  1
  O2-  O438  1  0.47719279  0.01741072  0.87532605  1
  O2-  O439  1  0.99161624  0.68389504  0.12054632  1
  O2-  O440  1  0.54304108  0.02260672  0.11046660  1
  O2-  O441  1  0.52390757  0.66244191  0.37693074  1
  O2-  O442  1  0.02575824  0.00548243  0.62759692  1
  O2-  O443  1  0.98673973  0.32546888  0.11899954  1
