# generated using pymatgen
data_La7(Ru4O11)2
_symmetry_space_group_name_H-M   'P 1'
_cell_length_a   23.99015539
_cell_length_b   16.83085616
_cell_length_c   15.42649174
_cell_angle_alpha   89.99983523
_cell_angle_beta   89.99951445
_cell_angle_gamma   90.00011560
_symmetry_Int_Tables_number   1
_chemical_formula_structural   La7(Ru4O11)2
_chemical_formula_sum   'La84 Ru96 O264'
_cell_volume   6228.82946020
_cell_formula_units_Z   12
loop_
 _symmetry_equiv_pos_site_id
 _symmetry_equiv_pos_as_xyz
  1  'x, y, z'
loop_
 _atom_type_symbol
 _atom_type_oxidation_number
  La3+  3.0
  Ru4+  4.0
  O2-  -2.0
loop_
 _atom_site_type_symbol
 _atom_site_label
 _atom_site_symmetry_multiplicity
 _atom_site_fract_x
 _atom_site_fract_y
 _atom_site_fract_z
 _atom_site_occupancy
  La3+  La0  1  0.13765935  0.00209340  0.12452770  1
  La3+  La1  1  0.13773594  0.00270952  0.37317200  1
  La3+  La2  1  0.13863327  0.00128596  0.62965638  1
  La3+  La3  1  0.14513706  0.00423792  0.87721001  1
  La3+  La4  1  0.13786236  0.32989608  0.12276451  1
  La3+  La5  1  0.13992571  0.33191084  0.37958303  1
  La3+  La6  1  0.14494999  0.33365540  0.62519800  1
  La3+  La7  1  0.13893180  0.33216095  0.87523743  1
  La3+  La8  1  0.13544128  0.66711583  0.12149306  1
  La3+  La9  1  0.13598737  0.66464278  0.37803070  1
  La3+  La10  1  0.13765736  0.66321067  0.62502085  1
  La3+  La11  1  0.13695196  0.66367750  0.87520628  1
  La3+  La12  1  0.63872853  0.00313561  0.12655898  1
  La3+  La13  1  0.63886559  0.00202007  0.37361944  1
  La3+  La14  1  0.64126750  0.00118594  0.62803253  1
  La3+  La15  1  0.64271986  0.00079083  0.87351760  1
  La3+  La16  1  0.64100843  0.33309396  0.12651217  1
  La3+  La17  1  0.63168255  0.34003624  0.37802076  1
  La3+  La18  1  0.63459045  0.33660907  0.62278119  1
  La3+  La19  1  0.64056996  0.33141317  0.87492716  1
  La3+  La20  1  0.64380238  0.66679142  0.12226763  1
  La3+  La21  1  0.63668571  0.66718756  0.37771475  1
  La3+  La22  1  0.63689447  0.66602048  0.62360876  1
  La3+  La23  1  0.64049349  0.66634992  0.87535885  1
  La3+  La24  1  0.35905863  0.00125848  0.12744596  1
  La3+  La25  1  0.36248105  0.00297381  0.37331481  1
  La3+  La26  1  0.36196174  0.00135184  0.62827527  1
  La3+  La27  1  0.35816100  0.00047181  0.87238433  1
  La3+  La28  1  0.36036931  0.32867557  0.12495806  1
  La3+  La29  1  0.36218948  0.33124337  0.37989391  1
  La3+  La30  1  0.35777599  0.33445145  0.62280961  1
  La3+  La31  1  0.35975332  0.33257027  0.87341978  1
  La3+  La32  1  0.36472227  0.66610814  0.12491363  1
  La3+  La33  1  0.36607423  0.66557804  0.37823868  1
  La3+  La34  1  0.36429648  0.66531781  0.62270681  1
  La3+  La35  1  0.36028686  0.66476515  0.87452167  1
  La3+  La36  1  0.86303194  0.00268427  0.12677017  1
  La3+  La37  1  0.86408567  0.00274569  0.37287867  1
  La3+  La38  1  0.85818333  0.00191722  0.62741210  1
  La3+  La39  1  0.85715988  0.00202162  0.87165174  1
  La3+  La40  1  0.85933214  0.33450350  0.12383796  1
  La3+  La41  1  0.86232000  0.33461342  0.37272197  1
  La3+  La42  1  0.86081527  0.33193443  0.63012547  1
  La3+  La43  1  0.85999132  0.33215193  0.87595310  1
  La3+  La44  1  0.85885695  0.66734851  0.12153867  1
  La3+  La45  1  0.86255624  0.66816725  0.37514604  1
  La3+  La46  1  0.86092548  0.66708263  0.62513108  1
  La3+  La47  1  0.85823601  0.66664066  0.87612857  1
  La3+  La48  1  0.49839129  0.16634902  0.38255480  1
  La3+  La49  1  0.49941296  0.16907738  0.61797549  1
  La3+  La50  1  0.49900590  0.83358036  0.37218159  1
  La3+  La51  1  -0.00248622  0.83743796  0.60884897  1
  La3+  La52  1  0.50096542  0.49907945  0.13270910  1
  La3+  La53  1  -0.00426608  0.82682110  0.62765682  1
  La3+  La54  1  0.50231758  0.16760973  0.13350306  1
  La3+  La55  1  0.49963126  0.83150766  0.38912737  1
  La3+  La56  1  0.00125828  0.16806345  0.36445553  1
  La3+  La57  1  0.50208907  0.16629556  0.86800174  1
  La3+  La58  1  0.49887587  0.83199986  0.11536635  1
  La3+  La59  1  0.49847088  0.49983475  0.61335649  1
  La3+  La60  1  0.00302638  0.83406745  0.89073881  1
  La3+  La61  1  0.50281932  0.49375136  0.62780613  1
  La3+  La62  1  -0.00099008  0.16897644  0.61334797  1
  La3+  La63  1  -0.00081585  0.49933197  0.63388077  1
  La3+  La64  1  0.50020799  0.83495479  0.13716734  1
  La3+  La65  1  -0.00648953  0.83276592  0.87361573  1
  La3+  La66  1  0.49910995  0.83275352  0.85441718  1
  La3+  La67  1  -0.00071948  0.50114327  0.12942054  1
  La3+  La68  1  0.50247166  0.49692763  0.39021504  1
  La3+  La69  1  0.49378699  0.82736648  0.87420052  1
  La3+  La70  1  0.00211905  0.16206411  0.63390124  1
  La3+  La71  1  -0.00009206  0.17001652  0.11469149  1
  La3+  La72  1  0.25043928  0.85732533  0.23992792  1
  La3+  La73  1  0.24984057  0.82018146  0.53518632  1
  La3+  La74  1  0.74993898  0.87160209  0.73080288  1
  La3+  La75  1  0.24974748  0.49546959  0.74013553  1
  La3+  La76  1  0.25042410  0.87102037  0.71696842  1
  La3+  La77  1  0.74990289  0.53334908  0.00286739  1
  La3+  La78  1  0.75015884  0.12798085  0.54030429  1
  La3+  La79  1  0.24950476  0.54286802  -0.00963507  1
  La3+  La80  1  0.74990528  0.80528135  0.24771755  1
  La3+  La81  1  0.74965303  0.50803686  0.50193428  1
  La3+  La82  1  0.24917923  0.48723369  0.22890098  1
  La3+  La83  1  0.25008339  0.16695768  0.76363757  1
  Ru4+  Ru84  1  -0.00017892  0.00151438  0.00261663  1
  Ru4+  Ru85  1  0.00197664  -0.00492346  0.25416402  1
  Ru4+  Ru86  1  0.00031072  -0.00356824  0.49690557  1
  Ru4+  Ru87  1  -0.00129205  0.00338839  0.75202087  1
  Ru4+  Ru88  1  -0.00085492  0.33598759  -0.00671703  1
  Ru4+  Ru89  1  -0.00017971  0.33768187  0.25395902  1
  Ru4+  Ru90  1  0.00029436  0.33420473  0.49685348  1
  Ru4+  Ru91  1  -0.00323965  0.33396362  0.75685520  1
  Ru4+  Ru92  1  0.00109253  0.66515591  0.00090839  1
  Ru4+  Ru93  1  -0.00199184  0.67058604  0.25028207  1
  Ru4+  Ru94  1  -0.00166357  0.66418210  0.50067761  1
  Ru4+  Ru95  1  0.00031559  0.66209841  0.75469975  1
  Ru4+  Ru96  1  0.50026695  0.00622161  0.00086506  1
  Ru4+  Ru97  1  0.50041723  0.00004663  0.25235934  1
  Ru4+  Ru98  1  0.50155798  -0.00244204  0.50255738  1
  Ru4+  Ru99  1  0.49609184  -0.00275296  0.74625344  1
  Ru4+  Ru100  1  0.50051704  0.33389048  -0.00313322  1
  Ru4+  Ru101  1  0.50060722  0.33311497  0.25417684  1
  Ru4+  Ru102  1  0.50481223  0.32872345  0.49524346  1
  Ru4+  Ru103  1  0.50048641  0.33267739  0.75227342  1
  Ru4+  Ru104  1  0.49998208  0.66311780  -0.00198800  1
  Ru4+  Ru105  1  0.50211572  0.66926606  0.24933108  1
  Ru4+  Ru106  1  0.49943926  0.66538253  0.50021317  1
  Ru4+  Ru107  1  0.50079883  0.66706826  0.74908218  1
  Ru4+  Ru108  1  0.11271273  0.17014664  -0.00093054  1
  Ru4+  Ru109  1  0.11514945  0.16777306  0.25018264  1
  Ru4+  Ru110  1  0.11468592  0.17056184  0.49872589  1
  Ru4+  Ru111  1  0.11198675  0.16708868  0.74924130  1
  Ru4+  Ru112  1  0.10797338  0.50194555  -0.00102994  1
  Ru4+  Ru113  1  0.10915092  0.49960235  0.24960635  1
  Ru4+  Ru114  1  0.11135753  0.49837474  0.49880093  1
  Ru4+  Ru115  1  0.11096672  0.49959260  0.75145662  1
  Ru4+  Ru116  1  0.11236904  0.83315966  0.00259816  1
  Ru4+  Ru117  1  0.10756080  0.83265501  0.24888301  1
  Ru4+  Ru118  1  0.11061818  0.83507488  0.49980914  1
  Ru4+  Ru119  1  0.11406736  0.83280287  0.75011335  1
  Ru4+  Ru120  1  0.61420949  0.16926547  -0.00049303  1
  Ru4+  Ru121  1  0.61378122  0.16447791  0.25045719  1
  Ru4+  Ru122  1  0.61096911  0.16700419  0.49990760  1
  Ru4+  Ru123  1  0.61743696  0.16762741  0.74962212  1
  Ru4+  Ru124  1  0.61105702  0.50081226  0.00083636  1
  Ru4+  Ru125  1  0.61432312  0.49655721  0.25227343  1
  Ru4+  Ru126  1  0.61455594  0.49427090  0.50049440  1
  Ru4+  Ru127  1  0.61309565  0.50076850  0.74798688  1
  Ru4+  Ru128  1  0.61584006  0.83320489  0.00147602  1
  Ru4+  Ru129  1  0.61131199  0.83611972  0.25038956  1
  Ru4+  Ru130  1  0.61396052  0.83173534  0.49895715  1
  Ru4+  Ru131  1  0.61227702  0.83316210  0.74874166  1
  Ru4+  Ru132  1  0.38461425  0.16946399  0.00088645  1
  Ru4+  Ru133  1  0.38514212  0.16848497  0.24995276  1
  Ru4+  Ru134  1  0.38582712  0.17031414  0.49933901  1
  Ru4+  Ru135  1  0.38745405  0.16761078  0.74984582  1
  Ru4+  Ru136  1  0.38852773  0.49826489  -0.00026128  1
  Ru4+  Ru137  1  0.38607375  0.49401957  0.24850031  1
  Ru4+  Ru138  1  0.38239819  0.50228481  0.49970413  1
  Ru4+  Ru139  1  0.38906386  0.49997545  0.75101228  1
  Ru4+  Ru140  1  0.38686632  0.83327008  0.00083658  1
  Ru4+  Ru141  1  0.39042030  0.83492463  0.24986342  1
  Ru4+  Ru142  1  0.38637124  0.83730072  0.50049186  1
  Ru4+  Ru143  1  0.38775872  0.83391827  0.74931446  1
  Ru4+  Ru144  1  0.88743123  0.16938625  -0.00099311  1
  Ru4+  Ru145  1  0.88231490  0.16758015  0.25057076  1
  Ru4+  Ru146  1  0.88867801  0.16612986  0.50140573  1
  Ru4+  Ru147  1  0.88529686  0.16847932  0.75268170  1
  Ru4+  Ru148  1  0.88997744  0.50056189  0.00088852  1
  Ru4+  Ru149  1  0.88763653  0.49775600  0.25037792  1
  Ru4+  Ru150  1  0.88885621  0.50197777  0.49848324  1
  Ru4+  Ru151  1  0.88620515  0.50028771  0.75082637  1
  Ru4+  Ru152  1  0.88566219  0.83099443  0.00229413  1
  Ru4+  Ru153  1  0.89142832  0.83124297  0.24890313  1
  Ru4+  Ru154  1  0.88546864  0.83124524  0.49925255  1
  Ru4+  Ru155  1  0.88715690  0.83433647  0.75002229  1
  Ru4+  Ru156  1  0.25001815  0.39181015  0.00270821  1
  Ru4+  Ru157  1  0.75049624  0.63823475  0.48978940  1
  Ru4+  Ru158  1  0.74986035  0.94477329  0.24984519  1
  Ru4+  Ru159  1  0.75021911  0.41451491  0.74594243  1
  Ru4+  Ru160  1  0.74958836  0.25272156  0.24441046  1
  Ru4+  Ru161  1  0.24997636  0.75385804  0.00102210  1
  Ru4+  Ru162  1  0.24948635  0.68911336  0.49733376  1
  Ru4+  Ru163  1  0.74997860  0.90528166  0.49853828  1
  Ru4+  Ru164  1  0.24998770  0.09334057  0.48363191  1
  Ru4+  Ru165  1  0.75009457  0.91302103  -0.00330031  1
  Ru4+  Ru166  1  0.75118678  0.38038325  0.50201134  1
  Ru4+  Ru167  1  0.75017013  0.57670105  0.24243011  1
  Ru4+  Ru168  1  0.24987477  0.60280502  0.27791392  1
  Ru4+  Ru169  1  0.75009212  0.08264084  -0.00837959  1
  Ru4+  Ru170  1  0.74993136  0.38751717  -0.00147787  1
  Ru4+  Ru171  1  0.25012099  0.72672452  0.74955562  1
  Ru4+  Ru172  1  0.25031400  0.36073584  0.24827233  1
  Ru4+  Ru173  1  0.24998318  0.94659434  0.48698991  1
  Ru4+  Ru174  1  0.24970122  0.73257722  0.26050943  1
  Ru4+  Ru175  1  0.25019411  0.09205501  0.00154985  1
  Ru4+  Ru176  1  0.75027556  0.72950536  0.74665676  1
  Ru4+  Ru177  1  0.25030721  0.98917538  0.24785522  1
  Ru4+  Ru178  1  0.74969017  0.25502700  0.49545983  1
  Ru4+  Ru179  1  0.25045871  0.91928207  0.00888020  1
  O2-  O180  1  0.16740961  0.08208902  0.00315937  1
  O2-  O181  1  0.16554997  0.07859643  0.24999912  1
  O2-  O182  1  0.16592346  0.07952154  0.49986126  1
  O2-  O183  1  0.16494585  0.08066487  0.74878063  1
  O2-  O184  1  0.16679455  0.41261837  0.00147375  1
  O2-  O185  1  0.16469633  0.41124149  0.24990122  1
  O2-  O186  1  0.16506754  0.41623505  0.50068749  1
  O2-  O187  1  0.16724270  0.41617403  0.75000451  1
  O2-  O188  1  0.16674506  0.74785285  0.00004751  1
  O2-  O189  1  0.16489727  0.74478773  0.25048976  1
  O2-  O190  1  0.16674694  0.74379960  0.49990082  1
  O2-  O191  1  0.16661765  0.74649194  0.74780992  1
  O2-  O192  1  0.66857311  0.08091844  0.00015389  1
  O2-  O193  1  0.66783931  0.08136532  0.24988459  1
  O2-  O194  1  0.66659686  0.07779388  0.49873991  1
  O2-  O195  1  0.66670812  0.08285925  0.74917271  1
  O2-  O196  1  0.66803810  0.41281823  -0.00008989  1
  O2-  O197  1  0.66642613  0.41538165  0.25126625  1
  O2-  O198  1  0.66725262  0.41075204  0.49829098  1
  O2-  O199  1  0.66749153  0.41560990  0.75016162  1
  O2-  O200  1  0.66429948  0.74868506  -0.00007720  1
  O2-  O201  1  0.66591456  0.74366041  0.25119041  1
  O2-  O202  1  0.66678607  0.74736747  0.49913416  1
  O2-  O203  1  0.66774886  0.74648071  0.74866993  1
  O2-  O204  1  0.33505891  0.25096502  -0.00020491  1
  O2-  O205  1  0.33335783  0.25132646  0.24949543  1
  O2-  O206  1  0.33312959  0.25062583  0.50044310  1
  O2-  O207  1  0.33366808  0.25149957  0.75184551  1
  O2-  O208  1  0.33605543  0.58930541  -0.00231955  1
  O2-  O209  1  0.33579243  0.58699932  0.25041863  1
  O2-  O210  1  0.33220720  0.58831200  0.50007198  1
  O2-  O211  1  0.33301199  0.58591601  0.74848362  1
  O2-  O212  1  0.33149597  0.92031886  0.00171315  1
  O2-  O213  1  0.33452587  0.92226509  0.25164332  1
  O2-  O214  1  0.33437301  0.92154516  0.50060225  1
  O2-  O215  1  0.33414609  0.91937905  0.74943476  1
  O2-  O216  1  0.83393698  0.25105010  -0.00018343  1
  O2-  O217  1  0.83262809  0.25217902  0.25071008  1
  O2-  O218  1  0.83420241  0.25365272  0.49960706  1
  O2-  O219  1  0.83224286  0.24876390  0.74853924  1
  O2-  O220  1  0.83461102  0.58519285  -0.00087239  1
  O2-  O221  1  0.83247023  0.58620585  0.25138224  1
  O2-  O222  1  0.83373077  0.58889318  0.49847493  1
  O2-  O223  1  0.83259777  0.58412255  0.75044148  1
  O2-  O224  1  0.83252703  0.92025205  0.00014964  1
  O2-  O225  1  0.83322512  0.91947778  0.25000698  1
  O2-  O226  1  0.83388333  0.91981049  0.49845363  1
  O2-  O227  1  0.83741449  0.92083475  0.74969042  1
  O2-  O228  1  0.16696055  0.25026209  0.00177709  1
  O2-  O229  1  0.16430402  0.25219801  0.25005735  1
  O2-  O230  1  0.16654120  0.25080334  0.50080483  1
  O2-  O231  1  0.16491111  0.25278820  0.75092355  1
  O2-  O232  1  0.16373521  0.58810573  0.00058400  1
  O2-  O233  1  0.16420980  0.58813276  0.25020070  1
  O2-  O234  1  0.16674971  0.58675240  0.50071096  1
  O2-  O235  1  0.16874522  0.58583425  0.74690078  1
  O2-  O236  1  0.16702094  0.91918413  0.00224942  1
  O2-  O237  1  0.16443948  0.92143349  0.25063283  1
  O2-  O238  1  0.16532553  0.92189737  0.49955213  1
  O2-  O239  1  0.16659084  0.91830085  0.74795881  1
  O2-  O240  1  0.66590934  0.25208286  -0.00022532  1
  O2-  O241  1  0.66660183  0.25292039  0.25144160  1
  O2-  O242  1  0.66506182  0.25402127  0.50000387  1
  O2-  O243  1  0.66377908  0.25280321  0.75007615  1
  O2-  O244  1  0.66338312  0.58595937  0.00005151  1
  O2-  O245  1  0.66739435  0.58666437  0.25049036  1
  O2-  O246  1  0.66528726  0.58875236  0.49814452  1
  O2-  O247  1  0.66602904  0.58464700  0.74979038  1
  O2-  O248  1  0.66964748  0.91930906  -0.00037960  1
  O2-  O249  1  0.66832256  0.91972127  0.24925615  1
  O2-  O250  1  0.66631481  0.91886642  0.50005360  1
  O2-  O251  1  0.66307216  0.92032961  0.74990611  1
  O2-  O252  1  0.33001924  0.08224502  0.00057594  1
  O2-  O253  1  0.33380637  0.07969050  0.25043064  1
  O2-  O254  1  0.33372854  0.08012333  0.49985457  1
  O2-  O255  1  0.33335625  0.08190349  0.74965295  1
  O2-  O256  1  0.33396026  0.41427721  0.00072505  1
  O2-  O257  1  0.33340398  0.41242817  0.25040119  1
  O2-  O258  1  0.33343796  0.41642416  0.50011777  1
  O2-  O259  1  0.33352324  0.41500908  0.75137505  1
  O2-  O260  1  0.33400145  0.74726486  -0.00054998  1
  O2-  O261  1  0.33358390  0.74416083  0.25115193  1
  O2-  O262  1  0.33317341  0.74592572  0.50020508  1
  O2-  O263  1  0.33387109  0.74573462  0.74834954  1
  O2-  O264  1  0.83268860  0.08040745  0.00043909  1
  O2-  O265  1  0.83385505  0.08037596  0.25001925  1
  O2-  O266  1  0.83390031  0.07764569  0.49706502  1
  O2-  O267  1  0.83506365  0.08345921  0.74890453  1
  O2-  O268  1  0.83012793  0.41420214  -0.00033597  1
  O2-  O269  1  0.83448557  0.41544615  0.25119495  1
  O2-  O270  1  0.83443600  0.41224646  0.50057220  1
  O2-  O271  1  0.83172856  0.41674563  0.75023347  1
  O2-  O272  1  0.83547542  0.74975236  0.00008167  1
  O2-  O273  1  0.83382866  0.74543619  0.25095393  1
  O2-  O274  1  0.83268742  0.74763836  0.49753566  1
  O2-  O275  1  0.83205412  0.74592285  0.74899995  1
  O2-  O276  1  0.04600797  0.43273710  0.99548127  1
  O2-  O277  1  0.04970516  0.76270208  0.01439690  1
  O2-  O278  1  0.04565810  0.43216363  0.00544853  1
  O2-  O279  1  0.53829592  0.89112597  0.96940848  1
  O2-  O280  1  0.95001171  0.76689425  0.23827867  1
  O2-  O281  1  0.03337063  0.88751701  0.74427489  1
  O2-  O282  1  0.95084882  0.90768675  0.01472575  1
  O2-  O283  1  0.45322421  0.90344807  0.48771915  1
  O2-  O284  1  0.54528046  0.57136605  0.51353488  1
  O2-  O285  1  0.04943693  0.90815453  0.01592465  1
  O2-  O286  1  0.45421259  0.10149374  0.51056192  1
  O2-  O287  1  0.54539761  0.56431906  0.73618800  1
  O2-  O288  1  0.05036656  0.09531247  0.01392413  1
  O2-  O289  1  0.54615736  0.76205544  0.26304708  1
  O2-  O290  1  0.04961699  0.76615434  0.23772592  1
  O2-  O291  1  0.45073698  0.76269948  0.48161961  1
  O2-  O292  1  0.94997310  0.43157159  0.23610076  1
  O2-  O293  1  0.95577075  0.57339726  0.26607474  1
  O2-  O294  1  0.95384919  0.23473624  0.98831440  1
  O2-  O295  1  0.54911064  0.42748027  0.48437363  1
  O2-  O296  1  0.55023873  0.57011068  0.26520482  1
  O2-  O297  1  0.95118244  0.76224259  0.01287201  1
  O2-  O298  1  0.46211458  0.55644553  0.96998832  1
  O2-  O299  1  0.54665258  0.75921988  0.99249186  1
  O2-  O300  1  0.95570039  0.09884671  0.22798573  1
  O2-  O301  1  0.55021744  0.09682327  0.00984541  1
  O2-  O302  1  0.46284115  0.44013400  0.28561405  1
  O2-  O303  1  0.45003987  0.57144112  0.23307964  1
  O2-  O304  1  0.45784256  0.12162734  0.00052066  1
  O2-  O305  1  0.54644847  0.90269108  0.73223429  1
  O2-  O306  1  0.04837535  0.75593386  0.76062672  1
  O2-  O307  1  0.54435565  0.43629029  0.51004762  1
  O2-  O308  1  0.55324302  0.08792973  0.71391416  1
  O2-  O309  1  0.03761761  0.89337848  0.72902764  1
  O2-  O310  1  0.95062654  0.09183469  0.01528479  1
  O2-  O311  1  0.55023834  0.09615636  0.98917017  1
  O2-  O312  1  0.45506469  0.43528356  0.76094776  1
  O2-  O313  1  0.95276043  0.09744584  0.26696170  1
  O2-  O314  1  0.04588429  0.43123730  0.48769935  1
  O2-  O315  1  0.04613254  0.57267081  0.48655453  1
  O2-  O316  1  0.97273385  0.20695334  0.75321518  1
  O2-  O317  1  0.45189157  0.57385052  0.27231687  1
  O2-  O318  1  0.54422080  0.23946065  0.98773987  1
  O2-  O319  1  0.45376965  0.09916967  0.23633692  1
  O2-  O320  1  0.04906385  0.43014589  0.23883448  1
  O2-  O321  1  0.44856847  0.43391714  0.51501117  1
  O2-  O322  1  0.04763403  0.76045723  0.51068503  1
  O2-  O323  1  0.04521581  0.10052777  0.48363590  1
  O2-  O324  1  0.93630101  0.59237309  0.80493127  1
  O2-  O325  1  0.93394441  0.40929254  0.54851479  1
  O2-  O326  1  0.42831766  0.60085641  0.04182470  1
  O2-  O327  1  0.43516992  0.74025188  0.22394444  1
  O2-  O328  1  0.56454108  0.58905461  0.52997319  1
  O2-  O329  1  0.93734292  0.06783347  0.78122892  1
  O2-  O330  1  0.56934780  0.39789804  0.53093656  1
  O2-  O331  1  0.43486048  0.92724905  0.78189671  1
  O2-  O332  1  0.42899142  0.39132743  0.19218760  1
  O2-  O333  1  0.44047071  0.40863512  0.54014594  1
  O2-  O334  1  0.93522637  0.73792184  0.78164898  1
  O2-  O335  1  0.06485674  0.26478566  0.96819502  1
  O2-  O336  1  0.93617589  0.07017349  0.53505711  1
  O2-  O337  1  0.56388300  0.73767089  0.46281755  1
  O2-  O338  1  0.93436420  0.58820589  0.55455595  1
  O2-  O339  1  0.43388620  0.07636462  0.69523394  1
  O2-  O340  1  0.43829668  0.73734725  0.46162360  1
  O2-  O341  1  0.56387432  0.40357943  0.28290488  1
  O2-  O342  1  0.56649657  0.73893529  0.77823397  1
  O2-  O343  1  0.93498925  0.59290451  0.02649562  1
  O2-  O344  1  0.06246426  0.26412523  0.46753583  1
  O2-  O345  1  0.55334771  0.08767044  0.71339227  1
  O2-  O346  1  0.93467088  0.74126613  0.52583635  1
  O2-  O347  1  0.06287225  0.40186160  0.77894843  1
  O2-  O348  1  0.56368198  0.06970223  0.56246917  1
  O2-  O349  1  0.43619521  0.92192721  0.06774618  1
  O2-  O350  1  0.43634790  0.26273452  0.71638533  1
  O2-  O351  1  0.57137432  0.07149540  0.79949665  1
  O2-  O352  1  0.93263207  0.25780430  0.30015150  1
  O2-  O353  1  0.43389611  0.93031339  0.93546120  1
  O2-  O354  1  0.93280725  0.40922770  0.45430432  1
  O2-  O355  1  0.56206828  0.26259185  0.21694702  1
  O2-  O356  1  0.56559614  0.07622694  0.27766203  1
  O2-  O357  1  0.91814460  0.28476442  0.78656111  1
  O2-  O358  1  0.43641979  0.25854708  0.27608966  1
  O2-  O359  1  0.93242519  0.40718335  0.02829128  1
  O2-  O360  1  0.93181775  0.25705011  0.20011750  1
  O2-  O361  1  0.93589432  0.59658435  0.44093517  1
  O2-  O362  1  0.42564212  0.05523643  0.04291071  1
  O2-  O363  1  0.07950496  0.96715676  0.80734854  1
  O2-  O364  1  0.93420823  0.59051651  0.70033606  1
  O2-  O365  1  0.43653979  0.26013222  0.47360824  1
  O2-  O366  1  0.57786355  0.93964896  0.05184580  1
  O2-  O367  1  0.93496069  0.41194519  0.71926796  1
  O2-  O368  1  0.06536154  0.59309780  0.77344062  1
  O2-  O369  1  0.43644369  0.07476643  0.81166096  1
  O2-  O370  1  0.56609547  0.07833498  0.44599350  1
  O2-  O371  1  0.06541896  0.59439133  0.97396380  1
  O2-  O372  1  0.24973552  0.01546423  0.58649309  1
  O2-  O373  1  0.24975932  0.66130224  0.15611410  1
  O2-  O374  1  0.24961285  0.32693085  0.13548099  1
  O2-  O375  1  0.25010250  0.00095039  0.92290088  1
  O2-  O376  1  0.25027085  0.33277119  0.90368438  1
  O2-  O377  1  0.75013808  -0.00074818  0.66966269  1
  O2-  O378  1  0.24981481  -0.00009087  0.68159465  1
  O2-  O379  1  0.24968305  0.33667542  0.65697362  1
  O2-  O380  1  0.74959827  0.66011191  0.10420543  1
  O2-  O381  1  0.74991648  -0.00157680  0.57742712  1
  O2-  O382  1  0.24990686  0.33620533  0.43086548  1
  O2-  O383  1  0.24993436  0.66861457  0.37632658  1
  O2-  O384  1  0.25009157  0.66074001  0.06367139  1
  O2-  O385  1  0.25000675  -0.00033126  0.82757857  1
  O2-  O386  1  0.75008484  -0.00057417  0.85700438  1
  O2-  O387  1  0.24977421  0.01109794  0.38441989  1
  O2-  O388  1  0.74980803  0.34022583  0.84400464  1
  O2-  O389  1  0.74996232  0.65563257  0.83359240  1
  O2-  O390  1  0.25039344  0.66311319  0.84913733  1
  O2-  O391  1  0.24995664  0.31014637  0.34941226  1
  O2-  O392  1  0.74992999  0.66547692  0.92257022  1
  O2-  O393  1  0.74990595  0.33173794  0.15573441  1
  O2-  O394  1  0.74998693  0.33735518  0.65641221  1
  O2-  O395  1  0.74974298  0.67010650  0.60290753  1
  O2-  O396  1  0.74992876  0.16993815  0.65875743  1
  O2-  O397  1  0.24987417  0.16148200  0.35023026  1
  O2-  O398  1  0.75004563  0.50385840  0.16188565  1
  O2-  O399  1  0.25006273  0.16107156  0.15097834  1
  O2-  O400  1  0.75009278  0.16084833  0.16613791  1
  O2-  O401  1  0.25011160  0.83742394  0.93029389  1
  O2-  O402  1  0.75010656  0.49540928  0.63767702  1
  O2-  O403  1  0.75004653  0.17002540  0.08030527  1
  O2-  O404  1  0.75013834  0.16299521  0.31702455  1
  O2-  O405  1  0.74992973  0.17206746  0.40296359  1
  O2-  O406  1  0.24986671  0.17696962  0.55561450  1
  O2-  O407  1  0.24998219  0.16271253  0.89547408  1
  O2-  O408  1  0.24975222  0.82740581  0.84121524  1
  O2-  O409  1  0.24998123  0.50309659  0.36379124  1
  O2-  O410  1  0.25032285  0.16506486  0.63923514  1
  O2-  O411  1  0.74991241  0.83679233  0.40727768  1
  O2-  O412  1  0.24994073  0.83544307  0.38932798  1
  O2-  O413  1  0.25026107  0.48957356  0.87111852  1
  O2-  O414  1  0.74999450  0.82972350  0.86531019  1
  O2-  O415  1  0.75006340  0.83582308  0.58573463  1
  O2-  O416  1  0.75017600  0.50370171  0.36335608  1
  O2-  O417  1  0.74990803  0.16294116  0.84773298  1
  O2-  O418  1  0.25033036  0.48838532  0.10316557  1
  O2-  O419  1  0.75003321  0.84012388  0.08846288  1
  O2-  O420  1  0.97534473  0.33479368  0.12104659  1
  O2-  O421  1  0.97734977  0.34018688  0.87969584  1
  O2-  O422  1  0.45596476  0.00204809  0.37252703  1
  O2-  O423  1  0.03194991  0.66243600  0.12424511  1
  O2-  O424  1  0.98100669  0.33181650  0.37424769  1
  O2-  O425  1  0.52490934  0.66196878  0.87783937  1
  O2-  O426  1  0.47736136  0.33828451  0.37956923  1
  O2-  O427  1  0.53897967  0.67315914  0.63250526  1
  O2-  O428  1  0.54072953  0.33613027  0.87046359  1
  O2-  O429  1  0.45966515  0.33043753  0.87942519  1
  O2-  O430  1  0.52381334  0.00282042  0.13565701  1
  O2-  O431  1  0.02316267  0.67531993  0.87827972  1
  O2-  O432  1  0.98189729  0.67406268  0.62996929  1
  O2-  O433  1  0.97173817  0.66694287  0.12889966  1
  O2-  O434  1  0.47982432  0.67102193  0.12366354  1
  O2-  O435  1  0.45715827  0.66333883  0.62950775  1
  O2-  O436  1  0.52608789  0.32760732  0.63108016  1
  O2-  O437  1  0.53629441  -0.01791952  0.37254924  1
  O2-  O438  1  0.47424136  -0.00754996  0.61900679  1
  O2-  O439  1  0.52383383  -0.00721834  0.87620219  1
  O2-  O440  1  0.03394099  0.32944197  0.12665032  1
  O2-  O441  1  0.02880569  0.00236700  0.62333463  1
  O2-  O442  1  0.97991346  0.32212892  0.62720394  1
  O2-  O443  1  0.97242316  -0.00172014  0.37642857  1
