# generated using pymatgen
data_La7(Ru4O11)2
_symmetry_space_group_name_H-M   'P 1'
_cell_length_a   23.98938233
_cell_length_b   16.82903697
_cell_length_c   15.42584927
_cell_angle_alpha   89.99991080
_cell_angle_beta   89.99995652
_cell_angle_gamma   90.00028318
_symmetry_Int_Tables_number   1
_chemical_formula_structural   La7(Ru4O11)2
_chemical_formula_sum   'La84 Ru96 O264'
_cell_volume   6227.69613446
_cell_formula_units_Z   12
loop_
 _symmetry_equiv_pos_site_id
 _symmetry_equiv_pos_as_xyz
  1  'x, y, z'
loop_
 _atom_type_symbol
 _atom_type_oxidation_number
  La3+  3.0
  Ru4+  4.0
  O2-  -2.0
loop_
 _atom_site_type_symbol
 _atom_site_label
 _atom_site_symmetry_multiplicity
 _atom_site_fract_x
 _atom_site_fract_y
 _atom_site_fract_z
 _atom_site_occupancy
  La3+  La0  1  0.13915700  0.00028543  0.12518482  1
  La3+  La1  1  0.13863530  -0.00017877  0.37556588  1
  La3+  La2  1  0.13853595  -0.00013266  0.62335145  1
  La3+  La3  1  0.13795454  0.00022559  0.87584179  1
  La3+  La4  1  0.14052113  0.33247443  0.12463752  1
  La3+  La5  1  0.13901663  0.33319473  0.37437501  1
  La3+  La6  1  0.13852970  0.33347439  0.62407369  1
  La3+  La7  1  0.13811553  0.33213066  0.87623519  1
  La3+  La8  1  0.14038865  0.66669840  0.12572672  1
  La3+  La9  1  0.14068475  0.66590679  0.37653332  1
  La3+  La10  1  0.13830767  0.66704151  0.62409831  1
  La3+  La11  1  0.13938788  0.66800655  0.87444210  1
  La3+  La12  1  0.63762006  0.00093133  0.12503720  1
  La3+  La13  1  0.63795424  0.00023212  0.37450329  1
  La3+  La14  1  0.63862624  -0.00035139  0.62479135  1
  La3+  La15  1  0.63838602  0.00008601  0.87534636  1
  La3+  La16  1  0.63965843  0.33385230  0.12535626  1
  La3+  La17  1  0.63737303  0.33354326  0.37484509  1
  La3+  La18  1  0.63737917  0.33275986  0.62440733  1
  La3+  La19  1  0.63986907  0.33301969  0.87529970  1
  La3+  La20  1  0.63966254  0.66525250  0.12346622  1
  La3+  La21  1  0.63673641  0.66690331  0.37599667  1
  La3+  La22  1  0.63924831  0.66697910  0.62656459  1
  La3+  La23  1  0.64113882  0.66601027  0.87459468  1
  La3+  La24  1  0.36183553  0.00103670  0.12527296  1
  La3+  La25  1  0.36182085  0.00014712  0.37445648  1
  La3+  La26  1  0.36181116  -0.00016166  0.62400766  1
  La3+  La27  1  0.36298434  0.00101918  0.87664673  1
  La3+  La28  1  0.35979398  0.33239169  0.12379315  1
  La3+  La29  1  0.36045318  0.33307031  0.37439768  1
  La3+  La30  1  0.36157705  0.33356614  0.62403860  1
  La3+  La31  1  0.36162200  0.33257297  0.87717969  1
  La3+  La32  1  0.36047407  0.66750673  0.12515136  1
  La3+  La33  1  0.35998442  0.66722657  0.37503678  1
  La3+  La34  1  0.36181712  0.66737545  0.62360527  1
  La3+  La35  1  0.36088824  0.66770624  0.87559249  1
  La3+  La36  1  0.86292556  0.00049214  0.12402371  1
  La3+  La37  1  0.86294522  0.00026612  0.37517710  1
  La3+  La38  1  0.86196215  -0.00026437  0.62442899  1
  La3+  La39  1  0.86281119  -0.00002457  0.87620976  1
  La3+  La40  1  0.85978275  0.33458650  0.12569610  1
  La3+  La41  1  0.86304616  0.33437542  0.37405551  1
  La3+  La42  1  0.86247538  0.33387868  0.62526317  1
  La3+  La43  1  0.86051751  0.33350230  0.87532089  1
  La3+  La44  1  0.86049270  0.66561543  0.12285454  1
  La3+  La45  1  0.86274613  0.66616751  0.37547097  1
  La3+  La46  1  0.86059900  0.66532811  0.62879863  1
  La3+  La47  1  0.85999520  0.66502552  0.87299145  1
  La3+  La48  1  0.50110279  0.50081975  0.38694374  1
  La3+  La49  1  0.00059233  0.83302318  0.63681948  1
  La3+  La50  1  -0.00006388  0.49940174  0.36653750  1
  La3+  La51  1  0.49850241  0.49725752  0.63031493  1
  La3+  La52  1  -0.00108179  0.49949307  0.61639858  1
  La3+  La53  1  -0.00154512  0.83338560  0.13508564  1
  La3+  La54  1  0.00113150  0.16472713  0.88343223  1
  La3+  La55  1  0.49909605  0.49932400  0.88622630  1
  La3+  La56  1  0.50000755  0.16861489  0.88497505  1
  La3+  La57  1  0.00344183  0.83734846  0.11419073  1
  La3+  La58  1  -0.00025273  0.16672883  0.61471167  1
  La3+  La59  1  0.49907934  0.16511475  0.86327758  1
  La3+  La60  1  0.49892971  0.83324887  0.88495125  1
  La3+  La61  1  -0.00052322  0.83312382  0.61464974  1
  La3+  La62  1  0.49756639  0.16776145  0.11867164  1
  La3+  La63  1  -0.00142335  0.50156503  0.86330817  1
  La3+  La64  1  0.50112467  0.16859704  0.36672505  1
  La3+  La65  1  0.50036708  0.83378248  0.11567388  1
  La3+  La66  1  0.49955658  0.16771619  0.63523466  1
  La3+  La67  1  -0.00013056  0.16707809  0.11531008  1
  La3+  La68  1  0.49987353  0.50092695  0.86759822  1
  La3+  La69  1  -0.00062609  0.49957411  0.13403923  1
  La3+  La70  1  0.49976197  0.83291678  0.63573962  1
  La3+  La71  1  0.50175512  0.50062230  0.37025048  1
  La3+  La72  1  0.25001856  0.83259846  0.49784213  1
  La3+  La73  1  0.75045714  0.16867383  0.52818503  1
  La3+  La74  1  0.74993793  0.80292753  -0.00111912  1
  La3+  La75  1  0.24995660  0.50100107  0.77710301  1
  La3+  La76  1  0.25005709  0.49955441  0.00399450  1
  La3+  La77  1  0.75003585  0.83289752  0.25098337  1
  La3+  La78  1  0.74998789  0.19614720  0.75117046  1
  La3+  La79  1  0.75009207  0.16768627  0.01782431  1
  La3+  La80  1  0.74998814  0.46077896  0.50874756  1
  La3+  La81  1  0.25000546  0.13854158  0.52890582  1
  La3+  La82  1  0.25010101  0.19701550  0.72237989  1
  La3+  La83  1  0.25017150  0.80439039  -0.00054914  1
  Ru4+  Ru84  1  0.00220867  0.00397659  -0.00456072  1
  Ru4+  Ru85  1  -0.00101566  -0.00044920  0.25205380  1
  Ru4+  Ru86  1  -0.00002512  0.00170113  0.49971766  1
  Ru4+  Ru87  1  0.00042521  0.00227806  0.75121292  1
  Ru4+  Ru88  1  0.00257241  0.33673595  -0.00116068  1
  Ru4+  Ru89  1  0.00157757  0.33490539  0.25598349  1
  Ru4+  Ru90  1  -0.00051836  0.33257934  0.49743051  1
  Ru4+  Ru91  1  0.00036514  0.33250602  0.75040420  1
  Ru4+  Ru92  1  0.00048525  0.66274337  -0.00156344  1
  Ru4+  Ru93  1  0.00006912  0.66613063  0.25481156  1
  Ru4+  Ru94  1  0.00108139  0.66581278  0.49816081  1
  Ru4+  Ru95  1  0.00260637  0.67037923  0.74846639  1
  Ru4+  Ru96  1  0.50088712  -0.00816647  0.00055962  1
  Ru4+  Ru97  1  0.50411382  -0.00279120  0.24832748  1
  Ru4+  Ru98  1  0.49718645  -0.00029204  0.50261627  1
  Ru4+  Ru99  1  0.49937932  0.00116237  0.74967952  1
  Ru4+  Ru100  1  0.49909811  0.33481743  0.00229086  1
  Ru4+  Ru101  1  0.50119082  0.33093508  0.24807872  1
  Ru4+  Ru102  1  0.49800089  0.33542521  0.49942882  1
  Ru4+  Ru103  1  0.49946810  0.33250520  0.74995221  1
  Ru4+  Ru104  1  0.49844039  0.66524159  -0.00032851  1
  Ru4+  Ru105  1  0.50442164  0.66820664  0.24709936  1
  Ru4+  Ru106  1  0.49786539  0.66253029  0.50228948  1
  Ru4+  Ru107  1  0.49596657  0.67305839  0.74915425  1
  Ru4+  Ru108  1  0.11339584  0.16708332  -0.00005737  1
  Ru4+  Ru109  1  0.11404002  0.16960680  0.25058226  1
  Ru4+  Ru110  1  0.11188978  0.16628343  0.49930951  1
  Ru4+  Ru111  1  0.11174594  0.16795188  0.75057968  1
  Ru4+  Ru112  1  0.11316061  0.49844526  0.00013779  1
  Ru4+  Ru113  1  0.11294236  0.49956882  0.24979340  1
  Ru4+  Ru114  1  0.11410423  0.49953779  0.50024054  1
  Ru4+  Ru115  1  0.11152560  0.50081271  0.75012143  1
  Ru4+  Ru116  1  0.11303482  0.83441264  -0.00051451  1
  Ru4+  Ru117  1  0.11518215  0.83447244  0.25038897  1
  Ru4+  Ru118  1  0.11204752  0.83251706  0.50037582  1
  Ru4+  Ru119  1  0.11282077  0.83149319  0.75042871  1
  Ru4+  Ru120  1  0.61393067  0.16759543  0.00019882  1
  Ru4+  Ru121  1  0.61200070  0.16685003  0.25002867  1
  Ru4+  Ru122  1  0.61425659  0.16536464  0.49965057  1
  Ru4+  Ru123  1  0.61141081  0.16674307  0.75036468  1
  Ru4+  Ru124  1  0.61334028  0.50118868  0.00013958  1
  Ru4+  Ru125  1  0.61329217  0.49859440  0.25002083  1
  Ru4+  Ru126  1  0.61187548  0.49954362  0.49959849  1
  Ru4+  Ru127  1  0.61759214  0.49598833  0.75022492  1
  Ru4+  Ru128  1  0.61265446  0.83456364  -0.00016123  1
  Ru4+  Ru129  1  0.61042730  0.83331197  0.24991540  1
  Ru4+  Ru130  1  0.61824951  0.83600135  0.49885400  1
  Ru4+  Ru131  1  0.61422730  0.83027150  0.75008020  1
  Ru4+  Ru132  1  0.38407423  0.16951052  0.00034412  1
  Ru4+  Ru133  1  0.38451943  0.17082121  0.25066119  1
  Ru4+  Ru134  1  0.38830864  0.16621938  0.50025913  1
  Ru4+  Ru135  1  0.38841707  0.16726994  0.74936987  1
  Ru4+  Ru136  1  0.38795519  0.49871803  0.00022504  1
  Ru4+  Ru137  1  0.38327123  0.49833295  0.24839311  1
  Ru4+  Ru138  1  0.38531454  0.49957524  0.49975087  1
  Ru4+  Ru139  1  0.38866996  0.50106464  0.74992169  1
  Ru4+  Ru140  1  0.38851764  0.83297810  -0.00032705  1
  Ru4+  Ru141  1  0.38364317  0.83459972  0.25041548  1
  Ru4+  Ru142  1  0.38818390  0.83268219  0.50041522  1
  Ru4+  Ru143  1  0.38676254  0.83255180  0.75003191  1
  Ru4+  Ru144  1  0.88666778  0.16486109  0.00005909  1
  Ru4+  Ru145  1  0.88561192  0.16324004  0.25050605  1
  Ru4+  Ru146  1  0.88868545  0.16687414  0.50045387  1
  Ru4+  Ru147  1  0.88859963  0.16615437  0.74990788  1
  Ru4+  Ru148  1  0.88610968  0.50104754  0.00003243  1
  Ru4+  Ru149  1  0.88637336  0.49781092  0.25005574  1
  Ru4+  Ru150  1  0.88816247  0.49926527  0.49911535  1
  Ru4+  Ru151  1  0.88459000  0.49909882  0.75054864  1
  Ru4+  Ru152  1  0.88449781  0.83203237  -0.00094395  1
  Ru4+  Ru153  1  0.88854404  0.83262624  0.25069128  1
  Ru4+  Ru154  1  0.88651623  0.83480130  0.49920363  1
  Ru4+  Ru155  1  0.88577953  0.82991829  0.75019315  1
  Ru4+  Ru156  1  0.25009671  0.27249368  0.49824990  1
  Ru4+  Ru157  1  0.74988330  0.24931060  0.24876838  1
  Ru4+  Ru158  1  0.75002118  0.42115975  -0.00447227  1
  Ru4+  Ru159  1  0.25005923  0.37726333  0.75065257  1
  Ru4+  Ru160  1  0.74991124  0.06596170  0.74033138  1
  Ru4+  Ru161  1  0.24995938  0.91345289  0.75678864  1
  Ru4+  Ru162  1  0.25015975  0.06515358  0.76046834  1
  Ru4+  Ru163  1  0.74997175  0.57935065  0.24324730  1
  Ru4+  Ru164  1  0.75014998  0.41960183  0.75128108  1
  Ru4+  Ru165  1  0.24977687  0.41729775  0.24964650  1
  Ru4+  Ru166  1  0.74980017  0.09008971  0.25121719  1
  Ru4+  Ru167  1  0.75000017  0.60260037  0.51320565  1
  Ru4+  Ru168  1  0.74993857  0.70881612  0.23219410  1
  Ru4+  Ru169  1  0.24974066  0.58046626  0.25222755  1
  Ru4+  Ru170  1  0.75020941  0.29463435  0.49681780  1
  Ru4+  Ru171  1  0.25014074  0.93657044  -0.00722483  1
  Ru4+  Ru172  1  0.75006410  0.95780522  0.25002558  1
  Ru4+  Ru173  1  0.24988028  0.08531395  0.24958971  1
  Ru4+  Ru174  1  0.25012031  0.62410794  0.74043683  1
  Ru4+  Ru175  1  0.75011645  0.91085016  0.49947991  1
  Ru4+  Ru176  1  0.74985595  0.93359227  0.00793431  1
  Ru4+  Ru177  1  0.75006905  0.04389490  0.49035272  1
  Ru4+  Ru178  1  0.75024365  0.75456738  0.50463173  1
  Ru4+  Ru179  1  0.75000334  0.91195453  0.74829355  1
  O2-  O180  1  0.16715054  0.08044449  -0.00048901  1
  O2-  O181  1  0.16778215  0.08096324  0.24995167  1
  O2-  O182  1  0.16732876  0.08022008  0.50007122  1
  O2-  O183  1  0.16650822  0.07964319  0.74985791  1
  O2-  O184  1  0.16637728  0.41435445  -0.00091648  1
  O2-  O185  1  0.16782762  0.41461200  0.24959444  1
  O2-  O186  1  0.16692317  0.41439844  0.50045804  1
  O2-  O187  1  0.16660149  0.41262141  0.75014933  1
  O2-  O188  1  0.16793278  0.74685379  -0.00065529  1
  O2-  O189  1  0.16816942  0.74839339  0.24966534  1
  O2-  O190  1  0.16712437  0.74742947  0.50119939  1
  O2-  O191  1  0.16768083  0.74775871  0.74848752  1
  O2-  O192  1  0.66815002  0.08003222  0.00049290  1
  O2-  O193  1  0.66780038  0.08040879  0.24990390  1
  O2-  O194  1  0.66615853  0.07999827  0.49973717  1
  O2-  O195  1  0.66697213  0.07924121  0.74962742  1
  O2-  O196  1  0.66725141  0.41383603  0.00059709  1
  O2-  O197  1  0.66676765  0.41454971  0.25078388  1
  O2-  O198  1  0.66603456  0.41223098  0.50002827  1
  O2-  O199  1  0.66856599  0.41330958  0.74960166  1
  O2-  O200  1  0.66753469  0.74735266  0.00010779  1
  O2-  O201  1  0.66557287  0.74632480  0.25012353  1
  O2-  O202  1  0.66794473  0.74819569  0.50015868  1
  O2-  O203  1  0.66650882  0.74919157  0.75020236  1
  O2-  O204  1  0.33348718  0.25196120  -0.00110700  1
  O2-  O205  1  0.33277465  0.25098048  0.24970634  1
  O2-  O206  1  0.33263292  0.25372610  0.50050344  1
  O2-  O207  1  0.33323065  0.25400236  0.75094260  1
  O2-  O208  1  0.33314158  0.58649880  -0.00075219  1
  O2-  O209  1  0.33221900  0.58524296  0.25013057  1
  O2-  O210  1  0.33343498  0.58542933  0.50108588  1
  O2-  O211  1  0.33330195  0.58688378  0.74952160  1
  O2-  O212  1  0.33294292  0.92036411  -0.00018075  1
  O2-  O213  1  0.33253670  0.91814782  0.24986864  1
  O2-  O214  1  0.33274020  0.91965030  0.49947014  1
  O2-  O215  1  0.33247605  0.91939307  0.74992100  1
  O2-  O216  1  0.83206648  0.25286740  -0.00004009  1
  O2-  O217  1  0.83200287  0.25196940  0.25078320  1
  O2-  O218  1  0.83364420  0.25420517  0.50042624  1
  O2-  O219  1  0.83245806  0.25401061  0.74961680  1
  O2-  O220  1  0.83368434  0.58483707  0.00006362  1
  O2-  O221  1  0.83282453  0.58630416  0.24992855  1
  O2-  O222  1  0.83262436  0.58664427  0.50016121  1
  O2-  O223  1  0.83317138  0.58409630  0.75002201  1
  O2-  O224  1  0.83309083  0.92000661  -0.00003845  1
  O2-  O225  1  0.83458610  0.92042698  0.24992426  1
  O2-  O226  1  0.83237134  0.91896125  0.49960598  1
  O2-  O227  1  0.83117084  0.91981986  0.74996221  1
  O2-  O228  1  0.16658760  0.25217030  -0.00084449  1
  O2-  O229  1  0.16706028  0.25094498  0.24937308  1
  O2-  O230  1  0.16761425  0.25340740  0.50085974  1
  O2-  O231  1  0.16753534  0.25325958  0.75033454  1
  O2-  O232  1  0.16792377  0.58641167  -0.00039950  1
  O2-  O233  1  0.16791445  0.58562910  0.24992066  1
  O2-  O234  1  0.16680322  0.58536896  0.50119580  1
  O2-  O235  1  0.16665651  0.58669895  0.74909102  1
  O2-  O236  1  0.16665696  0.91975834  -0.00063420  1
  O2-  O237  1  0.16682864  0.91826541  0.25002000  1
  O2-  O238  1  0.16746386  0.92008726  0.49988192  1
  O2-  O239  1  0.16727259  0.91978355  0.74962884  1
  O2-  O240  1  0.66700592  0.25279696  0.00061195  1
  O2-  O241  1  0.66800542  0.25285186  0.25071624  1
  O2-  O242  1  0.66612057  0.25355295  0.50016897  1
  O2-  O243  1  0.66813615  0.25419785  0.74944140  1
  O2-  O244  1  0.66635942  0.58500914  -0.00002548  1
  O2-  O245  1  0.66733013  0.58616562  0.25021162  1
  O2-  O246  1  0.66770674  0.58715024  0.50018521  1
  O2-  O247  1  0.66731671  0.58465168  0.74972088  1
  O2-  O248  1  0.66677743  0.92026877  0.00046021  1
  O2-  O249  1  0.66544374  0.92038069  0.24991022  1
  O2-  O250  1  0.66774669  0.91902756  0.49995837  1
  O2-  O251  1  0.66884655  0.91953171  0.74986106  1
  O2-  O252  1  0.33218232  0.08072130  0.00000874  1
  O2-  O253  1  0.33249111  0.08086998  0.24974024  1
  O2-  O254  1  0.33290408  0.07983208  0.49964126  1
  O2-  O255  1  0.33250591  0.07930835  0.75017599  1
  O2-  O256  1  0.33232434  0.41405907  -0.00147291  1
  O2-  O257  1  0.33182025  0.41446259  0.24958021  1
  O2-  O258  1  0.33226748  0.41438247  0.50072501  1
  O2-  O259  1  0.33324860  0.41228864  0.75022565  1
  O2-  O260  1  0.33286197  0.74658948  -0.00064352  1
  O2-  O261  1  0.33306166  0.74874828  0.24987346  1
  O2-  O262  1  0.33280665  0.74725779  0.50101078  1
  O2-  O263  1  0.33333371  0.74768278  0.74904292  1
  O2-  O264  1  0.83271877  0.08034813  0.00040455  1
  O2-  O265  1  0.83222646  0.08168099  0.25008984  1
  O2-  O266  1  0.83394961  0.07904068  0.49978109  1
  O2-  O267  1  0.83315614  0.07986139  0.74985294  1
  O2-  O268  1  0.83258979  0.41417783  0.00012004  1
  O2-  O269  1  0.83225389  0.41502463  0.25078568  1
  O2-  O270  1  0.83315280  0.41258930  0.50034477  1
  O2-  O271  1  0.83137082  0.41426005  0.74946529  1
  O2-  O272  1  0.83272667  0.74791314  -0.00006516  1
  O2-  O273  1  0.83433235  0.74621105  0.25020210  1
  O2-  O274  1  0.83223771  0.74741756  0.49986813  1
  O2-  O275  1  0.83334018  0.74934584  0.75026554  1
  O2-  O276  1  0.03803486  0.78149940  0.25849913  1
  O2-  O277  1  0.96041835  0.22414519  0.25498981  1
  O2-  O278  1  0.95181613  0.76387054  0.26606107  1
  O2-  O279  1  0.54042970  0.89792791  0.52637485  1
  O2-  O280  1  0.04565589  0.43155389  0.76311581  1
  O2-  O281  1  0.54796662  0.76248675  0.23307784  1
  O2-  O282  1  0.45168951  0.09852885  0.98439383  1
  O2-  O283  1  0.95408291  0.90449933  0.23780283  1
  O2-  O284  1  0.95289020  0.56952246  0.73257337  1
  O2-  O285  1  0.54164629  0.10634870  0.02789774  1
  O2-  O286  1  0.45316990  0.43118488  0.73550031  1
  O2-  O287  1  0.45444807  0.76304031  0.73664120  1
  O2-  O288  1  0.95241889  0.90363714  0.01482165  1
  O2-  O289  1  0.54455916  0.56880545  0.01457667  1
  O2-  O290  1  0.54479183  0.43106893  0.01433804  1
  O2-  O291  1  0.04660939  0.56726435  0.23561722  1
  O2-  O292  1  0.96043926  0.89220975  0.77795791  1
  O2-  O293  1  0.45417776  0.09820389  0.26890684  1
  O2-  O294  1  0.95373041  0.56822608  0.26435294  1
  O2-  O295  1  0.54038091  0.77225509  0.49645454  1
  O2-  O296  1  0.45327538  0.76315988  0.23053758  1
  O2-  O297  1  0.54275175  0.77336870  0.51204401  1
  O2-  O298  1  0.54123241  0.89266352  0.77955664  1
  O2-  O299  1  0.96582264  0.22136317  0.26153491  1
  O2-  O300  1  0.45066996  0.76442395  0.51640908  1
  O2-  O301  1  0.04054271  0.77404949  0.97193447  1
  O2-  O302  1  0.55442036  0.58040787  0.72118695  1
  O2-  O303  1  0.45745683  0.89542050  0.22472944  1
  O2-  O304  1  0.54526942  0.23715496  0.01411541  1
  O2-  O305  1  0.45008616  0.57406895  0.28664863  1
  O2-  O306  1  0.54668574  0.43190158  0.76594503  1
  O2-  O307  1  0.45934322  0.43794989  0.27508878  1
  O2-  O308  1  0.45496901  0.56749389  0.51521266  1
  O2-  O309  1  0.45331048  0.76487497  0.26938372  1
  O2-  O310  1  0.04514175  0.56828243  0.51510865  1
  O2-  O311  1  0.95499867  0.23382030  0.76447402  1
  O2-  O312  1  0.45480954  0.09972091  0.22953951  1
  O2-  O313  1  0.45289947  0.90277195  0.73526875  1
  O2-  O314  1  0.95482905  0.56792654  0.98624150  1
  O2-  O315  1  0.04472859  0.09810055  0.76354240  1
  O2-  O316  1  0.54704773  0.90261724  0.23510049  1
  O2-  O317  1  0.54658407  0.56787303  0.26339858  1
  O2-  O318  1  0.54679581  0.23842621  0.51666410  1
  O2-  O319  1  0.94648831  0.23956811  0.96116124  1
  O2-  O320  1  0.04558545  0.90126897  0.51449722  1
  O2-  O321  1  0.94848073  0.76214198  0.03414501  1
  O2-  O322  1  0.53952182  0.10605861  0.52743317  1
  O2-  O323  1  0.95513945  0.43171133  0.01389324  1
  O2-  O324  1  0.56274030  0.26283999  0.53184994  1
  O2-  O325  1  0.07072931  0.73203637  0.04103599  1
  O2-  O326  1  0.06412695  0.06931880  0.29898230  1
  O2-  O327  1  0.93525258  0.06819329  0.28310967  1
  O2-  O328  1  0.43659711  0.40172525  0.46738093  1
  O2-  O329  1  0.57051490  0.93416327  0.45913297  1
  O2-  O330  1  0.55448844  0.58049633  0.72136456  1
  O2-  O331  1  0.94905290  0.24925572  0.95485033  1
  O2-  O332  1  0.92933564  0.93702348  0.70795522  1
  O2-  O333  1  0.43621955  0.06918200  0.71756619  1
  O2-  O334  1  0.43616661  0.26371667  0.28374925  1
  O2-  O335  1  0.56958549  0.94047471  0.70380993  1
  O2-  O336  1  0.56694123  0.60321237  0.79912151  1
  O2-  O337  1  0.56995063  0.05904018  0.95286493  1
  O2-  O338  1  0.93501102  0.40500060  0.27951460  1
  O2-  O339  1  0.56421136  0.73548140  0.94827512  1
  O2-  O340  1  0.42946052  0.93532826  0.29031588  1
  O2-  O341  1  0.06362979  0.06833293  0.46823101  1
  O2-  O342  1  0.92736757  0.26972346  0.06450573  1
  O2-  O343  1  0.06553863  0.07282758  0.20551098  1
  O2-  O344  1  0.93574800  0.93147069  0.46793098  1
  O2-  O345  1  0.06422186  0.26533100  0.78267435  1
  O2-  O346  1  0.42936565  0.39798640  0.20795078  1
  O2-  O347  1  0.93614084  0.92683750  0.03102706  1
  O2-  O348  1  0.94335184  0.74817259  0.04141997  1
  O2-  O349  1  0.43488325  0.40431727  0.02786571  1
  O2-  O350  1  0.93803957  0.59546755  0.71842729  1
  O2-  O351  1  0.93582503  0.73505287  0.55165720  1
  O2-  O352  1  0.56371938  0.26421067  0.78276967  1
  O2-  O353  1  0.07474636  0.72212463  0.28658359  1
  O2-  O354  1  0.57092800  0.06529526  0.45789232  1
  O2-  O355  1  0.06473735  0.26489999  0.28139488  1
  O2-  O356  1  0.06573299  0.59306725  0.04651722  1
  O2-  O357  1  0.93525145  0.59528818  0.46728317  1
  O2-  O358  1  0.43639272  0.07370315  0.96921515  1
  O2-  O359  1  0.93599060  0.73771046  0.44854531  1
  O2-  O360  1  0.56465426  0.59364167  0.46956678  1
  O2-  O361  1  0.44385417  0.58271685  0.29133929  1
  O2-  O362  1  0.91833254  0.28277133  0.20248531  1
  O2-  O363  1  0.06607038  0.59401136  0.95348765  1
  O2-  O364  1  0.56407830  0.73510402  0.05179418  1
  O2-  O365  1  0.57512850  0.72357130  0.45793753  1
  O2-  O366  1  0.06458940  0.73689534  0.77861136  1
  O2-  O367  1  0.06369068  0.26511093  0.46945352  1
  O2-  O368  1  0.43044032  0.60722200  0.18427777  1
  O2-  O369  1  0.93496261  0.40497803  0.47153107  1
  O2-  O370  1  0.93558754  0.40195002  0.78256504  1
  O2-  O371  1  0.92860140  0.73086087  0.94019711  1
  O2-  O372  1  0.75001880  0.33438197  0.90685744  1
  O2-  O373  1  0.74988612  -0.00316901  0.59815700  1
  O2-  O374  1  0.74989903  0.65671443  0.33452824  1
  O2-  O375  1  0.24998121  0.32947654  0.65123468  1
  O2-  O376  1  0.75002727  0.66713157  0.83220046  1
  O2-  O377  1  0.24987091  0.33535296  0.09591983  1
  O2-  O378  1  0.74996448  0.00703572  0.92222864  1
  O2-  O379  1  0.25002184  0.00587541  0.08252060  1
  O2-  O380  1  0.24996476  0.00038540  0.57466798  1
  O2-  O381  1  0.25005481  -0.00198366  0.17290272  1
  O2-  O382  1  0.74998839  -0.00670515  0.83063541  1
  O2-  O383  1  0.24996618  0.66701964  0.07930249  1
  O2-  O384  1  0.24993552  0.66732426  0.84604267  1
  O2-  O385  1  0.74990854  0.00572247  0.14895658  1
  O2-  O386  1  0.24999124  0.33521525  0.34112243  1
  O2-  O387  1  0.24996575  -0.00490079  0.66696933  1
  O2-  O388  1  0.24991735  0.66744872  0.17074967  1
  O2-  O389  1  0.74992676  0.67297886  0.42180724  1
  O2-  O390  1  0.75003609  0.66776908  0.91851355  1
  O2-  O391  1  0.74995753  0.66688603  0.65121437  1
  O2-  O392  1  0.74999291  0.66853607  0.09677469  1
  O2-  O393  1  0.74985737  0.33170756  0.15788395  1
  O2-  O394  1  0.74987546  0.00526916  0.35105372  1
  O2-  O395  1  0.25022436  0.66652627  0.40450105  1
  O2-  O396  1  0.25001757  0.50025502  0.57063171  1
  O2-  O397  1  0.25000355  0.83361236  0.30988260  1
  O2-  O398  1  0.74988881  0.16595590  0.38794119  1
  O2-  O399  1  0.25001775  0.16844846  0.31817221  1
  O2-  O400  1  0.24998639  0.83562500  0.84087939  1
  O2-  O401  1  0.24993829  0.16368826  0.84620039  1
  O2-  O402  1  0.24998183  0.49988634  0.33853389  1
  O2-  O403  1  0.74997076  0.50523188  0.62613719  1
  O2-  O404  1  0.74998970  0.49566051  0.31398544  1
  O2-  O405  1  0.74997997  0.83366177  0.59102345  1
  O2-  O406  1  0.75000381  0.49782701  0.16802581  1
  O2-  O407  1  0.24993394  0.83331974  0.38659347  1
  O2-  O408  1  0.24995811  0.49939992  0.88831064  1
  O2-  O409  1  0.74998766  0.16600237  0.16150066  1
  O2-  O410  1  0.74994129  0.16590513  0.88944174  1
  O2-  O411  1  0.74997905  0.50115259  0.08144416  1
  O2-  O412  1  0.75006244  0.50694972  0.39396972  1
  O2-  O413  1  0.25000311  0.16656043  0.92915251  1
  O2-  O414  1  0.24998015  0.50014449  0.12439455  1
  O2-  O415  1  0.24997896  0.82905030  0.68936078  1
  O2-  O416  1  0.24991479  0.16959293  0.40506823  1
  O2-  O417  1  0.74999358  0.49686048  0.91124962  1
  O2-  O418  1  0.25008732  0.83435900  0.61252582  1
  O2-  O419  1  0.25000294  0.50091936  0.65186412  1
  O2-  O420  1  0.96754281  0.00344527  0.12760003  1
  O2-  O421  1  0.52864878  0.33330726  0.37405898  1
  O2-  O422  1  0.97517017  0.33045602  0.37565598  1
  O2-  O423  1  0.97087162  0.66310250  0.86934543  1
  O2-  O424  1  0.03373414  0.33307781  0.12521519  1
  O2-  O425  1  0.03186918  -0.00280460  0.11891631  1
  O2-  O426  1  0.02848656  0.66722629  0.13161093  1
  O2-  O427  1  0.47299587  -0.00232718  0.87303825  1
  O2-  O428  1  0.52650835  0.66947817  0.62189075  1
  O2-  O429  1  0.02845822  0.66725233  0.87352087  1
  O2-  O430  1  0.97208087  0.33342773  0.62414450  1
  O2-  O431  1  0.52910936  0.66610945  0.36997178  1
  O2-  O432  1  0.53306527  0.00046115  0.12492842  1
  O2-  O433  1  0.52813603  0.00069133  0.36741492  1
  O2-  O434  1  0.46929310  0.66839869  0.38023357  1
  O2-  O435  1  0.97156914  0.34014498  0.12731775  1
  O2-  O436  1  0.97389331  0.00255789  0.62179673  1
  O2-  O437  1  0.97258921  0.00127233  0.87635079  1
  O2-  O438  1  0.02640555  0.66376737  0.37813446  1
  O2-  O439  1  0.47181867  0.66595135  0.87502879  1
  O2-  O440  1  0.47552141  0.32702429  0.12465391  1
  O2-  O441  1  0.96850101  0.66302127  0.12873192  1
  O2-  O442  1  0.47030717  0.00208727  0.37853953  1
  O2-  O443  1  0.46720823  -0.00015124  0.12409335  1
