# generated using pymatgen
data_La7(Ru4O11)2
_symmetry_space_group_name_H-M   'P 1'
_cell_length_a   23.99008704
_cell_length_b   16.82980161
_cell_length_c   15.42660374
_cell_angle_alpha   89.99871525
_cell_angle_beta   89.99997507
_cell_angle_gamma   89.99876917
_symmetry_Int_Tables_number   1
_chemical_formula_structural   La7(Ru4O11)2
_chemical_formula_sum   'La84 Ru96 O264'
_cell_volume   6228.46666110
_cell_formula_units_Z   12
loop_
 _symmetry_equiv_pos_site_id
 _symmetry_equiv_pos_as_xyz
  1  'x, y, z'
loop_
 _atom_type_symbol
 _atom_type_oxidation_number
  La3+  3.0
  Ru4+  4.0
  O2-  -2.0
loop_
 _atom_site_type_symbol
 _atom_site_label
 _atom_site_symmetry_multiplicity
 _atom_site_fract_x
 _atom_site_fract_y
 _atom_site_fract_z
 _atom_site_occupancy
  La3+  La0  1  0.14048235  0.00178972  0.12549353  1
  La3+  La1  1  0.13969376  0.00281360  0.37627298  1
  La3+  La2  1  0.13798480  0.00163721  0.62378804  1
  La3+  La3  1  0.13923797  -0.00091413  0.87607912  1
  La3+  La4  1  0.14174475  0.33483881  0.12712146  1
  La3+  La5  1  0.14113079  0.33114084  0.37400864  1
  La3+  La6  1  0.13903158  0.33165045  0.62337162  1
  La3+  La7  1  0.14179606  0.33251269  0.87440767  1
  La3+  La8  1  0.14328037  0.66676276  0.12192599  1
  La3+  La9  1  0.13848830  0.66800848  0.37354837  1
  La3+  La10  1  0.14095721  0.66663010  0.62801249  1
  La3+  La11  1  0.14267880  0.66793480  0.87425720  1
  La3+  La12  1  0.63828203  0.00065305  0.12313270  1
  La3+  La13  1  0.63490868  0.00059582  0.37471337  1
  La3+  La14  1  0.63713529  -0.00084211  0.62688399  1
  La3+  La15  1  0.63972581  -0.00018467  0.87682929  1
  La3+  La16  1  0.64426962  0.33300264  0.12377581  1
  La3+  La17  1  0.63972690  0.33415536  0.37515820  1
  La3+  La18  1  0.63777529  0.33458051  0.62416376  1
  La3+  La19  1  0.63730015  0.33203640  0.87936964  1
  La3+  La20  1  0.64008276  0.66657103  0.12646821  1
  La3+  La21  1  0.63857917  0.66569806  0.37371609  1
  La3+  La22  1  0.63808801  0.66736631  0.62280434  1
  La3+  La23  1  0.63857158  0.66757530  0.87625459  1
  La3+  La24  1  0.35941284  -0.00004521  0.12506879  1
  La3+  La25  1  0.36020504  0.00065034  0.37638006  1
  La3+  La26  1  0.36102320  -0.00009966  0.62298030  1
  La3+  La27  1  0.36131269  -0.00147676  0.87624517  1
  La3+  La28  1  0.35963234  0.33212365  0.12615327  1
  La3+  La29  1  0.35807041  0.33168553  0.37461669  1
  La3+  La30  1  0.35942180  0.33225215  0.62305786  1
  La3+  La31  1  0.35899760  0.33304763  0.87510302  1
  La3+  La32  1  0.35962350  0.66754373  0.12164726  1
  La3+  La33  1  0.35942848  0.66675909  0.37620331  1
  La3+  La34  1  0.35872076  0.66788407  0.62724107  1
  La3+  La35  1  0.35967114  0.66690116  0.87502800  1
  La3+  La36  1  0.86159956  0.00167280  0.12168640  1
  La3+  La37  1  0.86273217  0.00077905  0.37514577  1
  La3+  La38  1  0.86308921  -0.00046820  0.62711221  1
  La3+  La39  1  0.86041513  -0.00028981  0.87721825  1
  La3+  La40  1  0.85814813  0.33242003  0.12343366  1
  La3+  La41  1  0.86074927  0.33502288  0.37538008  1
  La3+  La42  1  0.86391974  0.33443128  0.62429623  1
  La3+  La43  1  0.86125420  0.33236831  0.87937079  1
  La3+  La44  1  0.86002866  0.66611310  0.12575340  1
  La3+  La45  1  0.86226602  0.66425236  0.37405743  1
  La3+  La46  1  0.86203985  0.66725224  0.62390693  1
  La3+  La47  1  0.86160584  0.66826889  0.87590420  1
  La3+  La48  1  0.49673526  0.50342625  0.61676903  1
  La3+  La49  1  -0.00129034  0.50057916  0.12362123  1
  La3+  La50  1  0.49974506  0.83416907  0.11678645  1
  La3+  La51  1  0.49797622  0.83614068  0.61903949  1
  La3+  La52  1  0.50039339  0.83307226  0.86625008  1
  La3+  La53  1  0.49952572  0.50078408  0.38556076  1
  La3+  La54  1  -0.00243802  0.83957846  0.36609629  1
  La3+  La55  1  0.49858142  0.16308613  0.37602740  1
  La3+  La56  1  -0.00200119  0.83534947  0.38807586  1
  La3+  La57  1  0.49931325  0.50113257  0.36378287  1
  La3+  La58  1  0.00174802  0.83039192  0.13072142  1
  La3+  La59  1  0.49943066  0.83357849  0.63495418  1
  La3+  La60  1  -0.00048835  0.83150242  0.62062439  1
  La3+  La61  1  0.00023523  0.49803265  0.87599772  1
  La3+  La62  1  0.00005809  0.49900892  0.85893268  1
  La3+  La63  1  -0.00049666  0.49993615  0.61251617  1
  La3+  La64  1  0.00120014  0.83338005  0.11434337  1
  La3+  La65  1  0.49963755  0.16844461  0.63826028  1
  La3+  La66  1  0.50186379  0.49979137  0.63732989  1
  La3+  La67  1  0.50132028  0.49900665  0.88760603  1
  La3+  La68  1  0.49709719  0.16852683  0.61562569  1
  La3+  La69  1  0.49945831  0.16428641  0.11690560  1
  La3+  La70  1  0.49960840  0.50087691  0.11094366  1
  La3+  La71  1  0.49851938  0.50165622  0.13321516  1
  La3+  La72  1  0.75030486  0.79752944  0.50444756  1
  La3+  La73  1  0.74949406  0.79830027  0.27430545  1
  La3+  La74  1  0.74972712  0.20202587  0.23937789  1
  La3+  La75  1  0.24991392  0.80073589  0.22213793  1
  La3+  La76  1  0.75024451  0.17090893  0.44271232  1
  La3+  La77  1  0.25047392  0.44627818  0.25572107  1
  La3+  La78  1  0.25020042  0.50224280  -0.04282314  1
  La3+  La79  1  0.74988005  0.45983518  -0.02366065  1
  La3+  La80  1  0.74990805  0.12124661  0.79774601  1
  La3+  La81  1  0.74983355  0.51232843  0.70993799  1
  La3+  La82  1  0.74993094  0.83442149  -0.00282186  1
  La3+  La83  1  0.25005994  0.20905418  0.71086882  1
  Ru4+  Ru84  1  -0.00131360  0.00269253  -0.00427989  1
  Ru4+  Ru85  1  0.00135849  0.00751946  0.24916522  1
  Ru4+  Ru86  1  0.00219151  0.00431626  0.49995504  1
  Ru4+  Ru87  1  -0.00254155  0.00426531  0.75074278  1
  Ru4+  Ru88  1  -0.00021617  0.33009883  0.00939545  1
  Ru4+  Ru89  1  0.00283402  0.32953052  0.24541569  1
  Ru4+  Ru90  1  0.00151323  0.33225922  0.50128210  1
  Ru4+  Ru91  1  0.00176399  0.33144540  0.74345417  1
  Ru4+  Ru92  1  0.00054318  0.66751411  0.00002775  1
  Ru4+  Ru93  1  -0.00004369  0.66072331  0.25267499  1
  Ru4+  Ru94  1  -0.00234061  0.66221089  0.49831065  1
  Ru4+  Ru95  1  0.00113353  0.66775978  0.74896528  1
  Ru4+  Ru96  1  0.50107592  0.00102680  -0.00208283  1
  Ru4+  Ru97  1  0.50058814  -0.00297083  0.24925273  1
  Ru4+  Ru98  1  0.49772692  -0.00351122  0.49789563  1
  Ru4+  Ru99  1  0.50289573  0.00326298  0.75605524  1
  Ru4+  Ru100  1  0.50079119  0.33191925  -0.00361558  1
  Ru4+  Ru101  1  0.50282653  0.33812472  0.25394443  1
  Ru4+  Ru102  1  0.49606213  0.33565734  0.49480532  1
  Ru4+  Ru103  1  0.50023751  0.33155850  0.75515594  1
  Ru4+  Ru104  1  0.50317319  0.67117826  0.00347440  1
  Ru4+  Ru105  1  0.49889086  0.66819326  0.24885735  1
  Ru4+  Ru106  1  0.49664379  0.66061623  0.50219069  1
  Ru4+  Ru107  1  0.50094761  0.66649216  0.74952107  1
  Ru4+  Ru108  1  0.11178594  0.16906296  0.00044933  1
  Ru4+  Ru109  1  0.11178435  0.16636917  0.24921800  1
  Ru4+  Ru110  1  0.11379162  0.16633799  0.50133888  1
  Ru4+  Ru111  1  0.10805779  0.16773042  0.74862417  1
  Ru4+  Ru112  1  0.11359567  0.49982408  0.00088065  1
  Ru4+  Ru113  1  0.11165060  0.49757973  0.24938904  1
  Ru4+  Ru114  1  0.11174800  0.49973471  0.49981416  1
  Ru4+  Ru115  1  0.11346942  0.50218441  0.74956797  1
  Ru4+  Ru116  1  0.11489324  0.83395544  -0.00061812  1
  Ru4+  Ru117  1  0.11336593  0.83368660  0.24903702  1
  Ru4+  Ru118  1  0.11480553  0.83399483  0.50108299  1
  Ru4+  Ru119  1  0.11427153  0.82983542  0.75205919  1
  Ru4+  Ru120  1  0.61361611  0.16785878  0.00042593  1
  Ru4+  Ru121  1  0.61096883  0.16654841  0.25111015  1
  Ru4+  Ru122  1  0.61465813  0.16793606  0.49997018  1
  Ru4+  Ru123  1  0.61164568  0.16690598  0.75107120  1
  Ru4+  Ru124  1  0.61130110  0.49914503  -0.00032532  1
  Ru4+  Ru125  1  0.61451172  0.50232088  0.24930881  1
  Ru4+  Ru126  1  0.61434542  0.50050257  0.49953914  1
  Ru4+  Ru127  1  0.61080772  0.50199697  0.75042713  1
  Ru4+  Ru128  1  0.61189610  0.83274545  0.00013717  1
  Ru4+  Ru129  1  0.61034728  0.83474852  0.25132400  1
  Ru4+  Ru130  1  0.61520253  0.83752085  0.49878053  1
  Ru4+  Ru131  1  0.61211169  0.83349108  0.75004073  1
  Ru4+  Ru132  1  0.38706565  0.16724913  -0.00008451  1
  Ru4+  Ru133  1  0.38195044  0.16427264  0.25006749  1
  Ru4+  Ru134  1  0.38345564  0.16715813  0.49925746  1
  Ru4+  Ru135  1  0.38790641  0.16783759  0.75109382  1
  Ru4+  Ru136  1  0.38495439  0.49666336  0.00096146  1
  Ru4+  Ru137  1  0.39061536  0.49904571  0.25014835  1
  Ru4+  Ru138  1  0.38886337  0.49983989  0.49923240  1
  Ru4+  Ru139  1  0.38500357  0.50118906  0.75012281  1
  Ru4+  Ru140  1  0.38468751  0.83303139  0.00030837  1
  Ru4+  Ru141  1  0.39013326  0.83134472  0.25140213  1
  Ru4+  Ru142  1  0.38695049  0.83456377  0.49943808  1
  Ru4+  Ru143  1  0.38309723  0.83069933  0.75036675  1
  Ru4+  Ru144  1  0.88636223  0.16470015  0.00001075  1
  Ru4+  Ru145  1  0.89070366  0.16550374  0.24949863  1
  Ru4+  Ru146  1  0.88892333  0.16668606  0.49981311  1
  Ru4+  Ru147  1  0.88991749  0.16610359  0.75028088  1
  Ru4+  Ru148  1  0.88706917  0.49916759  0.00100932  1
  Ru4+  Ru149  1  0.88713702  0.50276087  0.25050782  1
  Ru4+  Ru150  1  0.88784210  0.49924548  0.49955632  1
  Ru4+  Ru151  1  0.88991907  0.50040827  0.74932572  1
  Ru4+  Ru152  1  0.88817370  0.83506652  0.00047971  1
  Ru4+  Ru153  1  0.88672959  0.83089786  0.24886248  1
  Ru4+  Ru154  1  0.88722821  0.83276399  0.50119542  1
  Ru4+  Ru155  1  0.88788781  0.83479463  0.74933474  1
  Ru4+  Ru156  1  0.24999677  0.94260514  0.25540344  1
  Ru4+  Ru157  1  0.24987480  0.90356800  0.74924480  1
  Ru4+  Ru158  1  0.25016062  0.07330413  0.75092692  1
  Ru4+  Ru159  1  0.74984386  0.42020610  0.25357449  1
  Ru4+  Ru160  1  0.75007880  0.29046199  0.51172740  1
  Ru4+  Ru161  1  0.24995556  0.08421248  0.00997557  1
  Ru4+  Ru162  1  0.75010762  0.58113329  0.49939531  1
  Ru4+  Ru163  1  0.74989078  0.25507699  0.74564951  1
  Ru4+  Ru164  1  0.24993255  0.25051211  0.01130954  1
  Ru4+  Ru165  1  0.25026959  0.75732527  0.49826362  1
  Ru4+  Ru166  1  0.25028213  0.40597859  0.50416845  1
  Ru4+  Ru167  1  0.74987702  0.91518960  0.75504537  1
  Ru4+  Ru168  1  0.25009637  0.91093819  0.49453257  1
  Ru4+  Ru169  1  0.74985285  0.60555340  0.00388937  1
  Ru4+  Ru170  1  0.25034151  0.59022056  0.50276522  1
  Ru4+  Ru171  1  0.74984751  0.75937241  0.75260703  1
  Ru4+  Ru172  1  0.75013749  0.63342064  0.75549594  1
  Ru4+  Ru173  1  0.75000884  0.06575706  0.24782215  1
  Ru4+  Ru174  1  0.74984618  0.93493860  0.24736270  1
  Ru4+  Ru175  1  0.75044270  0.05522119  0.51069283  1
  Ru4+  Ru176  1  0.74994641  0.92885396  0.49760249  1
  Ru4+  Ru177  1  0.75007214  0.39124539  0.74715496  1
  Ru4+  Ru178  1  0.24962653  0.41917911  0.75171831  1
  Ru4+  Ru179  1  0.25026948  0.60834326  0.24217660  1
  O2-  O180  1  0.16645273  0.08196553  0.00072701  1
  O2-  O181  1  0.16541241  0.08228905  0.25172214  1
  O2-  O182  1  0.16622403  0.08290991  0.49886339  1
  O2-  O183  1  0.16701727  0.07995031  0.75033282  1
  O2-  O184  1  0.16836495  0.41632522  -0.00047627  1
  O2-  O185  1  0.16428707  0.41433180  0.25088905  1
  O2-  O186  1  0.16681816  0.41488930  0.49968924  1
  O2-  O187  1  0.16721771  0.41379081  0.74888447  1
  O2-  O188  1  0.16469624  0.74948421  -0.00130818  1
  O2-  O189  1  0.16623543  0.74607742  0.25185669  1
  O2-  O190  1  0.16775359  0.74726469  0.49923000  1
  O2-  O191  1  0.16537506  0.74874289  0.74986586  1
  O2-  O192  1  0.66485683  0.08236262  0.00081390  1
  O2-  O193  1  0.66778699  0.07938992  0.24962857  1
  O2-  O194  1  0.66723806  0.08045488  0.49925165  1
  O2-  O195  1  0.66666051  0.07953875  0.74904168  1
  O2-  O196  1  0.66508344  0.41433364  0.00006901  1
  O2-  O197  1  0.66794159  0.41337878  0.25169698  1
  O2-  O198  1  0.66687823  0.41432859  0.50063752  1
  O2-  O199  1  0.66577302  0.41196442  0.75031625  1
  O2-  O200  1  0.66837592  0.74817912  -0.00027236  1
  O2-  O201  1  0.66598827  0.74591086  0.24994685  1
  O2-  O202  1  0.66747502  0.74585594  0.49944492  1
  O2-  O203  1  0.66729486  0.74721339  0.74994820  1
  O2-  O204  1  0.33186660  0.25213734  -0.00011801  1
  O2-  O205  1  0.33206914  0.25100478  0.24912797  1
  O2-  O206  1  0.33296632  0.25128718  0.49859848  1
  O2-  O207  1  0.33482226  0.25337143  0.74999068  1
  O2-  O208  1  0.33243600  0.58520908  0.00002645  1
  O2-  O209  1  0.33208912  0.58731458  0.24904898  1
  O2-  O210  1  0.33222184  0.58605231  0.50019875  1
  O2-  O211  1  0.33370896  0.58325676  0.75092025  1
  O2-  O212  1  0.33502515  0.91937277  0.00024379  1
  O2-  O213  1  0.33371226  0.91926403  0.24973864  1
  O2-  O214  1  0.33177934  0.91797815  0.49986890  1
  O2-  O215  1  0.33268250  0.92010367  0.75046421  1
  O2-  O216  1  0.83393663  0.24997770  -0.00164983  1
  O2-  O217  1  0.83428030  0.25342941  0.25226320  1
  O2-  O218  1  0.83396934  0.25462437  0.50015489  1
  O2-  O219  1  0.83240918  0.25392115  0.74931230  1
  O2-  O220  1  0.83378036  0.58660960  -0.00096643  1
  O2-  O221  1  0.83362006  0.58551321  0.24992543  1
  O2-  O222  1  0.83156410  0.58595312  0.50016979  1
  O2-  O223  1  0.83482988  0.58837266  0.75044846  1
  O2-  O224  1  0.83289144  0.91886267  0.00138640  1
  O2-  O225  1  0.83407330  0.92071540  0.25047712  1
  O2-  O226  1  0.83372923  0.92005093  0.49944729  1
  O2-  O227  1  0.83062557  0.91952419  0.75039273  1
  O2-  O228  1  0.16890593  0.25094179  -0.00056620  1
  O2-  O229  1  0.16488653  0.25031426  0.25118494  1
  O2-  O230  1  0.16586429  0.25088807  0.49846680  1
  O2-  O231  1  0.16493862  0.25312060  0.74926607  1
  O2-  O232  1  0.16797949  0.58412618  -0.00301168  1
  O2-  O233  1  0.16684662  0.58627893  0.25084501  1
  O2-  O234  1  0.16713228  0.58643550  0.49972575  1
  O2-  O235  1  0.16490288  0.58452353  0.74981535  1
  O2-  O236  1  0.16699220  0.91810155  -0.00060467  1
  O2-  O237  1  0.16637469  0.91969214  0.25018439  1
  O2-  O238  1  0.16767249  0.91822704  0.49955913  1
  O2-  O239  1  0.16790901  0.91828980  0.75012240  1
  O2-  O240  1  0.66722128  0.24833450  -0.00278343  1
  O2-  O241  1  0.66618258  0.25360480  0.25140714  1
  O2-  O242  1  0.66764014  0.25362859  0.49972888  1
  O2-  O243  1  0.66687362  0.25309218  0.75015225  1
  O2-  O244  1  0.66637641  0.58685666  -0.00007838  1
  O2-  O245  1  0.66711903  0.58557542  0.25060094  1
  O2-  O246  1  0.66916771  0.58578011  0.49950391  1
  O2-  O247  1  0.66575489  0.58771607  0.74918072  1
  O2-  O248  1  0.66663073  0.91874317  0.00154470  1
  O2-  O249  1  0.66791675  0.92053693  0.24981450  1
  O2-  O250  1  0.66739919  0.91995273  0.49988906  1
  O2-  O251  1  0.66942326  0.91983267  0.75020224  1
  O2-  O252  1  0.33351565  0.08122602  0.00059969  1
  O2-  O253  1  0.33442436  0.08132771  0.25047694  1
  O2-  O254  1  0.33429314  0.08168463  0.49974198  1
  O2-  O255  1  0.33379878  0.07901643  0.75012939  1
  O2-  O256  1  0.33287212  0.41435889  -0.00007301  1
  O2-  O257  1  0.33624842  0.41256985  0.24894293  1
  O2-  O258  1  0.33238238  0.41382116  0.49953362  1
  O2-  O259  1  0.33243302  0.41475855  0.74974797  1
  O2-  O260  1  0.33524950  0.74858896  0.00002680  1
  O2-  O261  1  0.33304747  0.74796748  0.24811940  1
  O2-  O262  1  0.33148044  0.74865715  0.49951497  1
  O2-  O263  1  0.33292961  0.74894298  0.75015752  1
  O2-  O264  1  0.83496301  0.08210668  0.00076962  1
  O2-  O265  1  0.83346348  0.07957593  0.25026323  1
  O2-  O266  1  0.83437693  0.07917071  0.49954819  1
  O2-  O267  1  0.83340819  0.07961044  0.74883173  1
  O2-  O268  1  0.83433862  0.41439885  -0.00052866  1
  O2-  O269  1  0.83320256  0.41377684  0.25089180  1
  O2-  O270  1  0.83403611  0.41475980  0.50128903  1
  O2-  O271  1  0.83348644  0.41173179  0.74981034  1
  O2-  O272  1  0.83277424  0.74712329  -0.00064747  1
  O2-  O273  1  0.83221530  0.74536009  0.25020530  1
  O2-  O274  1  0.83393907  0.74574608  0.49907398  1
  O2-  O275  1  0.83332703  0.74749220  0.75084448  1
  O2-  O276  1  0.45242899  0.09835686  0.76580632  1
  O2-  O277  1  0.54926551  0.09782266  0.73892076  1
  O2-  O278  1  0.44295230  0.75403670  0.77009830  1
  O2-  O279  1  0.53991404  0.23142250  0.46987893  1
  O2-  O280  1  0.04885520  0.90260159  0.51435786  1
  O2-  O281  1  0.95921192  0.44131488  0.96855921  1
  O2-  O282  1  0.04795619  0.56778983  0.48623136  1
  O2-  O283  1  0.04456089  0.23843113  0.23705068  1
  O2-  O284  1  0.53821407  0.77477601  0.50369021  1
  O2-  O285  1  0.52933460  0.21598390  -0.00448990  1
  O2-  O286  1  0.46148445  0.22149355  0.24379246  1
  O2-  O287  1  0.05393614  0.42065751  0.04860255  1
  O2-  O288  1  0.03136372  0.20065860  0.01668468  1
  O2-  O289  1  0.95856675  0.22181561  0.73776937  1
  O2-  O290  1  0.04831928  0.75733512  0.28806071  1
  O2-  O291  1  0.03586886  0.88632072  0.96435578  1
  O2-  O292  1  0.54095285  0.10329634  0.48284915  1
  O2-  O293  1  0.95112327  0.56517748  0.48805078  1
  O2-  O294  1  0.45873165  0.22796312  0.24294509  1
  O2-  O295  1  0.04084169  0.55946005  0.96542763  1
  O2-  O296  1  0.04006446  0.89601735  0.74585998  1
  O2-  O297  1  0.04520916  0.75773777  0.76547785  1
  O2-  O298  1  0.95476420  0.56707911  0.26225093  1
  O2-  O299  1  0.05199243  0.23712419  0.73438749  1
  O2-  O300  1  0.45359167  0.56910638  0.98885930  1
  O2-  O301  1  0.96099336  0.21995366  0.74541894  1
  O2-  O302  1  0.03956410  0.89638348  0.74583303  1
  O2-  O303  1  0.53818904  0.77472301  0.50388537  1
  O2-  O304  1  0.47343108  0.78423255  0.24889448  1
  O2-  O305  1  0.95158203  0.76182953  0.51420066  1
  O2-  O306  1  0.45549993  0.90087138  0.74991129  1
  O2-  O307  1  0.54018780  0.11032902  0.49948506  1
  O2-  O308  1  0.45319696  0.90685536  0.26138860  1
  O2-  O309  1  0.54566367  0.43295209  0.76601360  1
  O2-  O310  1  0.46265320  0.55290810  0.78402997  1
  O2-  O311  1  0.95177916  0.90621621  0.51301672  1
  O2-  O312  1  0.95172223  0.57215129  0.01512835  1
  O2-  O313  1  0.95436203  0.23000588  0.96969772  1
  O2-  O314  1  0.04867647  0.75956142  0.48839802  1
  O2-  O315  1  0.95033127  0.09857771  0.23564792  1
  O2-  O316  1  0.44901228  0.09778307  0.48543176  1
  O2-  O317  1  0.54606429  0.09438064  0.98756261  1
  O2-  O318  1  0.95441409  0.90381675  0.23368507  1
  O2-  O319  1  0.04851282  0.09500691  0.23450083  1
  O2-  O320  1  0.95520621  0.76400490  0.01414410  1
  O2-  O321  1  0.95529364  0.09349982  0.98829562  1
  O2-  O322  1  0.45540346  0.90148824  0.74635832  1
  O2-  O323  1  0.54604737  0.43111407  0.51209256  1
  O2-  O324  1  0.04858549  0.42664204  0.04032535  1
  O2-  O325  1  0.06531272  0.07237234  0.52654867  1
  O2-  O326  1  0.07189846  0.26270469  0.93966792  1
  O2-  O327  1  0.56291060  0.73578392  0.06474428  1
  O2-  O328  1  0.06592657  0.07239885  0.72283721  1
  O2-  O329  1  0.58349709  0.05049181  0.54574136  1
  O2-  O330  1  0.43528668  0.73616455  0.53360468  1
  O2-  O331  1  0.56495016  0.92455168  0.52924668  1
  O2-  O332  1  0.06999590  0.94598486  0.05542735  1
  O2-  O333  1  0.43653676  0.59129821  0.97355904  1
  O2-  O334  1  0.56543334  0.59365603  0.52950861  1
  O2-  O335  1  0.92679394  0.39646407  0.04695675  1
  O2-  O336  1  0.93689643  0.73661260  0.18367450  1
  O2-  O337  1  0.44879542  0.75021784  0.77188230  1
  O2-  O338  1  0.43463244  0.92712804  0.47278113  1
  O2-  O339  1  0.06354949  0.40349792  0.21991273  1
  O2-  O340  1  0.43399238  0.26126272  0.52573189  1
  O2-  O341  1  0.92997956  0.26563168  0.03932789  1
  O2-  O342  1  0.41912250  0.71419255  0.28706354  1
  O2-  O343  1  0.05633466  0.75101993  0.30156375  1
  O2-  O344  1  0.06273827  0.26570370  0.53108492  1
  O2-  O345  1  0.56658757  0.40906320  0.30796307  1
  O2-  O346  1  0.58212329  0.28226756  0.03971474  1
  O2-  O347  1  0.42848544  0.61024053  0.69395271  1
  O2-  O348  1  0.56461887  0.07472382  0.27763228  1
  O2-  O349  1  0.56730663  0.41081277  0.19464807  1
  O2-  O350  1  0.57547822  0.27063355  0.54452847  1
  O2-  O351  1  0.07577723  0.94448858  0.79552065  1
  O2-  O352  1  0.43611979  0.40120052  0.81432743  1
  O2-  O353  1  0.07136414  0.61207125  0.05491905  1
  O2-  O354  1  0.93250772  0.74122423  0.30832208  1
  O2-  O355  1  0.93264624  0.92808289  0.72177515  1
  O2-  O356  1  0.56656963  0.92561738  0.27665073  1
  O2-  O357  1  0.43350759  0.25867194  0.05320418  1
  O2-  O358  1  0.07636149  0.28188439  0.06465376  1
  O2-  O359  1  0.56267061  0.59778322  0.21613966  1
  O2-  O360  1  0.56387120  0.26525914  0.78215445  1
  O2-  O361  1  0.43534822  0.26426097  0.94019216  1
  O2-  O362  1  0.56239801  0.40371046  0.96559143  1
  O2-  O363  1  0.93720161  0.40465136  0.71526703  1
  O2-  O364  1  0.57887053  0.72290676  0.46288466  1
  O2-  O365  1  0.06878602  0.72627406  0.16842876  1
  O2-  O366  1  0.07567890  0.40224292  0.92866163  1
  O2-  O367  1  0.56670466  0.74305781  0.94321285  1
  O2-  O368  1  0.56613742  0.92715556  0.77831766  1
  O2-  O369  1  0.42591617  0.28131072  0.29340509  1
  O2-  O370  1  0.43265337  0.40962206  0.69520748  1
  O2-  O371  1  0.91757170  0.28270329  0.79433488  1
  O2-  O372  1  0.25010642  -0.00792056  0.66854932  1
  O2-  O373  1  0.75017681  0.33469967  0.39899566  1
  O2-  O374  1  0.75014275  0.66974520  0.09857947  1
  O2-  O375  1  0.24987550  0.33479017  0.59574012  1
  O2-  O376  1  0.75025620  0.33199933  0.93375032  1
  O2-  O377  1  0.24967037  0.66780570  0.34618546  1
  O2-  O378  1  0.25075587  0.66440498  0.10208515  1
  O2-  O379  1  0.25012218  0.00033935  0.57139724  1
  O2-  O380  1  0.25023977  0.33423535  0.84196389  1
  O2-  O381  1  0.75010766  0.33094076  0.63856653  1
  O2-  O382  1  0.24975617  0.66667909  0.67181786  1
  O2-  O383  1  0.24986318  0.67058245  0.58031356  1
  O2-  O384  1  0.75017867  0.32737819  0.84463564  1
  O2-  O385  1  0.24997538  0.00044560  0.93211638  1
  O2-  O386  1  0.75005042  -0.00267941  0.89809276  1
  O2-  O387  1  0.25040232  0.33264851  0.09214584  1
  O2-  O388  1  0.25016782  0.00024885  0.15378252  1
  O2-  O389  1  0.25004142  0.33718815  0.34835534  1
  O2-  O390  1  0.25011961  -0.00335181  0.40690709  1
  O2-  O391  1  0.75008701  0.67061491  0.90138031  1
  O2-  O392  1  0.24969079  0.66604767  0.84599713  1
  O2-  O393  1  0.25004528  -0.00895513  0.83241041  1
  O2-  O394  1  0.74999660  0.66544268  0.59212534  1
  O2-  O395  1  0.75008503  0.33628463  0.10099434  1
  O2-  O396  1  0.24978844  0.49707200  0.07688177  1
  O2-  O397  1  0.25015644  0.50131124  0.67010381  1
  O2-  O398  1  0.75013974  0.83401659  0.65659705  1
  O2-  O399  1  0.24995554  0.49771217  0.83102657  1
  O2-  O400  1  0.24998105  0.83474920  0.90486242  1
  O2-  O401  1  0.74998898  0.16475299  0.09872410  1
  O2-  O402  1  0.25011119  0.51363482  0.35765269  1
  O2-  O403  1  0.25003898  0.83628881  0.65994214  1
  O2-  O404  1  0.74966419  0.16773186  0.58152749  1
  O2-  O405  1  0.25001267  0.16107118  0.84224569  1
  O2-  O406  1  0.25001650  0.83751035  0.36758233  1
  O2-  O407  1  0.75001081  0.16882765  0.66907106  1
  O2-  O408  1  0.25014844  0.16679659  0.93115599  1
  O2-  O409  1  0.24978260  0.51477025  0.15550213  1
  O2-  O410  1  0.74987360  0.50490447  0.18446451  1
  O2-  O411  1  0.75008816  0.49635300  0.33938041  1
  O2-  O412  1  0.25006208  0.83487135  0.09308548  1
  O2-  O413  1  0.24982997  0.49733331  0.44061095  1
  O2-  O414  1  0.75006945  0.50569136  0.09706329  1
  O2-  O415  1  0.24987774  0.49863348  0.58103262  1
  O2-  O416  1  0.75005382  0.83642321  0.13736721  1
  O2-  O417  1  0.25014459  0.16657897  0.14922210  1
  O2-  O418  1  0.25011692  0.16458101  0.59259949  1
  O2-  O419  1  0.74995111  0.50160662  0.85120021  1
  O2-  O420  1  0.52889184  -0.00064943  0.38213707  1
  O2-  O421  1  0.02708122  -0.00420680  0.62525418  1
  O2-  O422  1  0.97495972  0.33312112  0.13738845  1
  O2-  O423  1  0.46969903  0.66744999  0.87585451  1
  O2-  O424  1  0.52757737  0.33065453  0.12380898  1
  O2-  O425  1  0.53500840  -0.00385806  0.63505042  1
  O2-  O426  1  0.46965853  0.00442324  0.37229905  1
  O2-  O427  1  0.52671991  0.66960267  0.62869207  1
  O2-  O428  1  0.97245316  -0.00094094  0.87220249  1
  O2-  O429  1  0.96862028  0.33855579  0.87980537  1
  O2-  O430  1  0.46822731  0.33075598  0.61980172  1
  O2-  O431  1  0.52550468  -0.00010354  0.87791608  1
  O2-  O432  1  0.46443963  0.66073232  0.38514631  1
  O2-  O433  1  0.52497102  0.33029737  0.37910699  1
  O2-  O434  1  0.53169009  0.66008756  0.86739827  1
  O2-  O435  1  0.96979394  0.00364042  0.62230014  1
  O2-  O436  1  0.46647871  0.34216277  0.13191285  1
  O2-  O437  1  0.97550453  0.66399917  0.38187264  1
  O2-  O438  1  0.97306287  0.66521848  0.62655039  1
  O2-  O439  1  0.02732375  -0.00118298  0.37612856  1
  O2-  O440  1  0.02662825  0.33254813  0.86115435  1
  O2-  O441  1  0.45920848  0.00037347  0.62366571  1
  O2-  O442  1  0.53487938  0.33896608  0.63455253  1
  O2-  O443  1  0.53692457  0.66078280  0.36600057  1
