# generated using pymatgen
data_La7(Ru4O11)2
_symmetry_space_group_name_H-M   'P 1'
_cell_length_a   23.99458801
_cell_length_b   16.83748917
_cell_length_c   15.43227645
_cell_angle_alpha   90.00431295
_cell_angle_beta   89.99971992
_cell_angle_gamma   90.00148859
_symmetry_Int_Tables_number   1
_chemical_formula_structural   La7(Ru4O11)2
_chemical_formula_sum   'La84 Ru96 O264'
_cell_volume   6234.77262705
_cell_formula_units_Z   12
loop_
 _symmetry_equiv_pos_site_id
 _symmetry_equiv_pos_as_xyz
  1  'x, y, z'
loop_
 _atom_type_symbol
 _atom_type_oxidation_number
  La3+  3.0
  Ru4+  4.0
  O2-  -2.0
loop_
 _atom_site_type_symbol
 _atom_site_label
 _atom_site_symmetry_multiplicity
 _atom_site_fract_x
 _atom_site_fract_y
 _atom_site_fract_z
 _atom_site_occupancy
  La3+  La0  1  0.13946802  0.00663222  0.11920221  1
  La3+  La1  1  0.13799898  -0.00094354  0.37730648  1
  La3+  La2  1  0.13972855  0.00117960  0.62524185  1
  La3+  La3  1  0.14516811  0.00396264  0.87177645  1
  La3+  La4  1  0.13991820  0.33335828  0.12523080  1
  La3+  La5  1  0.14236824  0.33128319  0.38175015  1
  La3+  La6  1  0.14845036  0.33403352  0.62706330  1
  La3+  La7  1  0.14081916  0.33146531  0.87608394  1
  La3+  La8  1  0.13608054  0.67058627  0.12130193  1
  La3+  La9  1  0.13896742  0.66719300  0.38031701  1
  La3+  La10  1  0.13246843  0.65859055  0.62632658  1
  La3+  La11  1  0.15144664  0.66310288  0.87474117  1
  La3+  La12  1  0.63650932  -0.00719016  0.12063896  1
  La3+  La13  1  0.63690968  -0.00226882  0.37642512  1
  La3+  La14  1  0.63455484  0.00049350  0.62949130  1
  La3+  La15  1  0.64565268  -0.00334331  0.86965920  1
  La3+  La16  1  0.63298467  0.33304374  0.13056808  1
  La3+  La17  1  0.63534828  0.33639827  0.36901562  1
  La3+  La18  1  0.64643078  0.33230134  0.62303890  1
  La3+  La19  1  0.64309463  0.33444149  0.87161328  1
  La3+  La20  1  0.65138642  0.67128147  0.12707247  1
  La3+  La21  1  0.64631434  0.66600665  0.36881904  1
  La3+  La22  1  0.63585737  0.66885363  0.62559967  1
  La3+  La23  1  0.64517927  0.67415201  0.87480669  1
  La3+  La24  1  0.36208451  0.00375950  0.12213838  1
  La3+  La25  1  0.35775397  -0.00093528  0.38032403  1
  La3+  La26  1  0.36167799  -0.00555075  0.62355422  1
  La3+  La27  1  0.35636837  0.00162858  0.87279252  1
  La3+  La28  1  0.36137237  0.33307970  0.11976583  1
  La3+  La29  1  0.35569630  0.33574442  0.38106513  1
  La3+  La30  1  0.34927223  0.33650729  0.62361467  1
  La3+  La31  1  0.35926976  0.33378952  0.87454779  1
  La3+  La32  1  0.36922817  0.66564906  0.12605410  1
  La3+  La33  1  0.36456465  0.67374309  0.38647199  1
  La3+  La34  1  0.36543384  0.66680241  0.61873578  1
  La3+  La35  1  0.35574685  0.66287232  0.87306012  1
  La3+  La36  1  0.86571801  -0.00609029  0.12360488  1
  La3+  La37  1  0.86463120  -0.00015412  0.37386754  1
  La3+  La38  1  0.86152382  0.00451500  0.62936264  1
  La3+  La39  1  0.85275088  -0.00459662  0.87152345  1
  La3+  La40  1  0.86659215  0.33321530  0.12983949  1
  La3+  La41  1  0.86372920  0.32853987  0.37127261  1
  La3+  La42  1  0.86285285  0.32667544  0.62969800  1
  La3+  La43  1  0.86376985  0.33175638  0.87309819  1
  La3+  La44  1  0.84875940  0.67279853  0.12574886  1
  La3+  La45  1  0.85905242  0.67009947  0.36388130  1
  La3+  La46  1  0.86115673  0.66810220  0.62776770  1
  La3+  La47  1  0.85330311  0.67183236  0.87492959  1
  La3+  La48  1  0.50195939  0.17602397  0.37931630  1
  La3+  La49  1  0.49416680  0.15532102  0.88886093  1
  La3+  La50  1  0.50207351  0.83198437  0.11354325  1
  La3+  La51  1  -0.00048447  0.82867101  0.37324307  1
  La3+  La52  1  0.00529865  0.49986924  0.39564408  1
  La3+  La53  1  0.49762097  0.16423439  0.62262409  1
  La3+  La54  1  -0.00847488  0.16504053  0.86797324  1
  La3+  La55  1  0.50339080  0.16976215  0.64217170  1
  La3+  La56  1  0.49740549  0.16646592  0.36083608  1
  La3+  La57  1  0.49965721  0.49421152  0.12560016  1
  La3+  La58  1  0.00544904  0.50929598  0.64116507  1
  La3+  La59  1  -0.00507382  0.82823773  0.89672232  1
  La3+  La60  1  0.49233108  0.17381633  0.13801893  1
  La3+  La61  1  0.49579950  0.50619419  0.63186251  1
  La3+  La62  1  -0.00114421  0.16564711  0.36787639  1
  La3+  La63  1  0.00574405  0.50884963  0.62408503  1
  La3+  La64  1  0.50031337  0.83407726  0.87589094  1
  La3+  La65  1  0.00339053  0.50544513  0.38066388  1
  La3+  La66  1  -0.00123418  0.50872114  0.12816978  1
  La3+  La67  1  -0.00549892  0.83144776  0.61764358  1
  La3+  La68  1  0.49568008  0.15959902  0.13415690  1
  La3+  La69  1  0.00449510  0.84176325  0.60615675  1
  La3+  La70  1  0.50055990  0.50178199  0.87537315  1
  La3+  La71  1  0.00002328  0.83437991  0.87688707  1
  La3+  La72  1  0.75109701  0.17247978  0.49679195  1
  La3+  La73  1  0.25263352  0.76581041  0.72369841  1
  La3+  La74  1  0.75023550  0.55672641  0.01219214  1
  La3+  La75  1  0.75087730  0.16085963  0.74837796  1
  La3+  La76  1  0.74984776  0.13919869  -0.01019194  1
  La3+  La77  1  0.74948243  0.54607766  0.77036301  1
  La3+  La78  1  0.25185782  0.47568597  0.25027105  1
  La3+  La79  1  0.25002412  0.87743526  0.02201360  1
  La3+  La80  1  0.25334796  0.83354580  0.29505451  1
  La3+  La81  1  0.75262408  0.14742342  0.23976824  1
  La3+  La82  1  0.74922752  0.85980906  0.48975581  1
  La3+  La83  1  0.74954519  0.49642583  0.58329709  1
  Ru4+  Ru84  1  -0.00284407  0.00603872  0.00954489  1
  Ru4+  Ru85  1  0.01065554  -0.01197726  0.24785581  1
  Ru4+  Ru86  1  0.00138153  0.00860282  0.49657681  1
  Ru4+  Ru87  1  -0.00532105  0.00797136  0.74162468  1
  Ru4+  Ru88  1  0.00757146  0.32766898  -0.00511282  1
  Ru4+  Ru89  1  0.00812975  0.33684237  0.24904707  1
  Ru4+  Ru90  1  0.00299868  0.32851723  0.50738276  1
  Ru4+  Ru91  1  -0.00313910  0.32724537  0.74006465  1
  Ru4+  Ru92  1  0.01148440  0.64403878  -0.00410127  1
  Ru4+  Ru93  1  0.00148591  0.67184733  0.26225998  1
  Ru4+  Ru94  1  -0.00190332  0.67494473  0.49205412  1
  Ru4+  Ru95  1  0.00033889  0.67182506  0.75668980  1
  Ru4+  Ru96  1  0.49412913  -0.01138135  -0.01569747  1
  Ru4+  Ru97  1  0.49944761  -0.01110661  0.26161742  1
  Ru4+  Ru98  1  0.50166640  -0.00409705  0.49232876  1
  Ru4+  Ru99  1  0.49898346  -0.00447318  0.75628345  1
  Ru4+  Ru100  1  0.50508722  0.33191653  0.00316483  1
  Ru4+  Ru101  1  0.49942238  0.35143603  0.23767283  1
  Ru4+  Ru102  1  0.49363336  0.33450169  0.49946323  1
  Ru4+  Ru103  1  0.49885376  0.32301598  0.75341692  1
  Ru4+  Ru104  1  0.49855102  0.66536510  -0.00364579  1
  Ru4+  Ru105  1  0.49840777  0.65682373  0.25212355  1
  Ru4+  Ru106  1  0.50328015  0.65939985  0.50534099  1
  Ru4+  Ru107  1  0.49998401  0.67093425  0.75164868  1
  Ru4+  Ru108  1  0.11419330  0.17651604  0.00564630  1
  Ru4+  Ru109  1  0.10855846  0.16958940  0.24705132  1
  Ru4+  Ru110  1  0.11217293  0.16837058  0.49897579  1
  Ru4+  Ru111  1  0.11117127  0.16633797  0.74812201  1
  Ru4+  Ru112  1  0.10887662  0.51188245  -0.00603070  1
  Ru4+  Ru113  1  0.10751296  0.49344335  0.24903823  1
  Ru4+  Ru114  1  0.12029400  0.49114872  0.49645877  1
  Ru4+  Ru115  1  0.11929739  0.49041988  0.75673631  1
  Ru4+  Ru116  1  0.11504615  0.83688841  0.00129700  1
  Ru4+  Ru117  1  0.10433653  0.84607734  0.24603195  1
  Ru4+  Ru118  1  0.11629772  0.83330199  0.49827414  1
  Ru4+  Ru119  1  0.11094923  0.83496149  0.74950831  1
  Ru4+  Ru120  1  0.60905969  0.17050153  -0.00595843  1
  Ru4+  Ru121  1  0.61988348  0.16306288  0.24737305  1
  Ru4+  Ru122  1  0.61501935  0.17095015  0.49936755  1
  Ru4+  Ru123  1  0.61145171  0.16795524  0.75310891  1
  Ru4+  Ru124  1  0.60850771  0.50083351  -0.00053063  1
  Ru4+  Ru125  1  0.61456760  0.49708144  0.25297678  1
  Ru4+  Ru126  1  0.60371295  0.51292639  0.49574928  1
  Ru4+  Ru127  1  0.60876161  0.49597684  0.75020713  1
  Ru4+  Ru128  1  0.61431141  0.83629833  0.00177326  1
  Ru4+  Ru129  1  0.61039071  0.82017274  0.25455317  1
  Ru4+  Ru130  1  0.61110278  0.83467356  0.50012246  1
  Ru4+  Ru131  1  0.61466116  0.83091525  0.74874367  1
  Ru4+  Ru132  1  0.38799303  0.16846810  0.00240920  1
  Ru4+  Ru133  1  0.38709967  0.16605767  0.24425982  1
  Ru4+  Ru134  1  0.38540631  0.17392454  0.50074435  1
  Ru4+  Ru135  1  0.38588993  0.17289623  0.75360952  1
  Ru4+  Ru136  1  0.38698820  0.50107819  -0.00031816  1
  Ru4+  Ru137  1  0.39775440  0.51027708  0.25450020  1
  Ru4+  Ru138  1  0.39028734  0.49652340  0.49595402  1
  Ru4+  Ru139  1  0.38334621  0.50245125  0.75141144  1
  Ru4+  Ru140  1  0.39043475  0.83574633  0.00035786  1
  Ru4+  Ru141  1  0.39020195  0.83775299  0.24871667  1
  Ru4+  Ru142  1  0.38643584  0.83488282  0.49813562  1
  Ru4+  Ru143  1  0.39226809  0.83690387  0.74829080  1
  Ru4+  Ru144  1  0.89211642  0.16358630  0.00011136  1
  Ru4+  Ru145  1  0.88882557  0.16240231  0.25266927  1
  Ru4+  Ru146  1  0.88999157  0.16579361  0.49965204  1
  Ru4+  Ru147  1  0.89015668  0.16812108  0.74872541  1
  Ru4+  Ru148  1  0.89301935  0.49969975  -0.00012054  1
  Ru4+  Ru149  1  0.88452409  0.50727111  0.24610965  1
  Ru4+  Ru150  1  0.88635788  0.50283509  0.49711531  1
  Ru4+  Ru151  1  0.88953719  0.50021206  0.75381343  1
  Ru4+  Ru152  1  0.88422147  0.83728007  0.00398461  1
  Ru4+  Ru153  1  0.89061121  0.83324935  0.24992351  1
  Ru4+  Ru154  1  0.88699394  0.83127970  0.49839584  1
  Ru4+  Ru155  1  0.88393452  0.83882867  0.75177290  1
  Ru4+  Ru156  1  0.75044459  0.28141838  0.02363905  1
  Ru4+  Ru157  1  0.24695715  0.72344649  0.21676131  1
  Ru4+  Ru158  1  0.24981731  0.93172530  0.73075880  1
  Ru4+  Ru159  1  0.75089182  0.41554450  -0.00758633  1
  Ru4+  Ru160  1  0.74968691  0.39728502  0.77152359  1
  Ru4+  Ru161  1  0.24989246  0.57318607  0.53676071  1
  Ru4+  Ru162  1  0.24850494  0.60386725  0.26080819  1
  Ru4+  Ru163  1  0.24929098  0.23868113  0.75244980  1
  Ru4+  Ru164  1  0.74954446  0.00628973  0.03222365  1
  Ru4+  Ru165  1  0.75032176  0.01192747  0.26754881  1
  Ru4+  Ru166  1  0.74885478  0.88378771  0.23045563  1
  Ru4+  Ru167  1  0.74940328  0.72076213  0.51003118  1
  Ru4+  Ru168  1  0.25023316  0.95438152  0.24200951  1
  Ru4+  Ru169  1  0.25045282  0.09299037  0.50765822  1
  Ru4+  Ru170  1  0.24976840  0.34977932  0.26214457  1
  Ru4+  Ru171  1  0.75138031  0.29081122  0.24078448  1
  Ru4+  Ru172  1  0.75052912  0.59129536  0.46725471  1
  Ru4+  Ru173  1  0.24884573  0.09567569  0.25360043  1
  Ru4+  Ru174  1  0.25140814  0.22576407  0.25217710  1
  Ru4+  Ru175  1  0.25074382  0.09764592  -0.01503335  1
  Ru4+  Ru176  1  0.75033742  1.00039894  0.49833491  1
  Ru4+  Ru177  1  0.74957181  0.39488643  0.48199583  1
  Ru4+  Ru178  1  0.24866527  0.42025240  -0.01668101  1
  Ru4+  Ru179  1  0.25083940  0.71416804  -0.01396178  1
  O2-  O180  1  0.16563476  0.08582119  -0.00605316  1
  O2-  O181  1  0.16351201  0.08363251  0.25241606  1
  O2-  O182  1  0.16542002  0.08166286  0.50147874  1
  O2-  O183  1  0.16353876  0.08174507  0.74642848  1
  O2-  O184  1  0.16405431  0.41665880  -0.00165570  1
  O2-  O185  1  0.16466243  0.40860274  0.25293105  1
  O2-  O186  1  0.16936730  0.41069153  0.50063993  1
  O2-  O187  1  0.17352264  0.41509384  0.75025389  1
  O2-  O188  1  0.16875161  0.74877069  0.00493404  1
  O2-  O189  1  0.16011083  0.75060130  0.25316640  1
  O2-  O190  1  0.16138921  0.74585678  0.50102413  1
  O2-  O191  1  0.16155359  0.74690079  0.74163122  1
  O2-  O192  1  0.66165767  0.07817082  0.00225331  1
  O2-  O193  1  0.66724226  0.07060998  0.25051270  1
  O2-  O194  1  0.66982865  0.07477803  0.50087650  1
  O2-  O195  1  0.66603524  0.08240811  0.74405116  1
  O2-  O196  1  0.66679297  0.41689474  0.00076623  1
  O2-  O197  1  0.66643506  0.41553044  0.24767628  1
  O2-  O198  1  0.66208650  0.41643296  0.49672042  1
  O2-  O199  1  0.66706460  0.41689458  0.74950444  1
  O2-  O200  1  0.66256391  0.74989385  -0.00213785  1
  O2-  O201  1  0.67253070  0.75454593  0.24393832  1
  O2-  O202  1  0.66503545  0.74798581  0.50312082  1
  O2-  O203  1  0.66587403  0.74845917  0.74640918  1
  O2-  O204  1  0.33518463  0.25372911  -0.00014731  1
  O2-  O205  1  0.33591911  0.25334127  0.25077831  1
  O2-  O206  1  0.33223020  0.25106442  0.49868071  1
  O2-  O207  1  0.33073675  0.25379494  0.75116697  1
  O2-  O208  1  0.33907841  0.58587903  0.00223089  1
  O2-  O209  1  0.32844711  0.58196565  0.24429367  1
  O2-  O210  1  0.33023419  0.58467166  0.50151018  1
  O2-  O211  1  0.33256923  0.58366932  0.74967332  1
  O2-  O212  1  0.33770358  0.92351709  0.00060613  1
  O2-  O213  1  0.33459403  0.92535655  0.24924193  1
  O2-  O214  1  0.33448466  0.91467882  0.50425796  1
  O2-  O215  1  0.33359564  0.92015555  0.74605320  1
  O2-  O216  1  0.83419841  0.25799426  0.00309191  1
  O2-  O217  1  0.83501283  0.25739707  0.24824444  1
  O2-  O218  1  0.83985998  0.25166076  0.49784243  1
  O2-  O219  1  0.83371169  0.25226705  0.75460222  1
  O2-  O220  1  0.84341693  0.58754366  -0.00397279  1
  O2-  O221  1  0.82861454  0.58376030  0.25231620  1
  O2-  O222  1  0.82839936  0.58452840  0.50483254  1
  O2-  O223  1  0.83694748  0.58837448  0.74764560  1
  O2-  O224  1  0.83130167  0.92056476  0.00485602  1
  O2-  O225  1  0.83045294  0.91723517  0.24633214  1
  O2-  O226  1  0.83482132  0.92459139  0.49827473  1
  O2-  O227  1  0.83020421  0.91863633  0.74528877  1
  O2-  O228  1  0.17046965  0.24971208  -0.00159228  1
  O2-  O229  1  0.16792943  0.24976684  0.25061848  1
  O2-  O230  1  0.16302995  0.24902721  0.50122328  1
  O2-  O231  1  0.16781132  0.25061014  0.75062871  1
  O2-  O232  1  0.16918481  0.58228907  0.00456555  1
  O2-  O233  1  0.16538803  0.58521938  0.25204588  1
  O2-  O234  1  0.16743883  0.58559262  0.50263767  1
  O2-  O235  1  0.16454263  0.58125481  0.74470436  1
  O2-  O236  1  0.16088643  0.92565954  -0.00169910  1
  O2-  O237  1  0.17118168  0.92078720  0.25288476  1
  O2-  O238  1  0.16028932  0.92203636  0.50198442  1
  O2-  O239  1  0.16449326  0.92036633  0.74583087  1
  O2-  O240  1  0.66792223  0.25609789  0.00535855  1
  O2-  O241  1  0.66884507  0.25775962  0.25098903  1
  O2-  O242  1  0.66380932  0.25329454  0.49693484  1
  O2-  O243  1  0.66523819  0.25065156  0.75352830  1
  O2-  O244  1  0.65800910  0.58791605  -0.00334602  1
  O2-  O245  1  0.66321063  0.58174242  0.24538309  1
  O2-  O246  1  0.67248814  0.57881700  0.50741647  1
  O2-  O247  1  0.66245589  0.59004554  0.74643226  1
  O2-  O248  1  0.66856415  0.92035947  0.00177734  1
  O2-  O249  1  0.66377388  0.91541828  0.24721879  1
  O2-  O250  1  0.66433167  0.92376040  0.50247765  1
  O2-  O251  1  0.66263546  0.91889707  0.74311141  1
  O2-  O252  1  0.33291165  0.08351864  -0.00176255  1
  O2-  O253  1  0.33241602  0.08238247  0.25145069  1
  O2-  O254  1  0.33494998  0.08227592  0.50169598  1
  O2-  O255  1  0.33780732  0.08420796  0.74531972  1
  O2-  O256  1  0.32980515  0.41258418  -0.00000760  1
  O2-  O257  1  0.34165032  0.41397191  0.24832239  1
  O2-  O258  1  0.33782552  0.41604879  0.50000349  1
  O2-  O259  1  0.33680994  0.41346344  0.75443136  1
  O2-  O260  1  0.33223636  0.74478421  0.00470569  1
  O2-  O261  1  0.33365413  0.74503883  0.24697350  1
  O2-  O262  1  0.33471860  0.75290749  0.50436805  1
  O2-  O263  1  0.34358339  0.74277223  0.75107574  1
  O2-  O264  1  0.83770160  0.07691457  0.00490115  1
  O2-  O265  1  0.83707888  0.07292807  0.24719312  1
  O2-  O266  1  0.83236683  0.07687895  0.49853647  1
  O2-  O267  1  0.83627945  0.08033716  0.74753317  1
  O2-  O268  1  0.83542640  0.41477572  0.00133468  1
  O2-  O269  1  0.83859536  0.41377401  0.24716856  1
  O2-  O270  1  0.83486685  0.41059352  0.49951748  1
  O2-  O271  1  0.83095972  0.41529020  0.75331622  1
  O2-  O272  1  0.83825347  0.74991259  -0.00383234  1
  O2-  O273  1  0.83566610  0.75163392  0.24709179  1
  O2-  O274  1  0.83180075  0.74689663  0.50156175  1
  O2-  O275  1  0.83823566  0.74839494  0.74587761  1
  O2-  O276  1  0.45062059  0.76463451  0.76714403  1
  O2-  O277  1  0.95366807  0.57684080  0.29750928  1
  O2-  O278  1  0.53995062  0.23978053  0.24086843  1
  O2-  O279  1  0.45077798  0.90667879  0.23849098  1
  O2-  O280  1  0.04855807  0.90519446  0.98929375  1
  O2-  O281  1  0.94836379  0.09635043  0.73914042  1
  O2-  O282  1  0.55141177  0.76558719  0.76157129  1
  O2-  O283  1  0.04075757  0.42242885  0.71752821  1
  O2-  O284  1  0.95568329  0.43060949  0.50616441  1
  O2-  O285  1  0.54801899  0.09563553  0.24567049  1
  O2-  O286  1  0.53624904  0.81536117  0.24936524  1
  O2-  O287  1  0.54877446  0.09647468  0.48870684  1
  O2-  O288  1  0.02639776  0.86465903  0.24657419  1
  O2-  O289  1  0.46723072  0.89159126  0.49775200  1
  O2-  O290  1  0.54711911  0.76703342  0.99223205  1
  O2-  O291  1  0.45344434  0.10341650  0.75161187  1
  O2-  O292  1  0.54448581  0.56521228  0.75751138  1
  O2-  O293  1  0.54539041  0.43274174  -0.00384017  1
  O2-  O294  1  0.95108411  0.57473567  0.76086909  1
  O2-  O295  1  0.44783127  0.76066939  0.21363919  1
  O2-  O296  1  0.54713141  0.09850564  0.50762532  1
  O2-  O297  1  0.04917821  0.56094480  0.50634018  1
  O2-  O298  1  0.05097397  0.09063560  0.76559141  1
  O2-  O299  1  0.04663530  0.75345038  0.99234493  1
  O2-  O300  1  0.95171520  0.90540982  0.48046643  1
  O2-  O301  1  0.48169740  0.53380473  0.25523894  1
  O2-  O302  1  0.03623602  0.77464542  0.72779573  1
  O2-  O303  1  0.03214629  0.78156185  0.74264833  1
  O2-  O304  1  0.94993851  0.76425949  0.23802629  1
  O2-  O305  1  0.45322522  0.42727488  0.48646959  1
  O2-  O306  1  0.94685854  0.24213709  0.26029693  1
  O2-  O307  1  0.95241790  0.56930383  0.54229465  1
  O2-  O308  1  0.05300797  0.58000067  0.72964923  1
  O2-  O309  1  0.54768170  0.09329099  0.24466969  1
  O2-  O310  1  0.54417078  0.57385077  0.01617927  1
  O2-  O311  1  0.04995071  0.55635140  0.75882123  1
  O2-  O312  1  0.45351191  0.74989386  0.51407671  1
  O2-  O313  1  0.04786481  0.20534192  0.96031544  1
  O2-  O314  1  0.04732937  0.42340681  0.99265715  1
  O2-  O315  1  0.94831191  0.23976527  0.99449138  1
  O2-  O316  1  0.04455978  0.23286877  0.48382563  1
  O2-  O317  1  0.53804243  0.22012569  0.78940409  1
  O2-  O318  1  0.05041538  0.92110789  0.73582342  1
  O2-  O319  1  0.53622512  0.21575586  0.02483565  1
  O2-  O320  1  0.52639111  0.53229270  0.50405447  1
  O2-  O321  1  -0.00251745  0.53983365  0.98122892  1
  O2-  O322  1  0.44559317  0.76040814  0.47877246  1
  O2-  O323  1  0.04232356  0.09921766  0.26056817  1
  O2-  O324  1  0.42475629  0.94692546  0.47938645  1
  O2-  O325  1  0.93954237  0.92867526  0.82396176  1
  O2-  O326  1  0.06385249  0.25767086  0.22542005  1
  O2-  O327  1  0.43628367  0.26365945  0.69230491  1
  O2-  O328  1  0.06087604  0.41271560  0.17394293  1
  O2-  O329  1  0.93596419  0.25665012  0.72729694  1
  O2-  O330  1  0.43719950  0.40887188  0.01906247  1
  O2-  O331  1  0.06408018  0.40200107  0.47347568  1
  O2-  O332  1  0.58480908  0.62859620  0.47553503  1
  O2-  O333  1  0.56939299  0.28899481  0.93235660  1
  O2-  O334  1  0.56462149  0.07336370  0.77131052  1
  O2-  O335  1  0.43806786  0.26728342  0.55855440  1
  O2-  O336  1  0.93421561  0.73656037  0.53603987  1
  O2-  O337  1  0.06079490  0.40509203  0.31969482  1
  O2-  O338  1  0.43806077  0.58899994  0.73137430  1
  O2-  O339  1  0.07343372  0.69252485  0.81661051  1
  O2-  O340  1  0.06157512  0.58658555  0.23105237  1
  O2-  O341  1  0.06592963  0.28572262  0.06352299  1
  O2-  O342  1  0.93451495  0.41146497  0.72220770  1
  O2-  O343  1  0.56318291  0.24571275  0.22701643  1
  O2-  O344  1  0.43008342  0.58983178  0.53029087  1
  O2-  O345  1  0.95131245  0.57630267  0.27803281  1
  O2-  O346  1  0.43584337  0.06866670  0.20891220  1
  O2-  O347  1  0.06144048  0.58379820  0.52962678  1
  O2-  O348  1  0.58048088  0.69888027  0.26711572  1
  O2-  O349  1  0.44143175  0.93594449  0.07619331  1
  O2-  O350  1  0.93031807  0.91954459  0.68000484  1
  O2-  O351  1  0.43692598  0.93239073  0.71588458  1
  O2-  O352  1  0.43689615  0.73945859  0.96643273  1
  O2-  O353  1  0.07317343  0.60660527  0.92739105  1
  O2-  O354  1  0.93691850  0.93332466  0.97689901  1
  O2-  O355  1  0.56160112  0.93110791  0.04157373  1
  O2-  O356  1  0.43750817  0.26799960  0.41519743  1
  O2-  O357  1  0.91497984  0.59180117  0.43423580  1
  O2-  O358  1  0.41548275  0.61662580  0.27824264  1
  O2-  O359  1  0.08503505  0.96185783  0.22202705  1
  O2-  O360  1  0.43128184  0.74933833  0.30272794  1
  O2-  O361  1  0.07300520  0.58594242  0.07215886  1
  O2-  O362  1  0.43773783  0.26649212  0.83627874  1
  O2-  O363  1  0.93612067  0.93723159  0.28220960  1
  O2-  O364  1  0.91237319  0.58053819  0.15532204  1
  O2-  O365  1  0.93938534  0.27021271  0.28217153  1
  O2-  O366  1  0.08332825  0.40357835  0.81555108  1
  O2-  O367  1  0.06298355  0.26055326  0.71781354  1
  O2-  O368  1  0.56576045  0.29188378  0.67743186  1
  O2-  O369  1  0.43072377  0.90915876  0.93199296  1
  O2-  O370  1  0.56114159  0.40477542  0.28802454  1
  O2-  O371  1  0.06258566  0.75110618  0.96197327  1
  O2-  O372  1  0.24909050  0.01241966  0.82809082  1
  O2-  O373  1  0.25500188  0.66901579  0.86218716  1
  O2-  O374  1  0.25029785  0.33262326  0.38439613  1
  O2-  O375  1  0.74993935  0.01113694  0.82525049  1
  O2-  O376  1  0.75013017  0.65828893  0.61926153  1
  O2-  O377  1  0.75096232  0.67685136  0.37776924  1
  O2-  O378  1  0.24972072  0.33121791  0.58463842  1
  O2-  O379  1  0.24922900  0.00538421  0.04951828  1
  O2-  O380  1  0.74996813  0.35962511  0.33906919  1
  O2-  O381  1  0.75054996  0.30122738  0.40582334  1
  O2-  O382  1  0.74827687  0.65415099  0.10137408  1
  O2-  O383  1  0.75044523  0.66364351  0.82777118  1
  O2-  O384  1  0.24962344  0.02387592  0.34330144  1
  O2-  O385  1  0.75093095  0.66292808  0.92043960  1
  O2-  O386  1  0.24966973  0.67050008  0.59954284  1
  O2-  O387  1  0.74956185  0.32371034  0.68933807  1
  O2-  O388  1  0.25033756  -0.00655311  0.45601748  1
  O2-  O389  1  0.24984439  0.03254623  0.15763847  1
  O2-  O390  1  0.75044973  0.31297438  0.56322148  1
  O2-  O391  1  0.24975429  0.33167067  0.67603474  1
  O2-  O392  1  0.75135893  0.34642091  0.13393968  1
  O2-  O393  1  0.24934940  -0.00216031  0.91807278  1
  O2-  O394  1  0.75032615  -0.01693414  0.91315049  1
  O2-  O395  1  0.75139942  0.33633233  0.88936613  1
  O2-  O396  1  0.75014410  0.83365547  0.84056767  1
  O2-  O397  1  0.24940167  0.50144086  0.12175698  1
  O2-  O398  1  0.25032777  0.48919547  0.90187691  1
  O2-  O399  1  0.24910253  0.87165334  0.82373656  1
  O2-  O400  1  0.24971659  0.48456565  0.46479069  1
  O2-  O401  1  0.25061582  0.79579764  0.91336688  1
  O2-  O402  1  0.25017203  0.51467902  0.62910455  1
  O2-  O403  1  0.24975758  0.16171045  0.59214563  1
  O2-  O404  1  0.74950871  0.50199856  0.31824272  1
  O2-  O405  1  0.24912045  0.83032590  0.41531598  1
  O2-  O406  1  0.75000229  0.18402900  0.87168388  1
  O2-  O407  1  0.74981887  0.15688389  0.62293062  1
  O2-  O408  1  0.74996404  0.84304648  0.34265730  1
  O2-  O409  1  0.75044485  0.49348139  0.40552151  1
  O2-  O410  1  0.25013453  0.17392528  0.84235979  1
  O2-  O411  1  0.24981328  0.16897638  0.35737525  1
  O2-  O412  1  0.24995454  0.17260141  0.14628485  1
  O2-  O413  1  0.75006934  0.85029114  0.12244372  1
  O2-  O414  1  0.74918133  0.19125713  0.11562873  1
  O2-  O415  1  0.24968543  0.81219612  0.14035887  1
  O2-  O416  1  0.24897341  0.86675298  0.62958374  1
  O2-  O417  1  0.74910837  0.16607210  0.36775953  1
  O2-  O418  1  0.25020785  0.51172919  0.38131532  1
  O2-  O419  1  0.25122697  0.51930871  0.03875088  1
  O2-  O420  1  0.02232767  0.67383461  0.61969988  1
  O2-  O421  1  0.04847881  0.66031990  0.37459119  1
  O2-  O422  1  0.01946576  0.00831531  0.11970778  1
  O2-  O423  1  0.47036246  0.66983449  0.62974636  1
  O2-  O424  1  0.54199880  0.34697398  0.12186653  1
  O2-  O425  1  0.54741898  -0.01399497  0.37653182  1
  O2-  O426  1  0.97875728  0.32758023  0.61920701  1
  O2-  O427  1  0.45802693  0.02371379  0.36877332  1
  O2-  O428  1  0.46846849  0.65767608  0.39323010  1
  O2-  O429  1  0.97140889  0.67724920  0.09949711  1
  O2-  O430  1  0.52810093  -0.00259467  0.62538863  1
  O2-  O431  1  0.52398779  0.66120956  0.87445668  1
  O2-  O432  1  0.54763550  -0.01306592  0.89098782  1
  O2-  O433  1  0.45768798  0.01858939  0.86766598  1
  O2-  O434  1  0.96473899  0.33854906  0.87121498  1
  O2-  O435  1  0.02394524  0.31538369  0.87366085  1
  O2-  O436  1  0.02767798  -0.00361067  0.37902970  1
  O2-  O437  1  0.52341840  0.66744358  0.37549066  1
  O2-  O438  1  0.54439416  0.66578063  0.62481492  1
  O2-  O439  1  0.45077605  0.31453415  0.14540324  1
  O2-  O440  1  0.47328582  0.66187696  0.12113052  1
  O2-  O441  1  0.98172606  0.01360078  0.61101004  1
  O2-  O442  1  0.02436055  0.68682843  0.13861937  1
  O2-  O443  1  0.96120661  0.70385788  0.38022120  1
