# generated using pymatgen
data_La7(Ru4O11)2
_symmetry_space_group_name_H-M   'P 1'
_cell_length_a   23.99080656
_cell_length_b   16.82991598
_cell_length_c   15.42748220
_cell_angle_alpha   89.99960406
_cell_angle_beta   90.00015498
_cell_angle_gamma   90.00070141
_symmetry_Int_Tables_number   1
_chemical_formula_structural   La7(Ru4O11)2
_chemical_formula_sum   'La84 Ru96 O264'
_cell_volume   6229.05048320
_cell_formula_units_Z   12
loop_
 _symmetry_equiv_pos_site_id
 _symmetry_equiv_pos_as_xyz
  1  'x, y, z'
loop_
 _atom_type_symbol
 _atom_type_oxidation_number
  La3+  3.0
  Ru4+  4.0
  O2-  -2.0
loop_
 _atom_site_type_symbol
 _atom_site_label
 _atom_site_symmetry_multiplicity
 _atom_site_fract_x
 _atom_site_fract_y
 _atom_site_fract_z
 _atom_site_occupancy
  La3+  La0  1  0.13722147  0.00070390  0.12475034  1
  La3+  La1  1  0.14027882  -0.00233042  0.37682879  1
  La3+  La2  1  0.14109452  -0.00154163  0.62448337  1
  La3+  La3  1  0.13618810  0.00085510  0.87381847  1
  La3+  La4  1  0.13876450  0.32864156  0.12249814  1
  La3+  La5  1  0.13821932  0.33398879  0.37711425  1
  La3+  La6  1  0.14185344  0.33460814  0.62317552  1
  La3+  La7  1  0.13647363  0.33163225  0.87679922  1
  La3+  La8  1  0.13821842  0.66811403  0.12217227  1
  La3+  La9  1  0.13760872  0.66808045  0.37546873  1
  La3+  La10  1  0.13610872  0.66692365  0.62705894  1
  La3+  La11  1  0.13933107  0.66582934  0.87544692  1
  La3+  La12  1  0.63864512  0.00024255  0.12320335  1
  La3+  La13  1  0.63798273  0.00140101  0.37695768  1
  La3+  La14  1  0.63927568  -0.00184315  0.62608199  1
  La3+  La15  1  0.63885013  -0.00093874  0.87781645  1
  La3+  La16  1  0.64336758  0.33330324  0.12731598  1
  La3+  La17  1  0.63806426  0.33556320  0.37273020  1
  La3+  La18  1  0.64283356  0.33230803  0.62432760  1
  La3+  La19  1  0.64375010  0.33297492  0.87876439  1
  La3+  La20  1  0.63872753  0.66588999  0.12614248  1
  La3+  La21  1  0.64145615  0.66725011  0.37412882  1
  La3+  La22  1  0.63844904  0.66734384  0.62659874  1
  La3+  La23  1  0.63748742  0.66657243  0.87264515  1
  La3+  La24  1  0.36017356  0.00051846  0.12676725  1
  La3+  La25  1  0.36076436  -0.00128196  0.37996806  1
  La3+  La26  1  0.36010798  -0.00010821  0.62058049  1
  La3+  La27  1  0.36168010  -0.00115422  0.87467496  1
  La3+  La28  1  0.36393354  0.33206622  0.12448045  1
  La3+  La29  1  0.36283662  0.33417177  0.37601155  1
  La3+  La30  1  0.35892992  0.33374572  0.62315681  1
  La3+  La31  1  0.35950568  0.33391257  0.87642347  1
  La3+  La32  1  0.36218069  0.67003153  0.12082911  1
  La3+  La33  1  0.35968583  0.67043094  0.37722294  1
  La3+  La34  1  0.36184692  0.66607504  0.62683715  1
  La3+  La35  1  0.36400816  0.66746535  0.87913527  1
  La3+  La36  1  0.86104218  0.00102256  0.12435271  1
  La3+  La37  1  0.86143391  -0.00149762  0.37753834  1
  La3+  La38  1  0.86149994  -0.00032400  0.62220954  1
  La3+  La39  1  0.86281304  -0.00137923  0.87353653  1
  La3+  La40  1  0.85674499  0.33287259  0.12677145  1
  La3+  La41  1  0.86055832  0.33270022  0.37203055  1
  La3+  La42  1  0.85931336  0.33331726  0.62416929  1
  La3+  La43  1  0.85945507  0.33190071  0.87779254  1
  La3+  La44  1  0.86203403  0.66886172  0.12914173  1
  La3+  La45  1  0.85879914  0.66862102  0.37284290  1
  La3+  La46  1  0.86157022  0.66635498  0.62868695  1
  La3+  La47  1  0.86152140  0.66519076  0.87122297  1
  La3+  La48  1  0.49600545  0.50571820  0.86418640  1
  La3+  La49  1  -0.00109995  0.50173082  0.36482948  1
  La3+  La50  1  0.49939032  0.16612405  0.86288319  1
  La3+  La51  1  0.00257268  0.83453917  0.13662871  1
  La3+  La52  1  0.49765747  0.17010024  0.37663369  1
  La3+  La53  1  0.00292881  0.83112776  0.87386153  1
  La3+  La54  1  -0.00255084  0.17611665  0.62505674  1
  La3+  La55  1  0.50105382  0.83282373  0.11213050  1
  La3+  La56  1  0.49791377  0.50185053  0.62928593  1
  La3+  La57  1  0.50134589  0.83026111  0.86505495  1
  La3+  La58  1  0.49508520  0.82808387  0.62476905  1
  La3+  La59  1  0.49998357  0.15905578  0.61867121  1
  La3+  La60  1  -0.00506404  0.83344330  0.11753453  1
  La3+  La61  1  -0.00052288  0.16378177  0.36485735  1
  La3+  La62  1  -0.00142403  0.50161598  0.63540532  1
  La3+  La63  1  -0.00150532  0.50263239  0.13038833  1
  La3+  La64  1  -0.00291873  0.15971707  0.87621273  1
  La3+  La65  1  0.49886119  0.83463972  0.38262121  1
  La3+  La66  1  0.00205418  0.49685659  0.38477111  1
  La3+  La67  1  0.50208369  0.17133227  0.11511863  1
  La3+  La68  1  0.50004853  0.49983344  0.88491998  1
  La3+  La69  1  0.50088727  0.16606182  0.88546373  1
  La3+  La70  1  -0.00002905  0.83340960  0.36513242  1
  La3+  La71  1  -0.00203300  0.83433321  0.62280780  1
  La3+  La72  1  0.75051457  0.49934231  0.48579640  1
  La3+  La73  1  0.24966480  0.15854463  0.22525182  1
  La3+  La74  1  0.75044266  0.16898404  0.49816862  1
  La3+  La75  1  0.75017247  0.87155376  0.03489014  1
  La3+  La76  1  0.24991505  0.44187572  0.51746898  1
  La3+  La77  1  0.25040856  0.16441880  0.47131759  1
  La3+  La78  1  0.25032924  0.49710151  0.75774740  1
  La3+  La79  1  0.25023285  0.53671369  0.02534779  1
  La3+  La80  1  0.24985646  0.46135788  0.20440844  1
  La3+  La81  1  0.75015854  0.45772432  -0.02311940  1
  La3+  La82  1  0.25020227  0.10989149  0.76152225  1
  La3+  La83  1  0.25048029  0.86400169  0.74830764  1
  Ru4+  Ru84  1  0.00121004  0.00271157  -0.00241272  1
  Ru4+  Ru85  1  0.00234991  0.00183102  0.24760915  1
  Ru4+  Ru86  1  0.00323335  0.00570399  0.49665248  1
  Ru4+  Ru87  1  0.00087373  0.00813882  0.74653641  1
  Ru4+  Ru88  1  -0.00233591  0.33768495  -0.00233257  1
  Ru4+  Ru89  1  -0.00175449  0.33186311  0.25110039  1
  Ru4+  Ru90  1  -0.00103598  0.33368931  0.49924776  1
  Ru4+  Ru91  1  -0.00112059  0.33408921  0.75693158  1
  Ru4+  Ru92  1  -0.00161903  0.66227493  -0.00128208  1
  Ru4+  Ru93  1  0.00544469  0.65695334  0.25398699  1
  Ru4+  Ru94  1  0.00028133  0.66943834  0.49922568  1
  Ru4+  Ru95  1  -0.00370293  0.66201007  0.74913626  1
  Ru4+  Ru96  1  0.49559930  0.00484309  0.00140824  1
  Ru4+  Ru97  1  0.49985394  -0.00054602  0.25120103  1
  Ru4+  Ru98  1  0.50083295  -0.01057585  0.50277522  1
  Ru4+  Ru99  1  0.49909179  -0.00183757  0.75037262  1
  Ru4+  Ru100  1  0.49902816  0.33190197  0.00177689  1
  Ru4+  Ru101  1  0.50030391  0.33927541  0.25184229  1
  Ru4+  Ru102  1  0.49665274  0.33478335  0.49812658  1
  Ru4+  Ru103  1  0.49738364  0.33436422  0.74758332  1
  Ru4+  Ru104  1  0.50834348  0.66720448  -0.00197429  1
  Ru4+  Ru105  1  0.49750456  0.66210268  0.25553438  1
  Ru4+  Ru106  1  0.50095779  0.66226019  0.49796849  1
  Ru4+  Ru107  1  0.50014012  0.66790094  0.74934031  1
  Ru4+  Ru108  1  0.11490237  0.16393379  -0.00044666  1
  Ru4+  Ru109  1  0.10968992  0.16458826  0.25152279  1
  Ru4+  Ru110  1  0.11249523  0.16783033  0.49947941  1
  Ru4+  Ru111  1  0.11029985  0.16653549  0.74849009  1
  Ru4+  Ru112  1  0.11017566  0.50047873  0.00260108  1
  Ru4+  Ru113  1  0.10980730  0.50284135  0.24992898  1
  Ru4+  Ru114  1  0.11073747  0.49993308  0.49945891  1
  Ru4+  Ru115  1  0.11126635  0.49876624  0.74983155  1
  Ru4+  Ru116  1  0.11557232  0.83250619  0.00009349  1
  Ru4+  Ru117  1  0.11192052  0.83282514  0.25136535  1
  Ru4+  Ru118  1  0.11409090  0.83732336  0.49875380  1
  Ru4+  Ru119  1  0.11526981  0.83014334  0.75141808  1
  Ru4+  Ru120  1  0.61285553  0.16934959  0.00018766  1
  Ru4+  Ru121  1  0.61340388  0.16717386  0.24900764  1
  Ru4+  Ru122  1  0.61665053  0.16791775  0.50123729  1
  Ru4+  Ru123  1  0.61440375  0.16666979  0.74979439  1
  Ru4+  Ru124  1  0.61174406  0.50111065  0.00223671  1
  Ru4+  Ru125  1  0.61329189  0.49436892  0.25076793  1
  Ru4+  Ru126  1  0.61322329  0.50660528  0.49831722  1
  Ru4+  Ru127  1  0.61488751  0.50353585  0.74883205  1
  Ru4+  Ru128  1  0.61483031  0.82909204  -0.00036536  1
  Ru4+  Ru129  1  0.61366052  0.83154731  0.25083110  1
  Ru4+  Ru130  1  0.61137629  0.83337802  0.49992762  1
  Ru4+  Ru131  1  0.61390404  0.83197103  0.74969984  1
  Ru4+  Ru132  1  0.38643266  0.16827841  -0.00011293  1
  Ru4+  Ru133  1  0.39044596  0.16670439  0.24944518  1
  Ru4+  Ru134  1  0.38311777  0.17303316  0.49858456  1
  Ru4+  Ru135  1  0.38812016  0.16567157  0.75181947  1
  Ru4+  Ru136  1  0.38568077  0.49455596  0.00175527  1
  Ru4+  Ru137  1  0.39438744  0.50093669  0.24954194  1
  Ru4+  Ru138  1  0.39126870  0.50090585  0.49974436  1
  Ru4+  Ru139  1  0.38994272  0.49967963  0.74863291  1
  Ru4+  Ru140  1  0.38365392  0.83699963  -0.00006826  1
  Ru4+  Ru141  1  0.38812556  0.83393531  0.25149103  1
  Ru4+  Ru142  1  0.38641502  0.83582416  0.50076052  1
  Ru4+  Ru143  1  0.39075298  0.83291899  0.74943056  1
  Ru4+  Ru144  1  0.88645540  0.16926873  -0.00065686  1
  Ru4+  Ru145  1  0.88570466  0.16978719  0.25146145  1
  Ru4+  Ru146  1  0.88861256  0.16900324  0.50005239  1
  Ru4+  Ru147  1  0.88677354  0.16822541  0.74834038  1
  Ru4+  Ru148  1  0.89049608  0.50027686  -0.00115308  1
  Ru4+  Ru149  1  0.88629530  0.49732694  0.24954037  1
  Ru4+  Ru150  1  0.88853393  0.49694729  0.49946814  1
  Ru4+  Ru151  1  0.88631133  0.50136130  0.75096282  1
  Ru4+  Ru152  1  0.88795854  0.83201547  -0.00129841  1
  Ru4+  Ru153  1  0.88260239  0.83426678  0.25084283  1
  Ru4+  Ru154  1  0.88500554  0.82889150  0.49912584  1
  Ru4+  Ru155  1  0.88477111  0.82804655  0.74978510  1
  Ru4+  Ru156  1  0.24990866  0.08039033  0.00879285  1
  Ru4+  Ru157  1  0.74980516  0.75580579  0.49558970  1
  Ru4+  Ru158  1  0.74991334  0.57502725  0.25108087  1
  Ru4+  Ru159  1  0.75005033  0.24331498  0.75403249  1
  Ru4+  Ru160  1  0.25075713  0.72273747  0.74897715  1
  Ru4+  Ru161  1  0.24997391  0.28614351  0.26378522  1
  Ru4+  Ru162  1  0.74975265  0.90574871  0.25633769  1
  Ru4+  Ru163  1  0.24981696  0.60012466  0.51761313  1
  Ru4+  Ru164  1  0.74987288  0.91001867  0.49559860  1
  Ru4+  Ru165  1  0.75021281  0.59673863  0.00368643  1
  Ru4+  Ru166  1  0.74979493  0.09204198  -0.00586440  1
  Ru4+  Ru167  1  0.25017528  0.75976992  0.24422083  1
  Ru4+  Ru168  1  0.24992314  0.90384951  0.24961791  1
  Ru4+  Ru169  1  0.25016893  0.75598060  0.50514942  1
  Ru4+  Ru170  1  0.74982267  0.09239913  0.25527223  1
  Ru4+  Ru171  1  0.75011057  0.41659113  0.76195518  1
  Ru4+  Ru172  1  0.25007971  0.59662130  0.24338189  1
  Ru4+  Ru173  1  0.24995205  0.27579586  0.74366226  1
  Ru4+  Ru174  1  0.74938515  0.91981657  0.74870757  1
  Ru4+  Ru175  1  0.25035770  0.03245511  0.27411064  1
  Ru4+  Ru176  1  0.24994961  0.39885867  -0.01806273  1
  Ru4+  Ru177  1  0.75004803  0.73550937  -0.01240903  1
  Ru4+  Ru178  1  0.75015549  0.09038984  0.75151301  1
  Ru4+  Ru179  1  0.24973007  0.91686104  -0.00073408  1
  O2-  O180  1  0.16807152  0.08219240  0.00147079  1
  O2-  O181  1  0.16687067  0.07865341  0.24874370  1
  O2-  O182  1  0.16788540  0.08230892  0.50153274  1
  O2-  O183  1  0.16303875  0.07932058  0.74997430  1
  O2-  O184  1  0.16781180  0.41463164  -0.00209509  1
  O2-  O185  1  0.16529102  0.41186745  0.25070691  1
  O2-  O186  1  0.16201069  0.41182090  0.49652854  1
  O2-  O187  1  0.16597064  0.41464521  0.74980262  1
  O2-  O188  1  0.16728255  0.74756595  0.00010207  1
  O2-  O189  1  0.16651738  0.74700168  0.24945648  1
  O2-  O190  1  0.16644400  0.74839406  0.50057991  1
  O2-  O191  1  0.16918351  0.74692939  0.75034212  1
  O2-  O192  1  0.66713544  0.08050391  0.00105372  1
  O2-  O193  1  0.66799840  0.08066266  0.24999547  1
  O2-  O194  1  0.67134207  0.08126158  0.49856799  1
  O2-  O195  1  0.66790341  0.08215401  0.74904761  1
  O2-  O196  1  0.66287103  0.41263064  0.00195035  1
  O2-  O197  1  0.66734010  0.41683655  0.25006733  1
  O2-  O198  1  0.66865393  0.41520542  0.49736102  1
  O2-  O199  1  0.66657837  0.41325084  0.75033609  1
  O2-  O200  1  0.66667880  0.74677877  0.00027088  1
  O2-  O201  1  0.66477995  0.74758094  0.24987055  1
  O2-  O202  1  0.66676461  0.74720189  0.50000090  1
  O2-  O203  1  0.66511601  0.74847889  0.75002473  1
  O2-  O204  1  0.33339539  0.25146959  0.00078586  1
  O2-  O205  1  0.33357848  0.25436052  0.25087228  1
  O2-  O206  1  0.33143783  0.25316441  0.49874715  1
  O2-  O207  1  0.33097690  0.25388686  0.74782443  1
  O2-  O208  1  0.33373473  0.58881621  -0.00201908  1
  O2-  O209  1  0.33126855  0.58650863  0.24902169  1
  O2-  O210  1  0.33314549  0.58701408  0.50219164  1
  O2-  O211  1  0.33244977  0.58862395  0.74978819  1
  O2-  O212  1  0.33101212  0.91766703  -0.00097696  1
  O2-  O213  1  0.33150813  0.91864958  0.24894953  1
  O2-  O214  1  0.33262213  0.91580879  0.50067110  1
  O2-  O215  1  0.33399838  0.92153493  0.75152956  1
  O2-  O216  1  0.83406046  0.24939022  0.00229576  1
  O2-  O217  1  0.83332023  0.25071607  0.25029199  1
  O2-  O218  1  0.83285474  0.25165667  0.49769758  1
  O2-  O219  1  0.83151045  0.25087877  0.75077138  1
  O2-  O220  1  0.83315850  0.58609554  -0.00018470  1
  O2-  O221  1  0.83284195  0.58602415  0.25001253  1
  O2-  O222  1  0.83334605  0.58827329  0.50007607  1
  O2-  O223  1  0.83296450  0.58459205  0.74998362  1
  O2-  O224  1  0.83533167  0.92276601  -0.00197151  1
  O2-  O225  1  0.83323809  0.92117925  0.25064210  1
  O2-  O226  1  0.83166599  0.92034742  0.49912239  1
  O2-  O227  1  0.83281744  0.91925923  0.75060126  1
  O2-  O228  1  0.16538766  0.25145484  -0.00059557  1
  O2-  O229  1  0.16479663  0.25477722  0.25038504  1
  O2-  O230  1  0.16552741  0.25159205  0.49779564  1
  O2-  O231  1  0.16815149  0.25306223  0.75039990  1
  O2-  O232  1  0.16624020  0.58720087  -0.00081428  1
  O2-  O233  1  0.16600765  0.58761510  0.25064734  1
  O2-  O234  1  0.16733714  0.58787145  0.50147144  1
  O2-  O235  1  0.16746478  0.58746934  0.74962189  1
  O2-  O236  1  0.16842728  0.91854034  0.00068352  1
  O2-  O237  1  0.16874482  0.91920733  0.24789594  1
  O2-  O238  1  0.16776352  0.91597090  0.50167338  1
  O2-  O239  1  0.16613517  0.91961627  0.75154856  1
  O2-  O240  1  0.66443345  0.25135669  0.00165004  1
  O2-  O241  1  0.66427274  0.25088669  0.25093330  1
  O2-  O242  1  0.66999893  0.25291742  0.49785065  1
  O2-  O243  1  0.66920030  0.25032784  0.75056235  1
  O2-  O244  1  0.66790712  0.58635417  -0.00146396  1
  O2-  O245  1  0.66692619  0.58524536  0.24931448  1
  O2-  O246  1  0.66693849  0.58667138  0.50121500  1
  O2-  O247  1  0.66550210  0.58685348  0.74919263  1
  O2-  O248  1  0.66532277  0.91970352  -0.00029923  1
  O2-  O249  1  0.66576594  0.91951208  0.24971658  1
  O2-  O250  1  0.66844643  0.92045015  0.49908423  1
  O2-  O251  1  0.66863291  0.91927485  0.74927628  1
  O2-  O252  1  0.33334884  0.07959582  0.00131776  1
  O2-  O253  1  0.33273374  0.07860509  0.25029387  1
  O2-  O254  1  0.33399824  0.08231844  0.50116677  1
  O2-  O255  1  0.33840676  0.07779447  0.75049245  1
  O2-  O256  1  0.33299035  0.41437760  0.00038180  1
  O2-  O257  1  0.33572320  0.41409868  0.25036326  1
  O2-  O258  1  0.33860906  0.41105766  0.49744072  1
  O2-  O259  1  0.33342922  0.41290231  0.74777597  1
  O2-  O260  1  0.33230514  0.75040970  -0.00331701  1
  O2-  O261  1  0.33339007  0.74870396  0.24897300  1
  O2-  O262  1  0.33247908  0.74897958  0.50269566  1
  O2-  O263  1  0.33208926  0.74593229  0.74985885  1
  O2-  O264  1  0.83349170  0.08101542  0.00012770  1
  O2-  O265  1  0.83421948  0.08111369  0.24982166  1
  O2-  O266  1  0.83094268  0.07940377  0.49918127  1
  O2-  O267  1  0.83268410  0.08120642  0.74985958  1
  O2-  O268  1  0.83723315  0.41244987  0.00227021  1
  O2-  O269  1  0.83343986  0.41513025  0.25228626  1
  O2-  O270  1  0.83444333  0.41353941  0.49860272  1
  O2-  O271  1  0.83336145  0.41394980  0.74972538  1
  O2-  O272  1  0.83357381  0.74635611  0.00040830  1
  O2-  O273  1  0.83383128  0.74734309  0.24967971  1
  O2-  O274  1  0.83357028  0.74833246  0.50009285  1
  O2-  O275  1  0.83190574  0.74757860  0.75079936  1
  O2-  O276  1  0.54672572  0.09532696  0.73910272  1
  O2-  O277  1  0.04674749  0.23838293  0.26468951  1
  O2-  O278  1  0.54340224  0.76786583  0.26527986  1
  O2-  O279  1  0.04672888  0.56884596  0.73553997  1
  O2-  O280  1  0.44734186  0.09904716  0.48120567  1
  O2-  O281  1  0.04615930  0.42890396  0.23603675  1
  O2-  O282  1  0.95411536  0.09956588  0.73534630  1
  O2-  O283  1  0.45192728  0.57338691  0.98357471  1
  O2-  O284  1  0.53717869  0.88267826  0.71953536  1
  O2-  O285  1  0.54255744  0.43813882  0.48497959  1
  O2-  O286  1  0.54740214  0.76540415  0.98751700  1
  O2-  O287  1  0.95174081  0.09964425  0.98936234  1
  O2-  O288  1  0.95463898  0.56689496  0.48620217  1
  O2-  O289  1  0.45443638  0.56423347  0.02128890  1
  O2-  O290  1  0.04568597  0.76036472  0.01379564  1
  O2-  O291  1  0.45822616  0.88728895  0.96143564  1
  O2-  O292  1  0.04345037  0.23787287  0.02019827  1
  O2-  O293  1  0.44944117  0.76133506  0.01222439  1
  O2-  O294  1  0.45238446  0.42610858  0.24212193  1
  O2-  O295  1  0.45227836  0.42389007  0.25862103  1
  O2-  O296  1  0.45575200  0.22276955  0.71487413  1
  O2-  O297  1  0.44851624  0.09719731  0.52008156  1
  O2-  O298  1  0.53983528  0.10698467  0.48260208  1
  O2-  O299  1  0.54228489  0.44013820  0.50149698  1
  O2-  O300  1  0.05452643  0.90211529  0.73686478  1
  O2-  O301  1  0.04445355  0.76536351  0.71418069  1
  O2-  O302  1  0.04208097  0.10841137  0.53424366  1
  O2-  O303  1  0.54762093  0.42792595  0.99009610  1
  O2-  O304  1  0.55056809  0.57839426  0.48382415  1
  O2-  O305  1  0.03776479  0.22112777  0.78013109  1
  O2-  O306  1  0.03562570  0.45910817  -0.00291465  1
  O2-  O307  1  0.04879859  0.90207293  0.98970694  1
  O2-  O308  1  0.95131532  0.90211019  0.98789074  1
  O2-  O309  1  0.54492829  0.22362326  0.71750136  1
  O2-  O310  1  0.95348396  0.76283595  0.23627008  1
  O2-  O311  1  0.94919172  0.42868624  0.01626896  1
  O2-  O312  1  0.54582679  0.43153918  0.76283080  1
  O2-  O313  1  0.44622995  0.42498053  0.51894744  1
  O2-  O314  1  0.55154134  0.90220398  0.98538351  1
  O2-  O315  1  0.04907138  0.23485798  0.98224355  1
  O2-  O316  1  0.95956611  0.88897064  0.77296210  1
  O2-  O317  1  0.44998901  0.57042213  0.49073012  1
  O2-  O318  1  0.48114633  0.55267889  0.27032822  1
  O2-  O319  1  0.46448916  0.11252723  0.21285049  1
  O2-  O320  1  0.54454450  0.11361450  0.49067987  1
  O2-  O321  1  0.95034449  0.90084223  0.48659413  1
  O2-  O322  1  0.95989773  0.89021432  0.75424844  1
  O2-  O323  1  0.95018282  0.09648570  0.51218443  1
  O2-  O324  1  0.93778498  0.40421064  0.78102463  1
  O2-  O325  1  0.06258506  0.92998863  0.56574339  1
  O2-  O326  1  0.93826223  0.92963144  0.47179602  1
  O2-  O327  1  0.06090310  0.93194009  0.71784507  1
  O2-  O328  1  0.05897657  0.74542671  0.69103601  1
  O2-  O329  1  0.06504175  0.92255958  0.27700350  1
  O2-  O330  1  0.56676807  0.59361176  0.02543607  1
  O2-  O331  1  0.56685237  0.25799692  0.44959857  1
  O2-  O332  1  0.06495205  0.91816566  0.44157850  1
  O2-  O333  1  0.06330876  0.40348925  0.46665304  1
  O2-  O334  1  0.56753808  0.40620440  0.27629192  1
  O2-  O335  1  0.93857639  0.74115833  0.21494278  1
  O2-  O336  1  0.43628822  0.25872626  0.97231444  1
  O2-  O337  1  0.06719857  0.07229750  0.97166081  1
  O2-  O338  1  0.56688533  0.25356719  0.55268591  1
  O2-  O339  1  0.93688917  0.26182846  0.28519974  1
  O2-  O340  1  0.93751825  0.73487550  0.81791464  1
  O2-  O341  1  0.43647574  0.26297685  0.46698745  1
  O2-  O342  1  0.58019515  0.39156454  0.54019811  1
  O2-  O343  1  0.06923166  0.72424822  0.83352284  1
  O2-  O344  1  0.07240082  0.28082370  0.69071124  1
  O2-  O345  1  0.93702218  0.26746099  0.96646519  1
  O2-  O346  1  0.93498949  0.59035720  0.72166653  1
  O2-  O347  1  0.56415452  0.06842549  0.21575484  1
  O2-  O348  1  0.42315762  0.59405543  0.18040042  1
  O2-  O349  1  0.92270065  0.95607238  0.69172059  1
  O2-  O350  1  0.07496644  0.06464109  0.45113541  1
  O2-  O351  1  0.06560037  0.07632745  0.27820904  1
  O2-  O352  1  0.93241009  0.74604239  0.68913227  1
  O2-  O353  1  0.42317802  0.06535921  0.30140172  1
  O2-  O354  1  0.93737211  0.40460438  0.21624180  1
  O2-  O355  1  0.43403177  0.26031247  0.22289628  1
  O2-  O356  1  0.42139382  0.60936266  0.31203659  1
  O2-  O357  1  0.43382409  0.73677362  0.02714073  1
  O2-  O358  1  0.06455402  0.59543157  0.53344544  1
  O2-  O359  1  0.06486482  0.07257689  0.77652698  1
  O2-  O360  1  0.93629392  0.26327566  0.71401281  1
  O2-  O361  1  0.42915885  0.94782930  0.05942210  1
  O2-  O362  1  0.57299642  0.27908001  0.81040906  1
  O2-  O363  1  0.58460113  0.04852500  0.54784307  1
  O2-  O364  1  0.43624012  0.92191566  0.27634149  1
  O2-  O365  1  0.43581154  0.92357209  0.52677353  1
  O2-  O366  1  0.06345762  0.59821052  0.03343062  1
  O2-  O367  1  0.93698806  0.59846313  0.96926456  1
  O2-  O368  1  0.56500330  0.93098188  0.97461824  1
  O2-  O369  1  0.07610613  0.37715436  0.04561632  1
  O2-  O370  1  0.42355195  0.27332922  0.80204756  1
  O2-  O371  1  0.57858777  0.93749152  0.79951937  1
  O2-  O372  1  0.25013657  -0.00170303  0.67135869  1
  O2-  O373  1  0.24986427  0.33563629  0.84606112  1
  O2-  O374  1  0.24987789  -0.00038311  0.58073311  1
  O2-  O375  1  0.25017872  0.32130107  0.07210048  1
  O2-  O376  1  0.24991484  0.00028662  0.90353995  1
  O2-  O377  1  0.24984500  0.67706066  0.32412522  1
  O2-  O378  1  0.25053460  0.33132523  0.60280098  1
  O2-  O379  1  0.24981600  0.67248999  0.14620642  1
  O2-  O380  1  0.74990727  0.66672980  0.32739300  1
  O2-  O381  1  0.25005257  0.34458985  0.36298669  1
  O2-  O382  1  0.74999879  0.33709570  0.89457077  1
  O2-  O383  1  0.75004800  0.66375547  0.41992297  1
  O2-  O384  1  0.75014228  0.00299652  0.06190028  1
  O2-  O385  1  0.74992604  -0.00022974  0.34507818  1
  O2-  O386  1  0.25016447  0.00410601  0.39510919  1
  O2-  O387  1  0.75032947  0.00064935  0.84551567  1
  O2-  O388  1  0.75021373  0.33333962  0.15256151  1
  O2-  O389  1  0.74994156  0.33080184  0.57905465  1
  O2-  O390  1  0.24983875  0.34542305  0.16028100  1
  O2-  O391  1  0.74999509  0.66935960  0.10453991  1
  O2-  O392  1  0.74991900  -0.00002672  0.18614771  1
  O2-  O393  1  0.24997659  0.67429757  0.42808799  1
  O2-  O394  1  0.25008187  -0.00479598  0.14578300  1
  O2-  O395  1  0.74971658  0.33136527  0.67161833  1
  O2-  O396  1  0.74999929  0.83049306  0.67156124  1
  O2-  O397  1  0.24994189  0.15890147  0.58796542  1
  O2-  O398  1  0.25003727  0.49505823  0.89576763  1
  O2-  O399  1  0.74994928  0.51085987  0.11651246  1
  O2-  O400  1  0.75002291  0.83299211  0.16704770  1
  O2-  O401  1  0.75003330  0.50332826  0.35331224  1
  O2-  O402  1  0.24998742  0.83248429  0.34410242  1
  O2-  O403  1  0.24968433  0.18974295  0.66263345  1
  O2-  O404  1  0.74988339  0.49868414  0.61162050  1
  O2-  O405  1  0.74998071  0.82693374  0.81545284  1
  O2-  O406  1  0.75004239  0.16081019  0.90912252  1
  O2-  O407  1  0.25012588  0.16456644  0.10280184  1
  O2-  O408  1  0.24995331  0.50816084  0.32318399  1
  O2-  O409  1  0.74990709  0.83485785  0.58021583  1
  O2-  O410  1  0.24991463  0.16996999  0.35247585  1
  O2-  O411  1  0.75021106  0.16513203  0.34313617  1
  O2-  O412  1  0.74989491  0.82640866  0.90164673  1
  O2-  O413  1  0.25026290  0.17424324  0.95226708  1
  O2-  O414  1  0.25012186  0.51475651  0.41055641  1
  O2-  O415  1  0.74975624  0.50723301  0.69604797  1
  O2-  O416  1  0.24991132  0.51981486  0.62421984  1
  O2-  O417  1  0.74990963  0.83676620  0.34415788  1
  O2-  O418  1  0.74987408  0.50059050  0.83892659  1
  O2-  O419  1  0.25002022  0.18075357  0.86515224  1
  O2-  O420  1  0.51955238  0.33761116  0.63421426  1
  O2-  O421  1  0.54126294  -0.00321738  0.37116252  1
  O2-  O422  1  0.46731357  -0.00489851  0.38981718  1
  O2-  O423  1  0.97657341  0.66502724  0.61264596  1
  O2-  O424  1  0.95609525  -0.00201315  0.12860390  1
  O2-  O425  1  0.52692321  0.66712905  0.62610807  1
  O2-  O426  1  0.53539379  -0.00732602  0.63018149  1
  O2-  O427  1  0.46480213  0.33580674  0.11600891  1
  O2-  O428  1  0.47875290  0.34546819  0.87859125  1
  O2-  O429  1  0.46084014  0.00444812  0.63352574  1
  O2-  O430  1  0.45642897  0.66952691  0.87059248  1
  O2-  O431  1  0.47483856  0.67413384  0.12664581  1
  O2-  O432  1  0.47857242  0.68072136  0.38107897  1
  O2-  O433  1  0.45528492  0.00297221  0.86980886  1
  O2-  O434  1  0.02856602  0.33724828  0.87293468  1
  O2-  O435  1  0.96462772  0.00251578  0.87774646  1
  O2-  O436  1  0.02895951  -0.00795975  0.87673083  1
  O2-  O437  1  0.04260596  -0.00136156  0.12422597  1
  O2-  O438  1  0.53258617  0.67101848  0.13117433  1
  O2-  O439  1  0.53841603  0.33095763  0.12467733  1
  O2-  O440  1  0.01292431  0.00188523  0.36792370  1
  O2-  O441  1  0.53556050  0.01786882  0.87901945  1
  O2-  O442  1  0.54303075  0.66414258  0.87210738  1
  O2-  O443  1  0.51933186  0.33047557  0.36874142  1
