# generated using pymatgen
data_La7(Ru4O11)2
_symmetry_space_group_name_H-M   'P 1'
_cell_length_a   23.99407366
_cell_length_b   16.83427187
_cell_length_c   15.43006523
_cell_angle_alpha   89.99859837
_cell_angle_beta   89.99937583
_cell_angle_gamma   90.00193173
_symmetry_Int_Tables_number   1
_chemical_formula_structural   La7(Ru4O11)2
_chemical_formula_sum   'La84 Ru96 O264'
_cell_volume   6232.55451870
_cell_formula_units_Z   12
loop_
 _symmetry_equiv_pos_site_id
 _symmetry_equiv_pos_as_xyz
  1  'x, y, z'
loop_
 _atom_type_symbol
 _atom_type_oxidation_number
  La3+  3.0
  Ru4+  4.0
  O2-  -2.0
loop_
 _atom_site_type_symbol
 _atom_site_label
 _atom_site_symmetry_multiplicity
 _atom_site_fract_x
 _atom_site_fract_y
 _atom_site_fract_z
 _atom_site_occupancy
  La3+  La0  1  0.14451899  0.00510541  0.12589426  1
  La3+  La1  1  0.13811909  0.00109812  0.37904825  1
  La3+  La2  1  0.13725588  -0.00345591  0.62373801  1
  La3+  La3  1  0.14307343  0.00116687  0.87299664  1
  La3+  La4  1  0.13783751  0.32864538  0.12365069  1
  La3+  La5  1  0.14521615  0.32833950  0.37824777  1
  La3+  La6  1  0.14416830  0.32990421  0.63204686  1
  La3+  La7  1  0.14164057  0.33551935  0.87235588  1
  La3+  La8  1  0.14090978  0.66881920  0.12580110  1
  La3+  La9  1  0.13496409  0.66824357  0.37323244  1
  La3+  La10  1  0.13505972  0.66728301  0.62363637  1
  La3+  La11  1  0.13483285  0.66795992  0.87086640  1
  La3+  La12  1  0.63073708  0.00526211  0.12782006  1
  La3+  La13  1  0.63410085  -0.00242612  0.37670167  1
  La3+  La14  1  0.64417784  -0.00094222  0.62099303  1
  La3+  La15  1  0.63774146  -0.00036802  0.88081933  1
  La3+  La16  1  0.63979331  0.32921938  0.13026735  1
  La3+  La17  1  0.63910897  0.32825549  0.37389220  1
  La3+  La18  1  0.63455828  0.33109224  0.62108590  1
  La3+  La19  1  0.64064409  0.33541395  0.86840094  1
  La3+  La20  1  0.63699051  0.66166131  0.12441616  1
  La3+  La21  1  0.63594081  0.66303111  0.37530259  1
  La3+  La22  1  0.63808126  0.67070621  0.62077310  1
  La3+  La23  1  0.63240081  0.66906860  0.87141991  1
  La3+  La24  1  0.35425116  0.00272096  0.12590118  1
  La3+  La25  1  0.36098022  0.00658395  0.37743601  1
  La3+  La26  1  0.36068545  -0.00428489  0.62935174  1
  La3+  La27  1  0.35923973  -0.00152870  0.87195190  1
  La3+  La28  1  0.35884196  0.32256809  0.12234659  1
  La3+  La29  1  0.36073121  0.33373249  0.37485295  1
  La3+  La30  1  0.35541831  0.33200525  0.62826461  1
  La3+  La31  1  0.35780290  0.33201257  0.87530769  1
  La3+  La32  1  0.36166142  0.67512564  0.13003365  1
  La3+  La33  1  0.36521124  0.67204602  0.37026897  1
  La3+  La34  1  0.36442320  0.66510294  0.62509613  1
  La3+  La35  1  0.36414386  0.66782829  0.87434968  1
  La3+  La36  1  0.86086304  0.00107254  0.11836877  1
  La3+  La37  1  0.85013912  0.00095390  0.37846742  1
  La3+  La38  1  0.85921329  -0.00152839  0.61854301  1
  La3+  La39  1  0.86692280  0.00221221  0.87763642  1
  La3+  La40  1  0.85765193  0.32962856  0.12440575  1
  La3+  La41  1  0.86199608  0.32970490  0.37634453  1
  La3+  La42  1  0.85988458  0.33302869  0.62439031  1
  La3+  La43  1  0.86476089  0.33474053  0.87144014  1
  La3+  La44  1  0.85723870  0.66693218  0.12289847  1
  La3+  La45  1  0.86205935  0.67031424  0.38173798  1
  La3+  La46  1  0.86015147  0.67328765  0.62018433  1
  La3+  La47  1  0.85823482  0.66908582  0.87351865  1
  La3+  La48  1  0.49078881  0.15784095  0.63290250  1
  La3+  La49  1  0.49965927  0.15799155  0.61512990  1
  La3+  La50  1  0.00293637  0.83867074  0.38049847  1
  La3+  La51  1  0.50113704  0.16682406  0.11187955  1
  La3+  La52  1  -0.00048953  0.16964241  0.62927478  1
  La3+  La53  1  0.50133992  0.50218459  0.61909783  1
  La3+  La54  1  0.00076835  0.17116271  0.38493651  1
  La3+  La55  1  -0.00022028  0.82882697  0.63547828  1
  La3+  La56  1  0.00201864  0.17384161  0.11696746  1
  La3+  La57  1  0.50176915  0.50742394  0.88667352  1
  La3+  La58  1  0.49918901  0.83487532  0.13676182  1
  La3+  La59  1  0.50132186  0.51240249  0.13968782  1
  La3+  La60  1  -0.00570294  0.49057443  0.13409997  1
  La3+  La61  1  0.49648341  0.17000665  0.86993525  1
  La3+  La62  1  -0.00112860  0.16340826  0.65095832  1
  La3+  La63  1  0.50349715  0.50547497  0.87021836  1
  La3+  La64  1  0.50041145  0.83495874  0.87430483  1
  La3+  La65  1  0.50064035  0.50264734  0.11987066  1
  La3+  La66  1  0.00327597  0.16196730  0.36572215  1
  La3+  La67  1  0.50039001  0.15856050  0.36528236  1
  La3+  La68  1  -0.00047804  0.50261411  0.62277224  1
  La3+  La69  1  0.00188092  0.49868531  0.38165446  1
  La3+  La70  1  0.50324282  0.83612040  0.62870231  1
  La3+  La71  1  0.00827425  0.83889680  0.13466564  1
  La3+  La72  1  0.75112257  0.77193231  0.27229903  1
  La3+  La73  1  0.74919038  0.82771269  0.03139178  1
  La3+  La74  1  0.24985554  0.15834452  0.25093830  1
  La3+  La75  1  0.75003915  0.21217132  0.77738030  1
  La3+  La76  1  0.75039415  0.50739180  0.01496483  1
  La3+  La77  1  0.24925233  0.42259861  0.53419642  1
  La3+  La78  1  0.25022464  0.50653584  0.21638799  1
  La3+  La79  1  0.25082469  0.83764703  0.42432866  1
  La3+  La80  1  0.24893764  0.55376457  -0.04011388  1
  La3+  La81  1  0.74974635  0.46150200  0.54671464  1
  La3+  La82  1  0.25117651  0.20855058  0.79071835  1
  La3+  La83  1  0.24815523  0.17717395  0.51793020  1
  Ru4+  Ru84  1  -0.00116997  0.00125934  -0.00237647  1
  Ru4+  Ru85  1  -0.00406736  -0.00045090  0.24320596  1
  Ru4+  Ru86  1  -0.00637435  -0.00145492  0.49681906  1
  Ru4+  Ru87  1  -0.00601873  -0.00390073  0.76147346  1
  Ru4+  Ru88  1  -0.00240403  0.33119177  0.00340347  1
  Ru4+  Ru89  1  0.00429162  0.33582314  0.24862738  1
  Ru4+  Ru90  1  0.00033557  0.33354831  0.50164534  1
  Ru4+  Ru91  1  -0.00287348  0.33969188  0.74390724  1
  Ru4+  Ru92  1  -0.00033834  0.67530823  -0.01621519  1
  Ru4+  Ru93  1  0.00264342  0.66872027  0.25335654  1
  Ru4+  Ru94  1  0.00852693  0.66639375  0.50759770  1
  Ru4+  Ru95  1  -0.01029067  0.65275941  0.75355227  1
  Ru4+  Ru96  1  0.49758277  0.00224970  0.00346441  1
  Ru4+  Ru97  1  0.50264951  -0.00365186  0.25363504  1
  Ru4+  Ru98  1  0.49688464  -0.00654334  0.50121085  1
  Ru4+  Ru99  1  0.50218312  -0.00046355  0.75990945  1
  Ru4+  Ru100  1  0.50882527  0.33008092  -0.01005397  1
  Ru4+  Ru101  1  0.49251607  0.34114269  0.24685176  1
  Ru4+  Ru102  1  0.50029304  0.33550330  0.50666188  1
  Ru4+  Ru103  1  0.50092900  0.34340354  0.76075063  1
  Ru4+  Ru104  1  0.49036293  0.67943728  0.00343069  1
  Ru4+  Ru105  1  0.50404436  0.66653864  0.26094289  1
  Ru4+  Ru106  1  0.50596996  0.66877600  0.49539488  1
  Ru4+  Ru107  1  0.49762535  0.67039846  0.75186676  1
  Ru4+  Ru108  1  0.11107049  0.16419472  -0.00337789  1
  Ru4+  Ru109  1  0.10950956  0.17226473  0.24961674  1
  Ru4+  Ru110  1  0.10181427  0.16711127  0.49842641  1
  Ru4+  Ru111  1  0.10973872  0.16429413  0.75206381  1
  Ru4+  Ru112  1  0.10940768  0.50484109  -0.00756017  1
  Ru4+  Ru113  1  0.11085999  0.49864835  0.25278356  1
  Ru4+  Ru114  1  0.11134209  0.50211597  0.50041841  1
  Ru4+  Ru115  1  0.10927111  0.49991574  0.75068271  1
  Ru4+  Ru116  1  0.11396406  0.83628568  0.00083695  1
  Ru4+  Ru117  1  0.11455122  0.83274227  0.25169657  1
  Ru4+  Ru118  1  0.11699062  0.82722230  0.49836365  1
  Ru4+  Ru119  1  0.11333855  0.83633400  0.74973973  1
  Ru4+  Ru120  1  0.61422681  0.16311438  -0.00042650  1
  Ru4+  Ru121  1  0.61618972  0.17096083  0.25623537  1
  Ru4+  Ru122  1  0.61791241  0.16704108  0.49817144  1
  Ru4+  Ru123  1  0.61166170  0.16676907  0.75152018  1
  Ru4+  Ru124  1  0.61763525  0.49658287  -0.00401248  1
  Ru4+  Ru125  1  0.61643374  0.50482384  0.25750540  1
  Ru4+  Ru126  1  0.61021017  0.49766132  0.50209065  1
  Ru4+  Ru127  1  0.61017644  0.49556077  0.75049191  1
  Ru4+  Ru128  1  0.60911666  0.83897866  -0.00249398  1
  Ru4+  Ru129  1  0.61025966  0.83089049  0.25366026  1
  Ru4+  Ru130  1  0.61661465  0.83098551  0.49893776  1
  Ru4+  Ru131  1  0.61059764  0.83263358  0.75345330  1
  Ru4+  Ru132  1  0.38418356  0.15742149  -0.00616951  1
  Ru4+  Ru133  1  0.39074344  0.16554797  0.25181801  1
  Ru4+  Ru134  1  0.38627785  0.16212967  0.49515444  1
  Ru4+  Ru135  1  0.39112830  0.16658643  0.75329178  1
  Ru4+  Ru136  1  0.38353520  0.50400491  -0.00439283  1
  Ru4+  Ru137  1  0.39027531  0.49140690  0.25854612  1
  Ru4+  Ru138  1  0.39203315  0.50054067  0.50810731  1
  Ru4+  Ru139  1  0.38922165  0.49596164  0.74851401  1
  Ru4+  Ru140  1  0.38860085  0.83329967  -0.00257345  1
  Ru4+  Ru141  1  0.38319934  0.83659087  0.25175516  1
  Ru4+  Ru142  1  0.39586928  0.83526864  0.49727439  1
  Ru4+  Ru143  1  0.38047066  0.82656460  0.74884556  1
  Ru4+  Ru144  1  0.88985479  0.16784596  -0.00378984  1
  Ru4+  Ru145  1  0.88576598  0.16441072  0.25136570  1
  Ru4+  Ru146  1  0.88012322  0.16717617  0.49701825  1
  Ru4+  Ru147  1  0.89486965  0.17307605  0.75548911  1
  Ru4+  Ru148  1  0.89258970  0.49397787  -0.00788089  1
  Ru4+  Ru149  1  0.88538098  0.50425331  0.25194203  1
  Ru4+  Ru150  1  0.88838937  0.49889462  0.49679966  1
  Ru4+  Ru151  1  0.89249929  0.50673776  0.75049662  1
  Ru4+  Ru152  1  0.89671674  0.82848134  -0.00556640  1
  Ru4+  Ru153  1  0.89222279  0.83794307  0.25218371  1
  Ru4+  Ru154  1  0.88854474  0.84448413  0.49532772  1
  Ru4+  Ru155  1  0.88849992  0.83490018  0.75001501  1
  Ru4+  Ru156  1  0.25072261  0.91169034  -0.00936176  1
  Ru4+  Ru157  1  0.25027484  0.58037901  0.74632295  1
  Ru4+  Ru158  1  0.24891763  0.74610026  0.75172692  1
  Ru4+  Ru159  1  0.24971111  0.91728847  0.25383474  1
  Ru4+  Ru160  1  0.25005902  0.64801033  0.26644188  1
  Ru4+  Ru161  1  0.74945379  0.65324741  -0.02770407  1
  Ru4+  Ru162  1  0.75059852  0.07081417  0.73365861  1
  Ru4+  Ru163  1  0.25093314  0.75785989  -0.01743949  1
  Ru4+  Ru164  1  0.74933561  0.22877806  0.00098926  1
  Ru4+  Ru165  1  0.24970305  0.39755473  0.00513095  1
  Ru4+  Ru166  1  0.75006942  0.60007909  0.48319507  1
  Ru4+  Ru167  1  0.25193453  0.59489286  0.51542629  1
  Ru4+  Ru168  1  0.24973278  0.96421566  0.52064894  1
  Ru4+  Ru169  1  0.74921552  0.56338540  0.75893490  1
  Ru4+  Ru170  1  0.25005394  0.35600110  0.26592446  1
  Ru4+  Ru171  1  0.24967360  0.23733626  0.01341565  1
  Ru4+  Ru172  1  0.75035967  0.09106198  0.27673684  1
  Ru4+  Ru173  1  0.75022598  0.36524559  -0.04012227  1
  Ru4+  Ru174  1  0.75017501  0.42163298  0.25032615  1
  Ru4+  Ru175  1  0.24975476  0.06404179  0.73933560  1
  Ru4+  Ru176  1  0.25081200  0.73374920  0.53683385  1
  Ru4+  Ru177  1  0.75071528  0.74594315  0.74621128  1
  Ru4+  Ru178  1  0.74930441  0.93921908  0.26552545  1
  Ru4+  Ru179  1  0.74997730  0.92617656  0.73925264  1
  O2-  O180  1  0.16198835  0.08116670  -0.00114232  1
  O2-  O181  1  0.16223404  0.07938447  0.25261238  1
  O2-  O182  1  0.16407127  0.07855957  0.50534970  1
  O2-  O183  1  0.16696461  0.07892499  0.75006183  1
  O2-  O184  1  0.16392226  0.41295209  -0.00113296  1
  O2-  O185  1  0.16851459  0.41138051  0.24864591  1
  O2-  O186  1  0.15876064  0.41058704  0.49545126  1
  O2-  O187  1  0.16249451  0.41881009  0.75099089  1
  O2-  O188  1  0.17092442  0.74567137  -0.00512495  1
  O2-  O189  1  0.16834835  0.74699679  0.25491621  1
  O2-  O190  1  0.16979649  0.74488206  0.49955664  1
  O2-  O191  1  0.16585678  0.74759908  0.74869978  1
  O2-  O192  1  0.66785092  0.07641346  0.00096959  1
  O2-  O193  1  0.67165742  0.08065906  0.24766996  1
  O2-  O194  1  0.66461642  0.07913869  0.49661001  1
  O2-  O195  1  0.66599316  0.08017327  0.75713650  1
  O2-  O196  1  0.66947142  0.40754405  -0.00089420  1
  O2-  O197  1  0.66554660  0.41298136  0.25172088  1
  O2-  O198  1  0.66828749  0.41161725  0.50050526  1
  O2-  O199  1  0.66195003  0.41270657  0.74049479  1
  O2-  O200  1  0.66459630  0.74430467  -0.00022117  1
  O2-  O201  1  0.65970502  0.73902088  0.24965721  1
  O2-  O202  1  0.66550278  0.74937831  0.49593237  1
  O2-  O203  1  0.66697204  0.74375276  0.74788328  1
  O2-  O204  1  0.33248957  0.24733133  -0.00041277  1
  O2-  O205  1  0.33559847  0.25203390  0.25133780  1
  O2-  O206  1  0.33588287  0.25351685  0.50332376  1
  O2-  O207  1  0.34090992  0.25422610  0.74929716  1
  O2-  O208  1  0.33454709  0.59446249  0.00224364  1
  O2-  O209  1  0.33547996  0.58895142  0.25149798  1
  O2-  O210  1  0.33919198  0.58766703  0.50140673  1
  O2-  O211  1  0.33323733  0.58899195  0.74585006  1
  O2-  O212  1  0.33575463  0.91870837  -0.00098536  1
  O2-  O213  1  0.33228675  0.92067483  0.25616729  1
  O2-  O214  1  0.32827603  0.91861900  0.49632507  1
  O2-  O215  1  0.33442430  0.91588852  0.75279355  1
  O2-  O216  1  0.83090398  0.24807885  -0.00070332  1
  O2-  O217  1  0.83734777  0.25127773  0.25581108  1
  O2-  O218  1  0.83024479  0.25473394  0.49839090  1
  O2-  O219  1  0.83537581  0.25573705  0.74733847  1
  O2-  O220  1  0.82997635  0.58543531  0.00220902  1
  O2-  O221  1  0.83814869  0.58678289  0.25263763  1
  O2-  O222  1  0.83406221  0.58589302  0.49964391  1
  O2-  O223  1  0.83182683  0.58207076  0.74724253  1
  O2-  O224  1  0.83727559  0.91627635  0.00299265  1
  O2-  O225  1  0.83159168  0.92296257  0.24631594  1
  O2-  O226  1  0.82982638  0.91559250  0.50527662  1
  O2-  O227  1  0.83142152  0.92165477  0.74862410  1
  O2-  O228  1  0.16838756  0.24934952  -0.00134212  1
  O2-  O229  1  0.16702090  0.25365761  0.25020613  1
  O2-  O230  1  0.16260055  0.25398160  0.50356069  1
  O2-  O231  1  0.16290272  0.25187832  0.75274235  1
  O2-  O232  1  0.16523304  0.59179004  0.00705596  1
  O2-  O233  1  0.16666314  0.58935531  0.25307470  1
  O2-  O234  1  0.16797270  0.58744325  0.50192518  1
  O2-  O235  1  0.17060152  0.58468142  0.74920300  1
  O2-  O236  1  0.16522584  0.91753300  -0.00188658  1
  O2-  O237  1  0.16697623  0.92073432  0.25367201  1
  O2-  O238  1  0.16911609  0.92140192  0.50114523  1
  O2-  O239  1  0.16399579  0.91724996  0.75054838  1
  O2-  O240  1  0.66419502  0.25067704  0.00005368  1
  O2-  O241  1  0.66687684  0.25176744  0.25146040  1
  O2-  O242  1  0.66721095  0.25587633  0.50058067  1
  O2-  O243  1  0.66062603  0.25719401  0.74446219  1
  O2-  O244  1  0.66899010  0.58891529  -0.00160704  1
  O2-  O245  1  0.66756105  0.58400711  0.24891455  1
  O2-  O246  1  0.66700717  0.58524664  0.50017108  1
  O2-  O247  1  0.66658495  0.58389377  0.75024174  1
  O2-  O248  1  0.66519420  0.92101490  0.00207224  1
  O2-  O249  1  0.66629130  0.92373573  0.25211950  1
  O2-  O250  1  0.66075812  0.92270193  0.49565019  1
  O2-  O251  1  0.66568528  0.92188133  0.75195740  1
  O2-  O252  1  0.33264418  0.08094999  0.00134008  1
  O2-  O253  1  0.33374025  0.08016922  0.25084155  1
  O2-  O254  1  0.33011952  0.08013263  0.50448794  1
  O2-  O255  1  0.33218006  0.07964004  0.75247287  1
  O2-  O256  1  0.33447014  0.41137543  -0.00211093  1
  O2-  O257  1  0.32930706  0.40830692  0.24816865  1
  O2-  O258  1  0.33982278  0.41367555  0.49407787  1
  O2-  O259  1  0.33970126  0.41489367  0.74920360  1
  O2-  O260  1  0.33371457  0.74514323  -0.00296443  1
  O2-  O261  1  0.33263437  0.74784545  0.25910762  1
  O2-  O262  1  0.33462655  0.74862609  0.50101007  1
  O2-  O263  1  0.33146597  0.74236915  0.74999761  1
  O2-  O264  1  0.83259782  0.08162698  0.00633353  1
  O2-  O265  1  0.82998874  0.08233572  0.24379315  1
  O2-  O266  1  0.83211581  0.07953929  0.50230159  1
  O2-  O267  1  0.83344222  0.08212594  0.75281550  1
  O2-  O268  1  0.82879477  0.41350411  -0.00090899  1
  O2-  O269  1  0.83410769  0.41389602  0.25444604  1
  O2-  O270  1  0.83057798  0.41201131  0.49669847  1
  O2-  O271  1  0.83875204  0.42082730  0.74353389  1
  O2-  O272  1  0.83195893  0.74955051  0.00463768  1
  O2-  O273  1  0.84620388  0.74374374  0.24975431  1
  O2-  O274  1  0.84231181  0.75451312  0.49699233  1
  O2-  O275  1  0.83640793  0.74886121  0.74525880  1
  O2-  O276  1  0.55271244  0.43138115  0.23541606  1
  O2-  O277  1  0.94977636  0.74760706  0.51643838  1
  O2-  O278  1  0.54439594  0.24178793  0.73249894  1
  O2-  O279  1  0.44706366  0.91147553  0.76920971  1
  O2-  O280  1  0.44419761  0.76078403  0.24207774  1
  O2-  O281  1  0.54613769  0.10198108  0.48979617  1
  O2-  O282  1  0.05349508  0.41938971  0.72931800  1
  O2-  O283  1  0.05960150  0.90869319  0.49616983  1
  O2-  O284  1  0.94945344  0.43969319  0.26928553  1
  O2-  O285  1  0.45625797  0.23930589  0.98918916  1
  O2-  O286  1  0.95214085  0.76260246  0.06458669  1
  O2-  O287  1  0.04568237  0.09639421  0.00937987  1
  O2-  O288  1  0.44166115  0.91197155  0.23253596  1
  O2-  O289  1  0.02680272  0.54814949  0.76224850  1
  O2-  O290  1  0.05601134  0.54517460  0.05836924  1
  O2-  O291  1  0.95637468  0.22738271  0.26136597  1
  O2-  O292  1  0.44428033  0.90025731  0.73199055  1
  O2-  O293  1  0.55435062  0.09134372  0.23023326  1
  O2-  O294  1  0.44473464  0.42358701  0.31291529  1
  O2-  O295  1  0.55370956  0.90895410  0.25213289  1
  O2-  O296  1  0.44977707  0.43552289  0.98372679  1
  O2-  O297  1  0.94411662  0.75471303  0.47890882  1
  O2-  O298  1  0.54568184  0.76346814  0.99046243  1
  O2-  O299  1  0.55244587  0.75384063  0.22396284  1
  O2-  O300  1  0.04675329  0.56817658  0.26243173  1
  O2-  O301  1  0.54475325  0.57049162  0.00544216  1
  O2-  O302  1  0.04368469  0.09939422  0.24228823  1
  O2-  O303  1  0.54953670  0.90745057  0.75937496  1
  O2-  O304  1  0.04841280  0.90684234  0.73561123  1
  O2-  O305  1  0.46995211  0.89339094  0.44971897  1
  O2-  O306  1  0.54935189  0.90813820  0.74956820  1
  O2-  O307  1  0.05025411  0.42555654  0.50404480  1
  O2-  O308  1  0.96932416  0.88259448  0.52127888  1
  O2-  O309  1  0.04360469  0.77819317  0.96720720  1
  O2-  O310  1  0.96705163  0.55439893  0.99195029  1
  O2-  O311  1  0.94869707  0.43173815  0.75947455  1
  O2-  O312  1  0.05261921  0.42434432  0.24998401  1
  O2-  O313  1  0.55376262  0.75119757  0.77248830  1
  O2-  O314  1  0.55195583  0.42805403  0.98555079  1
  O2-  O315  1  0.95144647  0.57717923  0.48376266  1
  O2-  O316  1  0.97102492  0.20358055  0.79227621  1
  O2-  O317  1  0.95471621  0.90554415  0.99861442  1
  O2-  O318  1  0.54891104  0.09096410  0.75149621  1
  O2-  O319  1  0.44942652  0.24032102  0.50431032  1
  O2-  O320  1  0.94527113  0.42465971  0.50770231  1
  O2-  O321  1  0.44912632  0.75086686  0.49558734  1
  O2-  O322  1  0.55252191  0.90823451  0.24275671  1
  O2-  O323  1  0.55324087  0.24608610  0.51035179  1
  O2-  O324  1  0.43552895  0.39719030  0.15314280  1
  O2-  O325  1  0.55942709  0.40991629  0.53708489  1
  O2-  O326  1  0.93402813  0.07370982  0.98226635  1
  O2-  O327  1  0.08455539  0.61458163  0.72082458  1
  O2-  O328  1  0.93560255  0.91925898  0.76980918  1
  O2-  O329  1  0.44270949  0.40941261  0.53764095  1
  O2-  O330  1  0.07079913  0.60186656  0.93773112  1
  O2-  O331  1  0.06400748  0.25368543  0.01761633  1
  O2-  O332  1  0.06107976  0.92426656  0.28369067  1
  O2-  O333  1  0.06759728  0.74048294  0.04200380  1
  O2-  O334  1  0.92488649  0.60666083  0.97006085  1
  O2-  O335  1  0.06519066  0.59247646  0.52771066  1
  O2-  O336  1  0.06120723  0.07080545  0.77128469  1
  O2-  O337  1  0.56200066  0.58425027  0.48010723  1
  O2-  O338  1  0.92967326  0.24278897  0.92974953  1
  O2-  O339  1  0.43756625  0.07109513  0.46117296  1
  O2-  O340  1  0.55795395  0.58624928  0.03430554  1
  O2-  O341  1  0.93528908  0.59502941  0.81862859  1
  O2-  O342  1  0.42259211  0.92153087  0.56160673  1
  O2-  O343  1  0.55792214  0.26426468  0.28944629  1
  O2-  O344  1  0.06382713  0.93200584  0.46682960  1
  O2-  O345  1  0.56257372  0.75023152  0.53253591  1
  O2-  O346  1  0.06188395  0.74916616  0.27355978  1
  O2-  O347  1  0.56088074  0.07916513  0.02048988  1
  O2-  O348  1  0.92866330  0.74476101  0.92513847  1
  O2-  O349  1  0.92652543  0.26800958  0.69166793  1
  O2-  O350  1  0.06156467  0.25955529  0.71136652  1
  O2-  O351  1  0.43872513  0.07523534  0.28107437  1
  O2-  O352  1  0.55525955  0.09296024  0.22977884  1
  O2-  O353  1  0.43389062  0.72874881  0.23381681  1
  O2-  O354  1  0.94382678  0.08938923  0.46713565  1
  O2-  O355  1  0.93387905  0.59366798  0.66941121  1
  O2-  O356  1  0.44835783  0.41620664  0.30965783  1
  O2-  O357  1  0.55696194  0.74566816  0.77873094  1
  O2-  O358  1  0.44013662  0.07642668  0.79001843  1
  O2-  O359  1  0.43290452  0.25260369  0.98388913  1
  O2-  O360  1  0.44036662  0.07285554  0.96346227  1
  O2-  O361  1  0.93393202  0.07319688  0.77100376  1
  O2-  O362  1  0.56098105  0.58562309  0.79182849  1
  O2-  O363  1  0.92970758  0.24341972  0.06947888  1
  O2-  O364  1  0.94115564  0.92586386  0.28080222  1
  O2-  O365  1  0.93946897  0.25026954  0.52213568  1
  O2-  O366  1  0.92682646  0.41865157  0.06970320  1
  O2-  O367  1  0.43519404  0.59390246  0.02144997  1
  O2-  O368  1  0.92069338  0.95134649  0.44136282  1
  O2-  O369  1  0.93133462  0.41908632  0.92973122  1
  O2-  O370  1  0.56200387  0.59311114  0.26758122  1
  O2-  O371  1  0.43951415  0.58443033  0.77167327  1
  O2-  O372  1  0.25031488  0.00759627  0.91703671  1
  O2-  O373  1  0.75061399  0.33446906  0.84406594  1
  O2-  O374  1  0.24980708  0.00903487  0.19370500  1
  O2-  O375  1  0.25029771  0.66727955  0.85443566  1
  O2-  O376  1  0.24999549  0.32933701  0.11690607  1
  O2-  O377  1  0.75081879  0.65035502  0.68302866  1
  O2-  O378  1  0.24899494  -0.01459472  0.82933149  1
  O2-  O379  1  0.25185360  0.66912148  0.39692550  1
  O2-  O380  1  0.25031009  0.65976044  0.14251173  1
  O2-  O381  1  0.74967380  0.68134136  0.55587573  1
  O2-  O382  1  0.24899600  -0.01296303  0.38947148  1
  O2-  O383  1  0.75127639  -0.00619234  0.63390149  1
  O2-  O384  1  0.75115813  0.32565689  0.21032256  1
  O2-  O385  1  0.75299649  0.65463321  0.17484936  1
  O2-  O386  1  0.24975998  -0.00173999  0.06174837  1
  O2-  O387  1  0.24759245  -0.01179862  0.64166349  1
  O2-  O388  1  0.74874250  0.68612162  0.08952858  1
  O2-  O389  1  0.24910510  0.31551015  0.91792955  1
  O2-  O390  1  0.24997484  0.32650587  0.63833847  1
  O2-  O391  1  0.24960536  0.33942208  0.82483210  1
  O2-  O392  1  0.74877210  0.32455630  0.07518949  1
  O2-  O393  1  0.75127636  0.67503997  0.38377989  1
  O2-  O394  1  0.74887311  0.66461588  0.84364023  1
  O2-  O395  1  0.24969848  0.33739122  0.39030925  1
  O2-  O396  1  0.25008171  0.48522020  0.08186014  1
  O2-  O397  1  0.75020494  0.50507797  0.40723478  1
  O2-  O398  1  0.25027227  0.82844543  0.07221935  1
  O2-  O399  1  0.25032136  0.83612654  0.59483714  1
  O2-  O400  1  0.25089875  0.53010632  0.63344132  1
  O2-  O401  1  0.74933155  0.83902030  0.81250614  1
  O2-  O402  1  0.24922868  0.48606417  0.35065634  1
  O2-  O403  1  0.25115033  0.50149435  0.82735518  1
  O2-  O404  1  0.24958644  0.83711176  0.68494595  1
  O2-  O405  1  0.24981668  0.15185177  0.65902004  1
  O2-  O406  1  0.74933915  0.50113068  0.85464959  1
  O2-  O407  1  0.74922227  0.86789208  0.16214028  1
  O2-  O408  1  0.24991804  0.16556574  0.38430613  1
  O2-  O409  1  0.75064327  0.83649848  0.89877066  1
  O2-  O410  1  0.74857758  0.15006318  0.64514202  1
  O2-  O411  1  0.74932184  0.15934974  0.91357415  1
  O2-  O412  1  0.75037127  0.14515984  0.37172705  1
  O2-  O413  1  0.75013596  0.83049724  0.66573344  1
  O2-  O414  1  0.25121224  0.51907043  0.43278991  1
  O2-  O415  1  0.75012810  0.87301361  0.36858709  1
  O2-  O416  1  0.24968319  0.17421144  0.10567564  1
  O2-  O417  1  0.75024598  0.83221584  0.58141642  1
  O2-  O418  1  0.25015360  0.82750949  0.20327954  1
  O2-  O419  1  0.75055313  0.51244162  0.31675775  1
  O2-  O420  1  0.02302793  0.68319993  0.85327403  1
  O2-  O421  1  0.98353219  0.33596915  0.86860643  1
  O2-  O422  1  0.01716211  0.69267884  0.63218629  1
  O2-  O423  1  0.01693007  0.66252967  0.13804143  1
  O2-  O424  1  0.99121119  -0.00383605  0.88008465  1
  O2-  O425  1  0.48360910  0.66373185  0.13115485  1
  O2-  O426  1  0.45292394  0.33963774  0.86014913  1
  O2-  O427  1  0.98780477  0.34744859  0.62182916  1
  O2-  O428  1  0.51674285  -0.01890539  0.11652047  1
  O2-  O429  1  0.45792217  0.02810810  0.63150071  1
  O2-  O430  1  0.47297787  0.67577295  0.87966223  1
  O2-  O431  1  0.53029938  0.31786353  0.11861725  1
  O2-  O432  1  0.03979657  0.33585916  0.87982903  1
  O2-  O433  1  0.54784331  0.32756467  0.87223547  1
  O2-  O434  1  0.95677638  0.33146213  0.16225062  1
  O2-  O435  1  0.02122619  0.66359659  0.38241001  1
  O2-  O436  1  0.97327433  0.01127867  0.62848898  1
  O2-  O437  1  0.51915386  0.68140645  0.37808384  1
  O2-  O438  1  0.02653784  -0.01203077  0.12130856  1
  O2-  O439  1  0.52906767  0.00220848  0.38394633  1
  O2-  O440  1  0.04412589  0.34507435  0.12230924  1
  O2-  O441  1  0.51997717  0.64845206  0.62754820  1
  O2-  O442  1  0.55077072  -0.00765080  0.59798810  1
  O2-  O443  1  0.97648140  0.32776264  0.37550182  1
