# generated using pymatgen
data_La7(Ru4O11)2
_symmetry_space_group_name_H-M   'P 1'
_cell_length_a   23.99045029
_cell_length_b   16.83005506
_cell_length_c   15.42872511
_cell_angle_alpha   89.99774834
_cell_angle_beta   90.00046146
_cell_angle_gamma   89.99956163
_symmetry_Int_Tables_number   1
_chemical_formula_structural   La7(Ru4O11)2
_chemical_formula_sum   'La84 Ru96 O264'
_cell_volume   6229.51129113
_cell_formula_units_Z   12
loop_
 _symmetry_equiv_pos_site_id
 _symmetry_equiv_pos_as_xyz
  1  'x, y, z'
loop_
 _atom_type_symbol
 _atom_type_oxidation_number
  La3+  3.0
  Ru4+  4.0
  O2-  -2.0
loop_
 _atom_site_type_symbol
 _atom_site_label
 _atom_site_symmetry_multiplicity
 _atom_site_fract_x
 _atom_site_fract_y
 _atom_site_fract_z
 _atom_site_occupancy
  La3+  La0  1  0.12763824  0.00962112  0.11492058  1
  La3+  La1  1  0.13858551  0.00095263  0.37486464  1
  La3+  La2  1  0.14221461  -0.00101839  0.62708550  1
  La3+  La3  1  0.13295737  0.00628852  0.87994559  1
  La3+  La4  1  0.14442204  0.33350563  0.12208984  1
  La3+  La5  1  0.13577004  0.33036371  0.36996211  1
  La3+  La6  1  0.13951109  0.33394488  0.62519659  1
  La3+  La7  1  0.14185334  0.33367304  0.88224649  1
  La3+  La8  1  0.13987316  0.66654552  0.12336775  1
  La3+  La9  1  0.13550328  0.66786278  0.37498089  1
  La3+  La10  1  0.13995924  0.66882060  0.62787160  1
  La3+  La11  1  0.14298562  0.66708998  0.87428791  1
  La3+  La12  1  0.63800306  -0.00121002  0.12451600  1
  La3+  La13  1  0.63768016  -0.00313512  0.37605872  1
  La3+  La14  1  0.64443433  -0.00208347  0.62870826  1
  La3+  La15  1  0.63967988  0.00188491  0.87477884  1
  La3+  La16  1  0.63575449  0.33639821  0.12104763  1
  La3+  La17  1  0.63841800  0.33425750  0.37231454  1
  La3+  La18  1  0.63814603  0.33278066  0.62804540  1
  La3+  La19  1  0.64204188  0.33343576  0.87654024  1
  La3+  La20  1  0.63988827  0.66682288  0.12731656  1
  La3+  La21  1  0.63958618  0.66616285  0.37305345  1
  La3+  La22  1  0.63969078  0.66645733  0.62672539  1
  La3+  La23  1  0.63720677  0.66384099  0.86946824  1
  La3+  La24  1  0.35835831  0.00434025  0.12781735  1
  La3+  La25  1  0.35981994  -0.00227316  0.37742251  1
  La3+  La26  1  0.36105160  -0.00518091  0.62621079  1
  La3+  La27  1  0.36070364  -0.00120497  0.87353857  1
  La3+  La28  1  0.35340177  0.33080630  0.12590775  1
  La3+  La29  1  0.36387195  0.32764802  0.37385364  1
  La3+  La30  1  0.36206795  0.33539343  0.62163484  1
  La3+  La31  1  0.35584940  0.33287008  0.87857555  1
  La3+  La32  1  0.36425256  0.66576232  0.12935943  1
  La3+  La33  1  0.36555653  0.66675435  0.36911175  1
  La3+  La34  1  0.36389498  0.66838269  0.62978822  1
  La3+  La35  1  0.35844434  0.66609651  0.87268075  1
  La3+  La36  1  0.85922708  0.00038146  0.12704058  1
  La3+  La37  1  0.86111766  -0.00212247  0.37739487  1
  La3+  La38  1  0.85429741  0.00012224  0.62710003  1
  La3+  La39  1  0.86199030  -0.00010194  0.87301356  1
  La3+  La40  1  0.86689757  0.33466625  0.12346524  1
  La3+  La41  1  0.87080218  0.33419920  0.37718164  1
  La3+  La42  1  0.86280728  0.33502002  0.62616246  1
  La3+  La43  1  0.86255373  0.33869132  0.87320753  1
  La3+  La44  1  0.85862235  0.66773053  0.12747888  1
  La3+  La45  1  0.86450995  0.66287163  0.37866859  1
  La3+  La46  1  0.86450378  0.65531678  0.61633983  1
  La3+  La47  1  0.86575682  0.66830575  0.86851554  1
  La3+  La48  1  0.01181018  0.82971722  0.88175736  1
  La3+  La49  1  0.00389372  0.16336433  0.86920715  1
  La3+  La50  1  0.50246114  0.83276374  0.13802750  1
  La3+  La51  1  -0.00379377  0.82318115  0.63558257  1
  La3+  La52  1  0.50256867  0.82926019  0.87647050  1
  La3+  La53  1  0.00154771  0.50282333  0.61337686  1
  La3+  La54  1  0.00148729  0.49717035  0.13531174  1
  La3+  La55  1  0.49687456  0.17306948  0.61570654  1
  La3+  La56  1  0.50555187  0.49560895  0.87746044  1
  La3+  La57  1  0.00395969  0.16236504  0.10973622  1
  La3+  La58  1  0.49488834  0.83424880  0.11883702  1
  La3+  La59  1  0.49816026  0.16921046  0.36383200  1
  La3+  La60  1  0.49942928  0.50451800  0.11509360  1
  La3+  La61  1  0.49725573  0.16919181  0.38097985  1
  La3+  La62  1  0.50022697  0.82979507  0.38496114  1
  La3+  La63  1  0.49645507  0.49456091  0.13439537  1
  La3+  La64  1  -0.00100221  0.83336187  0.12104436  1
  La3+  La65  1  -0.00642988  0.50337619  0.63208665  1
  La3+  La66  1  0.50015721  0.16524755  0.63590151  1
  La3+  La67  1  -0.00347116  0.83067094  0.61455009  1
  La3+  La68  1  -0.00010139  0.16530238  0.60965754  1
  La3+  La69  1  0.49732742  0.51905116  0.61983998  1
  La3+  La70  1  0.49967706  0.16465863  0.88868995  1
  La3+  La71  1  -0.00262183  0.49485862  0.87717807  1
  La3+  La72  1  0.24978882  0.12591324  0.52131051  1
  La3+  La73  1  0.74926636  0.15589265  0.33305717  1
  La3+  La74  1  0.75054734  0.83819504  0.74191233  1
  La3+  La75  1  0.74963895  0.16636443  0.76703950  1
  La3+  La76  1  0.24956775  0.11425277  0.76108555  1
  La3+  La77  1  0.75017847  0.77643021  -0.02542614  1
  La3+  La78  1  0.25035085  0.49706753  0.74790299  1
  La3+  La79  1  0.75023955  0.83592349  0.48757414  1
  La3+  La80  1  0.75042106  0.82635953  0.29430658  1
  La3+  La81  1  0.75036321  0.56272932  0.23711835  1
  La3+  La82  1  0.24982146  0.45757320  0.43117806  1
  La3+  La83  1  0.24961934  0.48726648  0.05864209  1
  Ru4+  Ru84  1  0.00122810  -0.00125076  0.00136987  1
  Ru4+  Ru85  1  0.00546689  0.00184246  0.25445020  1
  Ru4+  Ru86  1  -0.00068951  -0.00002102  0.49501949  1
  Ru4+  Ru87  1  -0.00089620  0.00303216  0.74940265  1
  Ru4+  Ru88  1  0.00078340  0.32418195  0.00506962  1
  Ru4+  Ru89  1  0.00607541  0.33799776  0.25937479  1
  Ru4+  Ru90  1  0.00374249  0.33001018  0.48600613  1
  Ru4+  Ru91  1  0.00404975  0.32335904  0.74798253  1
  Ru4+  Ru92  1  0.00104494  0.66529090  -0.00102687  1
  Ru4+  Ru93  1  -0.00683816  0.67154252  0.25939445  1
  Ru4+  Ru94  1  -0.00276497  0.66488992  0.48473937  1
  Ru4+  Ru95  1  0.00132734  0.66656100  0.75422155  1
  Ru4+  Ru96  1  0.50103051  0.00232810  -0.00715603  1
  Ru4+  Ru97  1  0.50206121  0.00331326  0.25512352  1
  Ru4+  Ru98  1  0.50248979  0.00022672  0.50082923  1
  Ru4+  Ru99  1  0.49588466  -0.00229022  0.75304710  1
  Ru4+  Ru100  1  0.50187009  0.32793078  -0.00106178  1
  Ru4+  Ru101  1  0.49388666  0.32809756  0.24663280  1
  Ru4+  Ru102  1  0.50489786  0.34197336  0.49491601  1
  Ru4+  Ru103  1  0.50535445  0.33783546  0.75169958  1
  Ru4+  Ru104  1  0.50024991  0.66698339  -0.00369413  1
  Ru4+  Ru105  1  0.50426276  0.67037715  0.26027943  1
  Ru4+  Ru106  1  0.49928932  0.66847227  0.49926401  1
  Ru4+  Ru107  1  0.50354422  0.67012355  0.75078797  1
  Ru4+  Ru108  1  0.11302818  0.17075048  0.00004839  1
  Ru4+  Ru109  1  0.11337557  0.16878366  0.25044123  1
  Ru4+  Ru110  1  0.11058715  0.16608507  0.50022405  1
  Ru4+  Ru111  1  0.10962318  0.16681819  0.75272991  1
  Ru4+  Ru112  1  0.11412317  0.50532644  0.00011095  1
  Ru4+  Ru113  1  0.11253571  0.49252624  0.25171277  1
  Ru4+  Ru114  1  0.11156164  0.49904140  0.49655194  1
  Ru4+  Ru115  1  0.11215567  0.49699516  0.75134615  1
  Ru4+  Ru116  1  0.11377882  0.83136327  0.00328254  1
  Ru4+  Ru117  1  0.11219260  0.83396912  0.24891675  1
  Ru4+  Ru118  1  0.11106683  0.83508018  0.49966781  1
  Ru4+  Ru119  1  0.11651425  0.83247796  0.74966750  1
  Ru4+  Ru120  1  0.61038198  0.16805257  0.00210322  1
  Ru4+  Ru121  1  0.60973330  0.16776307  0.25094722  1
  Ru4+  Ru122  1  0.61572314  0.16600441  0.49809865  1
  Ru4+  Ru123  1  0.61380893  0.16625790  0.75121908  1
  Ru4+  Ru124  1  0.61608456  0.49793440  -0.00236678  1
  Ru4+  Ru125  1  0.61754131  0.49955015  0.25272170  1
  Ru4+  Ru126  1  0.61256522  0.49750787  0.49890013  1
  Ru4+  Ru127  1  0.61346195  0.50114237  0.75211965  1
  Ru4+  Ru128  1  0.61265446  0.83519354  -0.00100773  1
  Ru4+  Ru129  1  0.61050110  0.83363745  0.25058028  1
  Ru4+  Ru130  1  0.61135626  0.83609625  0.50175407  1
  Ru4+  Ru131  1  0.61215711  0.83132713  0.75004150  1
  Ru4+  Ru132  1  0.38640361  0.16871691  -0.00145791  1
  Ru4+  Ru133  1  0.38696305  0.16589863  0.24747225  1
  Ru4+  Ru134  1  0.38330834  0.16108000  0.49887377  1
  Ru4+  Ru135  1  0.38740348  0.16464161  0.75280741  1
  Ru4+  Ru136  1  0.38708848  0.49833697  -0.00278949  1
  Ru4+  Ru137  1  0.38416655  0.49429044  0.25261343  1
  Ru4+  Ru138  1  0.38748478  0.49774862  0.49414114  1
  Ru4+  Ru139  1  0.38575583  0.49511508  0.75159382  1
  Ru4+  Ru140  1  0.38581223  0.83381473  -0.00011460  1
  Ru4+  Ru141  1  0.38282471  0.83707983  0.25094748  1
  Ru4+  Ru142  1  0.38679155  0.82775766  0.50042206  1
  Ru4+  Ru143  1  0.38547227  0.83567594  0.74988610  1
  Ru4+  Ru144  1  0.88933653  0.16646283  -0.00233708  1
  Ru4+  Ru145  1  0.88791064  0.16167735  0.24877096  1
  Ru4+  Ru146  1  0.88967202  0.16707799  0.49848966  1
  Ru4+  Ru147  1  0.88901051  0.16958713  0.74954192  1
  Ru4+  Ru148  1  0.88568266  0.49614897  -0.00101100  1
  Ru4+  Ru149  1  0.89164543  0.50379598  0.25548472  1
  Ru4+  Ru150  1  0.88124889  0.50454098  0.49475331  1
  Ru4+  Ru151  1  0.88353761  0.50482810  0.75018255  1
  Ru4+  Ru152  1  0.89004463  0.83542764  0.00285238  1
  Ru4+  Ru153  1  0.89067619  0.82757826  0.25067757  1
  Ru4+  Ru154  1  0.88911938  0.83198935  0.49801509  1
  Ru4+  Ru155  1  0.88517020  0.83204166  0.74789243  1
  Ru4+  Ru156  1  0.24999478  0.91355225  -0.00090898  1
  Ru4+  Ru157  1  0.25102083  0.09471983  -0.00111001  1
  Ru4+  Ru158  1  0.75046692  0.23500917  0.51262992  1
  Ru4+  Ru159  1  0.25012574  0.74954398  0.49905896  1
  Ru4+  Ru160  1  0.75040242  0.05319861  0.23044634  1
  Ru4+  Ru161  1  0.24958446  0.58472826  0.25368042  1
  Ru4+  Ru162  1  0.75014805  0.57326829  0.00764922  1
  Ru4+  Ru163  1  0.75022223  0.08065684  -0.01206149  1
  Ru4+  Ru164  1  0.24989574  0.91315179  0.49470531  1
  Ru4+  Ru165  1  0.75021816  0.26177998  0.23634041  1
  Ru4+  Ru166  1  0.75105308  0.41887686  0.24735911  1
  Ru4+  Ru167  1  0.24958104  0.08091308  0.24722710  1
  Ru4+  Ru168  1  0.25042416  0.75060520  -0.00611058  1
  Ru4+  Ru169  1  0.24987805  0.26509056  0.74638953  1
  Ru4+  Ru170  1  0.74984643  0.42128881  0.51928413  1
  Ru4+  Ru171  1  0.25038292  0.61520809  0.49870455  1
  Ru4+  Ru172  1  0.24927594  0.75925724  0.25126849  1
  Ru4+  Ru173  1  0.24858947  0.91110741  0.25060009  1
  Ru4+  Ru174  1  0.75007945  0.94153059  0.00630464  1
  Ru4+  Ru175  1  0.74993366  0.41902702  0.75035828  1
  Ru4+  Ru176  1  0.24990303  0.27328825  0.49689051  1
  Ru4+  Ru177  1  0.75061445  0.24731671  -0.01077960  1
  Ru4+  Ru178  1  0.75046996  0.08813620  0.51609654  1
  Ru4+  Ru179  1  0.74804560  0.59128752  0.50216309  1
  O2-  O180  1  0.16797498  0.08198140  0.00020326  1
  O2-  O181  1  0.16668158  0.08165263  0.24726385  1
  O2-  O182  1  0.16273973  0.07854505  0.49911676  1
  O2-  O183  1  0.16141941  0.07638231  0.74966717  1
  O2-  O184  1  0.16582329  0.41750582  -0.00113081  1
  O2-  O185  1  0.16899301  0.41683607  0.25344541  1
  O2-  O186  1  0.16773034  0.41374444  0.50144005  1
  O2-  O187  1  0.16498493  0.41396453  0.74800612  1
  O2-  O188  1  0.16847970  0.74806892  0.00148495  1
  O2-  O189  1  0.16800103  0.74728988  0.25080373  1
  O2-  O190  1  0.16678633  0.74624331  0.49990508  1
  O2-  O191  1  0.16541397  0.74596931  0.75189895  1
  O2-  O192  1  0.66640389  0.08054298  -0.00101198  1
  O2-  O193  1  0.66814855  0.07699912  0.25054744  1
  O2-  O194  1  0.66771481  0.08148007  0.50118128  1
  O2-  O195  1  0.66808721  0.08151367  0.75473850  1
  O2-  O196  1  0.66702640  0.41640798  -0.00151579  1
  O2-  O197  1  0.66657500  0.41428170  0.25021673  1
  O2-  O198  1  0.66809531  0.41487308  0.50275222  1
  O2-  O199  1  0.66930621  0.41574230  0.74647957  1
  O2-  O200  1  0.66100709  0.74291211  0.00017963  1
  O2-  O201  1  0.66481617  0.74771390  0.25064967  1
  O2-  O202  1  0.66611729  0.74718332  0.49909120  1
  O2-  O203  1  0.66936674  0.74715673  0.75220895  1
  O2-  O204  1  0.33764763  0.25019855  -0.00112791  1
  O2-  O205  1  0.33297306  0.24897578  0.24887303  1
  O2-  O206  1  0.33120638  0.25470474  0.50191100  1
  O2-  O207  1  0.33419327  0.25434175  0.74914600  1
  O2-  O208  1  0.33415870  0.58745841  0.00268038  1
  O2-  O209  1  0.33374700  0.58656704  0.25238558  1
  O2-  O210  1  0.33525861  0.58774618  0.49738208  1
  O2-  O211  1  0.33221915  0.58832089  0.74966756  1
  O2-  O212  1  0.32856605  0.91827338  -0.00073724  1
  O2-  O213  1  0.33039818  0.91878758  0.25068145  1
  O2-  O214  1  0.33420692  0.91690052  0.50082787  1
  O2-  O215  1  0.33432699  0.91843909  0.75229416  1
  O2-  O216  1  0.83520826  0.25282899  -0.00113059  1
  O2-  O217  1  0.83423870  0.25530818  0.25026654  1
  O2-  O218  1  0.83228497  0.25100736  0.50191157  1
  O2-  O219  1  0.83368602  0.25290890  0.74915112  1
  O2-  O220  1  0.83301430  0.58555251  -0.00203426  1
  O2-  O221  1  0.83974706  0.58737878  0.24907907  1
  O2-  O222  1  0.82863509  0.58592397  0.50044889  1
  O2-  O223  1  0.83272278  0.58744235  0.75095891  1
  O2-  O224  1  0.83149671  0.92112774  -0.00315104  1
  O2-  O225  1  0.83631716  0.91705759  0.25317769  1
  O2-  O226  1  0.83578305  0.91870805  0.50003051  1
  O2-  O227  1  0.83614946  0.92104857  0.75281151  1
  O2-  O228  1  0.16429646  0.24993622  -0.00132705  1
  O2-  O229  1  0.16719098  0.25026740  0.25084527  1
  O2-  O230  1  0.16848746  0.25348455  0.50120949  1
  O2-  O231  1  0.16521811  0.25369572  0.74891830  1
  O2-  O232  1  0.16582485  0.58670166  0.00151530  1
  O2-  O233  1  0.16465884  0.58550821  0.25225764  1
  O2-  O234  1  0.16695313  0.58777758  0.49876899  1
  O2-  O235  1  0.16741630  0.58890300  0.75018783  1
  O2-  O236  1  0.16613724  0.92061573  0.00161696  1
  O2-  O237  1  0.16855385  0.91957844  0.24820194  1
  O2-  O238  1  0.16523831  0.91760556  0.50054017  1
  O2-  O239  1  0.16428831  0.91886802  0.75284840  1
  O2-  O240  1  0.66756439  0.25060612  -0.00115543  1
  O2-  O241  1  0.66495076  0.25417664  0.24825043  1
  O2-  O242  1  0.66757381  0.25213200  0.50046452  1
  O2-  O243  1  0.66917918  0.25263870  0.75073927  1
  O2-  O244  1  0.66732811  0.58649372  -0.00191369  1
  O2-  O245  1  0.65892728  0.59135353  0.25147891  1
  O2-  O246  1  0.66645195  0.58539678  0.50124006  1
  O2-  O247  1  0.66782672  0.58322605  0.75007638  1
  O2-  O248  1  0.66907525  0.92098663  -0.00126610  1
  O2-  O249  1  0.66580404  0.91970884  0.25149570  1
  O2-  O250  1  0.66796574  0.91797022  0.49861574  1
  O2-  O251  1  0.66783240  0.91666830  0.75031639  1
  O2-  O252  1  0.33348573  0.08036662  -0.00145098  1
  O2-  O253  1  0.33077729  0.08006873  0.25197527  1
  O2-  O254  1  0.33651968  0.07427517  0.50131639  1
  O2-  O255  1  0.33762747  0.07601531  0.74918096  1
  O2-  O256  1  0.33562141  0.41499878  -0.00025250  1
  O2-  O257  1  0.33316753  0.41498644  0.25285759  1
  O2-  O258  1  0.32967886  0.41336103  0.50173072  1
  O2-  O259  1  0.33443459  0.41350754  0.74966922  1
  O2-  O260  1  0.33390631  0.74783877  0.00180453  1
  O2-  O261  1  0.33156217  0.74840227  0.25104337  1
  O2-  O262  1  0.33445487  0.74719583  0.50071499  1
  O2-  O263  1  0.33560282  0.74613123  0.75100355  1
  O2-  O264  1  0.83323202  0.07919735  -0.00256985  1
  O2-  O265  1  0.83440286  0.08026515  0.25286072  1
  O2-  O266  1  0.83395181  0.08203310  0.50087569  1
  O2-  O267  1  0.83412429  0.08014443  0.75453785  1
  O2-  O268  1  0.83384239  0.41651727  -0.00014379  1
  O2-  O269  1  0.83569297  0.41322516  0.24854030  1
  O2-  O270  1  0.83495200  0.41370126  0.50220078  1
  O2-  O271  1  0.83157334  0.41432844  0.74820542  1
  O2-  O272  1  0.84025674  0.74487499  -0.00073647  1
  O2-  O273  1  0.83232270  0.75034219  0.25019203  1
  O2-  O274  1  0.83002498  0.74657178  0.50182851  1
  O2-  O275  1  0.83020771  0.74544874  0.75334518  1
  O2-  O276  1  0.95417800  0.43201761  0.25947224  1
  O2-  O277  1  0.44738805  0.89973329  0.73924361  1
  O2-  O278  1  0.45284767  0.76135970  0.23837964  1
  O2-  O279  1  0.54366263  0.10083359  0.01222098  1
  O2-  O280  1  0.04977503  0.43533959  0.01505617  1
  O2-  O281  1  0.44899116  0.56667035  0.73319465  1
  O2-  O282  1  0.95244064  0.42890980  0.23936639  1
  O2-  O283  1  0.95172637  0.23011875  0.22621860  1
  O2-  O284  1  0.95507245  0.56769145  0.01426551  1
  O2-  O285  1  0.54996956  0.42552221  0.24075971  1
  O2-  O286  1  0.53499693  0.45024999  0.71595576  1
  O2-  O287  1  0.96103777  0.77282980  0.78513026  1
  O2-  O288  1  0.45406430  0.23868990  0.74245707  1
  O2-  O289  1  0.04552505  0.76757708  0.49017710  1
  O2-  O290  1  0.04487147  0.90139491  0.73752136  1
  O2-  O291  1  0.45382373  0.90302893  0.26699697  1
  O2-  O292  1  0.94902413  0.42769919  0.48293838  1
  O2-  O293  1  0.95336950  0.09926000  0.48727987  1
  O2-  O294  1  0.44684166  0.57057903  0.23558180  1
  O2-  O295  1  0.94446569  0.56955550  0.51927497  1
  O2-  O296  1  0.45443688  0.23316985  0.48825677  1
  O2-  O297  1  0.53840914  0.76445331  0.78587597  1
  O2-  O298  1  0.53725716  0.89288958  0.74623644  1
  O2-  O299  1  0.45696655  0.57312543  0.76992399  1
  O2-  O300  1  0.95292708  0.43140140  0.76199046  1
  O2-  O301  1  0.95540403  0.10247634  0.73829635  1
  O2-  O302  1  0.95655169  0.56651283  0.49737961  1
  O2-  O303  1  0.45533768  0.76494730  0.50885107  1
  O2-  O304  1  0.05013569  0.42378970  0.48759685  1
  O2-  O305  1  0.45459137  0.56979902  0.98361702  1
  O2-  O306  1  0.55003650  0.23723778  0.48230226  1
  O2-  O307  1  0.54626635  0.76177210  0.01170797  1
  O2-  O308  1  0.04999849  0.89835039  0.01287716  1
  O2-  O309  1  0.04510488  0.10760239  0.99583978  1
  O2-  O310  1  0.95627510  0.88827929  0.96025776  1
  O2-  O311  1  0.44657466  0.90466732  0.48381757  1
  O2-  O312  1  0.54364055  0.57187366  0.26959599  1
  O2-  O313  1  0.54624486  0.09533448  0.51156165  1
  O2-  O314  1  0.04570445  0.09452053  0.02074062  1
  O2-  O315  1  0.04497552  0.56685302  0.76307638  1
  O2-  O316  1  0.54380888  0.45110109  0.53270818  1
  O2-  O317  1  0.46266629  0.88718673  0.97307806  1
  O2-  O318  1  0.94812395  0.42436722  0.52197904  1
  O2-  O319  1  0.44915890  0.43332074  0.54193586  1
  O2-  O320  1  0.45143509  0.43198956  0.26208040  1
  O2-  O321  1  0.55109048  0.57123827  0.23214056  1
  O2-  O322  1  0.05067951  0.57535969  0.48970864  1
  O2-  O323  1  0.95822126  0.24154087  0.26174643  1
  O2-  O324  1  0.06423538  0.07444620  0.77572718  1
  O2-  O325  1  0.56385230  0.07879041  0.27873290  1
  O2-  O326  1  0.56551072  0.92876771  0.53300670  1
  O2-  O327  1  0.06038667  0.40516555  0.02894349  1
  O2-  O328  1  0.06341945  0.40731520  0.18307239  1
  O2-  O329  1  0.57957261  0.93877981  0.78176785  1
  O2-  O330  1  0.43835590  0.74200123  0.21431888  1
  O2-  O331  1  0.41563105  0.93799911  0.05386984  1
  O2-  O332  1  0.42848587  0.08660686  0.18839117  1
  O2-  O333  1  0.06240891  0.26074697  0.47258138  1
  O2-  O334  1  0.57766229  0.73148255  0.69731155  1
  O2-  O335  1  0.06138342  0.73480250  0.03311194  1
  O2-  O336  1  0.93575521  0.26082226  0.47979642  1
  O2-  O337  1  0.06846858  0.06828421  0.97322824  1
  O2-  O338  1  0.93750061  0.74466192  0.31706822  1
  O2-  O339  1  0.93026139  0.95185508  0.06329395  1
  O2-  O340  1  0.93843388  0.39977110  0.96634608  1
  O2-  O341  1  0.56322552  0.41145869  0.02685007  1
  O2-  O342  1  0.56664973  0.25666704  0.02383697  1
  O2-  O343  1  0.94180873  0.75696664  0.80361382  1
  O2-  O344  1  0.06300069  0.40878622  0.31595579  1
  O2-  O345  1  0.05905026  0.26497234  0.92749352  1
  O2-  O346  1  0.43891481  0.59664654  0.21172398  1
  O2-  O347  1  0.44008104  0.40957680  0.56736054  1
  O2-  O348  1  0.42282346  0.40942750  0.41875644  1
  O2-  O349  1  0.56342777  0.59411701  0.78990045  1
  O2-  O350  1  0.56593596  0.92492938  0.02851792  1
  O2-  O351  1  0.06267346  0.25589313  0.19257448  1
  O2-  O352  1  0.06296354  0.07209196  0.53685091  1
  O2-  O353  1  0.57358887  0.38731550  0.43943766  1
  O2-  O354  1  0.06336556  0.25651333  0.30903891  1
  O2-  O355  1  0.43602449  0.93384622  0.46735933  1
  O2-  O356  1  0.43723094  0.07721341  0.77334718  1
  O2-  O357  1  0.56175343  0.07234041  0.71556762  1
  O2-  O358  1  0.56574905  0.25533215  0.72239504  1
  O2-  O359  1  0.43623713  0.25133086  0.46996682  1
  O2-  O360  1  0.93165599  0.59962875  0.46524961  1
  O2-  O361  1  0.93784492  0.59485257  0.27922098  1
  O2-  O362  1  0.93860882  0.73528852  0.17646496  1
  O2-  O363  1  0.91804496  0.74637293  0.66491308  1
  O2-  O364  1  0.06585916  0.07565922  0.27350077  1
  O2-  O365  1  0.93763118  0.74359321  0.47127914  1
  O2-  O366  1  0.93803516  0.40638070  0.77821940  1
  O2-  O367  1  0.06256471  0.26101468  0.06411226  1
  O2-  O368  1  0.57850790  0.39718182  0.80496347  1
  O2-  O369  1  0.43624146  0.07155318  0.32600291  1
  O2-  O370  1  0.56792833  0.40587576  0.22361771  1
  O2-  O371  1  0.43573319  0.25620247  0.22669561  1
  O2-  O372  1  0.74996097  0.33558763  0.32943684  1
  O2-  O373  1  0.25004512  -0.00055213  0.67076555  1
  O2-  O374  1  0.74980499  0.66842627  0.07473497  1
  O2-  O375  1  0.24992185  -0.00083970  0.57876407  1
  O2-  O376  1  0.24993949  0.00259796  0.90707336  1
  O2-  O377  1  0.25077482  0.33335903  0.92176306  1
  O2-  O378  1  0.75016343  0.00284543  0.64478788  1
  O2-  O379  1  0.74979494  0.34656181  0.15867170  1
  O2-  O380  1  0.75033349  -0.01877788  0.32399590  1
  O2-  O381  1  0.75049028  0.00264572  0.44280025  1
  O2-  O382  1  0.25001137  0.34639955  0.83175087  1
  O2-  O383  1  0.25018814  0.66960834  0.90858964  1
  O2-  O384  1  0.25116318  0.34128759  0.09724709  1
  O2-  O385  1  0.24993545  -0.00103683  0.40437335  1
  O2-  O386  1  0.74887797  0.66941448  0.35390017  1
  O2-  O387  1  0.75038677  0.32996335  0.82354540  1
  O2-  O388  1  0.25001475  0.66989919  0.15504391  1
  O2-  O389  1  0.75036166  0.33057554  0.60057435  1
  O2-  O390  1  0.25020312  0.33759843  0.64509499  1
  O2-  O391  1  0.75026386  0.33985080  0.91551263  1
  O2-  O392  1  0.74999088  0.33715212  0.04841098  1
  O2-  O393  1  0.74934916  0.67390070  0.16628853  1
  O2-  O394  1  0.74950169  -0.01507897  0.13221661  1
  O2-  O395  1  0.74974224  0.32947390  0.44829985  1
  O2-  O396  1  0.24993466  0.18916296  0.64324857  1
  O2-  O397  1  0.25046504  0.50138359  0.94079576  1
  O2-  O398  1  0.24983243  0.83446983  0.58180114  1
  O2-  O399  1  0.25047954  0.15769221  0.08898086  1
  O2-  O400  1  0.24977877  0.83030534  0.66658873  1
  O2-  O401  1  0.24976689  0.50261721  0.86303352  1
  O2-  O402  1  0.24987167  0.83295907  0.90981805  1
  O2-  O403  1  0.75007362  0.83216586  0.16771403  1
  O2-  O404  1  0.24983970  0.51379230  0.54869056  1
  O2-  O405  1  0.74972311  0.85347414  0.87195179  1
  O2-  O406  1  0.74990076  0.85078415  0.08339118  1
  O2-  O407  1  0.75003386  0.16301281  0.17734360  1
  O2-  O408  1  0.74994203  0.16341113  0.06039885  1
  O2-  O409  1  0.74994092  0.48462528  0.34802868  1
  O2-  O410  1  0.24946753  0.49235693  0.62788209  1
  O2-  O411  1  0.75017698  0.16847272  0.62348535  1
  O2-  O412  1  0.25019193  0.50096702  0.18559090  1
  O2-  O413  1  0.24988834  0.83179962  0.40491447  1
  O2-  O414  1  0.25052210  0.17413052  0.88446575  1
  O2-  O415  1  0.74978226  0.49362949  0.11295570  1
  O2-  O416  1  0.24989749  0.17347978  0.30854982  1
  O2-  O417  1  0.25004885  0.17906100  0.39570416  1
  O2-  O418  1  0.74954118  0.82665576  0.61325852  1
  O2-  O419  1  0.74979599  0.50233660  0.43802441  1
  O2-  O420  1  0.47205042  0.00583148  0.62341498  1
  O2-  O421  1  0.52429563  0.32965902  0.61965306  1
  O2-  O422  1  0.02583708  -0.00079027  0.13261252  1
  O2-  O423  1  0.97233744  -0.00555170  0.62396746  1
  O2-  O424  1  0.48286307  0.32162240  0.36571438  1
  O2-  O425  1  0.97454269  0.33394195  0.37238312  1
  O2-  O426  1  0.96928826  0.32947497  0.11584251  1
  O2-  O427  1  0.96518334  0.65310039  0.61149987  1
  O2-  O428  1  0.47769769  -0.00158137  0.12369403  1
  O2-  O429  1  0.97569724  0.65490029  0.88146485  1
  O2-  O430  1  0.04920533  0.67155004  0.63667288  1
  O2-  O431  1  0.45793458  -0.00135156  0.88272816  1
  O2-  O432  1  0.03016985  0.66733311  0.36852149  1
  O2-  O433  1  0.46103033  0.34130508  0.11452704  1
  O2-  O434  1  0.45891248  0.66543808  0.62434436  1
  O2-  O435  1  0.53605606  0.65492334  0.60911136  1
  O2-  O436  1  0.52792884  -0.00663981  0.37908227  1
  O2-  O437  1  0.02324039  -0.00727166  0.37888661  1
  O2-  O438  1  0.53024558  0.32509323  0.13088221  1
  O2-  O439  1  0.53464767  0.00172168  0.13398761  1
  O2-  O440  1  0.52846447  0.67246187  0.38175721  1
  O2-  O441  1  0.01963917  -0.01217564  0.87352860  1
  O2-  O442  1  0.54135609  0.00816474  0.88244136  1
  O2-  O443  1  0.51908061  0.32282053  0.88069826  1
