# generated using pymatgen
data_La7(Ru4O11)2
_symmetry_space_group_name_H-M   'P 1'
_cell_length_a   23.99372902
_cell_length_b   16.83339553
_cell_length_c   15.42865417
_cell_angle_alpha   90.00348018
_cell_angle_beta   89.99752511
_cell_angle_gamma   89.99974946
_symmetry_Int_Tables_number   1
_chemical_formula_structural   La7(Ru4O11)2
_chemical_formula_sum   'La84 Ru96 O264'
_cell_volume   6231.57061927
_cell_formula_units_Z   12
loop_
 _symmetry_equiv_pos_site_id
 _symmetry_equiv_pos_as_xyz
  1  'x, y, z'
loop_
 _atom_type_symbol
 _atom_type_oxidation_number
  La3+  3.0
  Ru4+  4.0
  O2-  -2.0
loop_
 _atom_site_type_symbol
 _atom_site_label
 _atom_site_symmetry_multiplicity
 _atom_site_fract_x
 _atom_site_fract_y
 _atom_site_fract_z
 _atom_site_occupancy
  La3+  La0  1  0.13722368  0.00550339  0.13355788  1
  La3+  La1  1  0.13837892  0.00858196  0.37272881  1
  La3+  La2  1  0.13857752  0.00896869  0.62359870  1
  La3+  La3  1  0.13879408  0.00573015  0.87364380  1
  La3+  La4  1  0.14870445  0.33150260  0.12177419  1
  La3+  La5  1  0.14046647  0.33349406  0.37620315  1
  La3+  La6  1  0.14754981  0.32306232  0.63826705  1
  La3+  La7  1  0.13799828  0.33512246  0.87051985  1
  La3+  La8  1  0.13839537  0.66430980  0.12475688  1
  La3+  La9  1  0.13845302  0.66610931  0.37491526  1
  La3+  La10  1  0.13392102  0.66637553  0.62798822  1
  La3+  La11  1  0.13818332  0.65673089  0.87661731  1
  La3+  La12  1  0.64962815  -0.00037275  0.12202280  1
  La3+  La13  1  0.63793075  -0.00538666  0.36961388  1
  La3+  La14  1  0.63994926  0.00102034  0.62829033  1
  La3+  La15  1  0.64385439  -0.00190881  0.87603915  1
  La3+  La16  1  0.64231336  0.33189294  0.11342687  1
  La3+  La17  1  0.63642353  0.33538446  0.37873776  1
  La3+  La18  1  0.64023167  0.33459243  0.62885096  1
  La3+  La19  1  0.63879085  0.32991350  0.88212609  1
  La3+  La20  1  0.64512055  0.66191177  0.12930792  1
  La3+  La21  1  0.63652142  0.66796820  0.37617606  1
  La3+  La22  1  0.63763032  0.66118479  0.62460488  1
  La3+  La23  1  0.64301587  0.67263020  0.87873258  1
  La3+  La24  1  0.36874439  -0.00063724  0.12693735  1
  La3+  La25  1  0.36194865  0.00366602  0.37350742  1
  La3+  La26  1  0.36230936  0.00175724  0.63087585  1
  La3+  La27  1  0.36662342  -0.00160864  0.87327472  1
  La3+  La28  1  0.35604521  0.32793109  0.11902881  1
  La3+  La29  1  0.35891023  0.33163021  0.37233607  1
  La3+  La30  1  0.35525387  0.33432545  0.63244321  1
  La3+  La31  1  0.36401671  0.33293936  0.87416455  1
  La3+  La32  1  0.36567127  0.66471669  0.12481151  1
  La3+  La33  1  0.36817991  0.66187561  0.37330490  1
  La3+  La34  1  0.35643811  0.66925679  0.61835031  1
  La3+  La35  1  0.36789574  0.65895429  0.86943298  1
  La3+  La36  1  0.84839829  -0.00025846  0.12181819  1
  La3+  La37  1  0.86336847  -0.00369133  0.37206496  1
  La3+  La38  1  0.85950637  0.00935902  0.62824785  1
  La3+  La39  1  0.86427552  0.00532724  0.87496345  1
  La3+  La40  1  0.85465324  0.33257762  0.12023469  1
  La3+  La41  1  0.86082030  0.33063407  0.37155522  1
  La3+  La42  1  0.86422143  0.33357052  0.62258125  1
  La3+  La43  1  0.85560644  0.33442936  0.87748623  1
  La3+  La44  1  0.85757053  0.66730109  0.12347628  1
  La3+  La45  1  0.85985765  0.66519754  0.37529554  1
  La3+  La46  1  0.86998886  0.66874167  0.63098171  1
  La3+  La47  1  0.85894107  0.66740473  0.87505470  1
  La3+  La48  1  0.00180487  0.16171261  0.13805348  1
  La3+  La49  1  0.49402665  0.82975739  0.61662482  1
  La3+  La50  1  0.50346530  0.17278996  0.87284431  1
  La3+  La51  1  -0.01035214  0.83735444  0.62702687  1
  La3+  La52  1  0.49782005  0.16085044  0.61072914  1
  La3+  La53  1  -0.00156935  0.50134869  0.12730309  1
  La3+  La54  1  0.50507186  0.83479763  0.13045702  1
  La3+  La55  1  0.49842307  0.16953623  0.89368513  1
  La3+  La56  1  0.00327477  0.81259532  0.86195859  1
  La3+  La57  1  0.00322915  0.83800080  0.37022342  1
  La3+  La58  1  -0.00300151  0.16273752  0.85846882  1
  La3+  La59  1  0.50110425  0.16805225  0.63137911  1
  La3+  La60  1  -0.00191656  0.83079794  0.38924064  1
  La3+  La61  1  0.00130021  0.16800371  0.37834481  1
  La3+  La62  1  0.50202779  0.83157853  0.63573083  1
  La3+  La63  1  0.00045469  0.81916527  0.87625668  1
  La3+  La64  1  0.00066656  0.49203139  0.10765775  1
  La3+  La65  1  -0.00339479  0.16434512  0.87583850  1
  La3+  La66  1  0.00461220  0.83917222  0.13189418  1
  La3+  La67  1  0.49312319  0.49506087  0.12903916  1
  La3+  La68  1  0.50060945  0.49570574  0.14811401  1
  La3+  La69  1  0.49574792  0.17873550  0.13991211  1
  La3+  La70  1  -0.00393540  0.83810785  0.11430458  1
  La3+  La71  1  -0.00019041  0.50718029  0.36689094  1
  La3+  La72  1  0.25030601  0.83513978  0.72012292  1
  La3+  La73  1  0.25064862  0.12807463  0.50617453  1
  La3+  La74  1  0.75017165  0.79204205  0.49786664  1
  La3+  La75  1  0.75046198  0.84422862  0.03582900  1
  La3+  La76  1  0.75090240  0.11591102  0.28627556  1
  La3+  La77  1  0.74891645  0.21229482  0.50600597  1
  La3+  La78  1  0.74919878  0.54812338  0.25215350  1
  La3+  La79  1  0.25035620  0.90433877  0.49927964  1
  La3+  La80  1  0.25089131  0.90574021  0.01006972  1
  La3+  La81  1  0.75094900  0.54840360  0.50797095  1
  La3+  La82  1  0.25198009  0.46100767  0.50284543  1
  La3+  La83  1  0.24995502  0.76731338  0.24592520  1
  Ru4+  Ru84  1  -0.00458039  -0.00022551  0.00501686  1
  Ru4+  Ru85  1  -0.00213755  -0.00430118  0.24350182  1
  Ru4+  Ru86  1  -0.00457423  -0.00282598  0.49646547  1
  Ru4+  Ru87  1  -0.00005726  -0.00682874  0.75030923  1
  Ru4+  Ru88  1  0.00137506  0.33228396  0.01082635  1
  Ru4+  Ru89  1  -0.00170205  0.33148727  0.24103678  1
  Ru4+  Ru90  1  -0.00202984  0.33635820  0.50190558  1
  Ru4+  Ru91  1  -0.00366235  0.35082401  0.73774840  1
  Ru4+  Ru92  1  -0.00161052  0.65779015  -0.00869715  1
  Ru4+  Ru93  1  0.00633022  0.66246605  0.24739101  1
  Ru4+  Ru94  1  0.00115293  0.65957764  0.50001834  1
  Ru4+  Ru95  1  0.00039244  0.65295198  0.75816968  1
  Ru4+  Ru96  1  0.50946936  0.00190994  0.00145764  1
  Ru4+  Ru97  1  0.49615727  -0.00095192  0.25381016  1
  Ru4+  Ru98  1  0.49929938  0.00152404  0.49332308  1
  Ru4+  Ru99  1  0.50683246  0.00607964  0.74818774  1
  Ru4+  Ru100  1  0.49686829  0.34592796  0.00257551  1
  Ru4+  Ru101  1  0.50243549  0.32918373  0.25184152  1
  Ru4+  Ru102  1  0.49580693  0.33850598  0.50012488  1
  Ru4+  Ru103  1  0.49826405  0.34205308  0.75399749  1
  Ru4+  Ru104  1  0.50344016  0.66983887  -0.01158558  1
  Ru4+  Ru105  1  0.50471085  0.67163213  0.25260007  1
  Ru4+  Ru106  1  0.50310257  0.66723901  0.48280191  1
  Ru4+  Ru107  1  0.49399226  0.65618370  0.75047698  1
  Ru4+  Ru108  1  0.11287986  0.17217441  0.00085989  1
  Ru4+  Ru109  1  0.11751271  0.17010540  0.25009014  1
  Ru4+  Ru110  1  0.11154724  0.17271659  0.50186962  1
  Ru4+  Ru111  1  0.11610792  0.16434708  0.75090777  1
  Ru4+  Ru112  1  0.11214146  0.49636608  0.00039796  1
  Ru4+  Ru113  1  0.11216919  0.50476697  0.24841331  1
  Ru4+  Ru114  1  0.10922631  0.49560382  0.50983715  1
  Ru4+  Ru115  1  0.11202645  0.49080250  0.75392572  1
  Ru4+  Ru116  1  0.11279926  0.83206691  0.00136215  1
  Ru4+  Ru117  1  0.10401258  0.83401419  0.25106953  1
  Ru4+  Ru118  1  0.11191552  0.82955874  0.49547497  1
  Ru4+  Ru119  1  0.11186286  0.83000814  0.74806145  1
  Ru4+  Ru120  1  0.61557636  0.15948487  -0.00050424  1
  Ru4+  Ru121  1  0.60919231  0.16986916  0.25141545  1
  Ru4+  Ru122  1  0.60848485  0.16251463  0.49986465  1
  Ru4+  Ru123  1  0.61070221  0.16367753  0.74801922  1
  Ru4+  Ru124  1  0.61344348  0.50124957  -0.00413011  1
  Ru4+  Ru125  1  0.61121150  0.49757184  0.25267192  1
  Ru4+  Ru126  1  0.60818328  0.50476655  0.50340088  1
  Ru4+  Ru127  1  0.60927084  0.50008598  0.74872986  1
  Ru4+  Ru128  1  0.60760990  0.82698842  -0.00180904  1
  Ru4+  Ru129  1  0.61435355  0.83279303  0.25271316  1
  Ru4+  Ru130  1  0.60525585  0.82666650  0.49851279  1
  Ru4+  Ru131  1  0.61269295  0.83293106  0.75005625  1
  Ru4+  Ru132  1  0.37999085  0.16364643  0.00162368  1
  Ru4+  Ru133  1  0.38599386  0.16340257  0.24960628  1
  Ru4+  Ru134  1  0.38926766  0.16812120  0.49675053  1
  Ru4+  Ru135  1  0.38058526  0.16733717  0.74938526  1
  Ru4+  Ru136  1  0.38591402  0.49895649  -0.00116555  1
  Ru4+  Ru137  1  0.38394131  0.49384698  0.25453900  1
  Ru4+  Ru138  1  0.39378014  0.50074195  0.49898274  1
  Ru4+  Ru139  1  0.38934472  0.49789218  0.74446623  1
  Ru4+  Ru140  1  0.38979256  0.82703043  -0.00244581  1
  Ru4+  Ru141  1  0.39041939  0.83596652  0.25312022  1
  Ru4+  Ru142  1  0.39104974  0.83073534  0.49683358  1
  Ru4+  Ru143  1  0.38691665  0.82451540  0.75599257  1
  Ru4+  Ru144  1  0.88434178  0.16717366  0.00246577  1
  Ru4+  Ru145  1  0.88837196  0.16763444  0.24911122  1
  Ru4+  Ru146  1  0.89233440  0.17005124  0.50227043  1
  Ru4+  Ru147  1  0.88046431  0.17017174  0.74894656  1
  Ru4+  Ru148  1  0.88808154  0.49917884  -0.00057359  1
  Ru4+  Ru149  1  0.88878396  0.50427292  0.25254073  1
  Ru4+  Ru150  1  0.88623475  0.50248903  0.49768513  1
  Ru4+  Ru151  1  0.89490910  0.49560882  0.74880703  1
  Ru4+  Ru152  1  0.89244667  0.83339652  0.00098058  1
  Ru4+  Ru153  1  0.88414179  0.83639608  0.25032909  1
  Ru4+  Ru154  1  0.88778953  0.83107172  0.50020674  1
  Ru4+  Ru155  1  0.88365056  0.83938385  0.74545883  1
  Ru4+  Ru156  1  0.24986488  0.59879460  0.49169797  1
  Ru4+  Ru157  1  0.74839199  0.26018486  0.25110688  1
  Ru4+  Ru158  1  0.25134344  0.71843582  0.00481785  1
  Ru4+  Ru159  1  0.25016043  0.57404082  0.24859349  1
  Ru4+  Ru160  1  0.75032459  0.57623921  0.00501779  1
  Ru4+  Ru161  1  0.25063457  0.57328220  -0.00145831  1
  Ru4+  Ru162  1  0.25089839  0.72913731  0.50605902  1
  Ru4+  Ru163  1  0.75038348  0.59220449  0.74807740  1
  Ru4+  Ru164  1  0.24959766  0.09614482  -0.00855280  1
  Ru4+  Ru165  1  0.25016249  0.96984269  0.78088532  1
  Ru4+  Ru166  1  0.24935273  0.41779053  0.25128796  1
  Ru4+  Ru167  1  0.74889900  0.24280596  0.75941808  1
  Ru4+  Ru168  1  0.75043162  0.06842344  0.50718637  1
  Ru4+  Ru169  1  0.74925950  0.91899846  0.73939718  1
  Ru4+  Ru170  1  0.24905323  0.26980911  0.49444391  1
  Ru4+  Ru171  1  0.24982361  0.95278101  0.26112766  1
  Ru4+  Ru172  1  0.75021867  0.75548789  0.24806946  1
  Ru4+  Ru173  1  0.24984698  0.69540533  0.77171211  1
  Ru4+  Ru174  1  0.24897698  0.55870639  0.75339775  1
  Ru4+  Ru175  1  0.74974643  0.73977716  0.74187681  1
  Ru4+  Ru176  1  0.74935160  0.40431057  0.26117669  1
  Ru4+  Ru177  1  0.74960080  0.40190157  0.49916261  1
  Ru4+  Ru178  1  0.75024767  0.41560723  0.73876832  1
  Ru4+  Ru179  1  0.74925173  0.93298932  0.50903219  1
  O2-  O180  1  0.16671374  0.07920800  0.00179993  1
  O2-  O181  1  0.16783781  0.08241990  0.24920338  1
  O2-  O182  1  0.16048520  0.08106844  0.49903798  1
  O2-  O183  1  0.16480902  0.08060177  0.75350075  1
  O2-  O184  1  0.16194404  0.41389696  -0.00315464  1
  O2-  O185  1  0.16570054  0.41365200  0.25142288  1
  O2-  O186  1  0.16718203  0.41579519  0.48862300  1
  O2-  O187  1  0.16820126  0.41781337  0.75415292  1
  O2-  O188  1  0.16392796  0.74236087  0.00195977  1
  O2-  O189  1  0.15639333  0.74070489  0.24835163  1
  O2-  O190  1  0.16570273  0.74396939  0.50236376  1
  O2-  O191  1  0.16928983  0.74392602  0.74956860  1
  O2-  O192  1  0.67035322  0.08373427  -0.00075737  1
  O2-  O193  1  0.66644323  0.07626411  0.25390833  1
  O2-  O194  1  0.66587422  0.08064211  0.50023360  1
  O2-  O195  1  0.66471301  0.07943178  0.74794500  1
  O2-  O196  1  0.66408232  0.41637639  -0.00380920  1
  O2-  O197  1  0.66475126  0.41085341  0.25180366  1
  O2-  O198  1  0.66846559  0.41623492  0.49749386  1
  O2-  O199  1  0.66809272  0.41414995  0.75043956  1
  O2-  O200  1  0.67250166  0.75391397  -0.00180163  1
  O2-  O201  1  0.66787002  0.75094414  0.25365318  1
  O2-  O202  1  0.66473035  0.74546860  0.50070250  1
  O2-  O203  1  0.66818535  0.74633548  0.74540565  1
  O2-  O204  1  0.33347620  0.25114489  -0.00351759  1
  O2-  O205  1  0.33857392  0.25054670  0.24953087  1
  O2-  O206  1  0.33090270  0.25256667  0.49642601  1
  O2-  O207  1  0.33266864  0.25301407  0.75507977  1
  O2-  O208  1  0.33287738  0.58623807  0.00072853  1
  O2-  O209  1  0.33257176  0.58608737  0.24920182  1
  O2-  O210  1  0.33182435  0.58341386  0.49828189  1
  O2-  O211  1  0.32809579  0.57845921  0.75499965  1
  O2-  O212  1  0.34375653  0.92189126  0.00014474  1
  O2-  O213  1  0.33513499  0.92380792  0.24946080  1
  O2-  O214  1  0.34525963  0.92304806  0.49905882  1
  O2-  O215  1  0.33473897  0.92064980  0.75225682  1
  O2-  O216  1  0.83709759  0.25219493  -0.00154339  1
  O2-  O217  1  0.83164152  0.25101815  0.25186068  1
  O2-  O218  1  0.83563390  0.25557658  0.49855118  1
  O2-  O219  1  0.83141759  0.25573450  0.74490742  1
  O2-  O220  1  0.83183425  0.58723882  0.00437858  1
  O2-  O221  1  0.83824699  0.59151725  0.24956958  1
  O2-  O222  1  0.84021669  0.59315619  0.50305674  1
  O2-  O223  1  0.83419340  0.58430531  0.74836375  1
  O2-  O224  1  0.83693456  0.91967970  -0.00416503  1
  O2-  O225  1  0.83125470  0.91894332  0.25644792  1
  O2-  O226  1  0.83216492  0.92007605  0.50014747  1
  O2-  O227  1  0.82996566  0.92132514  0.75042077  1
  O2-  O228  1  0.16430320  0.25172434  -0.00260818  1
  O2-  O229  1  0.16483920  0.25261454  0.24948799  1
  O2-  O230  1  0.16689927  0.25234424  0.49557262  1
  O2-  O231  1  0.16604632  0.24889242  0.76075980  1
  O2-  O232  1  0.16922011  0.58480156  0.00439304  1
  O2-  O233  1  0.16660094  0.58705055  0.24951100  1
  O2-  O234  1  0.16764377  0.58701238  0.49915377  1
  O2-  O235  1  0.16409412  0.58333730  0.74843109  1
  O2-  O236  1  0.15660270  0.92601147  0.00087725  1
  O2-  O237  1  0.16452277  0.92506250  0.25228863  1
  O2-  O238  1  0.15574687  0.92442590  0.50117893  1
  O2-  O239  1  0.16401817  0.92119471  0.75096374  1
  O2-  O240  1  0.66331701  0.24786396  -0.00281510  1
  O2-  O241  1  0.66365995  0.25191208  0.25297912  1
  O2-  O242  1  0.66099327  0.25602845  0.49817519  1
  O2-  O243  1  0.66689497  0.25331204  0.75021426  1
  O2-  O244  1  0.66802399  0.58509277  0.00133549  1
  O2-  O245  1  0.65767989  0.58946530  0.25599113  1
  O2-  O246  1  0.66232096  0.58724861  0.49762120  1
  O2-  O247  1  0.66765510  0.58545374  0.75080259  1
  O2-  O248  1  0.66493524  0.91584339  -0.00287567  1
  O2-  O249  1  0.66816360  0.91833789  0.25803718  1
  O2-  O250  1  0.66391828  0.91717090  0.49953786  1
  O2-  O251  1  0.66815229  0.91943571  0.74585101  1
  O2-  O252  1  0.33232450  0.07547644  0.00140326  1
  O2-  O253  1  0.32994679  0.08179638  0.24565510  1
  O2-  O254  1  0.34051032  0.07711697  0.49823637  1
  O2-  O255  1  0.33274253  0.07915252  0.75694636  1
  O2-  O256  1  0.33781155  0.41381386  -0.00181561  1
  O2-  O257  1  0.33327950  0.41238739  0.24986669  1
  O2-  O258  1  0.33934233  0.41090111  0.49841421  1
  O2-  O259  1  0.33367288  0.41728113  0.75780641  1
  O2-  O260  1  0.33474615  0.74365757  -0.00031525  1
  O2-  O261  1  0.34349640  0.74302608  0.24970967  1
  O2-  O262  1  0.33611674  0.74617284  0.49583826  1
  O2-  O263  1  0.33045681  0.74350227  0.75247138  1
  O2-  O264  1  0.83318434  0.08226009  -0.00424761  1
  O2-  O265  1  0.83699506  0.07579000  0.25223501  1
  O2-  O266  1  0.83573768  0.08253105  0.49672259  1
  O2-  O267  1  0.83191846  0.08224737  0.74927398  1
  O2-  O268  1  0.83886902  0.41558353  -0.00159274  1
  O2-  O269  1  0.83426995  0.41332884  0.25051225  1
  O2-  O270  1  0.83030655  0.41614118  0.50354894  1
  O2-  O271  1  0.83388013  0.41534346  0.74621935  1
  O2-  O272  1  0.83488901  0.74621663  0.00348790  1
  O2-  O273  1  0.83427287  0.74696066  0.25244405  1
  O2-  O274  1  0.83559445  0.74443336  0.50321149  1
  O2-  O275  1  0.83349742  0.74905303  0.74752637  1
  O2-  O276  1  0.05117499  0.09640846  0.51633048  1
  O2-  O277  1  0.44666523  0.42705643  0.50975566  1
  O2-  O278  1  0.95378533  0.76444633  0.23976518  1
  O2-  O279  1  0.54590272  0.54936205  0.03388575  1
  O2-  O280  1  0.44761576  0.90917705  0.01184134  1
  O2-  O281  1  0.95217859  0.89514796  0.78759720  1
  O2-  O282  1  0.96292779  0.44905232  0.70186235  1
  O2-  O283  1  0.04389848  0.89720483  0.51460663  1
  O2-  O284  1  0.95306429  0.10083140  0.25627912  1
  O2-  O285  1  0.04537463  0.44146698  0.46805055  1
  O2-  O286  1  0.45378715  0.55758361  0.27002513  1
  O2-  O287  1  0.53716032  0.44520561  0.50103101  1
  O2-  O288  1  0.45001266  0.58070061  0.24039855  1
  O2-  O289  1  0.46088238  0.54944392  0.79444534  1
  O2-  O290  1  0.53090074  0.78135434  0.45588442  1
  O2-  O291  1  0.55440872  0.90933429  0.01550048  1
  O2-  O292  1  0.53524025  0.76932474  -0.02733153  1
  O2-  O293  1  0.94826684  0.09931217  0.76029534  1
  O2-  O294  1  0.55883443  0.57777454  0.75849511  1
  O2-  O295  1  0.94987069  0.76639879  0.73976876  1
  O2-  O296  1  0.53838615  0.10887072  0.28204197  1
  O2-  O297  1  0.55267358  0.24101659  0.98773866  1
  O2-  O298  1  0.53866706  0.77834338  0.96826383  1
  O2-  O299  1  0.53229080  0.11530493  0.03734461  1
  O2-  O300  1  0.46377986  0.54507143  0.75636170  1
  O2-  O301  1  0.54665046  0.91040784  0.51074211  1
  O2-  O302  1  0.45625942  0.10383306  0.48528263  1
  O2-  O303  1  0.04982929  0.08914473  0.76899453  1
  O2-  O304  1  0.04552206  0.90573972  0.98626100  1
  O2-  O305  1  0.45047723  0.90372719  0.73788629  1
  O2-  O306  1  0.44719311  0.90848268  0.23528913  1
  O2-  O307  1  0.05299450  0.09883324  0.26190423  1
  O2-  O308  1  0.94997299  0.43199447  0.25797123  1
  O2-  O309  1  0.44883139  0.56491357  0.98408385  1
  O2-  O310  1  0.04762742  0.24232626  0.48226525  1
  O2-  O311  1  0.04578727  0.75838812  1.00065154  1
  O2-  O312  1  0.54477735  0.89470585  0.28827263  1
  O2-  O313  1  0.05169768  0.90817868  0.73354551  1
  O2-  O314  1  0.44360138  0.77652450  0.05206323  1
  O2-  O315  1  0.04468415  0.76432662  0.71003117  1
  O2-  O316  1  0.45082753  0.23135583  0.01194831  1
  O2-  O317  1  0.95096026  0.57905759  0.48353196  1
  O2-  O318  1  0.54575068  0.23753596  0.50454787  1
  O2-  O319  1  0.04547717  0.10264798  0.98487326  1
  O2-  O320  1  0.04175249  0.44818546  0.47887430  1
  O2-  O321  1  0.04862280  0.23246302  0.73943155  1
  O2-  O322  1  0.95414573  0.44194130  0.51242348  1
  O2-  O323  1  0.04774686  0.43187771  0.23901229  1
  O2-  O324  1  0.43031849  0.40627162  0.72569220  1
  O2-  O325  1  0.43916254  0.25273159  0.77744221  1
  O2-  O326  1  0.56179779  0.40475102  0.03335646  1
  O2-  O327  1  0.05884630  0.26524067  0.73779827  1
  O2-  O328  1  0.58878132  0.72713130  0.06146084  1
  O2-  O329  1  0.43442442  0.92741697  0.72178417  1
  O2-  O330  1  0.06156974  0.06895066  0.27959619  1
  O2-  O331  1  0.93163063  0.94746916  0.67234409  1
  O2-  O332  1  0.56782921  0.61830093  0.92900734  1
  O2-  O333  1  0.94134670  0.73968914  0.52974226  1
  O2-  O334  1  0.09044171  0.37608824  0.55817423  1
  O2-  O335  1  0.93636151  0.59424304  0.71600677  1
  O2-  O336  1  0.57027981  0.07937046  0.20583033  1
  O2-  O337  1  0.06059288  0.06415091  0.52664509  1
  O2-  O338  1  0.93797111  0.92166378  0.22669781  1
  O2-  O339  1  0.57133160  0.73400486  0.57046095  1
  O2-  O340  1  0.44232046  0.74290426  0.77892241  1
  O2-  O341  1  0.56909660  0.92786969  0.21033507  1
  O2-  O342  1  0.06500397  0.58739194  0.99216425  1
  O2-  O343  1  0.41304203  0.62107170  0.69866370  1
  O2-  O344  1  0.56135553  0.59201423  0.53257229  1
  O2-  O345  1  0.93739793  0.58755017  0.98500050  1
  O2-  O346  1  0.06614393  0.59937243  0.53309859  1
  O2-  O347  1  0.04968843  0.73522413  0.68875402  1
  O2-  O348  1  0.93811289  0.25471625  0.22414228  1
  O2-  O349  1  0.56533209  0.40696174  0.73129264  1
  O2-  O350  1  0.43550190  0.26234577  0.52046918  1
  O2-  O351  1  0.08389169  0.75873412  0.83787737  1
  O2-  O352  1  0.43650220  0.59428575  0.47884884  1
  O2-  O353  1  0.56239491  0.26159251  0.95948936  1
  O2-  O354  1  0.43788026  0.07796214  0.72679135  1
  O2-  O355  1  0.93852556  0.25855890  0.53292398  1
  O2-  O356  1  0.05930234  0.74030385  0.46245529  1
  O2-  O357  1  0.57834158  0.06089861  0.94315700  1
  O2-  O358  1  0.43559399  0.07208005  0.26931922  1
  O2-  O359  1  0.44008422  0.94009775  0.02780428  1
  O2-  O360  1  0.93100626  0.38211998  0.81278794  1
  O2-  O361  1  0.93590521  0.92268567  0.47634820  1
  O2-  O362  1  0.57791770  0.39062625  0.52486552  1
  O2-  O363  1  0.56411133  0.74583917  0.22901021  1
  O2-  O364  1  0.43755512  0.26084086  0.02046821  1
  O2-  O365  1  0.92085246  0.38858312  0.46708146  1
  O2-  O366  1  0.06249837  0.40511826  0.78678632  1
  O2-  O367  1  0.93742775  0.07936138  0.78853263  1
  O2-  O368  1  0.43425387  0.71645623  0.93960774  1
  O2-  O369  1  0.93785759  0.08130524  0.96938073  1
  O2-  O370  1  0.94458001  0.73925456  0.71558399  1
  O2-  O371  1  0.93660967  0.59943559  0.28356750  1
  O2-  O372  1  0.74953098  0.32049037  0.39653857  1
  O2-  O373  1  0.74958155  0.33124346  0.07006039  1
  O2-  O374  1  0.24869551  0.64899985  0.11418643  1
  O2-  O375  1  0.25050207  0.32852789  0.17448476  1
  O2-  O376  1  0.25160632  0.33632186  0.08402435  1
  O2-  O377  1  0.74916688  0.33615276  0.84179418  1
  O2-  O378  1  0.74934523  0.00276410  0.38812086  1
  O2-  O379  1  0.75037398  0.65641889  0.90657051  1
  O2-  O380  1  0.24997126  0.34750464  0.58392288  1
  O2-  O381  1  0.74879527  0.33724495  0.16238756  1
  O2-  O382  1  0.25125258  0.32994283  0.67244041  1
  O2-  O383  1  0.24998835  0.00601968  0.90262686  1
  O2-  O384  1  0.75006964  0.32467063  0.60564267  1
  O2-  O385  1  0.75043550  0.67059623  0.42444282  1
  O2-  O386  1  0.74971540  -0.00852693  0.10196446  1
  O2-  O387  1  0.24843267  0.01185305  0.67039213  1
  O2-  O388  1  0.74997497  0.66859810  0.33122082  1
  O2-  O389  1  0.24885262  0.66514183  0.64474575  1
  O2-  O390  1  0.24902507  0.65867722  0.34901292  1
  O2-  O391  1  0.25025232  0.01246255  0.57828437  1
  O2-  O392  1  0.75128869  0.67001421  0.15346627  1
  O2-  O393  1  0.25027146  0.65693633  0.89116338  1
  O2-  O394  1  0.25007380  0.33606183  0.35200112  1
  O2-  O395  1  0.24899555  0.00814923  0.39001211  1
  O2-  O396  1  0.75043943  0.49365733  0.94404124  1
  O2-  O397  1  0.24949919  0.17612193  0.63244998  1
  O2-  O398  1  0.24951071  0.80273485  0.59288119  1
  O2-  O399  1  0.24981825  0.16622350  0.91292148  1
  O2-  O400  1  0.75029907  0.47427787  0.38313033  1
  O2-  O401  1  0.74975082  0.48792197  0.63890867  1
  O2-  O402  1  0.24953314  0.79272314  0.92253954  1
  O2-  O403  1  0.75021549  0.17015319  0.06896654  1
  O2-  O404  1  0.24972776  0.79173359  0.09206002  1
  O2-  O405  1  0.24921770  0.79156219  0.41383027  1
  O2-  O406  1  0.24882646  0.87733396  0.85061789  1
  O2-  O407  1  0.75025853  0.83560174  0.89822055  1
  O2-  O408  1  0.75043641  0.16954056  0.83584559  1
  O2-  O409  1  0.75071127  0.83485136  0.17565919  1
  O2-  O410  1  0.24997143  0.50078116  0.34674593  1
  O2-  O411  1  0.24962788  0.50423234  0.65461051  1
  O2-  O412  1  0.75034477  0.49979092  0.81280688  1
  O2-  O413  1  0.24970379  0.89126410  0.16385631  1
  O2-  O414  1  0.25030771  0.87554609  0.33834228  1
  O2-  O415  1  0.24971286  0.50032867  0.15572189  1
  O2-  O416  1  0.75006998  0.50149904  0.11927912  1
  O2-  O417  1  0.74952672  0.17163196  0.15454933  1
  O2-  O418  1  0.24982054  0.50620215  0.90745407  1
  O2-  O419  1  0.74976880  0.83182669  0.81216516  1
  O2-  O420  1  0.47000905  0.32795552  0.63206514  1
  O2-  O421  1  0.45426204  0.67219049  0.13450865  1
  O2-  O422  1  0.45925863  0.68260328  0.36541613  1
  O2-  O423  1  0.97915801  0.31938752  0.36837555  1
  O2-  O424  1  0.47519095  0.33832537  0.12942549  1
  O2-  O425  1  0.53229750  0.31558683  0.63340099  1
  O2-  O426  1  0.45701345  -0.00501374  0.60026772  1
  O2-  O427  1  0.95436274  0.35018113  0.11234462  1
  O2-  O428  1  0.54575125  0.65442526  0.36459220  1
  O2-  O429  1  0.04584460  -0.00215413  0.13141704  1
  O2-  O430  1  0.98160685  -0.00931679  0.88165863  1
  O2-  O431  1  0.95000098  0.68729916  0.86350682  1
  O2-  O432  1  0.47672754  0.34021930  0.88135564  1
  O2-  O433  1  0.51286257  0.00230196  0.12239687  1
  O2-  O434  1  0.03577670  0.64918984  0.87210777  1
  O2-  O435  1  0.95436339  0.00818013  0.11367181  1
  O2-  O436  1  0.47629152  -0.01011444  0.37946196  1
  O2-  O437  1  0.53874292  0.64056693  0.14490667  1
  O2-  O438  1  0.97490823  -0.00002062  0.36763930  1
  O2-  O439  1  0.01613555  0.32964907  0.62688325  1
  O2-  O440  1  0.47870160  0.68365990  0.61075436  1
  O2-  O441  1  0.04783500  0.32729843  0.12337745  1
  O2-  O442  1  0.51698090  -0.00705986  0.86551421  1
  O2-  O443  1  0.54741949  0.01022172  0.63317429  1
