# generated using pymatgen
data_La7(Ru4O11)2
_symmetry_space_group_name_H-M   'P 1'
_cell_length_a   23.98887163
_cell_length_b   16.82850751
_cell_length_c   15.42523715
_cell_angle_alpha   90.00056184
_cell_angle_beta   90.00009240
_cell_angle_gamma   89.99992574
_symmetry_Int_Tables_number   1
_chemical_formula_structural   La7(Ru4O11)2
_chemical_formula_sum   'La84 Ru96 O264'
_cell_volume   6227.12051543
_cell_formula_units_Z   12
loop_
 _symmetry_equiv_pos_site_id
 _symmetry_equiv_pos_as_xyz
  1  'x, y, z'
loop_
 _atom_type_symbol
 _atom_type_oxidation_number
  La3+  3.0
  Ru4+  4.0
  O2-  -2.0
loop_
 _atom_site_type_symbol
 _atom_site_label
 _atom_site_symmetry_multiplicity
 _atom_site_fract_x
 _atom_site_fract_y
 _atom_site_fract_z
 _atom_site_occupancy
  La3+  La0  1  0.13874887  -0.00007681  0.12507651  1
  La3+  La1  1  0.13860164  0.00004712  0.37409388  1
  La3+  La2  1  0.13815002  -0.00002572  0.62494107  1
  La3+  La3  1  0.13887011  -0.00050920  0.87555131  1
  La3+  La4  1  0.13965384  0.33235426  0.12392476  1
  La3+  La5  1  0.14040112  0.33247959  0.37449646  1
  La3+  La6  1  0.13769934  0.33243219  0.62673204  1
  La3+  La7  1  0.13667001  0.33259815  0.87422674  1
  La3+  La8  1  0.13857818  0.66678253  0.12466082  1
  La3+  La9  1  0.13835723  0.66680871  0.37418653  1
  La3+  La10  1  0.13781571  0.66598868  0.62589035  1
  La3+  La11  1  0.13970155  0.66651125  0.87521007  1
  La3+  La12  1  0.63692167  0.00043253  0.12284344  1
  La3+  La13  1  0.63800117  0.00009012  0.37716000  1
  La3+  La14  1  0.63826237  -0.00012094  0.62343287  1
  La3+  La15  1  0.63795457  -0.00035364  0.87584595  1
  La3+  La16  1  0.63875953  0.33292879  0.12378427  1
  La3+  La17  1  0.63876501  0.33258866  0.37667802  1
  La3+  La18  1  0.63818463  0.33268411  0.62306042  1
  La3+  La19  1  0.63866185  0.33352587  0.87654779  1
  La3+  La20  1  0.63896599  0.66721629  0.12535211  1
  La3+  La21  1  0.63833264  0.66718246  0.37446236  1
  La3+  La22  1  0.63827360  0.66722374  0.62501584  1
  La3+  La23  1  0.63932984  0.66692897  0.87427506  1
  La3+  La24  1  0.36179115  0.00005399  0.12429305  1
  La3+  La25  1  0.36154842  0.00007922  0.37495683  1
  La3+  La26  1  0.36246377  0.00017300  0.62521684  1
  La3+  La27  1  0.36173563  0.00003861  0.87573719  1
  La3+  La28  1  0.36205847  0.33112334  0.12361070  1
  La3+  La29  1  0.36045089  0.33315678  0.37475155  1
  La3+  La30  1  0.36185803  0.33416240  0.62522037  1
  La3+  La31  1  0.36301112  0.33266925  0.87665760  1
  La3+  La32  1  0.36114598  0.66698855  0.12492900  1
  La3+  La33  1  0.36336383  0.66776164  0.37599083  1
  La3+  La34  1  0.36405876  0.66697281  0.62490920  1
  La3+  La35  1  0.36056135  0.66645162  0.87438411  1
  La3+  La36  1  0.86197826  -0.00025112  0.12375217  1
  La3+  La37  1  0.86172859  0.00038964  0.37652861  1
  La3+  La38  1  0.86155320  -0.00088261  0.62452845  1
  La3+  La39  1  0.86163674  -0.00109525  0.87520151  1
  La3+  La40  1  0.86174351  0.33317356  0.12382476  1
  La3+  La41  1  0.86098764  0.33299236  0.37661799  1
  La3+  La42  1  0.86156606  0.33361868  0.62346362  1
  La3+  La43  1  0.86139280  0.33387942  0.87649624  1
  La3+  La44  1  0.86105323  0.66754396  0.12463764  1
  La3+  La45  1  0.86120507  0.66698943  0.37460502  1
  La3+  La46  1  0.86183143  0.66632665  0.62521559  1
  La3+  La47  1  0.86144198  0.66686696  0.87481067  1
  La3+  La48  1  0.49930572  0.83061203  0.36459991  1
  La3+  La49  1  -0.00016975  0.50033484  0.88564312  1
  La3+  La50  1  -0.00076517  0.16401257  0.63569318  1
  La3+  La51  1  -0.00049527  0.83395001  0.13444619  1
  La3+  La52  1  0.49997564  0.49355899  0.11559601  1
  La3+  La53  1  0.00093602  0.83472490  0.86769787  1
  La3+  La54  1  -0.00020588  0.83326984  0.38621604  1
  La3+  La55  1  0.49921224  0.83107425  0.63228580  1
  La3+  La56  1  0.00206885  0.16686647  0.88895591  1
  La3+  La57  1  0.50015154  0.50085228  0.86634861  1
  La3+  La58  1  0.49981937  0.16644999  0.38563781  1
  La3+  La59  1  0.00268815  0.16426390  0.86661014  1
  La3+  La60  1  0.49964622  0.50126341  0.63334180  1
  La3+  La61  1  0.49792929  0.83433556  0.86754439  1
  La3+  La62  1  -0.00004756  0.16759449  0.38440183  1
  La3+  La63  1  0.49879196  0.16637877  0.13201713  1
  La3+  La64  1  0.49934308  0.83151384  0.38721628  1
  La3+  La65  1  0.50008320  0.83389958  0.88451974  1
  La3+  La66  1  -0.00045338  0.50114781  0.61554170  1
  La3+  La67  1  0.50046005  0.16737228  0.88651927  1
  La3+  La68  1  0.49923771  0.16721221  0.86842010  1
  La3+  La69  1  0.49788658  0.50229853  0.13540742  1
  La3+  La70  1  0.00057710  0.49864928  0.38625619  1
  La3+  La71  1  0.00272556  0.16743891  0.61400107  1
  La3+  La72  1  0.25001340  0.19483215  0.51865168  1
  La3+  La73  1  0.25007691  0.46347816  0.51280132  1
  La3+  La74  1  0.25007918  0.49852935  0.21959290  1
  La3+  La75  1  0.25003897  0.83388437  0.24785629  1
  La3+  La76  1  0.75002425  0.47212902  -0.00092388  1
  La3+  La77  1  0.74994422  0.16773659  0.25203910  1
  La3+  La78  1  0.74976590  0.16642625  0.78217484  1
  La3+  La79  1  0.74983353  0.52711851  0.25004059  1
  La3+  La80  1  0.74990813  0.80421069  0.27500652  1
  La3+  La81  1  0.25010683  0.86757421  0.49242124  1
  La3+  La82  1  0.75002433  0.47151161  0.51894368  1
  La3+  La83  1  0.74998377  0.16804771  0.00058515  1
  Ru4+  Ru84  1  -0.00009080  -0.00057361  -0.00115857  1
  Ru4+  Ru85  1  0.00153397  -0.00181306  0.25250268  1
  Ru4+  Ru86  1  -0.00065909  -0.00043443  0.49990795  1
  Ru4+  Ru87  1  -0.00046738  -0.00004498  0.74987317  1
  Ru4+  Ru88  1  -0.00122350  0.33122891  0.00114527  1
  Ru4+  Ru89  1  -0.00201038  0.33179894  0.24836251  1
  Ru4+  Ru90  1  0.00002517  0.33353218  0.50059259  1
  Ru4+  Ru91  1  0.00220053  0.33562559  0.75050419  1
  Ru4+  Ru92  1  -0.00039875  0.66673849  -0.00133516  1
  Ru4+  Ru93  1  0.00162354  0.66995381  0.25179935  1
  Ru4+  Ru94  1  -0.00039116  0.66748199  0.50157039  1
  Ru4+  Ru95  1  0.00053745  0.66483297  0.74931374  1
  Ru4+  Ru96  1  0.50159638  -0.00366899  0.00303748  1
  Ru4+  Ru97  1  0.49950887  -0.00045080  0.25020536  1
  Ru4+  Ru98  1  0.49923054  0.00454219  0.50151603  1
  Ru4+  Ru99  1  0.49851691  0.00212093  0.74746967  1
  Ru4+  Ru100  1  0.49972506  0.33184068  -0.00010218  1
  Ru4+  Ru101  1  0.49866044  0.33521453  0.24844897  1
  Ru4+  Ru102  1  0.49956571  0.33356883  0.50178580  1
  Ru4+  Ru103  1  0.49985429  0.32874070  0.74932729  1
  Ru4+  Ru104  1  0.49912111  0.66719194  0.00036472  1
  Ru4+  Ru105  1  0.49979009  0.66689214  0.24929695  1
  Ru4+  Ru106  1  0.49706567  0.66520226  0.50268189  1
  Ru4+  Ru107  1  0.49612136  0.66166838  0.74840149  1
  Ru4+  Ru108  1  0.11327647  0.16755577  -0.00035890  1
  Ru4+  Ru109  1  0.11294805  0.16663317  0.24970734  1
  Ru4+  Ru110  1  0.11246395  0.16804257  0.50028995  1
  Ru4+  Ru111  1  0.11191876  0.16781768  0.74960747  1
  Ru4+  Ru112  1  0.11382748  0.50210609  -0.00004666  1
  Ru4+  Ru113  1  0.11303682  0.50047496  0.24997865  1
  Ru4+  Ru114  1  0.11228184  0.50016839  0.50049942  1
  Ru4+  Ru115  1  0.11369606  0.49994276  0.74985849  1
  Ru4+  Ru116  1  0.11362305  0.83303292  0.00001121  1
  Ru4+  Ru117  1  0.11213302  0.83396979  0.24996701  1
  Ru4+  Ru118  1  0.11235675  0.83265221  0.50021483  1
  Ru4+  Ru119  1  0.11344737  0.83174291  0.74993752  1
  Ru4+  Ru120  1  0.61228604  0.16758659  -0.00010524  1
  Ru4+  Ru121  1  0.61312721  0.16471071  0.24995909  1
  Ru4+  Ru122  1  0.61370551  0.16683431  0.50044262  1
  Ru4+  Ru123  1  0.61164132  0.16670514  0.75042681  1
  Ru4+  Ru124  1  0.61426815  0.49680635  -0.00120257  1
  Ru4+  Ru125  1  0.61238047  0.50056844  0.25024526  1
  Ru4+  Ru126  1  0.61268967  0.49859422  0.49986811  1
  Ru4+  Ru127  1  0.61370912  0.50203261  0.75002152  1
  Ru4+  Ru128  1  0.61388175  0.83432720  0.00056852  1
  Ru4+  Ru129  1  0.61188383  0.83250460  0.25067691  1
  Ru4+  Ru130  1  0.61546852  0.83354354  0.50007977  1
  Ru4+  Ru131  1  0.61710917  0.83672333  0.74861406  1
  Ru4+  Ru132  1  0.38608145  0.17021761  0.00049498  1
  Ru4+  Ru133  1  0.38691164  0.16777993  0.24953995  1
  Ru4+  Ru134  1  0.38793709  0.16663002  0.49967257  1
  Ru4+  Ru135  1  0.38768771  0.16638366  0.75026602  1
  Ru4+  Ru136  1  0.38652600  0.49913442  -0.00057325  1
  Ru4+  Ru137  1  0.38751738  0.49972638  0.25033352  1
  Ru4+  Ru138  1  0.38846093  0.49807332  0.49921630  1
  Ru4+  Ru139  1  0.38463320  0.50209798  0.74978279  1
  Ru4+  Ru140  1  0.38513444  0.83457424  0.00027569  1
  Ru4+  Ru141  1  0.38801254  0.83299319  0.25065455  1
  Ru4+  Ru142  1  0.38772151  0.83155236  0.50010966  1
  Ru4+  Ru143  1  0.38749253  0.83309451  0.74984831  1
  Ru4+  Ru144  1  0.88777641  0.16651421  0.00037070  1
  Ru4+  Ru145  1  0.88766589  0.16889951  0.24929168  1
  Ru4+  Ru146  1  0.88528588  0.16632303  0.49959442  1
  Ru4+  Ru147  1  0.88633356  0.16586802  0.74991531  1
  Ru4+  Ru148  1  0.88822082  0.49952231  0.00009017  1
  Ru4+  Ru149  1  0.88648027  0.49768775  0.24995511  1
  Ru4+  Ru150  1  0.88804777  0.49957695  0.50038577  1
  Ru4+  Ru151  1  0.88712516  0.50088848  0.74998435  1
  Ru4+  Ru152  1  0.88707578  0.83245310  -0.00001673  1
  Ru4+  Ru153  1  0.88832004  0.83308191  0.24994447  1
  Ru4+  Ru154  1  0.88781580  0.83366491  0.50008700  1
  Ru4+  Ru155  1  0.88600027  0.83596872  0.74945364  1
  Ru4+  Ru156  1  0.75007872  0.04909876  0.24471449  1
  Ru4+  Ru157  1  0.24992922  0.08518295  0.00015442  1
  Ru4+  Ru158  1  0.24997367  0.42046265  -0.00199690  1
  Ru4+  Ru159  1  0.74999339  0.42293128  0.75034090  1
  Ru4+  Ru160  1  0.25000333  0.59983953  0.50434014  1
  Ru4+  Ru161  1  0.75014979  0.92847173  0.24476489  1
  Ru4+  Ru162  1  0.25001540  0.58132127  -0.00408141  1
  Ru4+  Ru163  1  0.24995463  0.73351035  0.50369021  1
  Ru4+  Ru164  1  0.24993653  0.08599440  0.25065350  1
  Ru4+  Ru165  1  0.24998728  0.91549349  0.75608881  1
  Ru4+  Ru166  1  0.25031078  0.08634448  0.75020653  1
  Ru4+  Ru167  1  0.74999391  0.91498988  -0.00089857  1
  Ru4+  Ru168  1  0.75001960  0.60150928  0.50624325  1
  Ru4+  Ru169  1  0.25026831  0.75069137  0.75481916  1
  Ru4+  Ru170  1  0.75001407  0.60086878  0.00403263  1
  Ru4+  Ru171  1  0.75008970  0.40224668  0.25021408  1
  Ru4+  Ru172  1  0.75024666  0.91404304  0.49970805  1
  Ru4+  Ru173  1  0.74990083  0.04982947  0.75558354  1
  Ru4+  Ru174  1  0.75005468  0.75319031  0.50227968  1
  Ru4+  Ru175  1  0.25001608  0.06877288  0.49389132  1
  Ru4+  Ru176  1  0.25002981  0.24746772  0.74902981  1
  Ru4+  Ru177  1  0.75015421  0.28696810  0.25066447  1
  Ru4+  Ru178  1  0.74988613  0.28076644  0.73625076  1
  Ru4+  Ru179  1  0.75011920  0.75529325  0.75239498  1
  O2-  O180  1  0.16728121  0.08061939  -0.00031246  1
  O2-  O181  1  0.16845229  0.08087648  0.25052659  1
  O2-  O182  1  0.16701251  0.07964998  0.50019980  1
  O2-  O183  1  0.16750324  0.08074915  0.75020155  1
  O2-  O184  1  0.16817723  0.41400951  -0.00029943  1
  O2-  O185  1  0.16817366  0.41481190  0.25024166  1
  O2-  O186  1  0.16653207  0.41338833  0.49925324  1
  O2-  O187  1  0.16714595  0.41420808  0.74973467  1
  O2-  O188  1  0.16694053  0.74772724  0.00069500  1
  O2-  O189  1  0.16869514  0.74667286  0.25013169  1
  O2-  O190  1  0.16686437  0.74694422  0.50016280  1
  O2-  O191  1  0.16798285  0.74783014  0.75011061  1
  O2-  O192  1  0.66942371  0.08010117  -0.00008026  1
  O2-  O193  1  0.66578247  0.08039104  0.24981710  1
  O2-  O194  1  0.66759916  0.08112436  0.49924238  1
  O2-  O195  1  0.66671320  0.07984371  0.75030478  1
  O2-  O196  1  0.66717993  0.41447772  0.00006735  1
  O2-  O197  1  0.66695472  0.41344345  0.25000108  1
  O2-  O198  1  0.66644533  0.41386829  0.50029394  1
  O2-  O199  1  0.66834394  0.41352130  0.74963272  1
  O2-  O200  1  0.66771330  0.74788047  -0.00016592  1
  O2-  O201  1  0.66775486  0.74713337  0.24911906  1
  O2-  O202  1  0.66780523  0.74703964  0.50004531  1
  O2-  O203  1  0.66797313  0.74749383  0.74964515  1
  O2-  O204  1  0.33183467  0.25214734  -0.00033558  1
  O2-  O205  1  0.33307473  0.25168955  0.24991994  1
  O2-  O206  1  0.33335420  0.25294807  0.49997500  1
  O2-  O207  1  0.33231129  0.25238010  0.75012172  1
  O2-  O208  1  0.33224110  0.58575507  0.00063857  1
  O2-  O209  1  0.33177091  0.58651373  0.25009019  1
  O2-  O210  1  0.33274420  0.58677786  0.50021735  1
  O2-  O211  1  0.33225629  0.58572349  0.74970061  1
  O2-  O212  1  0.33306807  0.91852895  0.00003095  1
  O2-  O213  1  0.33148868  0.91941573  0.24994593  1
  O2-  O214  1  0.33308907  0.91968014  0.50057349  1
  O2-  O215  1  0.33212312  0.91932696  0.74985446  1
  O2-  O216  1  0.83213957  0.25197830  -0.00040063  1
  O2-  O217  1  0.83361475  0.25269690  0.25010706  1
  O2-  O218  1  0.83328481  0.25228748  0.50074814  1
  O2-  O219  1  0.83315334  0.25355273  0.75000089  1
  O2-  O220  1  0.83306084  0.58671608  -0.00008647  1
  O2-  O221  1  0.83192736  0.58669399  0.24997230  1
  O2-  O222  1  0.83238896  0.58708637  0.49991340  1
  O2-  O223  1  0.83268534  0.58575832  0.74966416  1
  O2-  O224  1  0.83185627  0.91992609  -0.00027252  1
  O2-  O225  1  0.83303157  0.92019733  0.24981466  1
  O2-  O226  1  0.83231743  0.91939265  0.49971437  1
  O2-  O227  1  0.83239681  0.91861907  0.75044854  1
  O2-  O228  1  0.16805601  0.25213127  -0.00012364  1
  O2-  O229  1  0.16677001  0.25150197  0.25016759  1
  O2-  O230  1  0.16687964  0.25315562  0.49990092  1
  O2-  O231  1  0.16855768  0.25269949  0.75007851  1
  O2-  O232  1  0.16742331  0.58525950  0.00037700  1
  O2-  O233  1  0.16808658  0.58654017  0.25027477  1
  O2-  O234  1  0.16750328  0.58656793  0.49982860  1
  O2-  O235  1  0.16705966  0.58596954  0.74950833  1
  O2-  O236  1  0.16723473  0.91929995  -0.00026749  1
  O2-  O237  1  0.16844294  0.91914802  0.25034923  1
  O2-  O238  1  0.16716684  0.91981525  0.50035041  1
  O2-  O239  1  0.16841909  0.91942119  0.75035798  1
  O2-  O240  1  0.66777102  0.25179793  -0.00005854  1
  O2-  O241  1  0.66619417  0.25318173  0.24994893  1
  O2-  O242  1  0.66710497  0.25167873  0.50013578  1
  O2-  O243  1  0.66661221  0.25363580  0.74977898  1
  O2-  O244  1  0.66704117  0.58662909  0.00047379  1
  O2-  O245  1  0.66754296  0.58612320  0.24983288  1
  O2-  O246  1  0.66757644  0.58691719  0.50034070  1
  O2-  O247  1  0.66722669  0.58544390  0.74951375  1
  O2-  O248  1  0.66820287  0.91930726  -0.00022236  1
  O2-  O249  1  0.66675722  0.92004826  0.24970546  1
  O2-  O250  1  0.66807718  0.91908862  0.49938341  1
  O2-  O251  1  0.66784758  0.91914161  0.75056494  1
  O2-  O252  1  0.33263702  0.08053186  -0.00023314  1
  O2-  O253  1  0.33210939  0.08053885  0.25023131  1
  O2-  O254  1  0.33261997  0.08007765  0.50043813  1
  O2-  O255  1  0.33155574  0.08042976  0.74998991  1
  O2-  O256  1  0.33189609  0.41430111  -0.00030336  1
  O2-  O257  1  0.33261994  0.41472173  0.24995318  1
  O2-  O258  1  0.33292209  0.41420384  0.49979395  1
  O2-  O259  1  0.33280476  0.41437339  0.75016302  1
  O2-  O260  1  0.33214681  0.74785300  0.00052943  1
  O2-  O261  1  0.33136504  0.74713930  0.24991978  1
  O2-  O262  1  0.33247199  0.74719985  0.50020069  1
  O2-  O263  1  0.33107004  0.74726011  0.74966351  1
  O2-  O264  1  0.83118351  0.08039517  0.00005063  1
  O2-  O265  1  0.83376046  0.07981462  0.25016001  1
  O2-  O266  1  0.83238991  0.08103465  0.49987840  1
  O2-  O267  1  0.83354204  0.07994158  0.75042809  1
  O2-  O268  1  0.83320975  0.41426135  -0.00048567  1
  O2-  O269  1  0.83338145  0.41394580  0.24971376  1
  O2-  O270  1  0.83343400  0.41360975  0.50018896  1
  O2-  O271  1  0.83205060  0.41348220  0.74973690  1
  O2-  O272  1  0.83278617  0.74783970  -0.00015318  1
  O2-  O273  1  0.83268868  0.74653696  0.24969882  1
  O2-  O274  1  0.83247126  0.74743290  0.49973630  1
  O2-  O275  1  0.83203591  0.74741978  0.74998594  1
  O2-  O276  1  0.04535617  0.09888457  0.48507944  1
  O2-  O277  1  0.55344611  0.08850806  0.02103170  1
  O2-  O278  1  0.02939349  0.45558376  0.23417077  1
  O2-  O279  1  0.45235253  0.76290315  0.51284769  1
  O2-  O280  1  0.04471092  0.76481219  0.23598623  1
  O2-  O281  1  0.54465993  0.23430978  0.26991309  1
  O2-  O282  1  0.04505481  0.43216711  0.51402709  1
  O2-  O283  1  0.95489206  0.56704042  0.01454490  1
  O2-  O284  1  0.54504888  0.09648064  0.23597676  1
  O2-  O285  1  0.95862964  0.77142270  0.77367910  1
  O2-  O286  1  0.95393225  0.09570618  0.76384411  1
  O2-  O287  1  0.54040333  0.89423307  0.77489043  1
  O2-  O288  1  0.45980264  0.22987304  0.01133358  1
  O2-  O289  1  0.45408042  0.09707221  0.98012930  1
  O2-  O290  1  0.54528746  0.23622358  0.23048286  1
  O2-  O291  1  0.54204914  0.89522469  0.51500620  1
  O2-  O292  1  0.04893634  0.23794217  0.76270790  1
  O2-  O293  1  0.04227304  0.89556963  0.52506391  1
  O2-  O294  1  0.45856551  0.77221369  0.48783197  1
  O2-  O295  1  0.54544905  0.43017695  0.23631009  1
  O2-  O296  1  0.45910683  0.77217629  0.97547094  1
  O2-  O297  1  0.45382555  0.56913053  0.01316510  1
  O2-  O298  1  0.55389367  0.75206788  0.78175298  1
  O2-  O299  1  0.95345818  0.90060346  0.51438699  1
  O2-  O300  1  0.54758534  0.76258537  0.51662930  1
  O2-  O301  1  0.04473501  0.76382093  0.51426013  1
  O2-  O302  1  0.54256961  0.89643148  0.48779414  1
  O2-  O303  1  0.95439545  0.23730898  0.98643513  1
  O2-  O304  1  0.45580134  0.56749771  0.49362409  1
  O2-  O305  1  0.95893690  0.10538436  0.27479960  1
  O2-  O306  1  0.45397872  0.56800927  0.26505110  1
  O2-  O307  1  0.95497659  0.09836472  0.01503510  1
  O2-  O308  1  0.45479421  0.43191899  0.77008055  1
  O2-  O309  1  0.45340908  0.90107843  0.26396561  1
  O2-  O310  1  0.54674055  0.56975157  0.23581040  1
  O2-  O311  1  0.95022527  0.57486044  0.28455332  1
  O2-  O312  1  0.54656966  0.90186332  0.26451788  1
  O2-  O313  1  0.03596128  0.88680750  0.74238871  1
  O2-  O314  1  0.95661087  0.22952372  0.77562726  1
  O2-  O315  1  0.95467070  0.23579668  0.51330639  1
  O2-  O316  1  0.04747572  0.43026808  0.98487446  1
  O2-  O317  1  0.55654046  0.58458433  0.03562678  1
  O2-  O318  1  0.45726642  0.89476811  0.52643634  1
  O2-  O319  1  0.45245261  0.23939969  0.98709578  1
  O2-  O320  1  0.04240959  0.22722893  0.73905585  1
  O2-  O321  1  0.45471209  0.43183165  0.73090038  1
  O2-  O322  1  0.45424640  0.09876383  0.01914443  1
  O2-  O323  1  0.45480455  0.56828709  0.50662426  1
  O2-  O324  1  0.56452395  0.73634495  0.95263238  1
  O2-  O325  1  0.43531727  0.59552603  0.71940630  1
  O2-  O326  1  0.43509626  0.07192896  0.46943392  1
  O2-  O327  1  0.93049490  0.06493568  0.21029485  1
  O2-  O328  1  0.56346165  0.40147412  0.96705755  1
  O2-  O329  1  0.93017523  0.27343159  0.70451913  1
  O2-  O330  1  0.93547965  0.93145800  0.71795371  1
  O2-  O331  1  0.56455748  0.40204780  0.70219507  1
  O2-  O332  1  0.43223109  0.73259895  0.46912694  1
  O2-  O333  1  0.43504733  0.40308885  0.46994474  1
  O2-  O334  1  0.56861854  0.93930154  0.70583913  1
  O2-  O335  1  0.56683307  0.73121464  0.70257153  1
  O2-  O336  1  0.43509603  0.73822084  0.78102219  1
  O2-  O337  1  0.43397306  0.26729930  0.03163252  1
  O2-  O338  1  0.43587145  0.40294523  0.96669221  1
  O2-  O339  1  0.93607480  0.06852898  0.46726560  1
  O2-  O340  1  0.07428190  0.94366985  0.71324003  1
  O2-  O341  1  0.56789893  0.93599449  0.54845272  1
  O2-  O342  1  0.56400887  0.73603261  0.04726679  1
  O2-  O343  1  0.56433428  0.59729025  0.54727259  1
  O2-  O344  1  0.43061105  0.93682520  0.45852114  1
  O2-  O345  1  0.06816846  0.26775708  0.71855766  1
  O2-  O346  1  0.56407696  0.93043836  0.03201662  1
  O2-  O347  1  0.56429465  0.40191993  0.79819117  1
  O2-  O348  1  0.43145691  0.72780825  0.04449627  1
  O2-  O349  1  0.55399164  0.75191056  0.78115401  1
  O2-  O350  1  0.94517664  0.58500787  0.28926723  1
  O2-  O351  1  0.06534277  0.07056971  0.21974103  1
  O2-  O352  1  0.43514207  0.07019266  0.72043828  1
  O2-  O353  1  0.55621383  0.08129191  0.02615568  1
  O2-  O354  1  0.93001876  0.60166591  0.19433601  1
  O2-  O355  1  0.06512955  0.26285981  0.96975269  1
  O2-  O356  1  0.06430149  0.59785351  0.53276034  1
  O2-  O357  1  0.56493543  0.73667030  0.27995603  1
  O2-  O358  1  0.56554217  0.59585183  0.45618680  1
  O2-  O359  1  0.93506755  0.26304509  0.22046083  1
  O2-  O360  1  0.56881379  0.93816395  0.44889039  1
  O2-  O361  1  0.56359478  0.07068537  0.53210839  1
  O2-  O362  1  0.56247482  0.73695203  0.53143068  1
  O2-  O363  1  0.06927415  0.93619078  0.46024179  1
  O2-  O364  1  0.54971548  0.57660431  0.03571905  1
  O2-  O365  1  0.06817242  0.39540011  0.30656162  1
  O2-  O366  1  0.93526277  0.59580145  0.52948220  1
  O2-  O367  1  0.93018494  0.73071301  0.70966813  1
  O2-  O368  1  0.07382631  0.38566886  0.19483494  1
  O2-  O369  1  0.56375156  0.26503447  0.53215416  1
  O2-  O370  1  0.56821149  0.60333144  0.94265636  1
  O2-  O371  1  0.06317147  0.40545449  0.97010837  1
  O2-  O372  1  0.24994517  -0.00242425  0.40431499  1
  O2-  O373  1  0.74994352  0.66516996  0.82816387  1
  O2-  O374  1  0.75000914  0.66634290  0.32632414  1
  O2-  O375  1  0.74979545  0.33347051  0.09452282  1
  O2-  O376  1  0.75002875  0.66769232  0.09522248  1
  O2-  O377  1  0.24997796  0.33439218  0.16817869  1
  O2-  O378  1  0.24996342  0.33277790  0.57977491  1
  O2-  O379  1  0.25002465  -0.00089211  0.17028145  1
  O2-  O380  1  0.25000698  0.66633839  0.40197703  1
  O2-  O381  1  0.25001382  0.33245035  0.08077385  1
  O2-  O382  1  0.24993642  -0.00598817  0.58238517  1
  O2-  O383  1  0.75008595  0.33903958  0.83472705  1
  O2-  O384  1  0.75001780  0.33304897  0.92357740  1
  O2-  O385  1  0.24988398  0.33443621  0.34383983  1
  O2-  O386  1  0.24994444  0.33395828  0.67027317  1
  O2-  O387  1  0.74992321  0.33394606  0.40489138  1
  O2-  O388  1  0.24988273  0.66504141  0.90857166  1
  O2-  O389  1  0.74999746  0.67202519  0.91608589  1
  O2-  O390  1  0.74996460  -0.00687848  0.66465828  1
  O2-  O391  1  0.24999989  -0.00012445  0.67228901  1
  O2-  O392  1  0.74997330  -0.00186178  0.35048346  1
  O2-  O393  1  0.75001370  0.67049420  0.41618551  1
  O2-  O394  1  0.24994976  -0.00079592  0.08056308  1
  O2-  O395  1  0.75000085  0.00160190  0.57783983  1
  O2-  O396  1  0.24997428  0.16788740  0.91953299  1
  O2-  O397  1  0.24993324  0.16650256  0.83185983  1
  O2-  O398  1  0.74997271  0.83691002  0.15440534  1
  O2-  O399  1  0.24996805  0.49973657  0.84386262  1
  O2-  O400  1  0.24993247  0.50641686  0.62014587  1
  O2-  O401  1  0.24995276  0.82916375  0.37970430  1
  O2-  O402  1  0.25003420  0.82773826  0.60219097  1
  O2-  O403  1  0.24995176  0.83339194  0.68011874  1
  O2-  O404  1  0.25003515  0.49967814  0.33255095  1
  O2-  O405  1  0.75002335  0.83199374  0.83840262  1
  O2-  O406  1  0.25005105  0.50048319  0.08895834  1
  O2-  O407  1  0.24999784  0.16726021  0.08203024  1
  O2-  O408  1  0.75009671  0.16722891  0.65271448  1
  O2-  O409  1  0.75004401  0.16648634  0.40788071  1
  O2-  O410  1  0.74998518  0.16704036  0.57289472  1
  O2-  O411  1  0.74998539  0.83178394  0.07158044  1
  O2-  O412  1  0.25008413  0.50586406  0.40577060  1
  O2-  O413  1  0.75000189  0.49891924  0.83965943  1
  O2-  O414  1  0.74998299  0.50171104  0.39196676  1
  O2-  O415  1  0.24999786  0.83377202  0.90615612  1
  O2-  O416  1  0.75003127  0.83397730  0.41050526  1
  O2-  O417  1  0.75005355  0.83316677  0.59080837  1
  O2-  O418  1  0.24997162  0.16730071  0.16848512  1
  O2-  O419  1  0.24999004  0.16370756  0.39263157  1
  O2-  O420  1  0.52884557  0.66768836  0.37394804  1
  O2-  O421  1  0.97228259  0.33365024  0.37493764  1
  O2-  O422  1  0.47312628  0.66832041  0.62511927  1
  O2-  O423  1  0.97252906  0.66663774  0.87537174  1
  O2-  O424  1  0.53382291  0.00047687  0.87559618  1
  O2-  O425  1  0.46997994  0.66562231  0.37159396  1
  O2-  O426  1  0.02639691  0.00336467  0.62216700  1
  O2-  O427  1  0.53012854  0.33363477  0.37662377  1
  O2-  O428  1  0.02636328  0.00095333  0.37170286  1
  O2-  O429  1  0.97087468  0.67036526  0.12128200  1
  O2-  O430  1  0.03115020  0.66663712  0.12310237  1
  O2-  O431  1  0.02568673  0.33447651  0.87134281  1
  O2-  O432  1  0.97325029  0.33520437  0.12227142  1
  O2-  O433  1  0.47275490  -0.00134611  0.62401792  1
  O2-  O434  1  0.47448954  0.00082995  0.37053305  1
  O2-  O435  1  0.97088944  -0.00319781  0.12258155  1
  O2-  O436  1  0.47270508  0.66448513  0.87539022  1
  O2-  O437  1  0.97475796  0.66603575  0.62504634  1
  O2-  O438  1  0.47091107  0.33123390  0.37314646  1
  O2-  O439  1  0.47222956  -0.00003327  0.12554977  1
  O2-  O440  1  0.02944706  -0.00185926  0.12255101  1
  O2-  O441  1  0.46616074  -0.00047689  0.87314374  1
  O2-  O442  1  0.47220134  0.33292947  0.62401098  1
  O2-  O443  1  0.02672198  0.33505624  0.62323175  1
