# generated using pymatgen
data_La7(Ru4O11)2
_symmetry_space_group_name_H-M   'P 1'
_cell_length_a   23.98970555
_cell_length_b   16.82949205
_cell_length_c   15.42655000
_cell_angle_alpha   89.99966559
_cell_angle_beta   90.00012159
_cell_angle_gamma   89.99999484
_symmetry_Int_Tables_number   1
_chemical_formula_structural   La7(Ru4O11)2
_chemical_formula_sum   'La84 Ru96 O264'
_cell_volume   6228.23135705
_cell_formula_units_Z   12
loop_
 _symmetry_equiv_pos_site_id
 _symmetry_equiv_pos_as_xyz
  1  'x, y, z'
loop_
 _atom_type_symbol
 _atom_type_oxidation_number
  La3+  3.0
  Ru4+  4.0
  O2-  -2.0
loop_
 _atom_site_type_symbol
 _atom_site_label
 _atom_site_symmetry_multiplicity
 _atom_site_fract_x
 _atom_site_fract_y
 _atom_site_fract_z
 _atom_site_occupancy
  La3+  La0  1  0.13769749  -0.00102404  0.12675129  1
  La3+  La1  1  0.13924965  0.00087037  0.37526278  1
  La3+  La2  1  0.13806559  0.00068391  0.62456746  1
  La3+  La3  1  0.13547049  0.00120457  0.87393735  1
  La3+  La4  1  0.13996498  0.33468583  0.12361898  1
  La3+  La5  1  0.13972280  0.33376341  0.37682066  1
  La3+  La6  1  0.14191874  0.33538171  0.62161157  1
  La3+  La7  1  0.13823740  0.33347863  0.87638949  1
  La3+  La8  1  0.13828687  0.66516672  0.12640662  1
  La3+  La9  1  0.13961066  0.66776429  0.37476971  1
  La3+  La10  1  0.13957169  0.66495577  0.62349193  1
  La3+  La11  1  0.13826981  0.66398305  0.87442076  1
  La3+  La12  1  0.64106378  -0.00128180  0.12306798  1
  La3+  La13  1  0.63886114  -0.00097356  0.37446991  1
  La3+  La14  1  0.63778168  -0.00025046  0.62586344  1
  La3+  La15  1  0.64035749  0.00007852  0.87738364  1
  La3+  La16  1  0.63885967  0.33598512  0.12525318  1
  La3+  La17  1  0.63790419  0.33348151  0.37243321  1
  La3+  La18  1  0.63813286  0.33268616  0.62635445  1
  La3+  La19  1  0.63997317  0.33355487  0.87634094  1
  La3+  La20  1  0.63927421  0.66683174  0.12595425  1
  La3+  La21  1  0.63816700  0.66804404  0.37544943  1
  La3+  La22  1  0.63870759  0.66880941  0.62489730  1
  La3+  La23  1  0.63761341  0.66724904  0.87442552  1
  La3+  La24  1  0.36226329  -0.00039452  0.12513716  1
  La3+  La25  1  0.36116239  0.00006487  0.37654126  1
  La3+  La26  1  0.36096560  0.00028221  0.62328082  1
  La3+  La27  1  0.36311716  0.00040295  0.87553023  1
  La3+  La28  1  0.36001561  0.33498521  0.12537292  1
  La3+  La29  1  0.35955246  0.33412462  0.37578530  1
  La3+  La30  1  0.36023373  0.33457075  0.62295461  1
  La3+  La31  1  0.36021726  0.33432867  0.87730898  1
  La3+  La32  1  0.36113805  0.66502941  0.12519469  1
  La3+  La33  1  0.35888801  0.66662583  0.37578015  1
  La3+  La34  1  0.35985619  0.66623495  0.62354558  1
  La3+  La35  1  0.36213152  0.66438215  0.87556403  1
  La3+  La36  1  0.85916601  -0.00109679  0.12199682  1
  La3+  La37  1  0.86278970  -0.00214747  0.37302928  1
  La3+  La38  1  0.86153809  0.00004154  0.62567935  1
  La3+  La39  1  0.85983054  0.00109154  0.87937771  1
  La3+  La40  1  0.86251022  0.33372659  0.12417634  1
  La3+  La41  1  0.86183639  0.33367878  0.37106541  1
  La3+  La42  1  0.86120722  0.33254061  0.62554378  1
  La3+  La43  1  0.86004242  0.33243572  0.87759751  1
  La3+  La44  1  0.86210304  0.66636271  0.12583569  1
  La3+  La45  1  0.86160169  0.66624518  0.37602328  1
  La3+  La46  1  0.86237237  0.66744773  0.62387960  1
  La3+  La47  1  0.86240267  0.66511443  0.87552860  1
  La3+  La48  1  0.49762462  0.49756405  0.87788162  1
  La3+  La49  1  0.49767261  0.16853923  0.87842195  1
  La3+  La50  1  0.00141515  0.83006647  0.12785846  1
  La3+  La51  1  0.49843615  0.83011603  0.12325730  1
  La3+  La52  1  0.49970575  0.49755467  0.36351737  1
  La3+  La53  1  0.00044236  0.16840316  0.61695809  1
  La3+  La54  1  -0.00131875  0.17007947  0.11347050  1
  La3+  La55  1  0.00063073  0.16577372  0.63380777  1
  La3+  La56  1  0.00042656  0.17028940  0.13103949  1
  La3+  La57  1  0.00026631  0.83174363  0.61128283  1
  La3+  La58  1  0.50042528  0.49880410  0.63438361  1
  La3+  La59  1  0.50016287  0.49849403  0.11681238  1
  La3+  La60  1  0.50145611  0.16669496  0.62817567  1
  La3+  La61  1  0.50007311  0.83326892  0.36508385  1
  La3+  La62  1  0.49693601  0.16581547  0.86200081  1
  La3+  La63  1  -0.00101377  0.49966481  0.38287243  1
  La3+  La64  1  -0.00076481  0.49696721  0.87022464  1
  La3+  La65  1  0.00301852  0.83866419  0.63178817  1
  La3+  La66  1  0.50079224  0.83400269  0.38745114  1
  La3+  La67  1  0.00204088  0.50479526  0.89077783  1
  La3+  La68  1  -0.00124375  0.83503806  0.87499908  1
  La3+  La69  1  0.49956932  0.83122547  0.63605051  1
  La3+  La70  1  0.50078916  0.16726107  0.13319741  1
  La3+  La71  1  0.00110179  0.83195142  0.37779720  1
  La3+  La72  1  0.25001356  0.83188447  0.25125137  1
  La3+  La73  1  0.25031272  0.82731797  0.79280328  1
  La3+  La74  1  0.74988555  0.16691417  0.71990835  1
  La3+  La75  1  0.25005930  0.20546814  0.24674585  1
  La3+  La76  1  0.75004435  0.79327602  0.75092658  1
  La3+  La77  1  0.25004228  0.83660303  -0.02647956  1
  La3+  La78  1  0.24996490  0.49820516  0.78242177  1
  La3+  La79  1  0.74982024  0.20266561  0.24766360  1
  La3+  La80  1  0.25003489  0.12538207  0.74125297  1
  La3+  La81  1  0.75002050  0.19892831  0.49829706  1
  La3+  La82  1  0.75019937  0.50869283  0.54183834  1
  La3+  La83  1  0.25002924  0.16832962  0.49784497  1
  Ru4+  Ru84  1  0.00295991  0.00607344  -0.00529956  1
  Ru4+  Ru85  1  -0.00039465  0.00090701  0.25338135  1
  Ru4+  Ru86  1  -0.00041684  0.00250571  0.49682760  1
  Ru4+  Ru87  1  0.00256034  0.00341654  0.75546067  1
  Ru4+  Ru88  1  0.00342286  0.33617187  -0.00040228  1
  Ru4+  Ru89  1  -0.00028075  0.33651596  0.25327890  1
  Ru4+  Ru90  1  0.00121731  0.33463476  0.49449737  1
  Ru4+  Ru91  1  -0.00155503  0.32992625  0.75616905  1
  Ru4+  Ru92  1  -0.00156978  0.66887154  0.00127012  1
  Ru4+  Ru93  1  0.00135266  0.66145388  0.24447395  1
  Ru4+  Ru94  1  -0.00103657  0.66494436  0.50337484  1
  Ru4+  Ru95  1  -0.00298236  0.66424511  0.75073805  1
  Ru4+  Ru96  1  0.49888444  -0.00336137  0.00026409  1
  Ru4+  Ru97  1  0.50038798  0.00196870  0.24746188  1
  Ru4+  Ru98  1  0.49937968  0.00435911  0.50293079  1
  Ru4+  Ru99  1  0.50037536  -0.00173022  0.74989996  1
  Ru4+  Ru100  1  0.49919484  0.33499283  0.00072640  1
  Ru4+  Ru101  1  0.50395798  0.32787997  0.24926158  1
  Ru4+  Ru102  1  0.50047954  0.33165566  0.49771478  1
  Ru4+  Ru103  1  0.50061237  0.33452725  0.74995012  1
  Ru4+  Ru104  1  0.49975850  0.66841798  -0.00094844  1
  Ru4+  Ru105  1  0.50089446  0.66622489  0.24996340  1
  Ru4+  Ru106  1  0.50139529  0.66537145  0.49980098  1
  Ru4+  Ru107  1  0.49960329  0.66765184  0.75310294  1
  Ru4+  Ru108  1  0.11295024  0.16870290  -0.00013621  1
  Ru4+  Ru109  1  0.11191341  0.16766032  0.24866773  1
  Ru4+  Ru110  1  0.11203097  0.16793766  0.50018167  1
  Ru4+  Ru111  1  0.11131272  0.16378804  0.75206337  1
  Ru4+  Ru112  1  0.11344054  0.49577753  0.00303951  1
  Ru4+  Ru113  1  0.11122940  0.49981725  0.24950390  1
  Ru4+  Ru114  1  0.11300447  0.49736640  0.49994208  1
  Ru4+  Ru115  1  0.11651392  0.49722917  0.74693765  1
  Ru4+  Ru116  1  0.11055698  0.83299783  -0.00075977  1
  Ru4+  Ru117  1  0.11208790  0.83356037  0.24976983  1
  Ru4+  Ru118  1  0.11460343  0.83005511  0.49944159  1
  Ru4+  Ru119  1  0.11242520  0.83553330  0.75089805  1
  Ru4+  Ru120  1  0.61535953  0.16606606  0.00189696  1
  Ru4+  Ru121  1  0.61085831  0.16688463  0.24984366  1
  Ru4+  Ru122  1  0.60962109  0.16622520  0.49960417  1
  Ru4+  Ru123  1  0.61047671  0.16632933  0.74988807  1
  Ru4+  Ru124  1  0.61427599  0.49706230  0.00073787  1
  Ru4+  Ru125  1  0.61388245  0.49910996  0.24934566  1
  Ru4+  Ru126  1  0.61016588  0.50110159  0.49954373  1
  Ru4+  Ru127  1  0.61273674  0.49896302  0.74974294  1
  Ru4+  Ru128  1  0.61386989  0.83525981  0.00041566  1
  Ru4+  Ru129  1  0.61488241  0.83264878  0.25008637  1
  Ru4+  Ru130  1  0.61184976  0.83213395  0.49959123  1
  Ru4+  Ru131  1  0.61121632  0.83136880  0.74903912  1
  Ru4+  Ru132  1  0.38756625  0.16879762  -0.00022722  1
  Ru4+  Ru133  1  0.38716835  0.16962801  0.24979170  1
  Ru4+  Ru134  1  0.39196395  0.16663317  0.49912975  1
  Ru4+  Ru135  1  0.38721889  0.16569266  0.75001578  1
  Ru4+  Ru136  1  0.38496211  0.50118197  -0.00077289  1
  Ru4+  Ru137  1  0.38477312  0.50377573  0.25003822  1
  Ru4+  Ru138  1  0.38686182  0.49910384  0.50046794  1
  Ru4+  Ru139  1  0.38871151  0.49943874  0.74960582  1
  Ru4+  Ru140  1  0.39045577  0.83359703  -0.00080248  1
  Ru4+  Ru141  1  0.38706133  0.83340792  0.24968589  1
  Ru4+  Ru142  1  0.38529702  0.83225492  0.50049890  1
  Ru4+  Ru143  1  0.38984695  0.83414508  0.75068874  1
  Ru4+  Ru144  1  0.88471461  0.16107672  -0.00162493  1
  Ru4+  Ru145  1  0.88877766  0.16947459  0.25128722  1
  Ru4+  Ru146  1  0.88903047  0.16852178  0.50060307  1
  Ru4+  Ru147  1  0.88834442  0.16550643  0.74939907  1
  Ru4+  Ru148  1  0.88521908  0.49943994  0.00135497  1
  Ru4+  Ru149  1  0.88672459  0.49806744  0.25080215  1
  Ru4+  Ru150  1  0.88957775  0.50167844  0.49861786  1
  Ru4+  Ru151  1  0.88376401  0.49794139  0.74717975  1
  Ru4+  Ru152  1  0.88188189  0.82965295  -0.00067373  1
  Ru4+  Ru153  1  0.88537348  0.83620015  0.25057756  1
  Ru4+  Ru154  1  0.88500059  0.83064508  0.49993826  1
  Ru4+  Ru155  1  0.88563053  0.83365903  0.75199724  1
  Ru4+  Ru156  1  0.75013125  0.07109206  0.24598005  1
  Ru4+  Ru157  1  0.75029197  0.75481939  0.25540989  1
  Ru4+  Ru158  1  0.74979195  0.41631061  0.74974516  1
  Ru4+  Ru159  1  0.25008462  0.57410641  0.24984534  1
  Ru4+  Ru160  1  0.74959934  0.91008984  0.50615441  1
  Ru4+  Ru161  1  0.75021608  0.58171485  0.24423484  1
  Ru4+  Ru162  1  0.74943827  0.74940815  -0.00241715  1
  Ru4+  Ru163  1  0.25004951  0.06072635  0.24973492  1
  Ru4+  Ru164  1  0.24994955  0.96313752  0.00619210  1
  Ru4+  Ru165  1  0.24995406  0.58595198  0.49826438  1
  Ru4+  Ru166  1  0.74994551  0.58466229  0.00060673  1
  Ru4+  Ru167  1  0.24996233  0.70392080  -0.01510910  1
  Ru4+  Ru168  1  0.75035010  0.24587394  0.00439824  1
  Ru4+  Ru169  1  0.25012930  0.42193049  0.24341677  1
  Ru4+  Ru170  1  0.75005887  0.63073206  0.48345259  1
  Ru4+  Ru171  1  0.24995555  0.95761835  0.76353877  1
  Ru4+  Ru172  1  0.24995224  0.91414145  0.49632863  1
  Ru4+  Ru173  1  0.24978906  0.27005495  0.74980795  1
  Ru4+  Ru174  1  0.74991749  0.93542020  0.74120715  1
  Ru4+  Ru175  1  0.25007219  0.70370052  0.73097608  1
  Ru4+  Ru176  1  0.74997358  0.06320472  0.51371908  1
  Ru4+  Ru177  1  0.74998734  0.58438249  0.75145379  1
  Ru4+  Ru178  1  0.74984342  0.38531281  0.49982415  1
  Ru4+  Ru179  1  0.25012054  0.09040539  0.00821414  1
  O2-  O180  1  0.16700201  0.08067551  0.00110979  1
  O2-  O181  1  0.16698707  0.07957309  0.25014257  1
  O2-  O182  1  0.16753201  0.07976978  0.50016619  1
  O2-  O183  1  0.16529886  0.07857543  0.74966153  1
  O2-  O184  1  0.16804700  0.41447951  -0.00156861  1
  O2-  O185  1  0.16660651  0.41488712  0.25001694  1
  O2-  O186  1  0.16715193  0.41628834  0.50009567  1
  O2-  O187  1  0.16855110  0.41567796  0.75122510  1
  O2-  O188  1  0.16605555  0.74552372  -0.00071896  1
  O2-  O189  1  0.16873581  0.74813415  0.25051206  1
  O2-  O190  1  0.16576062  0.74887670  0.49976931  1
  O2-  O191  1  0.16721748  0.74554279  0.75025936  1
  O2-  O192  1  0.66660504  0.08237808  -0.00066057  1
  O2-  O193  1  0.66642732  0.08013992  0.25044996  1
  O2-  O194  1  0.66715433  0.07939058  0.50106085  1
  O2-  O195  1  0.66783141  0.07956144  0.74835037  1
  O2-  O196  1  0.66753481  0.41590045  -0.00033942  1
  O2-  O197  1  0.66543306  0.41529629  0.25096201  1
  O2-  O198  1  0.66603268  0.41192000  0.49980397  1
  O2-  O199  1  0.66765357  0.41460284  0.74982006  1
  O2-  O200  1  0.66860165  0.74702284  -0.00032216  1
  O2-  O201  1  0.66715322  0.74726661  0.24981384  1
  O2-  O202  1  0.66655396  0.74663571  0.49914603  1
  O2-  O203  1  0.66487383  0.74477997  0.75061783  1
  O2-  O204  1  0.33394009  0.25236882  0.00004394  1
  O2-  O205  1  0.33720467  0.25429120  0.25050877  1
  O2-  O206  1  0.33286995  0.25282766  0.50048244  1
  O2-  O207  1  0.33393218  0.25333518  0.75010649  1
  O2-  O208  1  0.33257884  0.58541676  -0.00085244  1
  O2-  O209  1  0.33323975  0.58529414  0.25008409  1
  O2-  O210  1  0.33355091  0.58490277  0.49974375  1
  O2-  O211  1  0.33264186  0.58670092  0.75052173  1
  O2-  O212  1  0.33392068  0.92115343  -0.00005714  1
  O2-  O213  1  0.33121191  0.91984242  0.25004762  1
  O2-  O214  1  0.33269071  0.91827635  0.49923277  1
  O2-  O215  1  0.33391431  0.92021520  0.75024577  1
  O2-  O216  1  0.83370275  0.25257240  0.00123271  1
  O2-  O217  1  0.83324251  0.25320284  0.24869851  1
  O2-  O218  1  0.83400039  0.25302066  0.49966119  1
  O2-  O219  1  0.83175121  0.25376397  0.74902919  1
  O2-  O220  1  0.83127452  0.58607994  0.00159725  1
  O2-  O221  1  0.83221607  0.58643901  0.24915514  1
  O2-  O222  1  0.83208007  0.58751358  0.50042316  1
  O2-  O223  1  0.83246072  0.58569052  0.74952432  1
  O2-  O224  1  0.83212182  0.91612406  0.00056314  1
  O2-  O225  1  0.83279144  0.91789377  0.24958451  1
  O2-  O226  1  0.83223467  0.91939560  0.50028071  1
  O2-  O227  1  0.83364477  0.92018776  0.74866819  1
  O2-  O228  1  0.16659951  0.25196588  0.00006731  1
  O2-  O229  1  0.16440545  0.25405094  0.25055679  1
  O2-  O230  1  0.16710895  0.25181058  0.49984288  1
  O2-  O231  1  0.16747766  0.25301090  0.75040470  1
  O2-  O232  1  0.16544902  0.58592979  -0.00193136  1
  O2-  O233  1  0.16703786  0.58550766  0.24986846  1
  O2-  O234  1  0.16640421  0.58526508  0.49971126  1
  O2-  O235  1  0.16753297  0.58573919  0.75116078  1
  O2-  O236  1  0.16630594  0.92163084  0.00038787  1
  O2-  O237  1  0.16981578  0.91962037  0.24890559  1
  O2-  O238  1  0.16736133  0.92019142  0.49921834  1
  O2-  O239  1  0.16701580  0.92049536  0.75024886  1
  O2-  O240  1  0.66712571  0.25253340  -0.00086870  1
  O2-  O241  1  0.66565145  0.25364692  0.25014636  1
  O2-  O242  1  0.66568190  0.25317952  0.49988748  1
  O2-  O243  1  0.66791693  0.25400082  0.74901884  1
  O2-  O244  1  0.66835473  0.58649427  -0.00048638  1
  O2-  O245  1  0.66768677  0.58677101  0.25106979  1
  O2-  O246  1  0.66632748  0.58731893  0.49931753  1
  O2-  O247  1  0.66688913  0.58646814  0.75070651  1
  O2-  O248  1  0.66575290  0.91715064  0.00009689  1
  O2-  O249  1  0.66777299  0.91817086  0.24933409  1
  O2-  O250  1  0.66835825  0.91958157  0.50094387  1
  O2-  O251  1  0.66622127  0.92024872  0.74932412  1
  O2-  O252  1  0.33267190  0.07963114  0.00046086  1
  O2-  O253  1  0.33154657  0.07865872  0.24965271  1
  O2-  O254  1  0.33262350  0.08056527  0.49978429  1
  O2-  O255  1  0.33460788  0.07814775  0.75094259  1
  O2-  O256  1  0.33411255  0.41439735  -0.00073051  1
  O2-  O257  1  0.33281893  0.41401187  0.25025337  1
  O2-  O258  1  0.33389859  0.41484410  0.50027091  1
  O2-  O259  1  0.33331140  0.41403494  0.75030604  1
  O2-  O260  1  0.33421019  0.74599069  -0.00029106  1
  O2-  O261  1  0.33213365  0.74728386  0.25051182  1
  O2-  O262  1  0.33331235  0.74890558  0.49998619  1
  O2-  O263  1  0.33383886  0.74558636  0.74974522  1
  O2-  O264  1  0.83335362  0.08236081  0.00002608  1
  O2-  O265  1  0.83399051  0.07982993  0.25020453  1
  O2-  O266  1  0.83308530  0.07904888  0.50066526  1
  O2-  O267  1  0.83233920  0.08064915  0.74837153  1
  O2-  O268  1  0.83351808  0.41464516  0.00108655  1
  O2-  O269  1  0.83372263  0.41593191  0.24877962  1
  O2-  O270  1  0.83452030  0.41245773  0.50030783  1
  O2-  O271  1  0.83220331  0.41390105  0.74940880  1
  O2-  O272  1  0.83027768  0.74701044  0.00092456  1
  O2-  O273  1  0.83146342  0.74715241  0.24759628  1
  O2-  O274  1  0.83208229  0.74833867  0.49968314  1
  O2-  O275  1  0.83434441  0.74457577  0.74845765  1
  O2-  O276  1  0.45398583  0.43186952  0.98950996  1
  O2-  O277  1  0.04827063  0.90850600  0.20908474  1
  O2-  O278  1  0.95033156  0.23512166  0.01847799  1
  O2-  O279  1  0.54699861  0.43450898  0.48579187  1
  O2-  O280  1  0.54582596  0.90330158  0.73552862  1
  O2-  O281  1  0.04616690  0.56873963  0.23847726  1
  O2-  O282  1  0.96203837  0.88539148  0.00086317  1
  O2-  O283  1  0.45481810  0.23415350  0.73739073  1
  O2-  O284  1  0.94497708  0.58107171  0.77078222  1
  O2-  O285  1  0.95614126  0.77138824  0.72366228  1
  O2-  O286  1  0.04768427  0.09871911  0.51288713  1
  O2-  O287  1  0.05109855  0.90193156  0.98835331  1
  O2-  O288  1  0.95360310  0.90518608  0.76411226  1
  O2-  O289  1  0.95227035  0.09832246  0.51546080  1
  O2-  O290  1  0.45245840  0.43386192  0.51428615  1
  O2-  O291  1  0.04191066  0.77474803  0.78208339  1
  O2-  O292  1  0.45483060  0.23695248  0.50514437  1
  O2-  O293  1  0.95540681  0.09767375  0.23518796  1
  O2-  O294  1  0.45487376  0.89962098  0.98680373  1
  O2-  O295  1  0.45080598  0.90177452  0.23743120  1
  O2-  O296  1  0.05458382  0.42088701  0.02161502  1
  O2-  O297  1  0.54520878  0.23352910  0.23809423  1
  O2-  O298  1  0.05054575  0.23714890  0.78882684  1
  O2-  O299  1  0.45475211  0.76230798  0.23800943  1
  O2-  O300  1  0.04662835  0.56959745  0.72933116  1
  O2-  O301  1  0.54683363  0.43512834  0.23708239  1
  O2-  O302  1  0.45457597  0.76484797  0.76371133  1
  O2-  O303  1  0.04644835  0.56806335  0.48734471  1
  O2-  O304  1  0.96198399  0.88547696  1.00062705  1
  O2-  O305  1  0.45065502  0.43185244  0.23347158  1
  O2-  O306  1  0.03325831  0.44221377  0.73881741  1
  O2-  O307  1  0.04686732  0.23282881  0.98888961  1
  O2-  O308  1  0.04802681  0.57514492  0.76800857  1
  O2-  O309  1  0.05799017  0.74786599  0.27602760  1
  O2-  O310  1  0.04563943  0.42919132  0.23495266  1
  O2-  O311  1  0.04803658  0.90295257  0.51040042  1
  O2-  O312  1  0.54897765  0.09947523  0.48805213  1
  O2-  O313  1  0.95116391  0.42979681  0.98781272  1
  O2-  O314  1  0.45439947  0.23600809  0.49555917  1
  O2-  O315  1  0.95219090  0.90184688  0.48761661  1
  O2-  O316  1  0.53896422  0.55429235  0.97016386  1
  O2-  O317  1  0.45168626  0.09513226  0.48746998  1
  O2-  O318  1  0.54228049  0.89132776  0.21781178  1
  O2-  O319  1  0.54501787  0.56748407  0.76178197  1
  O2-  O320  1  0.54780472  0.24160442  0.95846229  1
  O2-  O321  1  0.95209908  0.23345465  0.73643785  1
  O2-  O322  1  0.53769388  0.10685839  0.97179694  1
  O2-  O323  1  0.95017611  0.76064826  0.20950045  1
  O2-  O324  1  0.57423102  0.93931748  0.29544788  1
  O2-  O325  1  0.56558520  0.40787093  0.02796585  1
  O2-  O326  1  0.92608944  0.94402587  0.93606535  1
  O2-  O327  1  0.92702381  0.72985134  0.79423452  1
  O2-  O328  1  0.93470815  0.92598048  0.27831324  1
  O2-  O329  1  0.57202343  0.61146389  0.05380965  1
  O2-  O330  1  0.93393443  0.59332771  0.97334796  1
  O2-  O331  1  0.55540100  0.25110087  0.94986501  1
  O2-  O332  1  0.93463151  0.59225950  0.27683123  1
  O2-  O333  1  0.07441278  0.26181763  0.68099981  1
  O2-  O334  1  0.93355082  0.40899181  0.69954552  1
  O2-  O335  1  0.05624919  0.91885795  0.20045867  1
  O2-  O336  1  0.06489194  0.07359312  0.77704053  1
  O2-  O337  1  0.06524406  0.40528260  0.47148144  1
  O2-  O338  1  0.56435859  0.73560398  0.71591503  1
  O2-  O339  1  0.43670430  0.06767013  0.68697972  1
  O2-  O340  1  0.94320360  0.58405784  0.77229995  1
  O2-  O341  1  0.93670268  0.26137872  0.28126623  1
  O2-  O342  1  0.92721766  0.94644409  0.06457015  1
  O2-  O343  1  0.06647405  0.92581321  0.77817001  1
  O2-  O344  1  0.94320566  0.74800817  0.20299975  1
  O2-  O345  1  0.43544806  0.59820902  0.96618377  1
  O2-  O346  1  0.92409421  0.73771055  0.31898928  1
  O2-  O347  1  0.56502591  0.40579494  0.72233000  1
  O2-  O348  1  0.43348352  0.07585057  0.80471044  1
  O2-  O349  1  0.57528752  0.26477771  0.07273857  1
  O2-  O350  1  0.05828693  0.41460433  0.02559692  1
  O2-  O351  1  0.05588762  0.24676938  0.79353011  1
  O2-  O352  1  0.57063238  0.05604315  0.05384812  1
  O2-  O353  1  0.93760775  0.07278373  0.96877039  1
  O2-  O354  1  0.93815163  0.26160430  0.03683448  1
  O2-  O355  1  0.93310814  0.40209857  0.80644378  1
  O2-  O356  1  0.06243686  0.26251215  0.21521908  1
  O2-  O357  1  0.93372818  0.74068314  0.97265131  1
  O2-  O358  1  0.43476142  0.92666843  0.47270477  1
  O2-  O359  1  0.43771111  0.40380099  0.21890911  1
  O2-  O360  1  0.07043552  0.94070199  0.32806866  1
  O2-  O361  1  0.05338559  0.75654745  0.26916617  1
  O2-  O362  1  0.07760816  0.39218681  0.71435413  1
  O2-  O363  1  0.43632013  0.73548570  0.43676376  1
  O2-  O364  1  0.93592855  0.40496721  0.28305573  1
  O2-  O365  1  0.43323569  0.07547898  0.29656851  1
  O2-  O366  1  0.56346693  0.59804253  0.21835853  1
  O2-  O367  1  0.43396241  0.07324222  0.20232402  1
  O2-  O368  1  0.43667426  0.73603294  0.56306176  1
  O2-  O369  1  0.93312978  0.59118102  0.47180708  1
  O2-  O370  1  0.93491988  0.73979002  0.52804436  1
  O2-  O371  1  0.07221983  0.72271616  0.69631336  1
  O2-  O372  1  0.74992120  0.33236566  0.32072815  1
  O2-  O373  1  0.24997521  0.00273913  0.56958106  1
  O2-  O374  1  0.74985229  -0.01047358  0.16459535  1
  O2-  O375  1  0.24996696  0.66476776  0.59382036  1
  O2-  O376  1  0.25001713  0.65397503  0.08979196  1
  O2-  O377  1  0.25024962  0.33327127  0.41942788  1
  O2-  O378  1  0.74998344  0.33007685  0.82912468  1
  O2-  O379  1  0.24995783  0.66434219  0.40535302  1
  O2-  O380  1  0.74997418  0.31414673  0.40837278  1
  O2-  O381  1  0.25009027  0.33709361  0.84705879  1
  O2-  O382  1  0.74982989  -0.00721381  0.41925339  1
  O2-  O383  1  0.25035857  0.33236226  0.32874198  1
  O2-  O384  1  0.25028255  0.33492527  0.65383270  1
  O2-  O385  1  0.75001362  0.32510753  0.60513047  1
  O2-  O386  1  0.25012440  0.33557311  0.15884277  1
  O2-  O387  1  0.74984836  -0.00101105  0.92078797  1
  O2-  O388  1  0.25009406  0.67000709  0.17805481  1
  O2-  O389  1  0.74985856  0.00092874  0.07825902  1
  O2-  O390  1  0.74985435  0.66805088  0.60010575  1
  O2-  O391  1  0.75008092  0.33568363  0.92023374  1
  O2-  O392  1  0.74994587  0.00820304  0.83281726  1
  O2-  O393  1  0.25013771  0.01285418  0.66082886  1
  O2-  O394  1  0.74978412  -0.01108870  0.32848969  1
  O2-  O395  1  0.24987107  0.66285342  0.85074560  1
  O2-  O396  1  0.75000535  0.50146878  0.83173012  1
  O2-  O397  1  0.74997599  0.50082222  0.40362967  1
  O2-  O398  1  0.25014418  0.49677665  0.56599684  1
  O2-  O399  1  0.25001807  0.17423765  0.94020236  1
  O2-  O400  1  0.24990474  0.83304567  0.65384695  1
  O2-  O401  1  0.75006724  0.49860690  0.91982027  1
  O2-  O402  1  0.24999873  0.50141548  0.34115451  1
  O2-  O403  1  0.74997959  0.49994979  0.66985673  1
  O2-  O404  1  0.25004030  0.15580019  0.12149155  1
  O2-  O405  1  0.74989069  0.82830150  0.33692384  1
  O2-  O406  1  0.74996585  0.84557700  0.62385730  1
  O2-  O407  1  0.24999212  0.15707143  0.36921457  1
  O2-  O408  1  0.74995038  0.83692291  0.87685223  1
  O2-  O409  1  0.24997310  0.50177284  0.65337453  1
  O2-  O410  1  0.74996793  0.17020253  0.09285651  1
  O2-  O411  1  0.74998805  0.16159762  0.93342105  1
  O2-  O412  1  0.25000489  0.17672452  0.85581215  1
  O2-  O413  1  0.75003057  0.16854046  0.84739983  1
  O2-  O414  1  0.25012136  0.49910617  0.10045413  1
  O2-  O415  1  0.25002116  0.17734118  0.62665215  1
  O2-  O416  1  0.74990140  0.50484552  0.15943156  1
  O2-  O417  1  0.74994827  0.49682917  0.31725490  1
  O2-  O418  1  0.25005845  0.82868322  0.56538520  1
  O2-  O419  1  0.25008712  0.83391819  0.11378671  1
  O2-  O420  1  0.47466437  -0.00222385  0.11781633  1
  O2-  O421  1  0.47176135  0.33280263  0.87395627  1
  O2-  O422  1  0.96866698  0.32684100  0.61531799  1
  O2-  O423  1  0.52817497  0.66905628  0.87656392  1
  O2-  O424  1  0.46695488  0.33516114  0.62703809  1
  O2-  O425  1  0.53831342  -0.00088519  0.87394359  1
  O2-  O426  1  0.97382997  0.00435904  0.37793632  1
  O2-  O427  1  0.98247424  0.66711386  0.87822139  1
  O2-  O428  1  0.02839660  0.33593198  0.61155570  1
  O2-  O429  1  0.02636219  0.34228013  0.87804189  1
  O2-  O430  1  0.47185023  0.66577458  0.12217240  1
  O2-  O431  1  0.03286696  0.66474607  0.38125791  1
  O2-  O432  1  0.47183896  -0.00502265  0.37527307  1
  O2-  O433  1  0.53095841  0.32871477  0.62064164  1
  O2-  O434  1  0.02443720  0.00175396  0.88008046  1
  O2-  O435  1  0.46539965  -0.00408024  0.88275680  1
  O2-  O436  1  0.02754375  0.66808300  0.12055486  1
  O2-  O437  1  0.52035190  0.33631618  0.13144935  1
  O2-  O438  1  0.97399658  0.66390332  0.62565676  1
  O2-  O439  1  0.02543832  0.32975631  0.37357865  1
  O2-  O440  1  0.53090634  0.00378861  0.38025499  1
  O2-  O441  1  0.52684159  0.33308278  0.37466691  1
  O2-  O442  1  0.02706612  -0.00014084  0.62699279  1
  O2-  O443  1  0.97486078  0.66600175  0.38145731  1
