# generated using pymatgen
data_La7(Ru4O11)2
_symmetry_space_group_name_H-M   'P 1'
_cell_length_a   23.99272817
_cell_length_b   16.83365088
_cell_length_c   15.42753278
_cell_angle_alpha   89.99853367
_cell_angle_beta   90.00027726
_cell_angle_gamma   89.99820114
_symmetry_Int_Tables_number   1
_chemical_formula_structural   La7(Ru4O11)2
_chemical_formula_sum   'La84 Ru96 O264'
_cell_volume   6230.95230539
_cell_formula_units_Z   12
loop_
 _symmetry_equiv_pos_site_id
 _symmetry_equiv_pos_as_xyz
  1  'x, y, z'
loop_
 _atom_type_symbol
 _atom_type_oxidation_number
  La3+  3.0
  Ru4+  4.0
  O2-  -2.0
loop_
 _atom_site_type_symbol
 _atom_site_label
 _atom_site_symmetry_multiplicity
 _atom_site_fract_x
 _atom_site_fract_y
 _atom_site_fract_z
 _atom_site_occupancy
  La3+  La0  1  0.14090717  -0.00673923  0.12863132  1
  La3+  La1  1  0.14336995  -0.00460174  0.37241583  1
  La3+  La2  1  0.13712061  -0.00158035  0.62964340  1
  La3+  La3  1  0.14273755  -0.00303557  0.86829460  1
  La3+  La4  1  0.13637696  0.33439218  0.11935315  1
  La3+  La5  1  0.13737148  0.33252218  0.37938202  1
  La3+  La6  1  0.13624696  0.33056236  0.62490634  1
  La3+  La7  1  0.13281753  0.33334916  0.87293625  1
  La3+  La8  1  0.14113216  0.66423739  0.12689690  1
  La3+  La9  1  0.14416313  0.66368660  0.37665655  1
  La3+  La10  1  0.14622197  0.67081990  0.62560646  1
  La3+  La11  1  0.14529846  0.67374023  0.88043562  1
  La3+  La12  1  0.63524285  -0.00383690  0.12879114  1
  La3+  La13  1  0.63566628  -0.00580642  0.37078203  1
  La3+  La14  1  0.63830593  -0.00535206  0.62056606  1
  La3+  La15  1  0.63876253  -0.00140888  0.87405811  1
  La3+  La16  1  0.64050379  0.33633637  0.12464898  1
  La3+  La17  1  0.63431186  0.34144661  0.38393257  1
  La3+  La18  1  0.63605685  0.34066655  0.61614235  1
  La3+  La19  1  0.63889959  0.33325967  0.88028213  1
  La3+  La20  1  0.64391060  0.66817050  0.12538023  1
  La3+  La21  1  0.64162339  0.66418851  0.37953363  1
  La3+  La22  1  0.62508493  0.66302026  0.61858447  1
  La3+  La23  1  0.63359012  0.66939101  0.87400700  1
  La3+  La24  1  0.34833530  -0.00928171  0.12729490  1
  La3+  La25  1  0.36373194  0.00512905  0.37722148  1
  La3+  La26  1  0.36373637  0.00059310  0.62409583  1
  La3+  La27  1  0.35450356  -0.00285197  0.86572282  1
  La3+  La28  1  0.36615079  0.34334162  0.12508350  1
  La3+  La29  1  0.36951230  0.33754294  0.37628027  1
  La3+  La30  1  0.36584420  0.33669245  0.61730916  1
  La3+  La31  1  0.36354280  0.33357057  0.87664300  1
  La3+  La32  1  0.36058401  0.66152648  0.12123489  1
  La3+  La33  1  0.36041970  0.66419632  0.37996082  1
  La3+  La34  1  0.35972154  0.66726161  0.62643349  1
  La3+  La35  1  0.36067923  0.66489288  0.87711167  1
  La3+  La36  1  0.86642107  -0.00002190  0.12745241  1
  La3+  La37  1  0.85720200  -0.00417286  0.37444136  1
  La3+  La38  1  0.85602795  -0.00171661  0.61613945  1
  La3+  La39  1  0.85986159  0.00229154  0.87654445  1
  La3+  La40  1  0.86512470  0.32960745  0.12019011  1
  La3+  La41  1  0.85693867  0.33697116  0.37898678  1
  La3+  La42  1  0.86186712  0.33138157  0.62346431  1
  La3+  La43  1  0.86725610  0.32354738  0.87640352  1
  La3+  La44  1  0.85908260  0.66841632  0.12903908  1
  La3+  La45  1  0.85591625  0.66959074  0.37276975  1
  La3+  La46  1  0.86817509  0.66708977  0.62268128  1
  La3+  La47  1  0.86763187  0.66666152  0.87255375  1
  La3+  La48  1  0.50303836  0.16868889  0.59612506  1
  La3+  La49  1  -0.00284696  0.17436663  0.89276828  1
  La3+  La50  1  0.00019840  0.16978733  0.63521156  1
  La3+  La51  1  0.50115463  0.83338226  0.37533497  1
  La3+  La52  1  0.49951896  0.50228775  0.12979412  1
  La3+  La53  1  -0.00089604  0.17653386  0.87592588  1
  La3+  La54  1  0.00590785  0.50497000  0.37739057  1
  La3+  La55  1  0.50176072  0.49817958  0.88303756  1
  La3+  La56  1  0.50460447  0.82894708  0.13762973  1
  La3+  La57  1  -0.00447970  0.17303481  0.37941407  1
  La3+  La58  1  0.49954383  0.16431735  0.88924222  1
  La3+  La59  1  0.49816760  0.16561067  0.86720050  1
  La3+  La60  1  0.49975544  0.83399255  0.85954350  1
  La3+  La61  1  0.00033282  0.83515347  0.36465731  1
  La3+  La62  1  0.00095996  0.49976767  0.35721019  1
  La3+  La63  1  0.49858828  0.50351609  0.86760662  1
  La3+  La64  1  0.00194957  0.50358675  0.62995189  1
  La3+  La65  1  0.49897771  0.50082659  0.38399969  1
  La3+  La66  1  -0.00202574  0.82627999  0.62498228  1
  La3+  La67  1  0.50975063  0.83632945  0.60937061  1
  La3+  La68  1  0.50268331  0.83854356  0.11801255  1
  La3+  La69  1  0.49738718  0.16576247  0.13962544  1
  La3+  La70  1  0.49964740  0.16353070  0.61691996  1
  La3+  La71  1  -0.00528531  0.16369737  0.35945391  1
  La3+  La72  1  0.75010280  0.20641310  0.70783938  1
  La3+  La73  1  0.75124014  0.15957839  0.49213173  1
  La3+  La74  1  0.74930145  0.78134504  0.76913937  1
  La3+  La75  1  0.24835953  0.49701603  0.81622579  1
  La3+  La76  1  0.24822226  0.12233291  0.22539014  1
  La3+  La77  1  0.74830623  0.90166553  0.00957129  1
  La3+  La78  1  0.75236006  0.15468842  0.23987014  1
  La3+  La79  1  0.24783627  0.16127713  0.75263663  1
  La3+  La80  1  0.25115838  0.19256858  0.04287188  1
  La3+  La81  1  0.24892195  0.47247268  0.25437749  1
  La3+  La82  1  0.75392044  0.55393735  -0.01531055  1
  La3+  La83  1  0.74988201  0.49785499  0.72133475  1
  Ru4+  Ru84  1  0.00055535  0.00136524  0.01014554  1
  Ru4+  Ru85  1  -0.00282557  -0.00650330  0.22518904  1
  Ru4+  Ru86  1  -0.00115013  -0.00014922  0.50595948  1
  Ru4+  Ru87  1  0.00450036  0.00448170  0.75238028  1
  Ru4+  Ru88  1  0.00156262  0.34206949  0.00967008  1
  Ru4+  Ru89  1  -0.00067518  0.33518469  0.24666803  1
  Ru4+  Ru90  1  -0.00254291  0.33417562  0.49468314  1
  Ru4+  Ru91  1  0.00268720  0.34493986  0.75545407  1
  Ru4+  Ru92  1  0.00591608  0.66516510  0.00471577  1
  Ru4+  Ru93  1  -0.00894539  0.66993093  0.24150927  1
  Ru4+  Ru94  1  -0.00037021  0.67131405  0.50880256  1
  Ru4+  Ru95  1  0.00102755  0.65676854  0.76493723  1
  Ru4+  Ru96  1  0.50522548  0.00045341  0.00445926  1
  Ru4+  Ru97  1  0.48993921  0.00797406  0.26133402  1
  Ru4+  Ru98  1  0.50613584  -0.00359239  0.48645277  1
  Ru4+  Ru99  1  0.49816133  -0.00330376  0.74698683  1
  Ru4+  Ru100  1  0.49323419  0.33040748  -0.00227019  1
  Ru4+  Ru101  1  0.49975259  0.32205321  0.25156037  1
  Ru4+  Ru102  1  0.50131835  0.32619200  0.48599721  1
  Ru4+  Ru103  1  0.50495707  0.33882302  0.75395635  1
  Ru4+  Ru104  1  0.49859311  0.66577903  0.00782667  1
  Ru4+  Ru105  1  0.50360084  0.67269947  0.24818079  1
  Ru4+  Ru106  1  0.49330411  0.66526861  0.51679201  1
  Ru4+  Ru107  1  0.49759814  0.66652947  0.74925006  1
  Ru4+  Ru108  1  0.10988029  0.16561907  0.00388312  1
  Ru4+  Ru109  1  0.10830648  0.16710927  0.24900191  1
  Ru4+  Ru110  1  0.11427287  0.17263530  0.50458853  1
  Ru4+  Ru111  1  0.10399181  0.16573401  0.74919140  1
  Ru4+  Ru112  1  0.10810485  0.51212113  0.00129936  1
  Ru4+  Ru113  1  0.10980501  0.49276995  0.25027268  1
  Ru4+  Ru114  1  0.11013003  0.50191757  0.49709795  1
  Ru4+  Ru115  1  0.09879587  0.51876995  0.75568452  1
  Ru4+  Ru116  1  0.10838392  0.83020437  0.00208862  1
  Ru4+  Ru117  1  0.11281963  0.84002232  0.25408669  1
  Ru4+  Ru118  1  0.11163140  0.83078980  0.49992960  1
  Ru4+  Ru119  1  0.11286365  0.82957013  0.75020819  1
  Ru4+  Ru120  1  0.61271282  0.16497511  0.00400087  1
  Ru4+  Ru121  1  0.61834812  0.17113187  0.24485195  1
  Ru4+  Ru122  1  0.61470021  0.16545171  0.49383422  1
  Ru4+  Ru123  1  0.61420917  0.17288881  0.74762120  1
  Ru4+  Ru124  1  0.61536695  0.50593513  0.00239675  1
  Ru4+  Ru125  1  0.61422055  0.49665657  0.24424429  1
  Ru4+  Ru126  1  0.61990728  0.50060900  0.50277209  1
  Ru4+  Ru127  1  0.61218375  0.49540883  0.75467712  1
  Ru4+  Ru128  1  0.60880750  0.83518312  0.00180890  1
  Ru4+  Ru129  1  0.62015081  0.83020853  0.25201297  1
  Ru4+  Ru130  1  0.61325177  0.83577804  0.49681061  1
  Ru4+  Ru131  1  0.61958705  0.83468460  0.75631403  1
  Ru4+  Ru132  1  0.38587533  0.16224620  -0.00065993  1
  Ru4+  Ru133  1  0.38784538  0.16885066  0.24719547  1
  Ru4+  Ru134  1  0.38241895  0.17423997  0.49746613  1
  Ru4+  Ru135  1  0.38430784  0.16522758  0.75143095  1
  Ru4+  Ru136  1  0.38214160  0.49903060  -0.00296360  1
  Ru4+  Ru137  1  0.38278294  0.50174262  0.24763601  1
  Ru4+  Ru138  1  0.38675113  0.51064606  0.50825871  1
  Ru4+  Ru139  1  0.38268593  0.49011655  0.74879328  1
  Ru4+  Ru140  1  0.38658483  0.83626446  -0.00297557  1
  Ru4+  Ru141  1  0.38590026  0.83361620  0.25458919  1
  Ru4+  Ru142  1  0.38649633  0.83138612  0.50075853  1
  Ru4+  Ru143  1  0.38757024  0.82559779  0.74896099  1
  Ru4+  Ru144  1  0.88244918  0.16345153  0.00057165  1
  Ru4+  Ru145  1  0.89458622  0.16697273  0.25473163  1
  Ru4+  Ru146  1  0.89616253  0.16900976  0.49926370  1
  Ru4+  Ru147  1  0.88759307  0.15900004  0.74663789  1
  Ru4+  Ru148  1  0.89461471  0.49625244  0.00129932  1
  Ru4+  Ru149  1  0.88909431  0.50082021  0.24774278  1
  Ru4+  Ru150  1  0.88481683  0.49735010  0.50031316  1
  Ru4+  Ru151  1  0.89079833  0.49992872  0.75246581  1
  Ru4+  Ru152  1  0.89089260  0.83451175  -0.00542096  1
  Ru4+  Ru153  1  0.88655486  0.83778287  0.24998318  1
  Ru4+  Ru154  1  0.88598417  0.83498511  0.49950343  1
  Ru4+  Ru155  1  0.89316202  0.83234789  0.74904481  1
  Ru4+  Ru156  1  0.75096107  0.40340398  -0.01053070  1
  Ru4+  Ru157  1  0.25004954  0.90470255  0.51453474  1
  Ru4+  Ru158  1  0.24893741  0.62238327  0.24846968  1
  Ru4+  Ru159  1  0.24927605  0.31220508  -0.04255503  1
  Ru4+  Ru160  1  0.75026517  0.74205581  -0.00347899  1
  Ru4+  Ru161  1  0.24927599  0.76498729  0.24991294  1
  Ru4+  Ru162  1  0.24957013  0.76147335  0.49702441  1
  Ru4+  Ru163  1  0.75257309  0.93305169  0.72754354  1
  Ru4+  Ru164  1  0.24933520  0.42112114  0.49512535  1
  Ru4+  Ru165  1  0.75116505  0.29961871  0.26455313  1
  Ru4+  Ru166  1  0.74942187  0.63950161  0.74660270  1
  Ru4+  Ru167  1  0.75045857  0.35875262  0.77144290  1
  Ru4+  Ru168  1  0.24930799  0.26538126  0.27503483  1
  Ru4+  Ru169  1  0.24835014  0.38306891  0.72005037  1
  Ru4+  Ru170  1  0.74926488  0.08905578  0.00397740  1
  Ru4+  Ru171  1  0.24869905  0.89299917  -0.01139267  1
  Ru4+  Ru172  1  0.74921098  0.57951330  0.25551597  1
  Ru4+  Ru173  1  0.74921801  0.06826461  0.75891474  1
  Ru4+  Ru174  1  0.25149748  0.63463708  0.74940364  1
  Ru4+  Ru175  1  0.25034338  0.75264442  0.00148631  1
  Ru4+  Ru176  1  0.24953296  0.08051831  0.50102005  1
  Ru4+  Ru177  1  0.75191648  -0.00010962  0.23845515  1
  Ru4+  Ru178  1  0.74948238  0.76684659  0.47388172  1
  Ru4+  Ru179  1  0.24791954  0.06059178  -0.01267833  1
  O2-  O180  1  0.16356709  0.07890302  -0.00094653  1
  O2-  O181  1  0.16111088  0.07812232  0.25468929  1
  O2-  O182  1  0.16440911  0.08053435  0.50238153  1
  O2-  O183  1  0.16461618  0.08071631  0.74417342  1
  O2-  O184  1  0.15620135  0.41876051  -0.00323915  1
  O2-  O185  1  0.16079269  0.41097431  0.25453346  1
  O2-  O186  1  0.16466662  0.41113907  0.50068493  1
  O2-  O187  1  0.16505058  0.41499633  0.75166921  1
  O2-  O188  1  0.16872052  0.75083393  0.00493219  1
  O2-  O189  1  0.16306517  0.74905571  0.25104361  1
  O2-  O190  1  0.16753438  0.75053350  0.49701376  1
  O2-  O191  1  0.16557414  0.74926318  0.75171350  1
  O2-  O192  1  0.66833526  0.07738732  0.00078809  1
  O2-  O193  1  0.67268346  0.07785068  0.25422580  1
  O2-  O194  1  0.67279918  0.08225799  0.49978647  1
  O2-  O195  1  0.66509562  0.08008646  0.74932376  1
  O2-  O196  1  0.66611335  0.41430666  -0.00340113  1
  O2-  O197  1  0.66074488  0.41242722  0.25163483  1
  O2-  O198  1  0.66855331  0.41589342  0.50283089  1
  O2-  O199  1  0.66654402  0.41011351  0.74941307  1
  O2-  O200  1  0.66721337  0.74795418  -0.00435221  1
  O2-  O201  1  0.66381148  0.74332924  0.25158457  1
  O2-  O202  1  0.66838618  0.74640568  0.50150364  1
  O2-  O203  1  0.65952635  0.73690301  0.74464217  1
  O2-  O204  1  0.33390280  0.25509517  0.00338730  1
  O2-  O205  1  0.33291147  0.25556601  0.25595744  1
  O2-  O206  1  0.33401098  0.25875298  0.50097536  1
  O2-  O207  1  0.33326065  0.25375658  0.74367923  1
  O2-  O208  1  0.32924800  0.58206963  -0.00461793  1
  O2-  O209  1  0.32935316  0.58703021  0.24988927  1
  O2-  O210  1  0.33091727  0.58477401  0.50619012  1
  O2-  O211  1  0.32975228  0.58698573  0.75377441  1
  O2-  O212  1  0.33191715  0.91566472  -0.00478168  1
  O2-  O213  1  0.33820567  0.91719170  0.25691303  1
  O2-  O214  1  0.33298128  0.91864972  0.50442187  1
  O2-  O215  1  0.33902117  0.91569381  0.74397415  1
  O2-  O216  1  0.83689188  0.25178952  0.00135665  1
  O2-  O217  1  0.83470940  0.25694941  0.25040585  1
  O2-  O218  1  0.82996940  0.25249535  0.50208050  1
  O2-  O219  1  0.83620751  0.25384689  0.74975271  1
  O2-  O220  1  0.84665244  0.58997485  -0.00029087  1
  O2-  O221  1  0.83215238  0.58784313  0.25289692  1
  O2-  O222  1  0.83539929  0.58684355  0.50557843  1
  O2-  O223  1  0.82972184  0.58552886  0.74616244  1
  O2-  O224  1  0.83994622  0.92491944  0.00543052  1
  O2-  O225  1  0.82999854  0.92359104  0.24775013  1
  O2-  O226  1  0.83603769  0.91931900  0.49845946  1
  O2-  O227  1  0.83600784  0.91806945  0.74791131  1
  O2-  O228  1  0.16838520  0.25388404  -0.00185395  1
  O2-  O229  1  0.16475749  0.25191819  0.25207264  1
  O2-  O230  1  0.16869168  0.25376751  0.50099715  1
  O2-  O231  1  0.16570087  0.25260493  0.74700823  1
  O2-  O232  1  0.17090995  0.57944915  -0.00356259  1
  O2-  O233  1  0.16860345  0.58824465  0.25061798  1
  O2-  O234  1  0.16080155  0.58516470  0.50033433  1
  O2-  O235  1  0.17389931  0.58571508  0.75623784  1
  O2-  O236  1  0.16489895  0.91383614  -0.00227174  1
  O2-  O237  1  0.16612873  0.91710525  0.25128813  1
  O2-  O238  1  0.16963529  0.91843566  0.50321900  1
  O2-  O239  1  0.15974774  0.91939619  0.74578842  1
  O2-  O240  1  0.65992180  0.25126761  -0.00012651  1
  O2-  O241  1  0.66894656  0.25971894  0.25410318  1
  O2-  O242  1  0.67150726  0.25184906  0.50361176  1
  O2-  O243  1  0.66719544  0.25702410  0.75329120  1
  O2-  O244  1  0.66290225  0.59338036  -0.00368496  1
  O2-  O245  1  0.66278426  0.58679867  0.25228470  1
  O2-  O246  1  0.66787750  0.58488056  0.50642316  1
  O2-  O247  1  0.66756694  0.58863432  0.74990366  1
  O2-  O248  1  0.65450328  0.92673249  -0.00203364  1
  O2-  O249  1  0.66815696  0.92190011  0.24948477  1
  O2-  O250  1  0.66165507  0.92069305  0.49840518  1
  O2-  O251  1  0.67195983  0.92082818  0.74913603  1
  O2-  O252  1  0.33184670  0.07732336  0.00034071  1
  O2-  O253  1  0.33473637  0.08058045  0.25952230  1
  O2-  O254  1  0.33258646  0.07955389  0.50557203  1
  O2-  O255  1  0.33016079  0.08124640  0.74175211  1
  O2-  O256  1  0.33093585  0.41454870  -0.00892327  1
  O2-  O257  1  0.33763626  0.41174399  0.25596435  1
  O2-  O258  1  0.33745466  0.41548312  0.49897681  1
  O2-  O259  1  0.33005687  0.40728812  0.74777055  1
  O2-  O260  1  0.33218866  0.74697296  -0.00083943  1
  O2-  O261  1  0.32997269  0.74528018  0.24877997  1
  O2-  O262  1  0.32945311  0.75081550  0.50307856  1
  O2-  O263  1  0.32943387  0.74774602  0.74881484  1
  O2-  O264  1  0.83177394  0.07865051  0.00304956  1
  O2-  O265  1  0.83311126  0.07862336  0.25019100  1
  O2-  O266  1  0.83176756  0.08213017  0.49821926  1
  O2-  O267  1  0.83287882  0.07775393  0.74553755  1
  O2-  O268  1  0.83511404  0.41347556  -0.00248801  1
  O2-  O269  1  0.84123813  0.41526829  0.24865943  1
  O2-  O270  1  0.83587253  0.41266836  0.50487331  1
  O2-  O271  1  0.83388403  0.41130983  0.74794082  1
  O2-  O272  1  0.83453833  0.75288177  -0.00142335  1
  O2-  O273  1  0.83585840  0.75141678  0.24970020  1
  O2-  O274  1  0.83086784  0.74732777  0.50101214  1
  O2-  O275  1  0.83694881  0.74008610  0.74344324  1
  O2-  O276  1  0.45926627  0.77456374  0.69947120  1
  O2-  O277  1  0.55581665  0.57061948  0.47919731  1
  O2-  O278  1  0.04727220  0.76757887  0.00965288  1
  O2-  O279  1  0.45573718  0.90154512  0.49592177  1
  O2-  O280  1  0.44704936  0.43064438  0.24527749  1
  O2-  O281  1  0.96987827  0.88593934  0.99687612  1
  O2-  O282  1  0.45395382  0.54942481  0.74706763  1
  O2-  O283  1  0.55000225  0.56558347  0.75084925  1
  O2-  O284  1  0.04689391  0.76370035  0.73561357  1
  O2-  O285  1  0.44998228  0.57497483  0.77425799  1
  O2-  O286  1  0.54274141  0.57118160  0.51236082  1
  O2-  O287  1  0.02793372  0.53604095  -0.00258130  1
  O2-  O288  1  0.94999867  0.90802805  0.51348302  1
  O2-  O289  1  0.04587426  0.09988885  0.49099271  1
  O2-  O290  1  0.45824113  0.11404767  0.27377416  1
  O2-  O291  1  0.04149453  0.09743322  0.00302937  1
  O2-  O292  1  0.54340846  0.44467203  -0.00102045  1
  O2-  O293  1  0.06052374  0.41499569  0.71844415  1
  O2-  O294  1  0.45268338  0.23699416  0.73695378  1
  O2-  O295  1  0.44587014  0.90880398  0.76906263  1
  O2-  O296  1  0.45437546  0.76936878  0.98818478  1
  O2-  O297  1  0.44626933  0.42015629  0.02461018  1
  O2-  O298  1  0.54819972  0.42060535  0.97044222  1
  O2-  O299  1  0.45784518  0.57366832  0.26880819  1
  O2-  O300  1  0.94716869  0.42568276  0.76284169  1
  O2-  O301  1  0.04246524  0.09366946  0.24577256  1
  O2-  O302  1  0.54910129  0.42195864  0.48405543  1
  O2-  O303  1  0.44879375  0.43113802  0.51529317  1
  O2-  O304  1  0.94426678  0.23854341  0.98564375  1
  O2-  O305  1  0.95392670  0.42982179  0.00489171  1
  O2-  O306  1  0.55599525  0.76565842  0.76027665  1
  O2-  O307  1  0.95551817  0.23474041  0.76195999  1
  O2-  O308  1  0.55797328  0.91289573  0.72017030  1
  O2-  O309  1  0.54141562  0.90241516  0.25591328  1
  O2-  O310  1  0.54672409  0.10017768  0.74150563  1
  O2-  O311  1  0.95553694  0.56179709  0.50483951  1
  O2-  O312  1  0.45465599  0.10679686  0.49246263  1
  O2-  O313  1  0.44900604  0.41575500  0.47995830  1
  O2-  O314  1  0.45598454  0.12196906  0.27834910  1
  O2-  O315  1  0.44591310  0.57011557  0.23439204  1
  O2-  O316  1  0.05137855  0.25021692  0.02075497  1
  O2-  O317  1  0.04727361  0.57046496  0.23489234  1
  O2-  O318  1  0.01930309  0.53561133  0.76906463  1
  O2-  O319  1  0.05028408  0.90062357  0.50484059  1
  O2-  O320  1  0.55237958  0.43447328  0.52004378  1
  O2-  O321  1  0.04621530  0.24129108  0.23841641  1
  O2-  O322  1  0.44378350  0.08741556  0.52107658  1
  O2-  O323  1  0.55042660  0.12075695  0.25861394  1
  O2-  O324  1  0.56066642  0.73449510  0.77882261  1
  O2-  O325  1  0.43973131  0.74568653  0.48715220  1
  O2-  O326  1  0.43481801  0.26268698  0.20494536  1
  O2-  O327  1  0.93270531  0.93884344  0.95955162  1
  O2-  O328  1  0.56300307  0.26496071  0.21239815  1
  O2-  O329  1  0.56649873  0.08856777  0.06928429  1
  O2-  O330  1  0.93192701  0.91434722  0.32203143  1
  O2-  O331  1  0.42429530  0.76581350  0.17229805  1
  O2-  O332  1  0.44182106  0.40255035  0.22197217  1
  O2-  O333  1  0.42327284  0.73490646  0.81567643  1
  O2-  O334  1  0.56417963  0.91489398  0.26467535  1
  O2-  O335  1  0.07758515  0.62695792  0.03589756  1
  O2-  O336  1  0.42998887  0.02101529  0.17546760  1
  O2-  O337  1  0.06057374  0.26164749  0.53744954  1
  O2-  O338  1  0.07371087  0.59537134  0.65927875  1
  O2-  O339  1  0.57355272  0.09004318  0.92087755  1
  O2-  O340  1  0.42680936  0.57335005  0.42886490  1
  O2-  O341  1  0.06082068  0.26054567  0.03023212  1
  O2-  O342  1  0.93123853  0.59425790  0.77404979  1
  O2-  O343  1  0.55726321  0.58455345  0.02299631  1
  O2-  O344  1  0.92756804  0.57618995  0.33029410  1
  O2-  O345  1  0.56167074  0.74349376  0.51475117  1
  O2-  O346  1  0.93423660  0.74239106  0.95251302  1
  O2-  O347  1  0.93892119  0.74631028  0.77302533  1
  O2-  O348  1  0.93155555  0.74280469  0.04750828  1
  O2-  O349  1  0.56023240  0.25463153  0.48249981  1
  O2-  O350  1  0.93388038  0.74341338  0.52423105  1
  O2-  O351  1  0.43684288  0.25217046  0.97369219  1
  O2-  O352  1  0.55885092  0.91569808  0.71989923  1
  O2-  O353  1  0.43704878  0.58379536  0.01428072  1
  O2-  O354  1  0.43647651  0.07269809  0.78714673  1
  O2-  O355  1  0.43826297  0.07033616  0.96643595  1
  O2-  O356  1  0.93583653  0.90919650  0.18235450  1
  O2-  O357  1  0.93916516  0.74795356  0.27629200  1
  O2-  O358  1  0.94280346  0.25088102  0.79094379  1
  O2-  O359  1  0.93979360  0.26079054  0.95565520  1
  O2-  O360  1  0.44237597  0.41520399  0.03030591  1
  O2-  O361  1  0.42971137  0.75749798  0.32256563  1
  O2-  O362  1  0.56119702  0.74416558  0.01770588  1
  O2-  O363  1  0.05872247  0.92781313  0.29089722  1
  O2-  O364  1  0.92929202  0.57659617  0.18002951  1
  O2-  O365  1  0.57449740  0.05214772  0.22283587  1
  O2-  O366  1  0.56109844  0.26294337  0.70540389  1
  O2-  O367  1  0.56613219  0.07806831  0.48471514  1
  O2-  O368  1  0.43573874  0.59733576  0.57332969  1
  O2-  O369  1  0.93795295  0.08128634  0.95562350  1
  O2-  O370  1  0.07712187  0.62158293  0.81935892  1
  O2-  O371  1  0.06232272  0.59959394  0.23459912  1
  O2-  O372  1  0.75036851  0.33457243  0.64145952  1
  O2-  O373  1  0.75008653  0.32732147  0.89381110  1
  O2-  O374  1  0.24947922  -0.00311281  0.40724399  1
  O2-  O375  1  0.24850187  0.34591910  0.06732954  1
  O2-  O376  1  0.25045618  0.00814142  0.80882672  1
  O2-  O377  1  0.25091873  0.67034057  0.63630896  1
  O2-  O378  1  0.74923265  0.66035024  0.42220262  1
  O2-  O379  1  0.74872968  0.35221617  0.15676656  1
  O2-  O380  1  0.24794544  -0.02409487  0.07270280  1
  O2-  O381  1  0.75069051  0.01077363  0.62283758  1
  O2-  O382  1  0.74995926  0.33826691  0.37551237  1
  O2-  O383  1  0.24892488  0.34542055  0.19782799  1
  O2-  O384  1  0.74984006  0.67058906  0.17664769  1
  O2-  O385  1  0.74862802  0.67344840  0.33107832  1
  O2-  O386  1  0.25026078  0.33182243  0.83614482  1
  O2-  O387  1  0.24866185  0.67869774  0.40342704  1
  O2-  O388  1  0.24935030  -0.02399130  0.90671356  1
  O2-  O389  1  0.25022424  0.00179697  0.18313914  1
  O2-  O390  1  0.75024020  0.00534799  0.89917042  1
  O2-  O391  1  0.74894674  0.31674622  0.07498545  1
  O2-  O392  1  0.75064696  0.65803846  0.08373403  1
  O2-  O393  1  0.75043056  0.00550067  0.35943631  1
  O2-  O394  1  0.74938439  0.66622024  0.89042536  1
  O2-  O395  1  0.24935560  0.67527550  0.09790846  1
  O2-  O396  1  0.24971704  0.48900594  0.65789784  1
  O2-  O397  1  0.74918533  0.48074251  0.09969490  1
  O2-  O398  1  0.24960791  0.48958364  0.39927418  1
  O2-  O399  1  0.75076071  0.82402751  0.89966861  1
  O2-  O400  1  0.75018762  0.48694622  0.19334223  1
  O2-  O401  1  0.75017569  0.49426673  0.33666892  1
  O2-  O402  1  0.75033625  0.50353608  0.41901213  1
  O2-  O403  1  0.74990879  0.81842578  0.37793053  1
  O2-  O404  1  0.75005360  0.84971169  0.55400613  1
  O2-  O405  1  0.74976258  0.17415048  0.93232280  1
  O2-  O406  1  0.24943407  0.82590255  0.88849570  1
  O2-  O407  1  0.25004815  0.17388290  0.44293820  1
  O2-  O408  1  0.25006839  0.16188379  0.89617947  1
  O2-  O409  1  0.24995031  0.50398554  0.57093301  1
  O2-  O410  1  0.75020914  0.84506999  0.64189851  1
  O2-  O411  1  0.24976505  0.82426212  0.15505597  1
  O2-  O412  1  0.74973578  0.15755294  0.09952467  1
  O2-  O413  1  0.24974501  0.17576476  0.35402581  1
  O2-  O414  1  0.75061180  0.81214973  0.11197033  1
  O2-  O415  1  0.24929724  0.83935642  0.61200938  1
  O2-  O416  1  0.75016307  0.15643906  0.84347786  1
  O2-  O417  1  0.24929417  0.82473202  0.34469940  1
  O2-  O418  1  0.74946523  0.47399445  0.86817202  1
  O2-  O419  1  0.74986200  0.83271375  0.19436495  1
  O2-  O420  1  0.97784358  0.01991038  0.38303305  1
  O2-  O421  1  0.51819314  -0.01701917  0.87608748  1
  O2-  O422  1  0.03142643  0.33393552  0.87684970  1
  O2-  O423  1  0.04703333  -0.01479859  0.11936992  1
  O2-  O424  1  0.47001407  0.34697843  0.86673735  1
  O2-  O425  1  0.02751290  0.00028627  0.87216072  1
  O2-  O426  1  0.98748640  0.65927281  0.88506497  1
  O2-  O427  1  0.45194595  -0.01543954  0.36905064  1
  O2-  O428  1  0.95837666  0.02536238  0.11578371  1
  O2-  O429  1  0.52605180  0.67293692  0.63355616  1
  O2-  O430  1  0.54021076  -0.00144831  0.37327082  1
  O2-  O431  1  0.51721918  -0.02568500  0.12383629  1
  O2-  O432  1  0.02605439  0.00242433  0.63085365  1
  O2-  O433  1  0.52259212  -0.00095153  0.61814827  1
  O2-  O434  1  0.48556702  0.64818688  0.88485090  1
  O2-  O435  1  0.52857635  0.34480553  0.36210777  1
  O2-  O436  1  0.48632249  0.66101397  0.38431350  1
  O2-  O437  1  0.55298016  0.67297966  0.15696197  1
  O2-  O438  1  0.46564935  0.66198748  0.12222998  1
  O2-  O439  1  0.97195503  0.33475715  0.12769069  1
  O2-  O440  1  0.99154287  0.67052376  0.38482343  1
  O2-  O441  1  0.97605650  0.66287772  0.63502665  1
  O2-  O442  1  0.98985908  0.67459834  0.12847632  1
  O2-  O443  1  0.54479762  0.67268819  0.35676373  1
