# generated using pymatgen
data_La7(Ru4O11)2
_symmetry_space_group_name_H-M   'P 1'
_cell_length_a   23.99200449
_cell_length_b   16.83362905
_cell_length_c   15.42901802
_cell_angle_alpha   90.00073893
_cell_angle_beta   90.00204092
_cell_angle_gamma   90.00104381
_symmetry_Int_Tables_number   1
_chemical_formula_structural   La7(Ru4O11)2
_chemical_formula_sum   'La84 Ru96 O264'
_cell_volume   6231.35613281
_cell_formula_units_Z   12
loop_
 _symmetry_equiv_pos_site_id
 _symmetry_equiv_pos_as_xyz
  1  'x, y, z'
loop_
 _atom_type_symbol
 _atom_type_oxidation_number
  La3+  3.0
  Ru4+  4.0
  O2-  -2.0
loop_
 _atom_site_type_symbol
 _atom_site_label
 _atom_site_symmetry_multiplicity
 _atom_site_fract_x
 _atom_site_fract_y
 _atom_site_fract_z
 _atom_site_occupancy
  La3+  La0  1  0.13790974  0.00080341  0.12627236  1
  La3+  La1  1  0.14019094  -0.00049401  0.37648135  1
  La3+  La2  1  0.14290752  -0.00463416  0.62590907  1
  La3+  La3  1  0.13755908  -0.00288258  0.87252300  1
  La3+  La4  1  0.14057656  0.33531811  0.12520485  1
  La3+  La5  1  0.14456348  0.33486786  0.37519807  1
  La3+  La6  1  0.14022120  0.33473476  0.62176153  1
  La3+  La7  1  0.13809790  0.33464731  0.87654377  1
  La3+  La8  1  0.14194616  0.66540189  0.12247636  1
  La3+  La9  1  0.13746147  0.66449001  0.37701793  1
  La3+  La10  1  0.14457769  0.66726743  0.62137127  1
  La3+  La11  1  0.14048636  0.66815625  0.87797753  1
  La3+  La12  1  0.64340328  -0.00272959  0.12158872  1
  La3+  La13  1  0.64031952  -0.00767365  0.38085959  1
  La3+  La14  1  0.64015027  -0.00037480  0.62634453  1
  La3+  La15  1  0.63563834  0.00438541  0.87228850  1
  La3+  La16  1  0.64966856  0.33378743  0.12327768  1
  La3+  La17  1  0.63554132  0.33261686  0.36935927  1
  La3+  La18  1  0.63870614  0.33417322  0.63116099  1
  La3+  La19  1  0.64099683  0.33258650  0.87568018  1
  La3+  La20  1  0.63712814  0.66882165  0.12362700  1
  La3+  La21  1  0.63287624  0.66780763  0.37837077  1
  La3+  La22  1  0.63691890  0.66658487  0.62484120  1
  La3+  La23  1  0.63568827  0.66516107  0.87126649  1
  La3+  La24  1  0.36476773  0.00056274  0.12792284  1
  La3+  La25  1  0.35547079  0.00060135  0.37528211  1
  La3+  La26  1  0.35607777  -0.00158860  0.62339375  1
  La3+  La27  1  0.36228669  -0.00398851  0.87191264  1
  La3+  La28  1  0.35380888  0.33422194  0.12776966  1
  La3+  La29  1  0.35672126  0.33701945  0.37758253  1
  La3+  La30  1  0.35683049  0.33103773  0.62046713  1
  La3+  La31  1  0.35916626  0.33586452  0.87600940  1
  La3+  La32  1  0.35825536  0.66607994  0.12549110  1
  La3+  La33  1  0.35260616  0.66314126  0.37598153  1
  La3+  La34  1  0.35898201  0.66660231  0.61830937  1
  La3+  La35  1  0.35644307  0.66892028  0.87719705  1
  La3+  La36  1  0.86309204  0.00163713  0.12485058  1
  La3+  La37  1  0.86424755  -0.00169229  0.37678366  1
  La3+  La38  1  0.85994235  -0.00099788  0.62459941  1
  La3+  La39  1  0.86234211  0.00452702  0.87381116  1
  La3+  La40  1  0.86016777  0.33616446  0.12713664  1
  La3+  La41  1  0.86514778  0.33474850  0.36982217  1
  La3+  La42  1  0.86063469  0.33330775  0.63155631  1
  La3+  La43  1  0.85761260  0.33067703  0.87369066  1
  La3+  La44  1  0.86596440  0.66665516  0.12610331  1
  La3+  La45  1  0.86574012  0.66976456  0.37828555  1
  La3+  La46  1  0.86081044  0.66606736  0.62921909  1
  La3+  La47  1  0.86161067  0.66476500  0.86979093  1
  La3+  La48  1  -0.00679058  0.49497355  0.87796779  1
  La3+  La49  1  0.50013924  0.16440867  0.11679833  1
  La3+  La50  1  0.00114160  0.49407833  0.35507088  1
  La3+  La51  1  0.00513124  0.49076499  0.12700426  1
  La3+  La52  1  0.00127944  0.82950519  0.11957789  1
  La3+  La53  1  -0.00160434  0.82990893  0.61841547  1
  La3+  La54  1  -0.00177122  0.16308180  0.61380100  1
  La3+  La55  1  0.50038886  0.50027819  0.85970553  1
  La3+  La56  1  -0.00148739  0.17065833  0.86948435  1
  La3+  La57  1  0.50356869  0.16571120  0.86657897  1
  La3+  La58  1  0.49543052  0.49452530  0.61346695  1
  La3+  La59  1  0.00032729  0.83217020  0.86601740  1
  La3+  La60  1  0.00159337  0.16176530  0.11778185  1
  La3+  La61  1  0.50272156  0.50400261  0.37797501  1
  La3+  La62  1  0.50110957  0.83689609  0.63706392  1
  La3+  La63  1  0.00286811  0.84738147  0.37790811  1
  La3+  La64  1  0.49496104  0.50763248  0.87799779  1
  La3+  La65  1  0.00389201  0.50329854  0.63408890  1
  La3+  La66  1  -0.00284386  0.50386031  0.61386458  1
  La3+  La67  1  0.50218128  0.49606427  0.11738110  1
  La3+  La68  1  0.00159410  0.17120298  0.13778017  1
  La3+  La69  1  0.49792647  0.83434017  0.11660635  1
  La3+  La70  1  -0.00128547  0.17023885  0.63353877  1
  La3+  La71  1  0.50019878  0.17357318  0.62056495  1
  La3+  La72  1  0.74980800  0.83159948  0.23319129  1
  La3+  La73  1  0.74896862  0.52395976  0.47651639  1
  La3+  La74  1  0.75014789  0.43144437  0.24528753  1
  La3+  La75  1  0.74970477  0.86327033  -0.01243108  1
  La3+  La76  1  0.75049655  0.82902731  0.72178637  1
  La3+  La77  1  0.75129644  0.21348966  0.25618401  1
  La3+  La78  1  0.25042950  0.12606650  -0.00486830  1
  La3+  La79  1  0.75013273  0.14024121  0.50558729  1
  La3+  La80  1  0.25001777  0.78241286  0.25035719  1
  La3+  La81  1  0.24996092  0.17344492  0.27260876  1
  La3+  La82  1  0.75110105  0.44529261  -0.05423843  1
  La3+  La83  1  0.74951041  0.17304290  -0.00930237  1
  Ru4+  Ru84  1  0.00260075  -0.00281100  -0.00419093  1
  Ru4+  Ru85  1  0.00202526  -0.00048408  0.25411357  1
  Ru4+  Ru86  1  -0.00095504  0.00114621  0.49801395  1
  Ru4+  Ru87  1  -0.00285903  -0.00196209  0.75062000  1
  Ru4+  Ru88  1  -0.00309705  0.33896606  -0.00166264  1
  Ru4+  Ru89  1  0.00496774  0.32796785  0.25530422  1
  Ru4+  Ru90  1  -0.00080697  0.33069693  0.50025754  1
  Ru4+  Ru91  1  0.00244257  0.33077024  0.74818449  1
  Ru4+  Ru92  1  0.00037726  0.66554335  -0.00355401  1
  Ru4+  Ru93  1  0.00113148  0.67022197  0.25459417  1
  Ru4+  Ru94  1  0.00096146  0.67033797  0.49620557  1
  Ru4+  Ru95  1  0.00536982  0.66967163  0.74766841  1
  Ru4+  Ru96  1  0.49917269  -0.00324549  -0.00233326  1
  Ru4+  Ru97  1  0.49751643  -0.00350151  0.24054535  1
  Ru4+  Ru98  1  0.50041538  -0.00840190  0.50550343  1
  Ru4+  Ru99  1  0.50406685  -0.00339104  0.75915049  1
  Ru4+  Ru100  1  0.50013623  0.33254453  -0.00042687  1
  Ru4+  Ru101  1  0.49972459  0.33818512  0.24526652  1
  Ru4+  Ru102  1  0.49669462  0.33581033  0.49168950  1
  Ru4+  Ru103  1  0.50015375  0.33586262  0.75267066  1
  Ru4+  Ru104  1  0.50257615  0.66528566  -0.00040148  1
  Ru4+  Ru105  1  0.49619019  0.66340524  0.24504484  1
  Ru4+  Ru106  1  0.49284771  0.67259175  0.49646079  1
  Ru4+  Ru107  1  0.49845845  0.66631047  0.75282972  1
  Ru4+  Ru108  1  0.11566569  0.15876317  -0.00114178  1
  Ru4+  Ru109  1  0.11106350  0.16764054  0.24984619  1
  Ru4+  Ru110  1  0.11331016  0.16635757  0.50063809  1
  Ru4+  Ru111  1  0.11371364  0.16876606  0.75162372  1
  Ru4+  Ru112  1  0.11430064  0.49833963  0.00026403  1
  Ru4+  Ru113  1  0.11406081  0.49888223  0.25030086  1
  Ru4+  Ru114  1  0.11793252  0.50212571  0.49811832  1
  Ru4+  Ru115  1  0.11353905  0.50088122  0.75149430  1
  Ru4+  Ru116  1  0.11426640  0.82955373  0.00027872  1
  Ru4+  Ru117  1  0.10899482  0.82980621  0.24825384  1
  Ru4+  Ru118  1  0.11555583  0.83272719  0.49994861  1
  Ru4+  Ru119  1  0.11312936  0.83336149  0.74723860  1
  Ru4+  Ru120  1  0.61138729  0.16912093  -0.00044553  1
  Ru4+  Ru121  1  0.61131328  0.16502353  0.25215573  1
  Ru4+  Ru122  1  0.60988992  0.16135363  0.49820361  1
  Ru4+  Ru123  1  0.61569590  0.16644523  0.74970499  1
  Ru4+  Ru124  1  0.61225344  0.50101015  0.00243151  1
  Ru4+  Ru125  1  0.61080913  0.49778760  0.24733589  1
  Ru4+  Ru126  1  0.61320578  0.49386693  0.50117766  1
  Ru4+  Ru127  1  0.61463751  0.49889064  0.75179598  1
  Ru4+  Ru128  1  0.60843285  0.83504565  0.00138109  1
  Ru4+  Ru129  1  0.60969241  0.83269172  0.25014983  1
  Ru4+  Ru130  1  0.61574173  0.83396609  0.49951961  1
  Ru4+  Ru131  1  0.60945643  0.83581952  0.74798652  1
  Ru4+  Ru132  1  0.39054412  0.16345715  -0.00124432  1
  Ru4+  Ru133  1  0.38690180  0.16848576  0.25007350  1
  Ru4+  Ru134  1  0.38605638  0.17100843  0.50158162  1
  Ru4+  Ru135  1  0.38693305  0.16644426  0.75127924  1
  Ru4+  Ru136  1  0.38679010  0.49712057  -0.00073533  1
  Ru4+  Ru137  1  0.38810415  0.49963862  0.24967391  1
  Ru4+  Ru138  1  0.38527827  0.49675214  0.50451424  1
  Ru4+  Ru139  1  0.38888045  0.50013345  0.75088327  1
  Ru4+  Ru140  1  0.38732852  0.83191934  -0.00144443  1
  Ru4+  Ru141  1  0.39028376  0.83192443  0.25146651  1
  Ru4+  Ru142  1  0.38903453  0.83759027  0.50015351  1
  Ru4+  Ru143  1  0.38814913  0.83594045  0.75163866  1
  Ru4+  Ru144  1  0.88617726  0.16710872  -0.00198392  1
  Ru4+  Ru145  1  0.89066146  0.16632545  0.24910300  1
  Ru4+  Ru146  1  0.89160719  0.16684430  0.50231402  1
  Ru4+  Ru147  1  0.88699258  0.16703522  0.74963122  1
  Ru4+  Ru148  1  0.88905188  0.50136593  -0.00223611  1
  Ru4+  Ru149  1  0.88690099  0.50523644  0.25001754  1
  Ru4+  Ru150  1  0.88967678  0.50252174  0.49694006  1
  Ru4+  Ru151  1  0.88082231  0.49960988  0.75248867  1
  Ru4+  Ru152  1  0.89180178  0.83080024  -0.00066671  1
  Ru4+  Ru153  1  0.89153060  0.83274400  0.25003104  1
  Ru4+  Ru154  1  0.88509303  0.83053333  0.50077364  1
  Ru4+  Ru155  1  0.89051308  0.83736245  0.74952398  1
  Ru4+  Ru156  1  0.75047877  0.27012687  0.51034893  1
  Ru4+  Ru157  1  0.74980528  0.58359298  -0.01698090  1
  Ru4+  Ru158  1  0.24999969  0.93839525  0.25011473  1
  Ru4+  Ru159  1  0.74975764  0.96221712  0.77719148  1
  Ru4+  Ru160  1  0.25022231  0.23895219  0.74904055  1
  Ru4+  Ru161  1  0.74984197  0.95665248  0.27758898  1
  Ru4+  Ru162  1  0.24983879  0.26459725  0.00686000  1
  Ru4+  Ru163  1  0.75000036  0.71642097  0.30723168  1
  Ru4+  Ru164  1  0.25037882  0.57821486  0.00253946  1
  Ru4+  Ru165  1  0.75066136  0.01150518  0.46443356  1
  Ru4+  Ru166  1  0.75037840  0.99512649  -0.00079489  1
  Ru4+  Ru167  1  0.24972799  0.57620148  0.25311989  1
  Ru4+  Ru168  1  0.25013948  0.91690553  -0.00925497  1
  Ru4+  Ru169  1  0.24991779  0.75904522  0.75422423  1
  Ru4+  Ru170  1  0.75032690  0.58617879  0.25881880  1
  Ru4+  Ru171  1  0.75007018  0.40181490  0.53070576  1
  Ru4+  Ru172  1  0.75025793  0.72754836  -0.01743160  1
  Ru4+  Ru173  1  0.25056972  0.42867633  0.73842597  1
  Ru4+  Ru174  1  0.24994256  0.08270858  0.49786629  1
  Ru4+  Ru175  1  0.25038981  0.57286960  0.74066820  1
  Ru4+  Ru176  1  0.24985651  0.09241139  0.74806500  1
  Ru4+  Ru177  1  0.75099686  0.66146282  0.49396703  1
  Ru4+  Ru178  1  0.74995677  0.68429224  0.74593644  1
  Ru4+  Ru179  1  0.75114275  0.08143278  0.24018788  1
  O2-  O180  1  0.16555176  0.07273178  0.00038057  1
  O2-  O181  1  0.16674003  0.07803921  0.24994986  1
  O2-  O182  1  0.16647020  0.08293507  0.49952396  1
  O2-  O183  1  0.16713431  0.08178808  0.75097870  1
  O2-  O184  1  0.16594861  0.41640848  -0.00181148  1
  O2-  O185  1  0.16336293  0.41598563  0.24973918  1
  O2-  O186  1  0.16453730  0.41335746  0.50022509  1
  O2-  O187  1  0.16774070  0.41505871  0.74812790  1
  O2-  O188  1  0.16699391  0.75009799  0.00187830  1
  O2-  O189  1  0.16252247  0.74414077  0.25379347  1
  O2-  O190  1  0.16450880  0.74807115  0.49714480  1
  O2-  O191  1  0.16741241  0.74741696  0.75186207  1
  O2-  O192  1  0.66714039  0.07845218  0.00069124  1
  O2-  O193  1  0.66988422  0.08227176  0.24897216  1
  O2-  O194  1  0.66716290  0.07888499  0.50073324  1
  O2-  O195  1  0.66810414  0.08220608  0.74907805  1
  O2-  O196  1  0.66574094  0.41434367  -0.00253449  1
  O2-  O197  1  0.66091314  0.41382408  0.25013509  1
  O2-  O198  1  0.66577147  0.41246283  0.50055115  1
  O2-  O199  1  0.66286215  0.41485421  0.75027640  1
  O2-  O200  1  0.66527955  0.74419754  -0.00188378  1
  O2-  O201  1  0.66382847  0.74471217  0.25171209  1
  O2-  O202  1  0.66466497  0.74535766  0.49717526  1
  O2-  O203  1  0.66732220  0.74460500  0.75177177  1
  O2-  O204  1  0.33419624  0.25376048  -0.00184329  1
  O2-  O205  1  0.33454960  0.25171279  0.25158232  1
  O2-  O206  1  0.33095275  0.24849561  0.49801137  1
  O2-  O207  1  0.33237083  0.25019706  0.75107902  1
  O2-  O208  1  0.33361934  0.58674979  -0.00081170  1
  O2-  O209  1  0.33083266  0.58126731  0.24753917  1
  O2-  O210  1  0.33402751  0.58265201  0.50137516  1
  O2-  O211  1  0.33335925  0.58655058  0.75028302  1
  O2-  O212  1  0.33273595  0.92153369  -0.00103685  1
  O2-  O213  1  0.33185883  0.91890169  0.24756694  1
  O2-  O214  1  0.33205740  0.91416196  0.50195430  1
  O2-  O215  1  0.33530415  0.91852938  0.75289904  1
  O2-  O216  1  0.83476074  0.25300305  0.00189937  1
  O2-  O217  1  0.84162659  0.25549466  0.25297052  1
  O2-  O218  1  0.83684385  0.25473089  0.49723948  1
  O2-  O219  1  0.83606611  0.25159603  0.74845348  1
  O2-  O220  1  0.83259921  0.58565672  0.00076160  1
  O2-  O221  1  0.83457516  0.58607395  0.25308780  1
  O2-  O222  1  0.83157421  0.58923259  0.49720996  1
  O2-  O223  1  0.83067923  0.58563930  0.75070219  1
  O2-  O224  1  0.83741115  0.92318242  0.00002381  1
  O2-  O225  1  0.83641679  0.92268315  0.25101545  1
  O2-  O226  1  0.83654445  0.91947893  0.49757485  1
  O2-  O227  1  0.83348279  0.92218756  0.75267025  1
  O2-  O228  1  0.16608125  0.25404675  0.00024772  1
  O2-  O229  1  0.16457002  0.25200788  0.25127617  1
  O2-  O230  1  0.16641642  0.25175396  0.50085961  1
  O2-  O231  1  0.16902794  0.25105205  0.74824432  1
  O2-  O232  1  0.16844103  0.58465446  -0.00158377  1
  O2-  O233  1  0.17080905  0.58494307  0.25123022  1
  O2-  O234  1  0.16718237  0.58496491  0.49690572  1
  O2-  O235  1  0.16910157  0.58428990  0.75080628  1
  O2-  O236  1  0.16683932  0.92097847  -0.00002074  1
  O2-  O237  1  0.16702786  0.91981916  0.24997703  1
  O2-  O238  1  0.16369418  0.91983529  0.49979522  1
  O2-  O239  1  0.16583244  0.91844759  0.75223471  1
  O2-  O240  1  0.66422397  0.25194557  -0.00109621  1
  O2-  O241  1  0.66382140  0.25312948  0.25437125  1
  O2-  O242  1  0.66632599  0.25401877  0.50105575  1
  O2-  O243  1  0.66361400  0.25151869  0.74905802  1
  O2-  O244  1  0.66403220  0.58571821  -0.00148822  1
  O2-  O245  1  0.66726369  0.58623627  0.25334661  1
  O2-  O246  1  0.66465311  0.59063751  0.49838249  1
  O2-  O247  1  0.66414954  0.58886564  0.74942151  1
  O2-  O248  1  0.66357167  0.92149755  -0.00226725  1
  O2-  O249  1  0.66486073  0.92086404  0.24935749  1
  O2-  O250  1  0.66468206  0.91728330  0.50104976  1
  O2-  O251  1  0.66841609  0.92260545  0.75186981  1
  O2-  O252  1  0.33694229  0.07647039  0.00050122  1
  O2-  O253  1  0.33046018  0.08028295  0.24709554  1
  O2-  O254  1  0.33069160  0.08373600  0.50059349  1
  O2-  O255  1  0.33206992  0.08352520  0.75393444  1
  O2-  O256  1  0.33652428  0.41546090  -0.00207017  1
  O2-  O257  1  0.33416266  0.41982366  0.25172063  1
  O2-  O258  1  0.33201460  0.41547166  0.49807266  1
  O2-  O259  1  0.33316660  0.41379257  0.74979681  1
  O2-  O260  1  0.33694271  0.74897898  0.00111216  1
  O2-  O261  1  0.33738187  0.74455522  0.25022030  1
  O2-  O262  1  0.33392969  0.75293343  0.50341387  1
  O2-  O263  1  0.33468799  0.74708268  0.75078222  1
  O2-  O264  1  0.83243650  0.07659262  0.00008401  1
  O2-  O265  1  0.83340210  0.07967448  0.25097136  1
  O2-  O266  1  0.83349249  0.07646495  0.49846950  1
  O2-  O267  1  0.83548642  0.07946780  0.75058166  1
  O2-  O268  1  0.83646093  0.41361551  0.00430948  1
  O2-  O269  1  0.84194176  0.41159636  0.25243863  1
  O2-  O270  1  0.83550497  0.41302405  0.49930307  1
  O2-  O271  1  0.83498435  0.41273127  0.75012149  1
  O2-  O272  1  0.83257999  0.74400155  -0.00026875  1
  O2-  O273  1  0.83258872  0.74468074  0.25177963  1
  O2-  O274  1  0.83004777  0.74723402  0.49507286  1
  O2-  O275  1  0.83258462  0.74578681  0.75114882  1
  O2-  O276  1  0.53601880  0.10017490  0.24121827  1
  O2-  O277  1  0.04859124  0.23882003  0.01834980  1
  O2-  O278  1  0.04705663  0.90790422  0.25666149  1
  O2-  O279  1  0.46768282  0.77326042  0.51423821  1
  O2-  O280  1  0.45194361  0.75864449  0.73752217  1
  O2-  O281  1  0.45349788  0.90688140  0.76531321  1
  O2-  O282  1  0.52156836  0.11710917  0.26504406  1
  O2-  O283  1  0.44080607  0.09963119  0.23014124  1
  O2-  O284  1  0.94909338  0.24154311  0.01705979  1
  O2-  O285  1  0.54640503  0.56642362  0.27979752  1
  O2-  O286  1  0.45997309  0.44094470  0.28274458  1
  O2-  O287  1  0.95453126  0.09343913  0.98536973  1
  O2-  O288  1  0.45255852  0.90577066  0.23743313  1
  O2-  O289  1  0.95352840  0.76744888  0.74264553  1
  O2-  O290  1  0.45557548  0.90303813  0.25713403  1
  O2-  O291  1  0.45635603  0.56335647  0.20163915  1
  O2-  O292  1  0.45581843  0.23741274  0.98683728  1
  O2-  O293  1  0.04945137  0.23112603  0.97997620  1
  O2-  O294  1  0.45322621  0.09117789  0.76241276  1
  O2-  O295  1  0.45279910  0.23732282  0.76478087  1
  O2-  O296  1  0.03662353  0.77520037  0.28400915  1
  O2-  O297  1  0.53472511  0.44773726  0.98755224  1
  O2-  O298  1  0.96300470  0.78092015  0.46938220  1
  O2-  O299  1  0.53336998  0.23629181  0.26070043  1
  O2-  O300  1  0.94325898  0.57816749  0.73574335  1
  O2-  O301  1  0.95189307  0.43142340  0.23445236  1
  O2-  O302  1  0.95008019  0.42201696  0.48018413  1
  O2-  O303  1  0.46090840  0.76225346  0.28059325  1
  O2-  O304  1  0.48567965  0.89283518  0.47270495  1
  O2-  O305  1  0.46307743  0.76922807  0.52528244  1
  O2-  O306  1  0.45410636  0.90005054  0.98622647  1
  O2-  O307  1  0.04561978  0.90355500  0.51247430  1
  O2-  O308  1  0.44492895  0.42495116  0.45561617  1
  O2-  O309  1  0.95243616  0.42849070  0.74045384  1
  O2-  O310  1  0.54815057  0.76724011  0.00787483  1
  O2-  O311  1  0.04621125  0.09946543  0.75941993  1
  O2-  O312  1  0.05019040  0.43267941  0.50830646  1
  O2-  O313  1  0.96214414  0.55092219  0.03299215  1
  O2-  O314  1  0.04547152  0.23280435  0.51056182  1
  O2-  O315  1  0.54503857  0.10168481  0.99392142  1
  O2-  O316  1  0.53933747  0.23467701  0.27053954  1
  O2-  O317  1  0.44671939  0.08720737  0.53450014  1
  O2-  O318  1  0.96645059  0.55526291  0.45902216  1
  O2-  O319  1  0.54634515  0.57331310  0.48012852  1
  O2-  O320  1  0.04215215  0.55135849  0.78663594  1
  O2-  O321  1  0.54745123  0.57519706  0.51918299  1
  O2-  O322  1  0.04467967  0.89807775  0.99077119  1
  O2-  O323  1  0.53891717  0.44186171  -0.02106966  1
  O2-  O324  1  0.56472485  0.07279445  0.47867671  1
  O2-  O325  1  0.06402827  0.58828020  0.27460888  1
  O2-  O326  1  0.56626920  0.25530814  0.54714691  1
  O2-  O327  1  0.43256701  0.93694203  0.58500665  1
  O2-  O328  1  0.93938616  0.40432329  0.21720764  1
  O2-  O329  1  0.57206340  0.04365873  0.16369622  1
  O2-  O330  1  0.56684108  0.40928604  0.27795788  1
  O2-  O331  1  0.06257605  0.92790512  0.71575810  1
  O2-  O332  1  0.93256400  0.74840267  0.06195525  1
  O2-  O333  1  0.41865448  0.41501596  0.58810865  1
  O2-  O334  1  0.92599798  0.60362967  0.93775599  1
  O2-  O335  1  0.92052758  0.73435565  0.55429802  1
  O2-  O336  1  0.06405075  0.59382184  0.03426377  1
  O2-  O337  1  0.44682311  0.08726980  0.53424980  1
  O2-  O338  1  0.57628061  0.29024655  0.18183597  1
  O2-  O339  1  0.92086363  0.59686027  0.55372059  1
  O2-  O340  1  0.07545708  0.60713078  0.69004039  1
  O2-  O341  1  0.06334164  0.59850757  0.52974847  1
  O2-  O342  1  0.56502211  0.73703498  0.71676142  1
  O2-  O343  1  0.06312191  0.25842815  0.78380591  1
  O2-  O344  1  0.06512414  0.40651573  0.78686403  1
  O2-  O345  1  0.93773336  0.06890207  0.21689289  1
  O2-  O346  1  0.43774545  0.59092660  0.54125230  1
  O2-  O347  1  0.93579465  0.40792354  0.97607738  1
  O2-  O348  1  0.42694569  0.08047477  0.44691404  1
  O2-  O349  1  0.06683422  0.74681158  0.81047730  1
  O2-  O350  1  0.57405771  0.60325427  0.20572119  1
  O2-  O351  1  0.56697311  0.25174525  0.45152873  1
  O2-  O352  1  0.42839220  0.60842045  0.31185279  1
  O2-  O353  1  0.93474642  0.74371697  0.22345437  1
  O2-  O354  1  0.06214597  0.40954615  0.02377837  1
  O2-  O355  1  0.93771213  0.06856482  0.53240317  1
  O2-  O356  1  0.58894164  0.05739243  0.32147893  1
  O2-  O357  1  0.43587558  0.25562760  0.52835208  1
  O2-  O358  1  0.42875469  0.38461867  0.18611060  1
  O2-  O359  1  0.43331796  0.73172851  0.20122873  1
  O2-  O360  1  0.06183592  0.74362491  0.97709589  1
  O2-  O361  1  0.06559880  0.74968490  0.67870174  1
  O2-  O362  1  0.42303204  0.70091711  0.43491146  1
  O2-  O363  1  0.41783838  0.93022958  0.43615985  1
  O2-  O364  1  0.57625131  0.37246220  0.06478850  1
  O2-  O365  1  0.56450948  0.93198091  0.67942871  1
  O2-  O366  1  0.56443507  0.07684155  0.77563297  1
  O2-  O367  1  0.94065722  0.58780079  0.73096315  1
  O2-  O368  1  0.56764514  0.91574306  0.81048324  1
  O2-  O369  1  0.93833267  0.74696609  0.92777080  1
  O2-  O370  1  0.07118778  0.72397857  0.18327323  1
  O2-  O371  1  0.45034636  0.42898318  0.46078157  1
  O2-  O372  1  0.75233155  0.33014755  0.15068032  1
  O2-  O373  1  0.24992517  0.32907582  0.33070631  1
  O2-  O374  1  0.25009099  0.34686842  0.92704282  1
  O2-  O375  1  0.74894655  0.67349764  0.61604168  1
  O2-  O376  1  0.25078200  0.66639251  0.66038300  1
  O2-  O377  1  0.75033301  0.32512067  0.31806894  1
  O2-  O378  1  0.24919708  0.00018420  0.58144156  1
  O2-  O379  1  0.74976842  0.32010346  0.92238463  1
  O2-  O380  1  0.25066931  0.65951447  0.90621610  1
  O2-  O381  1  0.75016471  0.34133815  0.40762570  1
  O2-  O382  1  0.75038509  0.02140385  0.66676662  1
  O2-  O383  1  0.24996379  0.33017753  0.17316349  1
  O2-  O384  1  0.74990955  0.67581689  0.18840342  1
  O2-  O385  1  0.74963510  0.32964634  0.63076410  1
  O2-  O386  1  0.74966775  0.66150161  0.87724891  1
  O2-  O387  1  0.25013183  0.33141516  0.41939628  1
  O2-  O388  1  0.25045108  0.66248952  0.15755046  1
  O2-  O389  1  0.24913491  0.00586024  0.40161093  1
  O2-  O390  1  0.74933088  0.65585490  0.07498825  1
  O2-  O391  1  0.25036383  0.33346665  0.80862307  1
  O2-  O392  1  0.74986976  -0.01928579  0.58650053  1
  O2-  O393  1  0.74966851  0.33570492  0.83018538  1
  O2-  O394  1  0.24992585  0.34834981  0.08568037  1
  O2-  O395  1  0.24943000  -0.00013339  0.67132908  1
  O2-  O396  1  0.25015012  0.50868805  0.08617667  1
  O2-  O397  1  0.75037517  0.16159862  0.86677633  1
  O2-  O398  1  0.74978416  0.83253367  0.59714756  1
  O2-  O399  1  0.25005930  0.82465206  0.05330353  1
  O2-  O400  1  0.74938032  0.50169333  0.07236679  1
  O2-  O401  1  0.25014760  0.50042380  0.83972594  1
  O2-  O402  1  0.24991941  0.83071376  0.44513978  1
  O2-  O403  1  0.24979724  0.50808994  0.39380692  1
  O2-  O404  1  0.25025447  0.82922594  0.84027811  1
  O2-  O405  1  0.75022517  0.15554669  0.12998514  1
  O2-  O406  1  0.24988827  0.16611057  0.13223792  1
  O2-  O407  1  0.24981298  0.49783316  0.61968668  1
  O2-  O408  1  0.24993997  0.83858514  0.67027476  1
  O2-  O409  1  0.74974223  0.51186292  0.83939194  1
  O2-  O410  1  0.75015669  0.51560436  0.34887981  1
  O2-  O411  1  0.24996166  0.85233276  0.36548905  1
  O2-  O412  1  0.75008236  0.82963888  0.86073771  1
  O2-  O413  1  0.75004753  0.49845484  0.60826299  1
  O2-  O414  1  0.24989783  0.85419319  0.13533696  1
  O2-  O415  1  0.74977007  0.49800094  0.69030062  1
  O2-  O416  1  0.24960175  0.82933165  0.58787550  1
  O2-  O417  1  0.75031640  0.82036124  0.10687102  1
  O2-  O418  1  0.75003857  0.52503686  0.15960165  1
  O2-  O419  1  0.74986016  0.82721125  0.37134903  1
  O2-  O420  1  0.54104149  0.35001109  0.63459049  1
  O2-  O421  1  0.47210920  0.00308148  0.11808942  1
  O2-  O422  1  0.98053314  0.65451825  0.13383855  1
  O2-  O423  1  0.47450374  0.00647967  0.35831511  1
  O2-  O424  1  0.52676197  0.34476622  0.37818906  1
  O2-  O425  1  0.51968089  0.00185288  0.88551276  1
  O2-  O426  1  0.04548085  0.33214997  0.62998172  1
  O2-  O427  1  0.02671240  0.00033881  0.87673292  1
  O2-  O428  1  0.46710725  0.32243116  0.64305109  1
  O2-  O429  1  0.52742135  0.66250294  0.87544223  1
  O2-  O430  1  0.02733477  0.33467011  0.37384263  1
  O2-  O431  1  0.98586816  0.67177256  0.62815210  1
  O2-  O432  1  0.52755489  -0.01524849  0.38106062  1
  O2-  O433  1  0.95474978  0.32553937  0.62035377  1
  O2-  O434  1  0.02140880  0.65398599  0.88044133  1
  O2-  O435  1  0.52868382  0.33122942  0.87244523  1
  O2-  O436  1  0.02395241  0.32841798  0.13284063  1
  O2-  O437  1  0.95524908  0.66574336  0.36321409  1
  O2-  O438  1  0.46822546  0.31576686  0.36858712  1
  O2-  O439  1  0.02635176  0.00245003  0.37592585  1
  O2-  O440  1  0.97345464  0.32671316  0.86989286  1
  O2-  O441  1  0.52273550  0.67240611  0.11666336  1
  O2-  O442  1  0.02672496  0.00248732  0.12382226  1
  O2-  O443  1  0.04180360  0.67127871  0.39010285  1
