# generated using pymatgen
data_La7(Ru4O11)2
_symmetry_space_group_name_H-M   'P 1'
_cell_length_a   23.98875874
_cell_length_b   16.82815599
_cell_length_c   15.42511553
_cell_angle_alpha   90.00033669
_cell_angle_beta   89.99996904
_cell_angle_gamma   89.99992474
_symmetry_Int_Tables_number   1
_chemical_formula_structural   La7(Ru4O11)2
_chemical_formula_sum   'La84 Ru96 O264'
_cell_volume   6226.91204111
_cell_formula_units_Z   12
loop_
 _symmetry_equiv_pos_site_id
 _symmetry_equiv_pos_as_xyz
  1  'x, y, z'
loop_
 _atom_type_symbol
 _atom_type_oxidation_number
  La3+  3.0
  Ru4+  4.0
  O2-  -2.0
loop_
 _atom_site_type_symbol
 _atom_site_label
 _atom_site_symmetry_multiplicity
 _atom_site_fract_x
 _atom_site_fract_y
 _atom_site_fract_z
 _atom_site_occupancy
  La3+  La0  1  0.13937733  0.00011898  0.12469295  1
  La3+  La1  1  0.13791495  0.00086740  0.37539200  1
  La3+  La2  1  0.13822270  0.00100916  0.62526728  1
  La3+  La3  1  0.13838596  0.00041804  0.87505245  1
  La3+  La4  1  0.13859671  0.33332092  0.12535854  1
  La3+  La5  1  0.13801299  0.33335670  0.37576462  1
  La3+  La6  1  0.13841419  0.33244444  0.62462593  1
  La3+  La7  1  0.13855456  0.33287095  0.87433711  1
  La3+  La8  1  0.13868433  0.66622561  0.12619177  1
  La3+  La9  1  0.13911818  0.66671997  0.37357877  1
  La3+  La10  1  0.13868548  0.66690196  0.62507025  1
  La3+  La11  1  0.13848512  0.66673852  0.87476736  1
  La3+  La12  1  0.63782378  -0.00040520  0.12460139  1
  La3+  La13  1  0.63780262  -0.00005280  0.37553491  1
  La3+  La14  1  0.63811270  0.00046487  0.62444308  1
  La3+  La15  1  0.63766642  -0.00013607  0.87492956  1
  La3+  La16  1  0.64011607  0.33364818  0.12538144  1
  La3+  La17  1  0.63956283  0.33405021  0.37450787  1
  La3+  La18  1  0.63981349  0.33334722  0.62583829  1
  La3+  La19  1  0.63961958  0.33326913  0.87403687  1
  La3+  La20  1  0.63805470  0.66649440  0.12508197  1
  La3+  La21  1  0.63880734  0.66600081  0.37509494  1
  La3+  La22  1  0.63950318  0.66643905  0.62472071  1
  La3+  La23  1  0.63870080  0.66731269  0.87577823  1
  La3+  La24  1  0.36175815  -0.00022914  0.12378028  1
  La3+  La25  1  0.36207855  0.00086588  0.37565194  1
  La3+  La26  1  0.36183498  0.00060356  0.62470101  1
  La3+  La27  1  0.36156997  0.00021642  0.87534198  1
  La3+  La28  1  0.36165814  0.33287026  0.12501909  1
  La3+  La29  1  0.36149236  0.33260251  0.37551982  1
  La3+  La30  1  0.36193300  0.33188557  0.62548804  1
  La3+  La31  1  0.36155181  0.33238788  0.87378834  1
  La3+  La32  1  0.36106550  0.66644218  0.12564902  1
  La3+  La33  1  0.36071059  0.66677746  0.37476621  1
  La3+  La34  1  0.36119179  0.66726400  0.62420563  1
  La3+  La35  1  0.36149747  0.66693402  0.87532014  1
  La3+  La36  1  0.86078927  -0.00114004  0.12474443  1
  La3+  La37  1  0.86283248  0.00110932  0.37801604  1
  La3+  La38  1  0.86305024  0.00160766  0.62290732  1
  La3+  La39  1  0.86149190  -0.00037095  0.87452569  1
  La3+  La40  1  0.86092864  0.33408742  0.12543203  1
  La3+  La41  1  0.86058769  0.33403912  0.37460122  1
  La3+  La42  1  0.86035014  0.33345834  0.62592895  1
  La3+  La43  1  0.86113675  0.33310741  0.87435865  1
  La3+  La44  1  0.86255569  0.66741416  0.12385568  1
  La3+  La45  1  0.86135822  0.66540401  0.37503503  1
  La3+  La46  1  0.86210656  0.66600780  0.62441440  1
  La3+  La47  1  0.86260477  0.66814207  0.87636396  1
  La3+  La48  1  0.00004425  0.16662576  0.86382197  1
  La3+  La49  1  -0.00014186  0.83177041  0.13303697  1
  La3+  La50  1  -0.00073439  0.16541540  0.63473797  1
  La3+  La51  1  0.49940443  0.50092472  0.11525817  1
  La3+  La52  1  0.49969542  0.83298393  0.38376039  1
  La3+  La53  1  -0.00085679  0.50132924  0.61675959  1
  La3+  La54  1  -0.00130835  0.83054486  0.11407122  1
  La3+  La55  1  0.49909386  0.16564899  0.13525897  1
  La3+  La56  1  0.49965232  0.49895169  0.38651867  1
  La3+  La57  1  -0.00015762  0.16631016  0.61350344  1
  La3+  La58  1  0.49891122  0.16499958  0.61623380  1
  La3+  La59  1  0.50054466  0.50212049  0.88605134  1
  La3+  La60  1  0.49999931  0.16677859  0.36489108  1
  La3+  La61  1  0.50002179  0.49976737  0.13530943  1
  La3+  La62  1  0.50182487  0.16790600  0.86716390  1
  La3+  La63  1  -0.00011565  0.83336554  0.38498765  1
  La3+  La64  1  -0.00045129  0.83299549  0.63557265  1
  La3+  La65  1  -0.00019276  0.16642353  0.38615085  1
  La3+  La66  1  0.49921178  0.49914765  0.36500368  1
  La3+  La67  1  0.50088963  0.49847754  0.63188112  1
  La3+  La68  1  0.49974671  0.49918952  0.61454369  1
  La3+  La69  1  0.50029772  0.83359581  0.11560090  1
  La3+  La70  1  0.50006226  0.49901914  0.86396966  1
  La3+  La71  1  -0.00009867  0.49991232  0.11480059  1
  La3+  La72  1  0.74997031  0.80808562  0.77731393  1
  La3+  La73  1  0.75021119  0.19519346  -0.00141109  1
  La3+  La74  1  0.25006400  0.52465237  -0.01582432  1
  La3+  La75  1  0.75002262  0.83281712  0.47630967  1
  La3+  La76  1  0.75003137  0.47110707  0.00787707  1
  La3+  La77  1  0.75007060  0.19257343  0.23527459  1
  La3+  La78  1  0.75006525  0.49962208  0.51353044  1
  La3+  La79  1  0.25002231  0.80607505  0.25025912  1
  La3+  La80  1  0.25000290  0.52941476  0.49198874  1
  La3+  La81  1  0.25001392  0.80793978  0.49924222  1
  La3+  La82  1  0.25008548  0.81014713  0.76863181  1
  La3+  La83  1  0.75011135  0.83181321  0.22686475  1
  Ru4+  Ru84  1  -0.00045928  -0.00135712  -0.00292539  1
  Ru4+  Ru85  1  0.00133346  -0.00065458  0.25192858  1
  Ru4+  Ru86  1  -0.00048337  0.00157620  0.49753988  1
  Ru4+  Ru87  1  0.00033373  0.00008908  0.75188950  1
  Ru4+  Ru88  1  0.00079936  0.33805860  -0.00277394  1
  Ru4+  Ru89  1  -0.00019538  0.33367744  0.25019393  1
  Ru4+  Ru90  1  -0.00191287  0.32884721  0.50095985  1
  Ru4+  Ru91  1  -0.00094596  0.33314492  0.75114713  1
  Ru4+  Ru92  1  -0.00029279  0.66703083  0.00033794  1
  Ru4+  Ru93  1  -0.00127738  0.66323416  0.24845952  1
  Ru4+  Ru94  1  -0.00019432  0.66728171  0.50111417  1
  Ru4+  Ru95  1  0.00177708  0.67025426  0.74934003  1
  Ru4+  Ru96  1  0.50136758  0.00214147  -0.00091143  1
  Ru4+  Ru97  1  0.49999456  0.00025329  0.24924562  1
  Ru4+  Ru98  1  0.49957649  -0.00100696  0.50128474  1
  Ru4+  Ru99  1  0.50271181  -0.00513408  0.74936890  1
  Ru4+  Ru100  1  0.49785229  0.33253611  0.00051560  1
  Ru4+  Ru101  1  0.49977343  0.33372404  0.25022151  1
  Ru4+  Ru102  1  0.49886081  0.33470594  0.49825801  1
  Ru4+  Ru103  1  0.50116928  0.33574228  0.75102078  1
  Ru4+  Ru104  1  0.49713279  0.66927896  -0.00166424  1
  Ru4+  Ru105  1  0.49831317  0.66618490  0.24928714  1
  Ru4+  Ru106  1  0.49968731  0.66628291  0.50036650  1
  Ru4+  Ru107  1  0.49986748  0.67168067  0.75087913  1
  Ru4+  Ru108  1  0.11385601  0.16650959  0.00054821  1
  Ru4+  Ru109  1  0.11246628  0.16664572  0.25018555  1
  Ru4+  Ru110  1  0.11322560  0.16667026  0.49995033  1
  Ru4+  Ru111  1  0.11317520  0.16692071  0.75001523  1
  Ru4+  Ru112  1  0.11209776  0.50046408  -0.00014729  1
  Ru4+  Ru113  1  0.11317310  0.50139325  0.24986118  1
  Ru4+  Ru114  1  0.11505377  0.50272894  0.49928721  1
  Ru4+  Ru115  1  0.11284468  0.50126502  0.74977680  1
  Ru4+  Ru116  1  0.11368891  0.83279106  -0.00021192  1
  Ru4+  Ru117  1  0.11317790  0.83446005  0.25018684  1
  Ru4+  Ru118  1  0.11200911  0.83348266  0.49992520  1
  Ru4+  Ru119  1  0.11227844  0.83401522  0.75003635  1
  Ru4+  Ru120  1  0.61295405  0.16589993  -0.00007059  1
  Ru4+  Ru121  1  0.61209121  0.16658319  0.24988172  1
  Ru4+  Ru122  1  0.61367704  0.16542949  0.50008962  1
  Ru4+  Ru123  1  0.61310324  0.16756795  0.75001489  1
  Ru4+  Ru124  1  0.61513791  0.49849680  -0.00039872  1
  Ru4+  Ru125  1  0.61421157  0.49898700  0.25010727  1
  Ru4+  Ru126  1  0.61323175  0.49897369  0.50011874  1
  Ru4+  Ru127  1  0.61371592  0.49780353  0.74992149  1
  Ru4+  Ru128  1  0.61361474  0.83391598  -0.00000177  1
  Ru4+  Ru129  1  0.61295009  0.83551289  0.25062676  1
  Ru4+  Ru130  1  0.61268815  0.83374364  0.50025719  1
  Ru4+  Ru131  1  0.61079674  0.83340402  0.75041595  1
  Ru4+  Ru132  1  0.38733038  0.16693470  0.00035454  1
  Ru4+  Ru133  1  0.38768027  0.16664200  0.25010586  1
  Ru4+  Ru134  1  0.38637038  0.16743046  0.49992666  1
  Ru4+  Ru135  1  0.38331130  0.16798287  0.74962647  1
  Ru4+  Ru136  1  0.38724757  0.50135506  0.00003400  1
  Ru4+  Ru137  1  0.38673125  0.50085115  0.24980030  1
  Ru4+  Ru138  1  0.38796712  0.50043211  0.50018831  1
  Ru4+  Ru139  1  0.38612256  0.49848071  0.75023540  1
  Ru4+  Ru140  1  0.38629953  0.83276359  -0.00049746  1
  Ru4+  Ru141  1  0.38772520  0.83244018  0.24976121  1
  Ru4+  Ru142  1  0.38729685  0.83458709  0.50051105  1
  Ru4+  Ru143  1  0.38753302  0.83294255  0.75000503  1
  Ru4+  Ru144  1  0.88509658  0.16651164  0.00010227  1
  Ru4+  Ru145  1  0.88710847  0.16797016  0.25055529  1
  Ru4+  Ru146  1  0.88831528  0.16582909  0.49992842  1
  Ru4+  Ru147  1  0.88686940  0.16743690  0.74951602  1
  Ru4+  Ru148  1  0.88759330  0.49988651  -0.00000239  1
  Ru4+  Ru149  1  0.88641242  0.50069458  0.25042701  1
  Ru4+  Ru150  1  0.88704662  0.49995301  0.49990647  1
  Ru4+  Ru151  1  0.88483565  0.49668418  0.74968190  1
  Ru4+  Ru152  1  0.88767384  0.83172187  -0.00060064  1
  Ru4+  Ru153  1  0.88777391  0.83343662  0.24950010  1
  Ru4+  Ru154  1  0.88802717  0.83342022  0.49997211  1
  Ru4+  Ru155  1  0.88789618  0.83298966  0.75027574  1
  Ru4+  Ru156  1  0.74986921  0.58207350  0.74892840  1
  Ru4+  Ru157  1  0.25003075  0.58231234  0.75140100  1
  Ru4+  Ru158  1  0.75006375  0.06758566  0.25148881  1
  Ru4+  Ru159  1  0.74998206  0.94639719  0.25271950  1
  Ru4+  Ru160  1  0.25002134  0.08397780  -0.00020652  1
  Ru4+  Ru161  1  0.74998526  0.06598681  -0.00338387  1
  Ru4+  Ru162  1  0.25004575  0.39830588  -0.00192451  1
  Ru4+  Ru163  1  0.25004253  0.93387009  0.24313164  1
  Ru4+  Ru164  1  0.75008598  0.60088265  0.00214267  1
  Ru4+  Ru165  1  0.75008265  0.71937121  0.25184828  1
  Ru4+  Ru166  1  0.74993829  0.08551136  0.75022914  1
  Ru4+  Ru167  1  0.25003617  0.41577674  0.75243046  1
  Ru4+  Ru168  1  0.25013320  0.08528554  0.24876725  1
  Ru4+  Ru169  1  0.75010228  0.93748390  0.74961728  1
  Ru4+  Ru170  1  0.25011015  0.24914915  0.24968333  1
  Ru4+  Ru171  1  0.25032236  0.40045538  0.50486833  1
  Ru4+  Ru172  1  0.25016140  0.93668020  0.74970810  1
  Ru4+  Ru173  1  0.25004503  0.93415234  0.50579328  1
  Ru4+  Ru174  1  0.74992751  0.91251385  0.00072707  1
  Ru4+  Ru175  1  0.74995480  0.24900130  0.49972838  1
  Ru4+  Ru176  1  0.24992768  0.75152230  0.00112975  1
  Ru4+  Ru177  1  0.24996339  0.41961985  0.24931187  1
  Ru4+  Ru178  1  0.25017329  0.24827964  -0.00149590  1
  Ru4+  Ru179  1  0.74993029  0.08679693  0.50005657  1
  O2-  O180  1  0.16800184  0.08115753  -0.00047041  1
  O2-  O181  1  0.16785750  0.08069424  0.25036714  1
  O2-  O182  1  0.16744778  0.08049173  0.50009780  1
  O2-  O183  1  0.16777361  0.08045831  0.74985018  1
  O2-  O184  1  0.16720960  0.41325342  -0.00016690  1
  O2-  O185  1  0.16819324  0.41431020  0.25000093  1
  O2-  O186  1  0.16794133  0.41339881  0.50051048  1
  O2-  O187  1  0.16803744  0.41404937  0.74978870  1
  O2-  O188  1  0.16774843  0.74787043  -0.00031217  1
  O2-  O189  1  0.16790148  0.74746720  0.24957568  1
  O2-  O190  1  0.16763055  0.74698811  0.50007627  1
  O2-  O191  1  0.16736720  0.74682765  0.74993061  1
  O2-  O192  1  0.66705404  0.08028581  0.00000650  1
  O2-  O193  1  0.66716824  0.08015074  0.25002517  1
  O2-  O194  1  0.66825618  0.08087801  0.49978250  1
  O2-  O195  1  0.66846095  0.08052510  0.74999025  1
  O2-  O196  1  0.66726416  0.41391896  -0.00036750  1
  O2-  O197  1  0.66791608  0.41449380  0.24965305  1
  O2-  O198  1  0.66732531  0.41414286  0.50031928  1
  O2-  O199  1  0.66726794  0.41482219  0.75007084  1
  O2-  O200  1  0.66763998  0.74792409  -0.00032548  1
  O2-  O201  1  0.66676158  0.74701927  0.25003891  1
  O2-  O202  1  0.66831250  0.74768455  0.49937918  1
  O2-  O203  1  0.66766447  0.74709872  0.75006361  1
  O2-  O204  1  0.33169103  0.25261923  -0.00000705  1
  O2-  O205  1  0.33205379  0.25293564  0.25009719  1
  O2-  O206  1  0.33212299  0.25233687  0.49989911  1
  O2-  O207  1  0.33254666  0.25221422  0.74957580  1
  O2-  O208  1  0.33291313  0.58604844  -0.00005981  1
  O2-  O209  1  0.33221554  0.58530968  0.24990234  1
  O2-  O210  1  0.33287426  0.58665631  0.50013973  1
  O2-  O211  1  0.33226194  0.58602073  0.74951617  1
  O2-  O212  1  0.33190696  0.91869865  -0.00062507  1
  O2-  O213  1  0.33295724  0.92011696  0.25020739  1
  O2-  O214  1  0.33248556  0.91962450  0.49999480  1
  O2-  O215  1  0.33259650  0.91996991  0.75022410  1
  O2-  O216  1  0.83312490  0.25283636  -0.00018519  1
  O2-  O217  1  0.83272704  0.25289156  0.25016331  1
  O2-  O218  1  0.83194083  0.25211351  0.49994203  1
  O2-  O219  1  0.83225804  0.25165346  0.75007191  1
  O2-  O220  1  0.83222840  0.58656947  -0.00017337  1
  O2-  O221  1  0.83266389  0.58480649  0.24972124  1
  O2-  O222  1  0.83194214  0.58611049  0.49974700  1
  O2-  O223  1  0.83172778  0.58552326  0.75039748  1
  O2-  O224  1  0.83251205  0.91885022  -0.00057110  1
  O2-  O225  1  0.83278703  0.91966979  0.25067792  1
  O2-  O226  1  0.83173711  0.92009956  0.49996851  1
  O2-  O227  1  0.83263014  0.92003064  0.74999026  1
  O2-  O228  1  0.16779508  0.25240621  -0.00029319  1
  O2-  O229  1  0.16781601  0.25238432  0.24992114  1
  O2-  O230  1  0.16735899  0.25268289  0.50026399  1
  O2-  O231  1  0.16736431  0.25252434  0.74960183  1
  O2-  O232  1  0.16690821  0.58613296  -0.00011182  1
  O2-  O233  1  0.16779820  0.58494758  0.24990420  1
  O2-  O234  1  0.16661093  0.58604304  0.50028142  1
  O2-  O235  1  0.16735651  0.58566896  0.75004136  1
  O2-  O236  1  0.16824365  0.91883826  -0.00034052  1
  O2-  O237  1  0.16703421  0.91973769  0.25003510  1
  O2-  O238  1  0.16721333  0.91987660  0.50015825  1
  O2-  O239  1  0.16726276  0.91954977  0.75006243  1
  O2-  O240  1  0.66726824  0.25285598  0.00009810  1
  O2-  O241  1  0.66739543  0.25316902  0.25002852  1
  O2-  O242  1  0.66809989  0.25226796  0.50001871  1
  O2-  O243  1  0.66727690  0.25173789  0.75010751  1
  O2-  O244  1  0.66753879  0.58641076  -0.00002383  1
  O2-  O245  1  0.66719624  0.58558832  0.25009941  1
  O2-  O246  1  0.66783788  0.58658252  0.49965514  1
  O2-  O247  1  0.66839799  0.58632161  0.75020325  1
  O2-  O248  1  0.66801316  0.91901695  -0.00048388  1
  O2-  O249  1  0.66699742  0.91949171  0.25006357  1
  O2-  O250  1  0.66811423  0.91963072  0.49984823  1
  O2-  O251  1  0.66730728  0.91974059  0.74994359  1
  O2-  O252  1  0.33230706  0.08083987  -0.00039789  1
  O2-  O253  1  0.33205157  0.08041488  0.25017124  1
  O2-  O254  1  0.33257592  0.08077647  0.49992422  1
  O2-  O255  1  0.33206748  0.08099691  0.75033609  1
  O2-  O256  1  0.33269713  0.41308568  -0.00013732  1
  O2-  O257  1  0.33176367  0.41402098  0.25015352  1
  O2-  O258  1  0.33248979  0.41326110  0.50010996  1
  O2-  O259  1  0.33195804  0.41449791  0.74962471  1
  O2-  O260  1  0.33215736  0.74806435  -0.00023310  1
  O2-  O261  1  0.33210204  0.74762349  0.24985133  1
  O2-  O262  1  0.33210903  0.74711864  0.50005344  1
  O2-  O263  1  0.33280063  0.74688110  0.74969420  1
  O2-  O264  1  0.83250708  0.08079863  -0.00042811  1
  O2-  O265  1  0.83222114  0.08003505  0.25027339  1
  O2-  O266  1  0.83162589  0.08057198  0.49976960  1
  O2-  O267  1  0.83163473  0.08058158  0.74998059  1
  O2-  O268  1  0.83327896  0.41414230  -0.00041893  1
  O2-  O269  1  0.83215764  0.41464790  0.25001922  1
  O2-  O270  1  0.83281102  0.41424145  0.50015301  1
  O2-  O271  1  0.83299095  0.41509978  0.75030136  1
  O2-  O272  1  0.83167589  0.74765951  -0.00003024  1
  O2-  O273  1  0.83293114  0.74712484  0.25031744  1
  O2-  O274  1  0.83205464  0.74743730  0.49970550  1
  O2-  O275  1  0.83245873  0.74697178  0.75015214  1
  O2-  O276  1  0.04079833  0.43913411  0.49036591  1
  O2-  O277  1  0.54490963  0.76371597  0.76498902  1
  O2-  O278  1  0.96586804  0.11595150  0.01736018  1
  O2-  O279  1  0.54476861  0.56752518  0.49877984  1
  O2-  O280  1  0.94776875  0.42201450  0.22906794  1
  O2-  O281  1  0.45535268  0.09911891  0.48450653  1
  O2-  O282  1  0.95227095  0.09466369  0.48790485  1
  O2-  O283  1  0.04719102  0.56931572  0.73359820  1
  O2-  O284  1  0.54527316  0.90340585  0.48490870  1
  O2-  O285  1  0.54518611  0.23434995  0.23501826  1
  O2-  O286  1  0.95418030  0.23494393  0.01929256  1
  O2-  O287  1  0.44628617  0.08603469  0.78142787  1
  O2-  O288  1  0.04322529  0.22918319  0.97568848  1
  O2-  O289  1  0.45904523  0.56191668  0.72474425  1
  O2-  O290  1  0.54723355  0.76340092  0.23339004  1
  O2-  O291  1  0.04198172  0.43733052  0.77402168  1
  O2-  O292  1  0.96696915  0.11984008  0.23186769  1
  O2-  O293  1  0.04494441  0.76285758  0.74290841  1
  O2-  O294  1  0.45389747  0.76421797  0.01534974  1
  O2-  O295  1  0.95827060  0.77230438  0.98902904  1
  O2-  O296  1  0.04250359  0.43483264  0.51645395  1
  O2-  O297  1  0.54479017  0.56759770  0.50166611  1
  O2-  O298  1  0.03872656  0.11254492  0.00759157  1
  O2-  O299  1  0.54141343  0.22840524  0.52372056  1
  O2-  O300  1  0.54516386  0.90250665  0.76400894  1
  O2-  O301  1  0.04389363  0.76440884  0.75720070  1
  O2-  O302  1  0.53650897  0.77887752  0.50856046  1
  O2-  O303  1  0.04495149  0.76570803  0.48592763  1
  O2-  O304  1  0.94539838  0.58397109  0.52269221  1
  O2-  O305  1  0.95347493  0.43098754  0.73433337  1
  O2-  O306  1  0.04506165  0.90209036  0.73489921  1
  O2-  O307  1  0.95943730  0.56196177  0.74186964  1
  O2-  O308  1  0.95378608  0.76333092  0.01526039  1
  O2-  O309  1  0.45448820  0.23383579  0.76926922  1
  O2-  O310  1  0.04659763  0.76424643  0.26586967  1
  O2-  O311  1  0.45442860  0.43132004  0.98631326  1
  O2-  O312  1  0.54098094  0.22793468  0.02470498  1
  O2-  O313  1  0.54663947  0.57031061  0.01572247  1
  O2-  O314  1  0.54231631  0.77160031  0.97491756  1
  O2-  O315  1  0.04459207  0.43231863  0.98595902  1
  O2-  O316  1  0.44509313  0.91427138  0.02414986  1
  O2-  O317  1  0.45502116  0.23237843  0.72992676  1
  O2-  O318  1  0.95926313  0.10519096  0.51155855  1
  O2-  O319  1  0.04641906  0.09818930  0.26658880  1
  O2-  O320  1  0.95401649  0.23649976  0.98047625  1
  O2-  O321  1  0.54552750  0.56905917  0.26441708  1
  O2-  O322  1  0.95630150  0.56528389  0.76742950  1
  O2-  O323  1  0.44588593  0.75122714  0.47535385  1
  O2-  O324  1  0.43007557  0.60386586  0.79166464  1
  O2-  O325  1  0.56457564  0.40145575  0.04834150  1
  O2-  O326  1  0.06463678  0.92967148  0.95568852  1
  O2-  O327  1  0.06497032  0.92880538  0.04410674  1
  O2-  O328  1  0.56953517  0.26915116  0.45928584  1
  O2-  O329  1  0.06783487  0.39603765  0.70828581  1
  O2-  O330  1  0.56472554  0.59825300  0.79791089  1
  O2-  O331  1  0.44443691  0.91698272  0.02295433  1
  O2-  O332  1  0.93526602  0.26382641  0.46925412  1
  O2-  O333  1  0.44408436  0.74857216  0.47561011  1
  O2-  O334  1  0.93579614  0.92866454  0.21949278  1
  O2-  O335  1  0.93599549  0.59689576  0.03312329  1
  O2-  O336  1  0.93573380  0.73609612  0.21731281  1
  O2-  O337  1  0.57305970  0.72058604  0.54007307  1
  O2-  O338  1  0.07437930  0.05685153  0.03795785  1
  O2-  O339  1  0.43489539  0.26318020  0.03077843  1
  O2-  O340  1  0.07144543  0.39366620  0.46251199  1
  O2-  O341  1  0.93205123  0.06263054  0.94511255  1
  O2-  O342  1  0.56489954  0.59849706  0.70182616  1
  O2-  O343  1  0.56437149  0.06848522  0.53239597  1
  O2-  O344  1  0.92901535  0.60717305  0.71247129  1
  O2-  O345  1  0.06895330  0.26875343  0.03956564  1
  O2-  O346  1  0.43628152  0.59715470  0.21780833  1
  O2-  O347  1  0.93645352  0.26473046  0.78259379  1
  O2-  O348  1  0.56465828  0.93137730  0.03282064  1
  O2-  O349  1  0.44629266  0.08605912  0.78118933  1
  O2-  O350  1  0.43496773  0.93031003  0.52969373  1
  O2-  O351  1  0.56793399  0.27011440  0.95719133  1
  O2-  O352  1  0.43495922  0.40313910  0.78098156  1
  O2-  O353  1  0.06450079  0.59622572  0.21932856  1
  O2-  O354  1  0.56789753  0.73039370  0.04171385  1
  O2-  O355  1  0.92598792  0.05840557  0.19854161  1
  O2-  O356  1  0.94275481  0.41357424  0.22376693  1
  O2-  O357  1  0.56411585  0.93160403  0.28258353  1
  O2-  O358  1  0.56482081  0.40332440  0.28059493  1
  O2-  O359  1  0.43234983  0.06655029  0.70418704  1
  O2-  O360  1  0.93251757  0.06632907  0.53095354  1
  O2-  O361  1  0.93386760  0.73313616  0.96745456  1
  O2-  O362  1  0.56246034  0.59388348  0.03229334  1
  O2-  O363  1  0.56448861  0.40213327  0.95176448  1
  O2-  O364  1  0.43601335  0.73638883  0.21770203  1
  O2-  O365  1  0.43492935  0.26333335  0.53085569  1
  O2-  O366  1  0.06323047  0.73979116  0.27890037  1
  O2-  O367  1  0.92559983  0.05638518  0.05111756  1
  O2-  O368  1  0.93566123  0.59674764  0.28009324  1
  O2-  O369  1  0.93143547  0.06238256  0.30591981  1
  O2-  O370  1  0.56213749  0.73727205  0.21877965  1
  O2-  O371  1  0.94456731  0.57957629  0.52307159  1
  O2-  O372  1  0.75008164  0.66721930  0.90572789  1
  O2-  O373  1  0.74995073  0.33289676  0.65510517  1
  O2-  O374  1  0.75000427  0.33347362  0.83286935  1
  O2-  O375  1  0.24995159  0.33410901  0.32923805  1
  O2-  O376  1  0.24999414  0.66836262  0.34337021  1
  O2-  O377  1  0.74989272  0.66562367  0.34578827  1
  O2-  O378  1  0.24994910  0.66620411  0.92004915  1
  O2-  O379  1  0.74996765  0.66560760  0.15491277  1
  O2-  O380  1  0.24999192  0.66789744  0.09173814  1
  O2-  O381  1  0.74995701  0.66763378  0.66929232  1
  O2-  O382  1  0.25000754  0.66731938  0.66910515  1
  O2-  O383  1  0.24992565  0.32972286  0.41797630  1
  O2-  O384  1  0.24995989  0.00398465  0.41957272  1
  O2-  O385  1  0.24994792  0.33163193  0.09478565  1
  O2-  O386  1  0.74991221  0.66629705  0.58109698  1
  O2-  O387  1  0.74999366  0.33353216  0.91750520  1
  O2-  O388  1  0.74990832  0.33291685  0.09286518  1
  O2-  O389  1  0.24998894  0.66808849  0.83097611  1
  O2-  O390  1  0.24994357  0.00070481  0.09243053  1
  O2-  O391  1  0.24998900  0.66651441  0.58048023  1
  O2-  O392  1  0.24996938  0.33406335  0.84251687  1
  O2-  O393  1  0.25001409  0.00330710  0.33283099  1
  O2-  O394  1  0.75007647  0.33168140  0.40897093  1
  O2-  O395  1  0.74996750  -0.00111708  0.09445510  1
  O2-  O396  1  0.74998896  0.83536867  0.66314851  1
  O2-  O397  1  0.25002408  0.16668387  0.41639403  1
  O2-  O398  1  0.25000971  0.49991254  0.67746207  1
  O2-  O399  1  0.74994808  0.83313268  0.58847994  1
  O2-  O400  1  0.74996697  0.16497349  0.35806025  1
  O2-  O401  1  0.74999423  0.49817000  0.82029874  1
  O2-  O402  1  0.24997087  0.16662511  0.08114830  1
  O2-  O403  1  0.24994628  0.83480448  0.64278344  1
  O2-  O404  1  0.74999296  0.83319200  0.35350738  1
  O2-  O405  1  0.74998195  0.16624632  0.58979914  1
  O2-  O406  1  0.25001208  0.49629347  0.38355026  1
  O2-  O407  1  0.74994565  0.50437638  0.11465456  1
  O2-  O408  1  0.74995750  0.16326731  0.11039671  1
  O2-  O409  1  0.25004817  0.49582715  0.60083317  1
  O2-  O410  1  0.74996242  0.16268794  0.88743055  1
  O2-  O411  1  0.24997306  0.16641207  0.91015011  1
  O2-  O412  1  0.74997166  0.83447565  0.08933605  1
  O2-  O413  1  0.25000272  0.49797576  0.10730013  1
  O2-  O414  1  0.74990070  0.50317127  0.89795004  1
  O2-  O415  1  0.24997498  0.16680218  0.16787138  1
  O2-  O416  1  0.74994500  0.50019148  0.39679117  1
  O2-  O417  1  0.24995567  0.16674366  0.33419369  1
  O2-  O418  1  0.24999812  0.16669687  0.59000539  1
  O2-  O419  1  0.25000845  0.50002415  0.83963300  1
  O2-  O420  1  0.02879625  0.33467511  0.12805758  1
  O2-  O421  1  0.97395206  0.67058774  0.62428054  1
  O2-  O422  1  0.47282376  0.33473459  0.12721457  1
  O2-  O423  1  0.52588099  0.33379940  0.37490951  1
  O2-  O424  1  0.47281027  0.00195539  0.12681984  1
  O2-  O425  1  0.02922471  0.33131354  0.37199399  1
  O2-  O426  1  0.52786761  0.00133912  0.87602917  1
  O2-  O427  1  0.97111273  0.33207644  0.12358182  1
  O2-  O428  1  0.53187633  0.33350861  0.62589613  1
  O2-  O429  1  0.02923218  0.66472105  0.37738727  1
  O2-  O430  1  0.47260559  0.66774451  0.87709287  1
  O2-  O431  1  0.02720514  0.66799637  0.12352183  1
  O2-  O432  1  0.03190834  0.00063319  0.62489572  1
  O2-  O433  1  0.47314777  0.33198680  0.87579278  1
  O2-  O434  1  0.97085182  0.33413564  0.37281585  1
  O2-  O435  1  0.97238250  0.33269192  0.62404464  1
  O2-  O436  1  0.96900787  -0.00182405  0.62831897  1
  O2-  O437  1  0.47425122  -0.00001933  0.62474914  1
  O2-  O438  1  0.97232123  -0.00338930  0.12282511  1
  O2-  O439  1  0.02939885  -0.00003540  0.12962795  1
  O2-  O440  1  0.97085442  0.66831020  0.37674581  1
  O2-  O441  1  0.46926054  0.33515702  0.62620072  1
  O2-  O442  1  0.02689027  0.00230896  0.87247536  1
  O2-  O443  1  0.02770744  0.33233142  0.87502581  1
