# generated using pymatgen
data_La7(Ru4O11)2
_symmetry_space_group_name_H-M   'P 1'
_cell_length_a   23.99210184
_cell_length_b   16.83210570
_cell_length_c   15.42784369
_cell_angle_alpha   90.00178948
_cell_angle_beta   89.99905479
_cell_angle_gamma   90.00044659
_symmetry_Int_Tables_number   1
_chemical_formula_structural   La7(Ru4O11)2
_chemical_formula_sum   'La84 Ru96 O264'
_cell_volume   6230.34327585
_cell_formula_units_Z   12
loop_
 _symmetry_equiv_pos_site_id
 _symmetry_equiv_pos_as_xyz
  1  'x, y, z'
loop_
 _atom_type_symbol
 _atom_type_oxidation_number
  La3+  3.0
  Ru4+  4.0
  O2-  -2.0
loop_
 _atom_site_type_symbol
 _atom_site_label
 _atom_site_symmetry_multiplicity
 _atom_site_fract_x
 _atom_site_fract_y
 _atom_site_fract_z
 _atom_site_occupancy
  La3+  La0  1  0.14229615  0.00091530  0.13079558  1
  La3+  La1  1  0.14238586  -0.00300865  0.38018413  1
  La3+  La2  1  0.13739245  0.00146199  0.62571134  1
  La3+  La3  1  0.14222179  0.00189297  0.86904642  1
  La3+  La4  1  0.13802768  0.33333138  0.12537615  1
  La3+  La5  1  0.13887857  0.33429499  0.37418374  1
  La3+  La6  1  0.14116408  0.32955771  0.62837867  1
  La3+  La7  1  0.14440918  0.33083465  0.87530375  1
  La3+  La8  1  0.13834506  0.66863886  0.12507325  1
  La3+  La9  1  0.14030954  0.66922053  0.37884542  1
  La3+  La10  1  0.14225378  0.66769141  0.62366747  1
  La3+  La11  1  0.14141054  0.66589756  0.87380597  1
  La3+  La12  1  0.64040843  -0.00496183  0.12022268  1
  La3+  La13  1  0.63470038  -0.00019555  0.37253777  1
  La3+  La14  1  0.63465402  0.00094795  0.62892058  1
  La3+  La15  1  0.64177706  -0.00749063  0.87824831  1
  La3+  La16  1  0.64002934  0.33414036  0.12806642  1
  La3+  La17  1  0.64058290  0.33952452  0.37868417  1
  La3+  La18  1  0.63600938  0.33662547  0.62631252  1
  La3+  La19  1  0.63784029  0.33681306  0.87447838  1
  La3+  La20  1  0.63970227  0.66702122  0.12313878  1
  La3+  La21  1  0.63998071  0.66497409  0.37085244  1
  La3+  La22  1  0.63551038  0.66599055  0.62605995  1
  La3+  La23  1  0.63983582  0.66820803  0.87928421  1
  La3+  La24  1  0.35776227  0.00087043  0.13187409  1
  La3+  La25  1  0.35457802  0.00254949  0.37560257  1
  La3+  La26  1  0.36141396  0.00052972  0.62606688  1
  La3+  La27  1  0.35537900  0.00226409  0.87201388  1
  La3+  La28  1  0.36378892  0.32933862  0.12764920  1
  La3+  La29  1  0.36323062  0.32823653  0.37276871  1
  La3+  La30  1  0.35910388  0.33179034  0.62951778  1
  La3+  La31  1  0.35885435  0.33165882  0.87249240  1
  La3+  La32  1  0.36377937  0.66934226  0.12325275  1
  La3+  La33  1  0.36112426  0.66924867  0.37678388  1
  La3+  La34  1  0.35849739  0.66815286  0.62579069  1
  La3+  La35  1  0.36147042  0.66715051  0.87347464  1
  La3+  La36  1  0.85447689  -0.00023540  0.11980615  1
  La3+  La37  1  0.86209481  0.00186614  0.37364453  1
  La3+  La38  1  0.86279137  -0.00076892  0.62582009  1
  La3+  La39  1  0.85902860  -0.00290711  0.87687405  1
  La3+  La40  1  0.85899564  0.33633897  0.12974940  1
  La3+  La41  1  0.86019277  0.33514152  0.37192209  1
  La3+  La42  1  0.86567572  0.33789586  0.62809240  1
  La3+  La43  1  0.86105979  0.33778165  0.87140025  1
  La3+  La44  1  0.86138494  0.66493852  0.12983723  1
  La3+  La45  1  0.86018692  0.66352053  0.36907770  1
  La3+  La46  1  0.85531647  0.66881797  0.63068384  1
  La3+  La47  1  0.85773711  0.66738154  0.87753073  1
  La3+  La48  1  0.49736146  0.17073749  0.62151893  1
  La3+  La49  1  0.50664686  0.17010559  0.86264562  1
  La3+  La50  1  0.00685350  0.50713599  0.87543651  1
  La3+  La51  1  0.50062594  0.83174063  0.37982629  1
  La3+  La52  1  0.49777666  0.50643556  0.87257655  1
  La3+  La53  1  0.00017089  0.83568541  0.62547423  1
  La3+  La54  1  -0.00127388  0.16934417  0.36585231  1
  La3+  La55  1  0.00066237  0.50342065  0.85571816  1
  La3+  La56  1  0.50030714  0.49580749  0.61689693  1
  La3+  La57  1  0.49584590  0.16070741  0.12836893  1
  La3+  La58  1  0.50609487  0.50831692  0.36791168  1
  La3+  La59  1  0.00289115  0.83809166  0.36279667  1
  La3+  La60  1  0.00037697  0.83923532  0.89167388  1
  La3+  La61  1  -0.00224423  0.15920030  0.62365086  1
  La3+  La62  1  0.00263192  0.83445678  0.60344864  1
  La3+  La63  1  -0.00245012  0.50329561  0.34953452  1
  La3+  La64  1  0.00015368  0.49997680  0.36531433  1
  La3+  La65  1  -0.00206988  0.16279327  0.64022054  1
  La3+  La66  1  0.00059506  0.16288735  0.86427022  1
  La3+  La67  1  -0.00358804  0.51030897  0.62470519  1
  La3+  La68  1  0.00188358  0.16498661  0.88538267  1
  La3+  La69  1  0.00109718  0.82871681  0.87267603  1
  La3+  La70  1  0.00121910  0.16613770  0.12023656  1
  La3+  La71  1  0.49986990  0.83154383  0.63439813  1
  La3+  La72  1  0.25012005  0.78618331  -0.02696534  1
  La3+  La73  1  0.74896377  0.11600875  0.01050683  1
  La3+  La74  1  0.25054674  0.53717294  0.52161864  1
  La3+  La75  1  0.25009532  0.45174068  -0.01846516  1
  La3+  La76  1  0.75118848  0.16356994  0.25131733  1
  La3+  La77  1  0.25072862  0.48632359  0.24930300  1
  La3+  La78  1  0.25058855  0.50171953  0.72702487  1
  La3+  La79  1  0.75012126  0.17225228  0.74559473  1
  La3+  La80  1  0.74986203  0.13508106  0.51493910  1
  La3+  La81  1  0.74910403  0.45469685  0.48636892  1
  La3+  La82  1  0.25039857  0.84093575  0.30628963  1
  La3+  La83  1  0.74991439  0.85065793  0.53928298  1
  Ru4+  Ru84  1  0.00016933  -0.00030490  0.00178008  1
  Ru4+  Ru85  1  -0.00807726  -0.00935530  0.25220388  1
  Ru4+  Ru86  1  -0.00468130  0.00845110  0.50081453  1
  Ru4+  Ru87  1  -0.00722736  -0.00231365  0.75366808  1
  Ru4+  Ru88  1  0.00283496  0.33271336  -0.00160137  1
  Ru4+  Ru89  1  -0.00179564  0.33519176  0.24574277  1
  Ru4+  Ru90  1  -0.00046718  0.33300992  0.50335676  1
  Ru4+  Ru91  1  0.00421885  0.32499546  0.75204258  1
  Ru4+  Ru92  1  0.00043342  0.66556393  -0.00249997  1
  Ru4+  Ru93  1  0.00050103  0.67539236  0.25275422  1
  Ru4+  Ru94  1  -0.00291597  0.66205259  0.50065496  1
  Ru4+  Ru95  1  -0.00146067  0.66639438  0.75463730  1
  Ru4+  Ru96  1  0.50010861  0.00216495  -0.00348919  1
  Ru4+  Ru97  1  0.50017176  -0.00190369  0.25566953  1
  Ru4+  Ru98  1  0.49700020  0.00422753  0.49734111  1
  Ru4+  Ru99  1  0.50192669  0.00217614  0.74833432  1
  Ru4+  Ru100  1  0.50104034  0.33308888  0.00025568  1
  Ru4+  Ru101  1  0.50143604  0.33412192  0.25124586  1
  Ru4+  Ru102  1  0.50017166  0.33570219  0.49673255  1
  Ru4+  Ru103  1  0.50149185  0.33478173  0.75511156  1
  Ru4+  Ru104  1  0.51240473  0.67315905  0.00358480  1
  Ru4+  Ru105  1  0.49867171  0.66655984  0.24746573  1
  Ru4+  Ru106  1  0.50053336  0.66750945  0.50076346  1
  Ru4+  Ru107  1  0.50079197  0.66692486  0.74963143  1
  Ru4+  Ru108  1  0.11138011  0.16724199  -0.00113727  1
  Ru4+  Ru109  1  0.11464731  0.16582147  0.24929434  1
  Ru4+  Ru110  1  0.11445498  0.16586860  0.49724410  1
  Ru4+  Ru111  1  0.11871793  0.17066272  0.75063207  1
  Ru4+  Ru112  1  0.10951851  0.49808139  0.00195834  1
  Ru4+  Ru113  1  0.10962851  0.49877190  0.24820595  1
  Ru4+  Ru114  1  0.11070823  0.49462873  0.50489108  1
  Ru4+  Ru115  1  0.11333897  0.49992595  0.75049810  1
  Ru4+  Ru116  1  0.11185096  0.83643245  0.00139747  1
  Ru4+  Ru117  1  0.11210011  0.83533597  0.25022026  1
  Ru4+  Ru118  1  0.11811144  0.83145071  0.49859001  1
  Ru4+  Ru119  1  0.11742472  0.83077655  0.74975388  1
  Ru4+  Ru120  1  0.60984365  0.16617783  0.00062976  1
  Ru4+  Ru121  1  0.61180156  0.16349536  0.25452944  1
  Ru4+  Ru122  1  0.60923684  0.16674896  0.50024885  1
  Ru4+  Ru123  1  0.60854490  0.16071233  0.75212144  1
  Ru4+  Ru124  1  0.61046248  0.49931830  0.00250016  1
  Ru4+  Ru125  1  0.61659623  0.50017767  0.25089714  1
  Ru4+  Ru126  1  0.60772746  0.49978062  0.50077123  1
  Ru4+  Ru127  1  0.61316414  0.49747672  0.74769916  1
  Ru4+  Ru128  1  0.61181113  0.83270037  0.00256446  1
  Ru4+  Ru129  1  0.61211822  0.83294100  0.25289388  1
  Ru4+  Ru130  1  0.60972610  0.83650845  0.50041502  1
  Ru4+  Ru131  1  0.61379582  0.83518478  0.74909235  1
  Ru4+  Ru132  1  0.38842466  0.16432511  0.00008037  1
  Ru4+  Ru133  1  0.38235218  0.16032015  0.24789169  1
  Ru4+  Ru134  1  0.38792401  0.16304643  0.50109387  1
  Ru4+  Ru135  1  0.38410332  0.16663854  0.74900051  1
  Ru4+  Ru136  1  0.38601109  0.49810224  -0.00036330  1
  Ru4+  Ru137  1  0.39277118  0.50102499  0.24988404  1
  Ru4+  Ru138  1  0.39027726  0.49926978  0.50181071  1
  Ru4+  Ru139  1  0.38891736  0.50189367  0.75056334  1
  Ru4+  Ru140  1  0.38692219  0.83943587  -0.00093757  1
  Ru4+  Ru141  1  0.38990827  0.83258491  0.25125757  1
  Ru4+  Ru142  1  0.38511019  0.83442293  0.50052268  1
  Ru4+  Ru143  1  0.38540757  0.83371523  0.75172538  1
  Ru4+  Ru144  1  0.88866475  0.16458905  -0.00202663  1
  Ru4+  Ru145  1  0.88936815  0.16631641  0.25024751  1
  Ru4+  Ru146  1  0.88953759  0.16296556  0.49993713  1
  Ru4+  Ru147  1  0.89117446  0.16909919  0.74962232  1
  Ru4+  Ru148  1  0.88638580  0.49774556  0.00199826  1
  Ru4+  Ru149  1  0.88281258  0.49594056  0.24785766  1
  Ru4+  Ru150  1  0.88867876  0.50042534  0.50250705  1
  Ru4+  Ru151  1  0.88217772  0.50494001  0.74884405  1
  Ru4+  Ru152  1  0.88262298  0.83266607  0.00178147  1
  Ru4+  Ru153  1  0.89319296  0.83777855  0.24797346  1
  Ru4+  Ru154  1  0.88723846  0.83265633  0.50004741  1
  Ru4+  Ru155  1  0.88344129  0.83042174  0.74871103  1
  Ru4+  Ru156  1  0.74993275  0.30984345  0.73643425  1
  Ru4+  Ru157  1  0.74992051  0.43747463  0.00710820  1
  Ru4+  Ru158  1  0.74887221  0.58152428  0.76150038  1
  Ru4+  Ru159  1  0.74993711  0.26519953  -0.02222195  1
  Ru4+  Ru160  1  0.74974993  0.58056804  0.00780104  1
  Ru4+  Ru161  1  0.25017039  0.24100315  0.49477556  1
  Ru4+  Ru162  1  0.24932345  0.59278392  -0.00436374  1
  Ru4+  Ru163  1  0.25039308  0.94081933  0.01825243  1
  Ru4+  Ru164  1  0.24955617  0.34920049  0.24870819  1
  Ru4+  Ru165  1  0.25037693  0.38926759  0.49430570  1
  Ru4+  Ru166  1  0.74951313  0.97551503  0.48818550  1
  Ru4+  Ru167  1  0.25018754  0.61772017  0.25270455  1
  Ru4+  Ru168  1  0.24999000  0.25235310  -0.00081323  1
  Ru4+  Ru169  1  0.74992073  0.03009950  0.24180881  1
  Ru4+  Ru170  1  0.74911904  0.58673256  0.50745057  1
  Ru4+  Ru171  1  0.74977014  0.75581949  0.25072417  1
  Ru4+  Ru172  1  0.24963268  0.08363268  0.00693304  1
  Ru4+  Ru173  1  0.75030069  0.27510782  0.50728822  1
  Ru4+  Ru174  1  0.74956996  0.72061725  0.51637069  1
  Ru4+  Ru175  1  0.74924825  0.74905677  0.75518307  1
  Ru4+  Ru176  1  0.75008209  0.90029140  0.25765098  1
  Ru4+  Ru177  1  0.25060448  0.75449552  0.75319144  1
  Ru4+  Ru178  1  0.74950911  0.30021276  0.28036729  1
  Ru4+  Ru179  1  0.74975135  0.02976054  0.75212053  1
  O2-  O180  1  0.16710831  0.07970055  0.00094431  1
  O2-  O181  1  0.16287962  0.08146250  0.25132238  1
  O2-  O182  1  0.16347027  0.08173819  0.50337230  1
  O2-  O183  1  0.16583358  0.08071613  0.74810135  1
  O2-  O184  1  0.16336996  0.41066334  0.00182356  1
  O2-  O185  1  0.16824291  0.41138095  0.24947434  1
  O2-  O186  1  0.17050634  0.41302395  0.49945953  1
  O2-  O187  1  0.17028831  0.41431542  0.74785500  1
  O2-  O188  1  0.16072352  0.74313465  0.00309418  1
  O2-  O189  1  0.16454496  0.74826465  0.25040261  1
  O2-  O190  1  0.16580702  0.74704593  0.50222791  1
  O2-  O191  1  0.16925392  0.74712851  0.75035190  1
  O2-  O192  1  0.66000473  0.07853297  -0.00161507  1
  O2-  O193  1  0.66754482  0.07706453  0.24980001  1
  O2-  O194  1  0.66492096  0.07669433  0.50012696  1
  O2-  O195  1  0.66976391  0.07693894  0.74705655  1
  O2-  O196  1  0.66862928  0.41697579  -0.00212189  1
  O2-  O197  1  0.66313129  0.41521202  0.25071316  1
  O2-  O198  1  0.66205304  0.41104177  0.50536940  1
  O2-  O199  1  0.66877854  0.41368930  0.74824692  1
  O2-  O200  1  0.66382227  0.74736842  -0.00080671  1
  O2-  O201  1  0.66666683  0.74838305  0.24859907  1
  O2-  O202  1  0.66559909  0.74404337  0.50151644  1
  O2-  O203  1  0.66664873  0.74659260  0.74858595  1
  O2-  O204  1  0.33497701  0.25052437  0.00103849  1
  O2-  O205  1  0.33396330  0.25269716  0.25334795  1
  O2-  O206  1  0.33152915  0.25250854  0.49841397  1
  O2-  O207  1  0.33404953  0.25202133  0.75025254  1
  O2-  O208  1  0.33238100  0.58705098  0.00161131  1
  O2-  O209  1  0.33519182  0.58890011  0.24908309  1
  O2-  O210  1  0.33796889  0.58688989  0.50200691  1
  O2-  O211  1  0.33230810  0.58628749  0.74820872  1
  O2-  O212  1  0.33427027  0.91801209  0.00023915  1
  O2-  O213  1  0.33368006  0.91713085  0.25418730  1
  O2-  O214  1  0.33534778  0.91757256  0.50163772  1
  O2-  O215  1  0.33288665  0.91605890  0.74461750  1
  O2-  O216  1  0.83382043  0.25392477  -0.00224892  1
  O2-  O217  1  0.83225980  0.25394883  0.25088069  1
  O2-  O218  1  0.83230062  0.25422323  0.50224857  1
  O2-  O219  1  0.83380197  0.25585596  0.74998203  1
  O2-  O220  1  0.83416830  0.58292764  0.00073722  1
  O2-  O221  1  0.83705356  0.58523457  0.25014525  1
  O2-  O222  1  0.83197561  0.58307298  0.49694658  1
  O2-  O223  1  0.82996121  0.58571948  0.75115942  1
  O2-  O224  1  0.83570120  0.91859856  -0.00306846  1
  O2-  O225  1  0.83120373  0.91632630  0.25151199  1
  O2-  O226  1  0.83178018  0.92218850  0.49940093  1
  O2-  O227  1  0.83425821  0.91885043  0.74852755  1
  O2-  O228  1  0.16600744  0.25133494  0.00235953  1
  O2-  O229  1  0.16435007  0.25234110  0.25069366  1
  O2-  O230  1  0.16937530  0.25252834  0.50157295  1
  O2-  O231  1  0.16707166  0.25372811  0.75181610  1
  O2-  O232  1  0.16448112  0.58644340  -0.00028132  1
  O2-  O233  1  0.16445715  0.58929306  0.25084033  1
  O2-  O234  1  0.16372017  0.58742686  0.50180287  1
  O2-  O235  1  0.16547555  0.58629363  0.74915319  1
  O2-  O236  1  0.16587819  0.92060780  0.00066799  1
  O2-  O237  1  0.16857166  0.91754497  0.25169901  1
  O2-  O238  1  0.16687776  0.91767163  0.50356357  1
  O2-  O239  1  0.16677306  0.91984863  0.74649031  1
  O2-  O240  1  0.66668805  0.25416021  -0.00199245  1
  O2-  O241  1  0.66952081  0.25285569  0.25002018  1
  O2-  O242  1  0.66694504  0.25227981  0.50170682  1
  O2-  O243  1  0.66471494  0.25313978  0.74957109  1
  O2-  O244  1  0.66790042  0.58203486  0.00022139  1
  O2-  O245  1  0.66269286  0.58586264  0.24911872  1
  O2-  O246  1  0.66522674  0.58735008  0.50197465  1
  O2-  O247  1  0.66625684  0.58642434  0.74880118  1
  O2-  O248  1  0.66518507  0.91627521  0.00070130  1
  O2-  O249  1  0.66729573  0.91826734  0.24994550  1
  O2-  O250  1  0.66576908  0.92188366  0.50002923  1
  O2-  O251  1  0.66672292  0.91771447  0.74743136  1
  O2-  O252  1  0.33250914  0.08186596  -0.00038749  1
  O2-  O253  1  0.33197393  0.08204416  0.25350013  1
  O2-  O254  1  0.33523894  0.08231717  0.50229683  1
  O2-  O255  1  0.33530463  0.08110850  0.74695977  1
  O2-  O256  1  0.33641432  0.40931932  0.00327563  1
  O2-  O257  1  0.33577372  0.41214923  0.25149649  1
  O2-  O258  1  0.32944582  0.41173002  0.49774640  1
  O2-  O259  1  0.33243922  0.41422378  0.74880515  1
  O2-  O260  1  0.33797809  0.74323427  0.00335687  1
  O2-  O261  1  0.33220406  0.74926607  0.25008651  1
  O2-  O262  1  0.33390268  0.74793394  0.50128390  1
  O2-  O263  1  0.33235931  0.74945469  0.74852128  1
  O2-  O264  1  0.83711016  0.07905193  -0.00477508  1
  O2-  O265  1  0.83304457  0.07804494  0.24960303  1
  O2-  O266  1  0.83534883  0.07843422  0.50142160  1
  O2-  O267  1  0.83111234  0.07691648  0.75026842  1
  O2-  O268  1  0.82917337  0.41632952  -0.00416055  1
  O2-  O269  1  0.83285685  0.41617422  0.25272109  1
  O2-  O270  1  0.83458627  0.41192690  0.50574273  1
  O2-  O271  1  0.83322869  0.41472806  0.74974525  1
  O2-  O272  1  0.83550723  0.74763916  0.00048606  1
  O2-  O273  1  0.83405439  0.75007413  0.25079742  1
  O2-  O274  1  0.83310527  0.74532947  0.49741009  1
  O2-  O275  1  0.82982494  0.74783542  0.75152932  1
  O2-  O276  1  0.45464183  0.75605165  0.01741697  1
  O2-  O277  1  0.55235458  0.90468920  0.73249046  1
  O2-  O278  1  0.44183817  0.23451738  0.23501012  1
  O2-  O279  1  0.45916787  0.56470788  1.01069841  1
  O2-  O280  1  0.45955912  0.56400763  0.00941058  1
  O2-  O281  1  0.53831561  0.44688848  0.96809864  1
  O2-  O282  1  0.53995012  0.22129882  0.24269745  1
  O2-  O283  1  0.94957599  0.43304417  0.73754208  1
  O2-  O284  1  0.46216733  0.89047109  0.76166983  1
  O2-  O285  1  0.44880690  0.24334581  0.27118004  1
  O2-  O286  1  0.55416317  0.09197003  0.69893454  1
  O2-  O287  1  0.04994366  0.90611016  0.74283663  1
  O2-  O288  1  0.96363554  0.55488724  0.48622826  1
  O2-  O289  1  0.95026930  0.23194808  0.50946594  1
  O2-  O290  1  0.44737682  0.09273737  0.51280303  1
  O2-  O291  1  0.94893227  0.56371207  0.23449651  1
  O2-  O292  1  0.55055345  0.09561042  0.51085934  1
  O2-  O293  1  0.95019996  0.76521749  0.99151746  1
  O2-  O294  1  0.04918343  0.90395532  0.75671889  1
  O2-  O295  1  0.46537056  0.44827422  0.46409370  1
  O2-  O296  1  0.45037881  0.76460683  0.51455821  1
  O2-  O297  1  0.04966712  0.76242189  0.99301625  1
  O2-  O298  1  0.98166101  0.87450321  0.22772250  1
  O2-  O299  1  0.55117509  0.76766271  0.01192344  1
  O2-  O300  1  0.96152047  0.44514702  0.96756875  1
  O2-  O301  1  0.04227488  0.21668443  0.53122847  1
  O2-  O302  1  0.45476075  0.57256735  0.23493024  1
  O2-  O303  1  0.05620715  0.57888407  0.52035694  1
  O2-  O304  1  0.04372773  0.45129266  0.72007487  1
  O2-  O305  1  0.04739443  0.09799765  0.73956900  1
  O2-  O306  1  0.45390998  0.23651285  0.75855605  1
  O2-  O307  1  0.46368415  0.11473696  0.96358589  1
  O2-  O308  1  0.54550724  0.23400019  0.01424633  1
  O2-  O309  1  0.54320107  0.22403021  0.22449231  1
  O2-  O310  1  0.95536702  0.23305204  0.00886570  1
  O2-  O311  1  0.45383678  0.75869436  0.76161388  1
  O2-  O312  1  0.46711372  0.22574365  0.49038375  1
  O2-  O313  1  0.54967687  0.76453039  0.51088670  1
  O2-  O314  1  0.45004211  0.76892928  0.98175824  1
  O2-  O315  1  0.94686581  0.90348136  0.76348045  1
  O2-  O316  1  0.04739991  0.89877663  0.48451319  1
  O2-  O317  1  0.95868627  0.56073548  0.47123203  1
  O2-  O318  1  0.45374328  0.90125624  0.26224393  1
  O2-  O319  1  0.94757893  0.74760233  0.22897430  1
  O2-  O320  1  0.45143510  0.09374776  0.76713466  1
  O2-  O321  1  0.45566335  0.42708039  0.26771951  1
  O2-  O322  1  0.04980505  0.43066633  0.45446226  1
  O2-  O323  1  0.95897455  0.43017340  0.53939125  1
  O2-  O324  1  0.93624782  0.25455006  0.27680367  1
  O2-  O325  1  0.57368283  0.38793449  0.05901353  1
  O2-  O326  1  0.56364548  0.07054557  0.28120632  1
  O2-  O327  1  0.43247033  0.41022887  0.95222252  1
  O2-  O328  1  0.06468060  0.93293219  0.28214752  1
  O2-  O329  1  0.56391687  0.92408316  0.28540554  1
  O2-  O330  1  0.06982925  0.38112390  0.81474547  1
  O2-  O331  1  0.58460401  0.28943334  0.30151553  1
  O2-  O332  1  0.93498267  0.40484680  0.72855744  1
  O2-  O333  1  0.42191192  0.26932339  0.53404597  1
  O2-  O334  1  0.92463816  0.92392916  0.32370248  1
  O2-  O335  1  0.91835526  0.39347865  0.05130482  1
  O2-  O336  1  0.93454158  0.07407420  0.72598512  1
  O2-  O337  1  0.42591521  0.94827321  0.79100677  1
  O2-  O338  1  0.92751145  0.95613032  0.17460320  1
  O2-  O339  1  0.07863904  0.26895010  0.44796980  1
  O2-  O340  1  0.93667702  0.59285489  0.72103861  1
  O2-  O341  1  0.42958965  0.04931386  0.05830572  1
  O2-  O342  1  0.56027826  0.93561278  0.03348920  1
  O2-  O343  1  0.92980147  0.74855015  0.81311963  1
  O2-  O344  1  0.06203936  0.92599116  0.47262724  1
  O2-  O345  1  0.06358470  0.07103272  0.96555653  1
  O2-  O346  1  0.43647796  0.59602850  0.78144484  1
  O2-  O347  1  0.43383725  0.40787256  0.04855252  1
  O2-  O348  1  0.92179949  0.40127559  0.44927695  1
  O2-  O349  1  0.93726690  0.07013941  0.96472007  1
  O2-  O350  1  0.43765016  0.06747465  0.21828625  1
  O2-  O351  1  0.43570195  0.73942130  0.27638580  1
  O2-  O352  1  0.94107408  0.74184499  0.22333728  1
  O2-  O353  1  0.08080332  0.41041540  0.58016618  1
  O2-  O354  1  0.06481892  0.40824971  0.22489065  1
  O2-  O355  1  0.56831269  0.59566523  0.97358281  1
  O2-  O356  1  0.57948260  0.07448168  0.83354131  1
  O2-  O357  1  0.56305629  0.41077466  0.72314288  1
  O2-  O358  1  0.94030286  0.74847927  0.52478246  1
  O2-  O359  1  0.06406051  0.40701838  0.02284020  1
  O2-  O360  1  0.55546684  0.08317732  0.69550620  1
  O2-  O361  1  0.93317179  0.92487450  0.52640218  1
  O2-  O362  1  0.94075051  0.59660289  0.22512943  1
  O2-  O363  1  0.41951515  0.40468836  0.55847289  1
  O2-  O364  1  0.05981922  0.08073354  0.71100857  1
  O2-  O365  1  0.93844173  0.74015644  0.67831398  1
  O2-  O366  1  0.42605097  0.60874498  0.95413178  1
  O2-  O367  1  0.93852206  0.07967582  0.27595652  1
  O2-  O368  1  0.91880001  0.62389783  0.56543657  1
  O2-  O369  1  0.56184831  0.73800968  0.28597060  1
  O2-  O370  1  0.93515409  0.41087300  0.22451750  1
  O2-  O371  1  0.05837904  0.42159670  0.44687300  1
  O2-  O372  1  0.74970324  0.34622604  0.17958895  1
  O2-  O373  1  0.24984224  0.69210415  0.16419886  1
  O2-  O374  1  0.24989345  0.00454922  0.91563027  1
  O2-  O375  1  0.75023903  0.33676878  0.85807927  1
  O2-  O376  1  0.74973924  -0.00666356  0.63251037  1
  O2-  O377  1  0.75002363  0.33924421  0.06401031  1
  O2-  O378  1  0.25005478  -0.00747305  0.39795061  1
  O2-  O379  1  0.25007432  0.66757087  0.65684738  1
  O2-  O380  1  0.24894071  -0.00184216  0.13819522  1
  O2-  O381  1  0.25000000  0.00125195  0.82435016  1
  O2-  O382  1  0.25099614  0.32725977  0.36902932  1
  O2-  O383  1  0.24994802  0.67841950  0.07378392  1
  O2-  O384  1  0.75005750  0.66198154  0.31341488  1
  O2-  O385  1  0.75047620  0.66129852  0.09302758  1
  O2-  O386  1  0.24998131  0.32842248  0.13062110  1
  O2-  O387  1  0.74896135  0.00324448  0.10724767  1
  O2-  O388  1  0.25016486  0.33091280  0.90500412  1
  O2-  O389  1  0.24928567  0.69406867  0.34507964  1
  O2-  O390  1  0.74983059  0.65863290  0.90509457  1
  O2-  O391  1  0.75011799  0.33650501  0.40005409  1
  O2-  O392  1  0.24987495  0.66435238  0.42979336  1
  O2-  O393  1  0.25045449  0.66839267  0.89602041  1
  O2-  O394  1  0.75071593  -0.00375938  0.86379789  1
  O2-  O395  1  0.75037835  0.66151350  0.40956621  1
  O2-  O396  1  0.24973035  0.51447242  0.10937564  1
  O2-  O397  1  0.74975447  0.17330030  0.38673387  1
  O2-  O398  1  0.75007425  0.83431696  0.82983918  1
  O2-  O399  1  0.75018926  0.17817834  0.88480931  1
  O2-  O400  1  0.74962459  0.83502308  0.38195372  1
  O2-  O401  1  0.24990606  0.83786058  0.84879016  1
  O2-  O402  1  0.74989308  0.18455706  0.12072714  1
  O2-  O403  1  0.25006285  0.16639076  0.16941886  1
  O2-  O404  1  0.74960113  0.50225220  0.35804616  1
  O2-  O405  1  0.24975763  0.16711796  0.91755469  1
  O2-  O406  1  0.24990462  0.16154365  0.58333736  1
  O2-  O407  1  0.75001992  0.83164551  0.16382052  1
  O2-  O408  1  0.24983223  0.49454606  0.39313319  1
  O2-  O409  1  0.74966123  0.50658985  0.83969318  1
  O2-  O410  1  0.25005602  0.16659945  0.83370519  1
  O2-  O411  1  0.74985029  0.50101170  0.13153929  1
  O2-  O412  1  0.24989074  0.17278379  0.41186376  1
  O2-  O413  1  0.75008299  0.83471407  0.07918712  1
  O2-  O414  1  0.24986718  0.85064516  0.09307590  1
  O2-  O415  1  0.24970768  0.50858936  0.85711719  1
  O2-  O416  1  0.24978446  0.82910952  0.17476374  1
  O2-  O417  1  0.25016542  0.17141156  0.66586827  1
  O2-  O418  1  0.24967751  0.17016321  0.08432392  1
  O2-  O419  1  0.75017584  0.83075696  0.91361929  1
  O2-  O420  1  0.52545047  0.66823729  0.86649404  1
  O2-  O421  1  0.97284991  0.33005466  0.37570131  1
  O2-  O422  1  0.52396576  0.34322810  0.38221443  1
  O2-  O423  1  0.46018671  0.32796722  0.86543260  1
  O2-  O424  1  0.95846023  0.64672030  0.88928670  1
  O2-  O425  1  0.52801073  0.66359236  0.13119839  1
  O2-  O426  1  0.03959066  0.31531072  0.64510812  1
  O2-  O427  1  0.52090151  -0.01051352  0.88412168  1
  O2-  O428  1  0.02999088  0.66687712  0.37373788  1
  O2-  O429  1  0.52693148  0.66351064  0.62829625  1
  O2-  O430  1  0.95727605  0.32256747  0.62027876  1
  O2-  O431  1  0.54546574  0.32898101  0.87383363  1
  O2-  O432  1  0.98146057  0.00925373  0.38616415  1
  O2-  O433  1  0.97875183  0.00148882  0.62388678  1
  O2-  O434  1  0.47388963  -0.00171002  0.38062811  1
  O2-  O435  1  0.97143786  0.31878658  0.12833945  1
  O2-  O436  1  0.04744678  0.66490112  0.86776289  1
  O2-  O437  1  0.53701765  0.32534316  0.61628129  1
  O2-  O438  1  0.03183805  0.31792097  0.12725452  1
  O2-  O439  1  0.03260236  0.32639894  0.35390854  1
  O2-  O440  1  0.46873127  0.33355570  0.64107797  1
  O2-  O441  1  0.47104169  -0.00602301  0.62711477  1
  O2-  O442  1  0.47587163  0.65918866  0.38172237  1
  O2-  O443  1  0.47582298  0.32547914  0.13212535  1
