# generated using pymatgen
data_La7(Ru4O11)2
_symmetry_space_group_name_H-M   'P 1'
_cell_length_a   23.99195389
_cell_length_b   16.83094470
_cell_length_c   15.42846675
_cell_angle_alpha   89.99915910
_cell_angle_beta   89.99860096
_cell_angle_gamma   89.99826010
_symmetry_Int_Tables_number   1
_chemical_formula_structural   La7(Ru4O11)2
_chemical_formula_sum   'La84 Ru96 O264'
_cell_volume   6230.12671276
_cell_formula_units_Z   12
loop_
 _symmetry_equiv_pos_site_id
 _symmetry_equiv_pos_as_xyz
  1  'x, y, z'
loop_
 _atom_type_symbol
 _atom_type_oxidation_number
  La3+  3.0
  Ru4+  4.0
  O2-  -2.0
loop_
 _atom_site_type_symbol
 _atom_site_label
 _atom_site_symmetry_multiplicity
 _atom_site_fract_x
 _atom_site_fract_y
 _atom_site_fract_z
 _atom_site_occupancy
  La3+  La0  1  0.14031523  0.00014672  0.12067123  1
  La3+  La1  1  0.13544968  0.00064981  0.37946635  1
  La3+  La2  1  0.14409209  0.00250037  0.62823628  1
  La3+  La3  1  0.14538251  -0.00228314  0.87486819  1
  La3+  La4  1  0.13606187  0.33388308  0.12364719  1
  La3+  La5  1  0.13781346  0.33042047  0.37675970  1
  La3+  La6  1  0.13752282  0.32929124  0.62350825  1
  La3+  La7  1  0.13919133  0.33315646  0.87508938  1
  La3+  La8  1  0.14239320  0.66722780  0.12052593  1
  La3+  La9  1  0.13721765  0.66613705  0.37555797  1
  La3+  La10  1  0.13486935  0.66979721  0.62853508  1
  La3+  La11  1  0.14074944  0.66738464  0.87627573  1
  La3+  La12  1  0.64014090  0.00323416  0.12672787  1
  La3+  La13  1  0.64128638  0.00265551  0.37201985  1
  La3+  La14  1  0.64287057  0.00119040  0.62738748  1
  La3+  La15  1  0.63749008  0.00201044  0.87436250  1
  La3+  La16  1  0.63566581  0.33527655  0.12824779  1
  La3+  La17  1  0.64327389  0.32884433  0.37457896  1
  La3+  La18  1  0.64143780  0.33707772  0.62495850  1
  La3+  La19  1  0.64229487  0.33720215  0.87580838  1
  La3+  La20  1  0.64153675  0.66477591  0.12556351  1
  La3+  La21  1  0.63971791  0.66625539  0.37481943  1
  La3+  La22  1  0.64002954  0.66378335  0.62607007  1
  La3+  La23  1  0.63917874  0.66591091  0.87721225  1
  La3+  La24  1  0.36047900  -0.00000418  0.12113590  1
  La3+  La25  1  0.35743730  -0.00487993  0.37573119  1
  La3+  La26  1  0.35847694  0.00235033  0.62444895  1
  La3+  La27  1  0.35300085  -0.00099087  0.87725048  1
  La3+  La28  1  0.36471602  0.33247051  0.12097950  1
  La3+  La29  1  0.36164371  0.33085744  0.37753247  1
  La3+  La30  1  0.36273930  0.32966817  0.62615498  1
  La3+  La31  1  0.36002567  0.33169682  0.87682188  1
  La3+  La32  1  0.35698555  0.66692696  0.12356532  1
  La3+  La33  1  0.36376890  0.66678931  0.37367921  1
  La3+  La34  1  0.36277794  0.66724398  0.62510554  1
  La3+  La35  1  0.35719867  0.66520454  0.87642693  1
  La3+  La36  1  0.86269490  0.00123981  0.12682883  1
  La3+  La37  1  0.86158609  -0.00191657  0.37669013  1
  La3+  La38  1  0.85914893  0.00142967  0.62564828  1
  La3+  La39  1  0.86452566  0.00169760  0.87399929  1
  La3+  La40  1  0.86208417  0.33554291  0.12749739  1
  La3+  La41  1  0.85644675  0.32984350  0.37753823  1
  La3+  La42  1  0.85635225  0.33516309  0.62284806  1
  La3+  La43  1  0.85981135  0.33631857  0.87366321  1
  La3+  La44  1  0.85354924  0.66551465  0.12447458  1
  La3+  La45  1  0.86035422  0.66467335  0.37247426  1
  La3+  La46  1  0.86331761  0.66413172  0.62750598  1
  La3+  La47  1  0.85849819  0.66245296  0.87060576  1
  La3+  La48  1  0.49991111  0.82808990  0.85385408  1
  La3+  La49  1  0.00146288  0.16423936  0.37085769  1
  La3+  La50  1  0.50073705  0.84022479  0.14940375  1
  La3+  La51  1  0.49765231  0.82967208  0.61729248  1
  La3+  La52  1  0.50228564  0.16185435  0.88167138  1
  La3+  La53  1  -0.00347521  0.50472181  0.88827680  1
  La3+  La54  1  0.50264626  0.16381286  0.12266044  1
  La3+  La55  1  0.50039430  0.49992668  0.88331843  1
  La3+  La56  1  0.00175449  0.50559134  0.13338033  1
  La3+  La57  1  0.50183379  0.49946387  0.38048707  1
  La3+  La58  1  -0.00696179  0.83087129  0.37031460  1
  La3+  La59  1  -0.00155806  0.83416691  0.12781244  1
  La3+  La60  1  0.49302538  0.82696813  0.87344211  1
  La3+  La61  1  0.49524495  0.50395001  0.11548802  1
  La3+  La62  1  -0.00501557  0.84060148  0.63185847  1
  La3+  La63  1  0.00532981  0.17220177  0.12216699  1
  La3+  La64  1  0.50251075  0.16923940  0.62062231  1
  La3+  La65  1  0.50841415  0.83887823  0.13030457  1
  La3+  La66  1  0.00334701  0.49201764  0.38522157  1
  La3+  La67  1  0.49624837  0.17134311  0.64050210  1
  La3+  La68  1  0.00349739  0.50636792  0.11688808  1
  La3+  La69  1  -0.00258831  0.16387254  0.63116929  1
  La3+  La70  1  -0.00043598  0.50485408  0.87158798  1
  La3+  La71  1  0.49824952  0.50494007  0.63144037  1
  La3+  La72  1  0.74987590  0.87846479  0.74503439  1
  La3+  La73  1  0.24976744  0.77656249  0.27311213  1
  La3+  La74  1  0.24981282  0.50615750  -0.00745864  1
  La3+  La75  1  0.75028493  0.80131445  0.00574498  1
  La3+  La76  1  0.24962683  0.16325987  0.50603514  1
  La3+  La77  1  0.24980259  0.16275330  0.77338968  1
  La3+  La78  1  0.24935218  0.55076766  0.23357127  1
  La3+  La79  1  0.24992447  0.22229995  0.25604972  1
  La3+  La80  1  0.25004334  0.49168314  0.46906897  1
  La3+  La81  1  0.24991507  0.78514672  0.50849707  1
  La3+  La82  1  0.25097497  0.56436394  0.76481186  1
  La3+  La83  1  0.75095268  0.13944539  0.00071560  1
  Ru4+  Ru84  1  0.00157927  0.00410360  -0.00083895  1
  Ru4+  Ru85  1  -0.00364786  0.00246922  0.25050888  1
  Ru4+  Ru86  1  -0.00091949  -0.00032118  0.49794069  1
  Ru4+  Ru87  1  0.00119177  -0.00197841  0.76045447  1
  Ru4+  Ru88  1  0.00076810  0.33316312  -0.00680346  1
  Ru4+  Ru89  1  -0.00238371  0.33739897  0.25160659  1
  Ru4+  Ru90  1  0.00261315  0.33440311  0.50357536  1
  Ru4+  Ru91  1  0.00180167  0.32765370  0.75220191  1
  Ru4+  Ru92  1  -0.00265777  0.67735733  0.00231242  1
  Ru4+  Ru93  1  -0.00265584  0.66520565  0.25078901  1
  Ru4+  Ru94  1  -0.00027913  0.66439536  0.49708509  1
  Ru4+  Ru95  1  0.00368346  0.67453535  0.75093346  1
  Ru4+  Ru96  1  0.50101445  0.00159485  -0.00202066  1
  Ru4+  Ru97  1  0.50231434  -0.00303072  0.25413624  1
  Ru4+  Ru98  1  0.50034196  -0.00238033  0.49587628  1
  Ru4+  Ru99  1  0.50009411  -0.00248782  0.75692446  1
  Ru4+  Ru100  1  0.50412367  0.33779777  -0.00063289  1
  Ru4+  Ru101  1  0.50173954  0.34320546  0.25110340  1
  Ru4+  Ru102  1  0.49798769  0.33645747  0.50249388  1
  Ru4+  Ru103  1  0.49925341  0.34022110  0.75018059  1
  Ru4+  Ru104  1  0.49942176  0.66395559  -0.00250964  1
  Ru4+  Ru105  1  0.49921762  0.66393399  0.26016374  1
  Ru4+  Ru106  1  0.49811282  0.66451384  0.50148543  1
  Ru4+  Ru107  1  0.50045165  0.66515799  0.74113960  1
  Ru4+  Ru108  1  0.11381338  0.16434610  0.00096697  1
  Ru4+  Ru109  1  0.11071884  0.16683037  0.25031652  1
  Ru4+  Ru110  1  0.11130340  0.16636937  0.49908223  1
  Ru4+  Ru111  1  0.11105451  0.16738039  0.74988715  1
  Ru4+  Ru112  1  0.11318011  0.49937259  -0.00015373  1
  Ru4+  Ru113  1  0.11050460  0.50378361  0.24959804  1
  Ru4+  Ru114  1  0.10935383  0.49868199  0.50087028  1
  Ru4+  Ru115  1  0.11123671  0.49815916  0.74489704  1
  Ru4+  Ru116  1  0.11544157  0.83149337  0.00058841  1
  Ru4+  Ru117  1  0.11083369  0.83362365  0.24916561  1
  Ru4+  Ru118  1  0.10661271  0.83994449  0.50354408  1
  Ru4+  Ru119  1  0.10719174  0.83076785  0.75365644  1
  Ru4+  Ru120  1  0.61235986  0.16526118  -0.00152824  1
  Ru4+  Ru121  1  0.61523341  0.16432354  0.25159845  1
  Ru4+  Ru122  1  0.61426262  0.16499550  0.49956508  1
  Ru4+  Ru123  1  0.61544844  0.16538978  0.75237641  1
  Ru4+  Ru124  1  0.61457863  0.49497002  0.00062574  1
  Ru4+  Ru125  1  0.61117273  0.49793416  0.25089078  1
  Ru4+  Ru126  1  0.61312529  0.49752428  0.50082569  1
  Ru4+  Ru127  1  0.61307326  0.49921102  0.74989362  1
  Ru4+  Ru128  1  0.61371343  0.83333074  -0.00003042  1
  Ru4+  Ru129  1  0.61198817  0.83342966  0.25109878  1
  Ru4+  Ru130  1  0.61375562  0.83170426  0.49927247  1
  Ru4+  Ru131  1  0.60845517  0.83395267  0.74822483  1
  Ru4+  Ru132  1  0.38405261  0.16055804  -0.00002327  1
  Ru4+  Ru133  1  0.38662715  0.16919823  0.25298122  1
  Ru4+  Ru134  1  0.38869425  0.16273853  0.49110325  1
  Ru4+  Ru135  1  0.38591998  0.16728225  0.75068053  1
  Ru4+  Ru136  1  0.38766472  0.49761804  -0.00060321  1
  Ru4+  Ru137  1  0.39036387  0.50189893  0.24865113  1
  Ru4+  Ru138  1  0.39107816  0.49850257  0.50155234  1
  Ru4+  Ru139  1  0.39202361  0.49952691  0.74942749  1
  Ru4+  Ru140  1  0.38349955  0.82984181  -0.00140540  1
  Ru4+  Ru141  1  0.38905010  0.83404871  0.25108279  1
  Ru4+  Ru142  1  0.38997363  0.83295495  0.49997560  1
  Ru4+  Ru143  1  0.38401688  0.83358039  0.74853384  1
  Ru4+  Ru144  1  0.89084025  0.16652835  0.00120781  1
  Ru4+  Ru145  1  0.88708911  0.16630590  0.24974182  1
  Ru4+  Ru146  1  0.88679619  0.16536311  0.50045528  1
  Ru4+  Ru147  1  0.88801603  0.16522653  0.75142847  1
  Ru4+  Ru148  1  0.88769392  0.49714398  0.00003971  1
  Ru4+  Ru149  1  0.88721883  0.50189677  0.24918327  1
  Ru4+  Ru150  1  0.88692487  0.49788815  0.50016991  1
  Ru4+  Ru151  1  0.88433924  0.49532306  0.74685419  1
  Ru4+  Ru152  1  0.89254042  0.82430122  -0.00123885  1
  Ru4+  Ru153  1  0.88756133  0.83344369  0.25032621  1
  Ru4+  Ru154  1  0.88804145  0.83419116  0.50063294  1
  Ru4+  Ru155  1  0.89173987  0.83254055  0.75314973  1
  Ru4+  Ru156  1  0.74997405  0.74878257  0.50216408  1
  Ru4+  Ru157  1  0.74949392  0.73880964  0.74045458  1
  Ru4+  Ru158  1  0.24947573  0.76243367  0.76008161  1
  Ru4+  Ru159  1  0.24980529  0.62612987  0.50665409  1
  Ru4+  Ru160  1  0.75020345  0.57554518  -0.00132323  1
  Ru4+  Ru161  1  0.75026397  0.27959642  -0.00264505  1
  Ru4+  Ru162  1  0.25012136  0.92873883  0.51242753  1
  Ru4+  Ru163  1  0.24961390  0.07877426  0.24870228  1
  Ru4+  Ru164  1  0.24972070  0.92032108  0.24506865  1
  Ru4+  Ru165  1  0.75019423  0.92304281  0.50598098  1
  Ru4+  Ru166  1  0.74980194  0.57117097  0.75108599  1
  Ru4+  Ru167  1  0.74983567  0.75246998  0.24609466  1
  Ru4+  Ru168  1  0.25023663  0.36897140  0.53539396  1
  Ru4+  Ru169  1  0.25007069  0.40123145  0.22830702  1
  Ru4+  Ru170  1  0.74989747  0.91983251  0.24954644  1
  Ru4+  Ru171  1  0.75011941  0.25039389  0.49723546  1
  Ru4+  Ru172  1  0.25049924  0.39559498  0.74937367  1
  Ru4+  Ru173  1  0.24954085  0.24792237  -0.00270073  1
  Ru4+  Ru174  1  0.74985407  0.42099137  0.25450505  1
  Ru4+  Ru175  1  0.75078215  0.25568250  0.75008686  1
  Ru4+  Ru176  1  0.75020843  0.94370921  -0.00156425  1
  Ru4+  Ru177  1  0.75041528  0.07869899  0.50194603  1
  Ru4+  Ru178  1  0.74994326  0.07926281  0.25331796  1
  Ru4+  Ru179  1  0.74984082  0.58361194  0.50070725  1
  O2-  O180  1  0.16227126  0.08365554  0.00003886  1
  O2-  O181  1  0.16568632  0.08102315  0.24904626  1
  O2-  O182  1  0.16563345  0.08305104  0.50017693  1
  O2-  O183  1  0.16595862  0.08176039  0.75291953  1
  O2-  O184  1  0.16758494  0.41226994  0.00188648  1
  O2-  O185  1  0.16678597  0.41224348  0.24731919  1
  O2-  O186  1  0.16662574  0.41231954  0.50135782  1
  O2-  O187  1  0.16784266  0.41330694  0.75058681  1
  O2-  O188  1  0.16565496  0.74859095  0.00060209  1
  O2-  O189  1  0.16040653  0.74369429  0.24951282  1
  O2-  O190  1  0.15875688  0.74453175  0.49978930  1
  O2-  O191  1  0.17028122  0.74817451  0.74699708  1
  O2-  O192  1  0.66892488  0.07988297  0.00046473  1
  O2-  O193  1  0.66732313  0.08447553  0.24921966  1
  O2-  O194  1  0.66902956  0.08090281  0.50004191  1
  O2-  O195  1  0.66662869  0.08148572  0.75295333  1
  O2-  O196  1  0.66771458  0.41403653  0.00017781  1
  O2-  O197  1  0.66929883  0.41261866  0.24729356  1
  O2-  O198  1  0.66341503  0.41467229  0.50186424  1
  O2-  O199  1  0.66406346  0.41452385  0.75113606  1
  O2-  O200  1  0.66471653  0.74672313  0.00006410  1
  O2-  O201  1  0.66900609  0.74629419  0.24831368  1
  O2-  O202  1  0.67026875  0.75025041  0.50099659  1
  O2-  O203  1  0.66569291  0.74533597  0.75145174  1
  O2-  O204  1  0.33436921  0.25326378  0.00164656  1
  O2-  O205  1  0.34072652  0.25888383  0.24755375  1
  O2-  O206  1  0.33410979  0.25087588  0.50126794  1
  O2-  O207  1  0.33230504  0.25404450  0.75057810  1
  O2-  O208  1  0.33208522  0.58635149  -0.00026162  1
  O2-  O209  1  0.33720821  0.58804474  0.25350732  1
  O2-  O210  1  0.33222050  0.58978140  0.49898137  1
  O2-  O211  1  0.34163437  0.58892867  0.74566737  1
  O2-  O212  1  0.33630988  0.91675431  0.00050775  1
  O2-  O213  1  0.33323476  0.91830815  0.24743241  1
  O2-  O214  1  0.33316910  0.91854357  0.50366647  1
  O2-  O215  1  0.33556481  0.91843009  0.74858629  1
  O2-  O216  1  0.83140846  0.25368256  0.00043344  1
  O2-  O217  1  0.83451912  0.25003666  0.24634011  1
  O2-  O218  1  0.83148307  0.25026637  0.50246762  1
  O2-  O219  1  0.83166751  0.25095643  0.75049612  1
  O2-  O220  1  0.83322428  0.58451019  0.00043853  1
  O2-  O221  1  0.83292804  0.58249858  0.25470261  1
  O2-  O222  1  0.83423896  0.58787699  0.50069542  1
  O2-  O223  1  0.83373641  0.58370789  0.74767870  1
  O2-  O224  1  0.83252052  0.91807886  -0.00177235  1
  O2-  O225  1  0.82921247  0.91997098  0.24837208  1
  O2-  O226  1  0.82950190  0.91939540  0.50138118  1
  O2-  O227  1  0.83666635  0.92112726  0.75268244  1
  O2-  O228  1  0.16505170  0.25375458  0.00132743  1
  O2-  O229  1  0.16057975  0.25709129  0.24642960  1
  O2-  O230  1  0.16678433  0.25123646  0.50019299  1
  O2-  O231  1  0.16637273  0.25245201  0.75034454  1
  O2-  O232  1  0.16744282  0.58567268  -0.00027526  1
  O2-  O233  1  0.16091820  0.58983256  0.25213926  1
  O2-  O234  1  0.16624460  0.58852791  0.49979739  1
  O2-  O235  1  0.16167434  0.58766810  0.74473941  1
  O2-  O236  1  0.16181183  0.91805312  0.00046899  1
  O2-  O237  1  0.16473306  0.91913178  0.24929946  1
  O2-  O238  1  0.16869239  0.91882152  0.49845228  1
  O2-  O239  1  0.16367653  0.91593320  0.75164509  1
  O2-  O240  1  0.66862597  0.25388833  0.00064740  1
  O2-  O241  1  0.66779860  0.25222182  0.24692551  1
  O2-  O242  1  0.66677221  0.25090349  0.50243939  1
  O2-  O243  1  0.66782782  0.25163537  0.75148896  1
  O2-  O244  1  0.66608156  0.58565065  -0.00007198  1
  O2-  O245  1  0.66302108  0.58339620  0.24925375  1
  O2-  O246  1  0.66548893  0.58693718  0.49969150  1
  O2-  O247  1  0.66598536  0.58459678  0.75198141  1
  O2-  O248  1  0.67072432  0.91978526  -0.00120646  1
  O2-  O249  1  0.66824817  0.92036764  0.24913554  1
  O2-  O250  1  0.66837004  0.91761021  0.50116841  1
  O2-  O251  1  0.66387161  0.92255958  0.75298441  1
  O2-  O252  1  0.33497315  0.08219990  0.00001135  1
  O2-  O253  1  0.33167807  0.08114049  0.24751348  1
  O2-  O254  1  0.33261924  0.08240574  0.50463399  1
  O2-  O255  1  0.33475464  0.07949059  0.75022978  1
  O2-  O256  1  0.33482939  0.41116444  0.00199695  1
  O2-  O257  1  0.33423266  0.41299228  0.24800642  1
  O2-  O258  1  0.33532579  0.41107884  0.50043719  1
  O2-  O259  1  0.33452312  0.41118782  0.75027052  1
  O2-  O260  1  0.33259396  0.74883092  0.00124470  1
  O2-  O261  1  0.33778776  0.74348666  0.25012783  1
  O2-  O262  1  0.34065153  0.74430769  0.49941288  1
  O2-  O263  1  0.33006615  0.74852056  0.74864421  1
  O2-  O264  1  0.83439628  0.07829947  -0.00079449  1
  O2-  O265  1  0.82945737  0.08123401  0.24701167  1
  O2-  O266  1  0.83114012  0.08245950  0.50126764  1
  O2-  O267  1  0.83508275  0.08339385  0.75304615  1
  O2-  O268  1  0.83523427  0.41297510  0.00248396  1
  O2-  O269  1  0.83146472  0.41546526  0.24712726  1
  O2-  O270  1  0.83593918  0.41659993  0.50151519  1
  O2-  O271  1  0.83247085  0.41692827  0.75167460  1
  O2-  O272  1  0.83365476  0.74960029  -0.00173227  1
  O2-  O273  1  0.83192162  0.74864841  0.25075160  1
  O2-  O274  1  0.83410605  0.74758674  0.50126524  1
  O2-  O275  1  0.83209534  0.74613189  0.74710094  1
  O2-  O276  1  0.54892765  0.24003129  0.74297790  1
  O2-  O277  1  0.94598399  0.42216543  0.19885420  1
  O2-  O278  1  0.54505714  0.43372064  0.74252244  1
  O2-  O279  1  0.45032411  0.42815963  0.24208152  1
  O2-  O280  1  0.46208900  0.10757839  0.24788089  1
  O2-  O281  1  0.55083150  0.23906975  0.50370114  1
  O2-  O282  1  0.44956569  0.90633309  0.01153368  1
  O2-  O283  1  0.46140104  0.76990303  0.04009687  1
  O2-  O284  1  0.94660613  0.75256801  0.76575917  1
  O2-  O285  1  0.94754440  0.57428010  0.77142181  1
  O2-  O286  1  0.95614018  0.57620397  0.73470853  1
  O2-  O287  1  0.55170634  0.56793183  0.00775562  1
  O2-  O288  1  0.53935200  0.89326130  0.49236851  1
  O2-  O289  1  0.04720397  0.44465844  0.78784269  1
  O2-  O290  1  0.45389749  0.90300683  0.73335756  1
  O2-  O291  1  0.04818878  0.43152602  0.26021043  1
  O2-  O292  1  0.04350478  0.75983080  0.51325724  1
  O2-  O293  1  0.96555534  0.55370473  0.28339114  1
  O2-  O294  1  0.04488035  0.90252072  0.74693603  1
  O2-  O295  1  0.04534923  0.90327037  0.75603661  1
  O2-  O296  1  0.54098227  0.88660472  0.96640561  1
  O2-  O297  1  0.04872745  0.23356447  0.73550733  1
  O2-  O298  1  0.52637976  0.77316163  0.49291913  1
  O2-  O299  1  0.97206268  0.78722851  0.97863945  1
  O2-  O300  1  0.54542529  0.23543270  0.26899014  1
  O2-  O301  1  0.44915351  0.24406461  0.98119223  1
  O2-  O302  1  0.96441197  0.11265766  0.21521062  1
  O2-  O303  1  0.54726628  0.09282578  0.74126953  1
  O2-  O304  1  0.94239683  0.25174552  0.47353610  1
  O2-  O305  1  0.95197898  0.23211700  0.76093799  1
  O2-  O306  1  0.44903500  0.24136187  0.02049090  1
  O2-  O307  1  0.95282985  0.56811580  0.49144169  1
  O2-  O308  1  0.55606013  0.42623381  0.19820289  1
  O2-  O309  1  0.55070108  0.23824501  0.98552176  1
  O2-  O310  1  0.05530749  0.76818016  0.99220487  1
  O2-  O311  1  0.96072011  0.90443552  0.97284754  1
  O2-  O312  1  0.54770349  0.24057042  0.23026943  1
  O2-  O313  1  0.45340203  0.09802650  0.99101388  1
  O2-  O314  1  0.05199551  0.74652752  0.69613308  1
  O2-  O315  1  0.44700130  0.58014363  0.97730714  1
  O2-  O316  1  0.05255079  0.90977825  0.45229100  1
  O2-  O317  1  0.46255414  0.10704840  0.24788379  1
  O2-  O318  1  0.44837658  0.08734952  0.54506791  1
  O2-  O319  1  0.95271470  0.24078984  0.26084547  1
  O2-  O320  1  0.04468828  0.75838282  0.26366718  1
  O2-  O321  1  0.04467677  0.90490922  0.26102863  1
  O2-  O322  1  0.44759409  0.90221025  0.49081804  1
  O2-  O323  1  0.96196620  0.44244052  0.74024963  1
  O2-  O324  1  0.55297047  0.41826062  0.19947954  1
  O2-  O325  1  0.93681523  0.07780742  0.52866079  1
  O2-  O326  1  0.08010335  0.92159230  0.58193330  1
  O2-  O327  1  0.43578359  0.26605874  0.71842276  1
  O2-  O328  1  0.05780027  0.75040008  0.69245161  1
  O2-  O329  1  0.93347493  0.92179582  0.27383963  1
  O2-  O330  1  0.44084411  0.57979955  0.97519127  1
  O2-  O331  1  0.58491080  0.71915306  0.53254895  1
  O2-  O332  1  0.43526642  0.92018272  0.27469475  1
  O2-  O333  1  0.42767024  0.72519384  0.93284167  1
  O2-  O334  1  0.92594381  0.92994725  0.03874074  1
  O2-  O335  1  0.06362692  0.07092612  0.28107855  1
  O2-  O336  1  0.41855590  0.06320680  0.28510573  1
  O2-  O337  1  0.94243319  0.41567331  0.19180263  1
  O2-  O338  1  0.56400460  0.06976658  0.53510480  1
  O2-  O339  1  0.07645788  0.74595027  0.83149474  1
  O2-  O340  1  0.43770541  0.74039027  0.21501066  1
  O2-  O341  1  0.94942009  0.24698818  0.47978559  1
  O2-  O342  1  0.56743089  0.39681205  0.34406881  1
  O2-  O343  1  0.94372458  0.74718484  0.77144471  1
  O2-  O344  1  0.44422901  0.08037122  0.55485212  1
  O2-  O345  1  0.43813162  0.59344764  0.21469939  1
  O2-  O346  1  0.06313324  0.59088206  0.02717504  1
  O2-  O347  1  0.93422968  0.92315657  0.52656746  1
  O2-  O348  1  0.05149432  0.91340707  0.44145585  1
  O2-  O349  1  0.92885622  0.61297519  0.18570284  1
  O2-  O350  1  0.06401511  0.59043448  0.77696302  1
  O2-  O351  1  0.58172778  0.93487249  0.05550843  1
  O2-  O352  1  0.06171984  0.07385616  0.46908645  1
  O2-  O353  1  0.56218863  0.40409678  0.02708004  1
  O2-  O354  1  0.93084409  0.73047249  0.08372556  1
  O2-  O355  1  0.56439202  0.73568718  0.96697535  1
  O2-  O356  1  0.42002266  0.07614087  0.42052604  1
  O2-  O357  1  0.07137676  0.38452475  0.68858762  1
  O2-  O358  1  0.57664971  0.94723461  0.45669825  1
  O2-  O359  1  0.92652954  0.38042880  0.70815106  1
  O2-  O360  1  0.43700468  0.26522209  0.46742650  1
  O2-  O361  1  0.43621574  0.58754699  0.52333181  1
  O2-  O362  1  0.93362734  0.39041152  0.34224230  1
  O2-  O363  1  0.56473044  0.07763581  0.97294338  1
  O2-  O364  1  0.06167120  0.26390645  0.28324664  1
  O2-  O365  1  0.43531909  0.73473642  0.78000101  1
  O2-  O366  1  0.06360738  0.41174273  0.97537957  1
  O2-  O367  1  0.06355981  0.25986610  0.46558776  1
  O2-  O368  1  0.06541605  0.59533632  0.46622707  1
  O2-  O369  1  0.91940453  0.06470878  0.30331775  1
  O2-  O370  1  0.06082467  0.40611239  0.52765093  1
  O2-  O371  1  0.92563871  0.71180747  0.93347558  1
  O2-  O372  1  0.24985016  -0.00022691  0.06719298  1
  O2-  O373  1  0.24973054  0.66416254  0.07983885  1
  O2-  O374  1  0.74994428  0.32669162  0.65312390  1
  O2-  O375  1  0.25034293  0.31796845  0.83471886  1
  O2-  O376  1  0.74855363  0.66705505  0.09784584  1
  O2-  O377  1  0.75059700  0.65923255  0.64413760  1
  O2-  O378  1  0.24996375  0.00088857  0.15670014  1
  O2-  O379  1  0.24954364  -0.00276952  0.32887000  1
  O2-  O380  1  0.25049296  0.31709247  0.43509807  1
  O2-  O381  1  0.74925745  0.65891606  0.82330133  1
  O2-  O382  1  0.25013220  0.67096706  0.17147923  1
  O2-  O383  1  0.24940382  0.67150239  0.38845060  1
  O2-  O384  1  0.25001626  0.00102060  0.89835666  1
  O2-  O385  1  0.25074874  0.00543288  0.60076185  1
  O2-  O386  1  0.74995847  0.67123293  0.94353047  1
  O2-  O387  1  0.74954322  0.33064020  0.40699326  1
  O2-  O388  1  0.25037992  0.33550260  0.31922356  1
  O2-  O389  1  0.74964423  -0.00647646  0.64097142  1
  O2-  O390  1  0.75033356  0.66654088  0.40377039  1
  O2-  O391  1  0.25014249  0.33994628  0.92464106  1
  O2-  O392  1  0.24961578  0.67343898  0.61877902  1
  O2-  O393  1  0.25017620  0.01461853  0.43888068  1
  O2-  O394  1  0.25007462  0.67433559  0.84593933  1
  O2-  O395  1  0.74939804  0.32645883  0.84774824  1
  O2-  O396  1  0.24986692  0.83441086  0.06564114  1
  O2-  O397  1  0.25005278  0.52015228  0.59599958  1
  O2-  O398  1  0.74992959  0.16943188  0.33193900  1
  O2-  O399  1  0.74965173  0.50486077  0.33039051  1
  O2-  O400  1  0.25016417  0.17088510  0.63976309  1
  O2-  O401  1  0.74968378  0.50725214  0.91074003  1
  O2-  O402  1  0.75003561  0.49898216  0.57993738  1
  O2-  O403  1  0.24999138  0.17096335  0.91400668  1
  O2-  O404  1  0.24994414  0.15433136  0.05714333  1
  O2-  O405  1  0.25006045  0.14953095  0.36691500  1
  O2-  O406  1  0.74983343  0.83277028  0.32837813  1
  O2-  O407  1  0.74997708  0.49438620  0.66774846  1
  O2-  O408  1  0.25010357  0.82809623  0.89188610  1
  O2-  O409  1  0.24993714  0.47427592  0.86077405  1
  O2-  O410  1  0.25004446  0.84245768  0.14905634  1
  O2-  O411  1  0.74982010  0.83751064  0.42239190  1
  O2-  O412  1  0.25017660  0.48129356  0.12308018  1
  O2-  O413  1  0.74973677  0.16189859  0.41900060  1
  O2-  O414  1  0.24965960  0.46834037  0.66528010  1
  O2-  O415  1  0.74992766  0.49366380  0.41582899  1
  O2-  O416  1  0.25026066  0.84403212  0.63162459  1
  O2-  O417  1  0.25012303  0.48666212  0.34413020  1
  O2-  O418  1  0.25025318  0.85798815  0.38680935  1
  O2-  O419  1  0.24988526  0.15174496  0.14593995  1
  O2-  O420  1  0.95378519  0.33907994  0.88408887  1
  O2-  O421  1  0.95962583  0.00296160  0.13169254  1
  O2-  O422  1  0.45309986  -0.00151654  0.87103399  1
  O2-  O423  1  0.45453045  -0.00424249  0.12323854  1
  O2-  O424  1  0.54529275  0.66231613  0.37193513  1
  O2-  O425  1  0.54158538  0.01480326  0.14136016  1
  O2-  O426  1  0.45693193  0.67920368  0.62708110  1
  O2-  O427  1  0.02052721  0.65341091  0.89069251  1
  O2-  O428  1  0.04643900  0.00010578  0.11807612  1
  O2-  O429  1  0.48690523  -0.00783450  0.37225390  1
  O2-  O430  1  0.04186651  0.32234516  0.86979983  1
  O2-  O431  1  0.45603046  0.66569523  0.37856923  1
  O2-  O432  1  0.97202532  0.67431358  0.37419382  1
  O2-  O433  1  0.02950764  0.32998582  0.12171192  1
  O2-  O434  1  0.02878998  0.01935614  0.63217779  1
  O2-  O435  1  0.95828607  0.00364472  0.86810623  1
  O2-  O436  1  0.02620164  0.66997527  0.13053168  1
  O2-  O437  1  0.52695897  0.33800444  0.62026407  1
  O2-  O438  1  0.54364432  -0.00700880  0.86351640  1
  O2-  O439  1  0.96907969  -0.00110272  0.64188034  1
  O2-  O440  1  0.53001708  0.66898996  0.13265877  1
  O2-  O441  1  0.97711832  -0.00144243  0.38191853  1
  O2-  O442  1  0.04245459  0.00552477  0.88416047  1
  O2-  O443  1  0.54294576  0.65362474  0.63813732  1
