# generated using pymatgen
data_La7(Ru4O11)2
_symmetry_space_group_name_H-M   'P 1'
_cell_length_a   23.99056304
_cell_length_b   16.83110700
_cell_length_c   15.42723273
_cell_angle_alpha   89.99991889
_cell_angle_beta   90.00027874
_cell_angle_gamma   89.99943420
_symmetry_Int_Tables_number   1
_chemical_formula_structural   La7(Ru4O11)2
_chemical_formula_sum   'La84 Ru96 O264'
_cell_volume   6229.32733949
_cell_formula_units_Z   12
loop_
 _symmetry_equiv_pos_site_id
 _symmetry_equiv_pos_as_xyz
  1  'x, y, z'
loop_
 _atom_type_symbol
 _atom_type_oxidation_number
  La3+  3.0
  Ru4+  4.0
  O2-  -2.0
loop_
 _atom_site_type_symbol
 _atom_site_label
 _atom_site_symmetry_multiplicity
 _atom_site_fract_x
 _atom_site_fract_y
 _atom_site_fract_z
 _atom_site_occupancy
  La3+  La0  1  0.13716932  0.00068100  0.12442578  1
  La3+  La1  1  0.13877925  -0.00226845  0.37874177  1
  La3+  La2  1  0.13672470  -0.00128033  0.62560951  1
  La3+  La3  1  0.14055417  0.00327948  0.87461659  1
  La3+  La4  1  0.13556210  0.33481312  0.12477302  1
  La3+  La5  1  0.13428852  0.33485502  0.37532217  1
  La3+  La6  1  0.13765159  0.33259722  0.62796456  1
  La3+  La7  1  0.14132626  0.33277220  0.87180204  1
  La3+  La8  1  0.13840530  0.66567253  0.12898317  1
  La3+  La9  1  0.14005200  0.66754345  0.37398114  1
  La3+  La10  1  0.13789702  0.66796405  0.62366313  1
  La3+  La11  1  0.13442719  0.66782642  0.87283008  1
  La3+  La12  1  0.64007046  0.00059726  0.12060488  1
  La3+  La13  1  0.63691224  -0.00016350  0.37721453  1
  La3+  La14  1  0.64074571  0.00158642  0.62466822  1
  La3+  La15  1  0.64488592  0.00172724  0.87620758  1
  La3+  La16  1  0.63616953  0.33261244  0.12723280  1
  La3+  La17  1  0.63992940  0.33359012  0.37602363  1
  La3+  La18  1  0.63714147  0.33211511  0.62170690  1
  La3+  La19  1  0.63932300  0.33004305  0.87455588  1
  La3+  La20  1  0.63956791  0.66670326  0.12986577  1
  La3+  La21  1  0.63804504  0.66474269  0.37195897  1
  La3+  La22  1  0.63990012  0.66505266  0.62730344  1
  La3+  La23  1  0.63833485  0.66775713  0.87130061  1
  La3+  La24  1  0.36276651  0.00037952  0.12439123  1
  La3+  La25  1  0.36055548  -0.00236624  0.37833165  1
  La3+  La26  1  0.36286810  0.00013320  0.62536648  1
  La3+  La27  1  0.36097226  0.00275057  0.87480053  1
  La3+  La28  1  0.36416378  0.33119891  0.12540093  1
  La3+  La29  1  0.36384520  0.33435167  0.37406986  1
  La3+  La30  1  0.35969043  0.33347499  0.62798695  1
  La3+  La31  1  0.35698162  0.33078023  0.87191236  1
  La3+  La32  1  0.36085260  0.66543777  0.12962774  1
  La3+  La33  1  0.35834237  0.66580477  0.37395179  1
  La3+  La34  1  0.36179993  0.66702737  0.62360204  1
  La3+  La35  1  0.36145749  0.66505353  0.87153530  1
  La3+  La36  1  0.86160841  -0.00006357  0.12107144  1
  La3+  La37  1  0.86509729  -0.00135371  0.37871729  1
  La3+  La38  1  0.86135329  0.00156964  0.62312241  1
  La3+  La39  1  0.85739783  0.00165959  0.87607803  1
  La3+  La40  1  0.86304885  0.33376287  0.12492030  1
  La3+  La41  1  0.85917313  0.33510846  0.37660391  1
  La3+  La42  1  0.86252947  0.33110456  0.62375949  1
  La3+  La43  1  0.86109270  0.32939698  0.87566568  1
  La3+  La44  1  0.86211721  0.66510709  0.12690526  1
  La3+  La45  1  0.85837448  0.66628912  0.37213987  1
  La3+  La46  1  0.85984658  0.66868670  0.62753591  1
  La3+  La47  1  0.86170127  0.66781918  0.87610528  1
  La3+  La48  1  0.00449961  0.49689527  0.61897135  1
  La3+  La49  1  -0.00077647  0.16397662  0.37088509  1
  La3+  La50  1  0.49949021  0.16486117  0.13153120  1
  La3+  La51  1  0.50094213  0.83329690  0.88440822  1
  La3+  La52  1  0.00180780  0.49834888  0.36340430  1
  La3+  La53  1  0.00058075  0.49692924  0.88925905  1
  La3+  La54  1  -0.00080493  0.16773121  0.86551518  1
  La3+  La55  1  0.50080912  0.50255408  0.11958256  1
  La3+  La56  1  -0.00064392  0.82960923  0.63157082  1
  La3+  La57  1  0.49981929  0.50107332  0.62960696  1
  La3+  La58  1  0.49786825  0.49916920  0.37149367  1
  La3+  La59  1  -0.00056978  0.83449524  0.86488640  1
  La3+  La60  1  0.49880034  0.83272997  0.63305196  1
  La3+  La61  1  0.50149336  0.49865615  0.86042016  1
  La3+  La62  1  0.00049501  0.50688598  0.86953053  1
  La3+  La63  1  -0.00077100  0.50110112  0.11670456  1
  La3+  La64  1  0.50526229  0.84039844  0.12494040  1
  La3+  La65  1  0.50231103  0.17033974  0.88131223  1
  La3+  La66  1  -0.00221471  0.16215609  0.61431976  1
  La3+  La67  1  -0.00126271  0.49513407  0.62297937  1
  La3+  La68  1  0.49973369  0.83538315  0.14476716  1
  La3+  La69  1  0.50265067  0.49507876  0.87651936  1
  La3+  La70  1  0.49813106  0.83292409  0.86235891  1
  La3+  La71  1  0.00037751  0.16936422  0.13076581  1
  La3+  La72  1  0.75004996  0.83291333  0.73150705  1
  La3+  La73  1  0.25056409  0.78457499  0.74989343  1
  La3+  La74  1  0.24997092  0.11963210  0.54804459  1
  La3+  La75  1  0.74987399  0.49359069  -0.04049926  1
  La3+  La76  1  0.75022872  0.17701836  0.17812928  1
  La3+  La77  1  0.74999639  0.45114510  0.49450522  1
  La3+  La78  1  0.74996318  0.87754321  0.00085054  1
  La3+  La79  1  0.24908503  0.48149578  0.00248007  1
  La3+  La80  1  0.24997760  0.84788334  -0.01700464  1
  La3+  La81  1  0.24944763  0.16026238  0.22215167  1
  La3+  La82  1  0.74994930  0.16514104  0.51266010  1
  La3+  La83  1  0.74967444  0.53600980  0.75419745  1
  Ru4+  Ru84  1  -0.00126963  -0.00063039  0.00233656  1
  Ru4+  Ru85  1  -0.00343710  -0.00430254  0.25103683  1
  Ru4+  Ru86  1  0.00608299  -0.00257099  0.49239354  1
  Ru4+  Ru87  1  -0.00111385  0.00303132  0.75355708  1
  Ru4+  Ru88  1  -0.00081466  0.33041289  0.00195724  1
  Ru4+  Ru89  1  -0.00403973  0.32919595  0.25283559  1
  Ru4+  Ru90  1  -0.00326965  0.33520713  0.49784723  1
  Ru4+  Ru91  1  -0.00394667  0.32352131  0.74912475  1
  Ru4+  Ru92  1  0.00351240  0.67410690  0.00274187  1
  Ru4+  Ru93  1  0.00977537  0.65920932  0.25215619  1
  Ru4+  Ru94  1  0.00019178  0.67078326  0.49813418  1
  Ru4+  Ru95  1  -0.00410340  0.66585889  0.74967274  1
  Ru4+  Ru96  1  0.49952595  0.00126748  0.00020541  1
  Ru4+  Ru97  1  0.50118941  -0.00000568  0.25352416  1
  Ru4+  Ru98  1  0.50230190  0.00227561  0.49999851  1
  Ru4+  Ru99  1  0.49784468  0.00285062  0.74788761  1
  Ru4+  Ru100  1  0.49937730  0.33309475  0.00037922  1
  Ru4+  Ru101  1  0.50007451  0.34374819  0.24860202  1
  Ru4+  Ru102  1  0.50177972  0.33096890  0.50565518  1
  Ru4+  Ru103  1  0.49999994  0.33198519  0.74662601  1
  Ru4+  Ru104  1  0.50044713  0.66691776  0.00103022  1
  Ru4+  Ru105  1  0.49856812  0.67173853  0.25116385  1
  Ru4+  Ru106  1  0.49550750  0.66865975  0.49784652  1
  Ru4+  Ru107  1  0.50085729  0.66806285  0.75068378  1
  Ru4+  Ru108  1  0.11410327  0.16640024  -0.00058609  1
  Ru4+  Ru109  1  0.11107674  0.16590645  0.24973498  1
  Ru4+  Ru110  1  0.11426531  0.16097660  0.49787372  1
  Ru4+  Ru111  1  0.11585089  0.16769596  0.75084174  1
  Ru4+  Ru112  1  0.10979253  0.50033361  0.00038194  1
  Ru4+  Ru113  1  0.11575654  0.50640244  0.24943977  1
  Ru4+  Ru114  1  0.11437522  0.50171869  0.50019497  1
  Ru4+  Ru115  1  0.11923352  0.50214401  0.74959906  1
  Ru4+  Ru116  1  0.10895498  0.83423742  0.00133460  1
  Ru4+  Ru117  1  0.10904654  0.83226391  0.25147636  1
  Ru4+  Ru118  1  0.11560188  0.83174247  0.49933245  1
  Ru4+  Ru119  1  0.11693025  0.83636303  0.75147282  1
  Ru4+  Ru120  1  0.61484938  0.16475881  -0.00014223  1
  Ru4+  Ru121  1  0.61342604  0.16203230  0.24947517  1
  Ru4+  Ru122  1  0.60983853  0.16736441  0.50237432  1
  Ru4+  Ru123  1  0.61524016  0.16575618  0.74957283  1
  Ru4+  Ru124  1  0.61087658  0.49709412  0.00043504  1
  Ru4+  Ru125  1  0.61598100  0.50130953  0.24827484  1
  Ru4+  Ru126  1  0.61386585  0.49483017  0.50077865  1
  Ru4+  Ru127  1  0.61237092  0.50194995  0.75071774  1
  Ru4+  Ru128  1  0.61138182  0.83338018  -0.00006381  1
  Ru4+  Ru129  1  0.61343114  0.83179834  0.25202298  1
  Ru4+  Ru130  1  0.61360850  0.83457322  0.50074416  1
  Ru4+  Ru131  1  0.61321771  0.83225131  0.74974326  1
  Ru4+  Ru132  1  0.38434044  0.16719945  -0.00004106  1
  Ru4+  Ru133  1  0.38669137  0.16088588  0.25044541  1
  Ru4+  Ru134  1  0.38931018  0.16614368  0.49975365  1
  Ru4+  Ru135  1  0.38420504  0.16709802  0.75031709  1
  Ru4+  Ru136  1  0.38814596  0.49841868  0.00196402  1
  Ru4+  Ru137  1  0.38601353  0.50344101  0.25061908  1
  Ru4+  Ru138  1  0.38777366  0.50038449  0.50001767  1
  Ru4+  Ru139  1  0.38667870  0.49811993  0.75007718  1
  Ru4+  Ru140  1  0.38699956  0.83406257  -0.00227954  1
  Ru4+  Ru141  1  0.38762037  0.83311957  0.25133072  1
  Ru4+  Ru142  1  0.38483940  0.83302235  0.49922286  1
  Ru4+  Ru143  1  0.38994039  0.83292783  0.74902239  1
  Ru4+  Ru144  1  0.88563549  0.16634899  -0.00073822  1
  Ru4+  Ru145  1  0.88922698  0.16838130  0.24931979  1
  Ru4+  Ru146  1  0.88547084  0.16963568  0.50018917  1
  Ru4+  Ru147  1  0.88541157  0.16524648  0.75123251  1
  Ru4+  Ru148  1  0.88581369  0.49560429  0.00169239  1
  Ru4+  Ru149  1  0.88476033  0.49990100  0.24957082  1
  Ru4+  Ru150  1  0.88734374  0.49776542  0.49926602  1
  Ru4+  Ru151  1  0.88544227  0.50157553  0.75021946  1
  Ru4+  Ru152  1  0.88924418  0.83615436  -0.00060878  1
  Ru4+  Ru153  1  0.88237646  0.83899325  0.25054258  1
  Ru4+  Ru154  1  0.88556515  0.82992893  0.49740721  1
  Ru4+  Ru155  1  0.88694925  0.83276039  0.74977596  1
  Ru4+  Ru156  1  0.25002459  0.72631291  0.01641384  1
  Ru4+  Ru157  1  0.25018357  0.28469137  0.24205538  1
  Ru4+  Ru158  1  0.24983532  0.90013481  0.25231917  1
  Ru4+  Ru159  1  0.74992008  0.04688964  0.23377739  1
  Ru4+  Ru160  1  0.75001037  0.59628238  0.49180799  1
  Ru4+  Ru161  1  0.74976472  0.74254101  0.00132797  1
  Ru4+  Ru162  1  0.74960273  0.90781429  0.24755294  1
  Ru4+  Ru163  1  0.74989627  0.61226645  0.02244667  1
  Ru4+  Ru164  1  0.25039600  0.57783407  0.49826387  1
  Ru4+  Ru165  1  0.24968901  0.60586790  -0.00587429  1
  Ru4+  Ru166  1  0.24981549  0.96974837  0.03044866  1
  Ru4+  Ru167  1  0.24983673  0.43414543  0.24820358  1
  Ru4+  Ru168  1  0.25038446  0.58082690  0.74854041  1
  Ru4+  Ru169  1  0.74994758  0.39543623  0.73601448  1
  Ru4+  Ru170  1  0.24984075  0.26116016  0.51047417  1
  Ru4+  Ru171  1  0.24988619  0.35157839  -0.00958596  1
  Ru4+  Ru172  1  0.75010688  0.29585364  0.26310942  1
  Ru4+  Ru173  1  0.25023888  0.03344085  0.23031664  1
  Ru4+  Ru174  1  0.25039220  0.93614885  0.73594292  1
  Ru4+  Ru175  1  0.75001997  0.37475344  0.02896150  1
  Ru4+  Ru176  1  0.25035425  0.43057525  0.50160348  1
  Ru4+  Ru177  1  0.74981221  0.91391378  0.50437468  1
  Ru4+  Ru178  1  0.24994640  0.75483308  0.25221055  1
  Ru4+  Ru179  1  0.74955524  0.75640077  0.49517950  1
  O2-  O180  1  0.16546417  0.08195572  0.00140676  1
  O2-  O181  1  0.16525599  0.07856102  0.25030608  1
  O2-  O182  1  0.16582814  0.07936271  0.50047409  1
  O2-  O183  1  0.16432452  0.08148587  0.74864465  1
  O2-  O184  1  0.16646536  0.41123603  0.00108450  1
  O2-  O185  1  0.16735258  0.41351993  0.25042117  1
  O2-  O186  1  0.16665268  0.41347835  0.49887995  1
  O2-  O187  1  0.16713356  0.41606387  0.74921615  1
  O2-  O188  1  0.16407081  0.74659784  -0.00080960  1
  O2-  O189  1  0.16828415  0.74936310  0.24916412  1
  O2-  O190  1  0.16544093  0.74765028  0.50149161  1
  O2-  O191  1  0.16429634  0.74334408  0.74998300  1
  O2-  O192  1  0.66649043  0.08335995  -0.00020013  1
  O2-  O193  1  0.66562658  0.07962810  0.25043767  1
  O2-  O194  1  0.66627495  0.08179426  0.49878430  1
  O2-  O195  1  0.66489860  0.08242640  0.74993054  1
  O2-  O196  1  0.66625247  0.41167654  0.00102202  1
  O2-  O197  1  0.66602684  0.41274909  0.24914429  1
  O2-  O198  1  0.66347298  0.41164798  0.49929046  1
  O2-  O199  1  0.66671225  0.41278020  0.74958140  1
  O2-  O200  1  0.66580328  0.74639980  0.00012072  1
  O2-  O201  1  0.66704062  0.74788345  0.24945706  1
  O2-  O202  1  0.66797333  0.74775318  0.49912020  1
  O2-  O203  1  0.66784564  0.74765313  0.75079564  1
  O2-  O204  1  0.33415853  0.25176562  0.00051236  1
  O2-  O205  1  0.33420137  0.25556609  0.25130618  1
  O2-  O206  1  0.33296696  0.25418585  0.50082492  1
  O2-  O207  1  0.33584986  0.25122380  0.74855850  1
  O2-  O208  1  0.33362438  0.58674638  -0.00095978  1
  O2-  O209  1  0.33395233  0.58396447  0.24909175  1
  O2-  O210  1  0.33283820  0.58576600  0.50059101  1
  O2-  O211  1  0.32969028  0.58608485  0.74953759  1
  O2-  O212  1  0.33343850  0.92144996  0.00095728  1
  O2-  O213  1  0.33268421  0.91869627  0.24972634  1
  O2-  O214  1  0.33642809  0.91801083  0.50090739  1
  O2-  O215  1  0.33199933  0.92094596  0.74948924  1
  O2-  O216  1  0.83224539  0.25149615  0.00283074  1
  O2-  O217  1  0.83284816  0.25448310  0.24960383  1
  O2-  O218  1  0.83357192  0.25271437  0.50062875  1
  O2-  O219  1  0.83497016  0.25223717  0.74873208  1
  O2-  O220  1  0.83350865  0.58789873  0.00030657  1
  O2-  O221  1  0.83381735  0.58531875  0.24856077  1
  O2-  O222  1  0.83408226  0.58707348  0.50131292  1
  O2-  O223  1  0.83372860  0.58749243  0.74975586  1
  O2-  O224  1  0.83593458  0.91958178  0.00159216  1
  O2-  O225  1  0.82998439  0.91979044  0.24906874  1
  O2-  O226  1  0.83415305  0.91785479  0.50023820  1
  O2-  O227  1  0.83407839  0.91960847  0.74930182  1
  O2-  O228  1  0.16666642  0.25250986  0.00083115  1
  O2-  O229  1  0.16530069  0.25582018  0.25091000  1
  O2-  O230  1  0.16612627  0.25388106  0.50005478  1
  O2-  O231  1  0.16708521  0.25051222  0.74809768  1
  O2-  O232  1  0.16483071  0.58827213  -0.00051354  1
  O2-  O233  1  0.16479638  0.58555890  0.25046141  1
  O2-  O234  1  0.16806872  0.58560299  0.50048890  1
  O2-  O235  1  0.16948524  0.58641632  0.75057761  1
  O2-  O236  1  0.16687460  0.92093443  0.00001701  1
  O2-  O237  1  0.16691453  0.91843621  0.24894693  1
  O2-  O238  1  0.16401914  0.91883031  0.50189578  1
  O2-  O239  1  0.16782278  0.92013035  0.74775665  1
  O2-  O240  1  0.66576193  0.25268890  0.00166817  1
  O2-  O241  1  0.66731537  0.25543785  0.24941568  1
  O2-  O242  1  0.66775582  0.25180816  0.49958473  1
  O2-  O243  1  0.66748541  0.25159165  0.75075414  1
  O2-  O244  1  0.66597053  0.58853144  0.00044731  1
  O2-  O245  1  0.66802161  0.58472548  0.25035109  1
  O2-  O246  1  0.66639745  0.58696552  0.49871343  1
  O2-  O247  1  0.66612727  0.58691111  0.75161379  1
  O2-  O248  1  0.66405873  0.92074522  -0.00028030  1
  O2-  O249  1  0.66746495  0.91810483  0.24957100  1
  O2-  O250  1  0.66556606  0.91817337  0.49930874  1
  O2-  O251  1  0.66658231  0.92052840  0.74941461  1
  O2-  O252  1  0.33199701  0.08170960  -0.00040678  1
  O2-  O253  1  0.33515997  0.07826081  0.25104977  1
  O2-  O254  1  0.33662772  0.08048502  0.49941765  1
  O2-  O255  1  0.33542577  0.08107262  0.74926275  1
  O2-  O256  1  0.33291239  0.41214354  0.00002950  1
  O2-  O257  1  0.33400020  0.41374080  0.24929254  1
  O2-  O258  1  0.33325395  0.41336787  0.49979909  1
  O2-  O259  1  0.33464527  0.41507381  0.74832571  1
  O2-  O260  1  0.33379737  0.74612777  0.00146958  1
  O2-  O261  1  0.33236478  0.74823502  0.24990741  1
  O2-  O262  1  0.33292631  0.74799381  0.50273662  1
  O2-  O263  1  0.33680303  0.74367850  0.74995909  1
  O2-  O264  1  0.83417299  0.08374756  0.00204818  1
  O2-  O265  1  0.83339310  0.07758496  0.24945393  1
  O2-  O266  1  0.83379814  0.08184384  0.49942850  1
  O2-  O267  1  0.83316001  0.08231176  0.74834080  1
  O2-  O268  1  0.83336011  0.41129475  0.00115519  1
  O2-  O269  1  0.83352411  0.41411399  0.24950275  1
  O2-  O270  1  0.83659409  0.41127706  0.50195494  1
  O2-  O271  1  0.83336628  0.41373720  0.74868101  1
  O2-  O272  1  0.83457084  0.74707879  0.00193165  1
  O2-  O273  1  0.83091285  0.75020689  0.24866742  1
  O2-  O274  1  0.83285533  0.74883290  0.50102213  1
  O2-  O275  1  0.83259270  0.74738744  0.75077641  1
  O2-  O276  1  0.46030175  0.11054786  0.97227845  1
  O2-  O277  1  0.45029438  0.23410605  0.23645601  1
  O2-  O278  1  0.46042891  0.22287823  0.53228863  1
  O2-  O279  1  0.03636808  0.21803967  0.71710850  1
  O2-  O280  1  0.95266997  0.56952708  0.98806072  1
  O2-  O281  1  0.94979728  0.42809756  0.76312564  1
  O2-  O282  1  0.54837967  0.76219131  0.26408630  1
  O2-  O283  1  0.46151227  0.77680250  0.02938813  1
  O2-  O284  1  0.54417113  0.57298649  0.51350984  1
  O2-  O285  1  0.96184794  0.77777564  0.25120496  1
  O2-  O286  1  0.45097219  0.76576714  0.26640108  1
  O2-  O287  1  0.54865063  0.56839109  0.98993214  1
  O2-  O288  1  0.54548849  0.43432398  0.73690928  1
  O2-  O289  1  0.04845121  0.09287711  0.23515688  1
  O2-  O290  1  0.04475143  0.23576181  0.26144301  1
  O2-  O291  1  0.54561963  0.90345608  0.26330919  1
  O2-  O292  1  0.95154990  0.09986205  0.23787170  1
  O2-  O293  1  0.95240098  0.42839100  0.26554691  1
  O2-  O294  1  0.95147281  0.89906420  0.48330940  1
  O2-  O295  1  0.54059602  0.78532250  0.50161890  1
  O2-  O296  1  0.95076622  0.09560359  0.51389300  1
  O2-  O297  1  0.05147400  0.23316710  0.51507843  1
  O2-  O298  1  0.04939851  0.43252884  0.73170325  1
  O2-  O299  1  0.04754801  0.90334985  0.26374817  1
  O2-  O300  1  0.54059557  0.22416975  0.77443353  1
  O2-  O301  1  0.04829318  0.43326307  0.77077893  1
  O2-  O302  1  0.04626773  0.43239471  0.50899760  1
  O2-  O303  1  0.95611317  0.90845922  0.52036635  1
  O2-  O304  1  0.45507284  0.77704435  0.53206042  1
  O2-  O305  1  0.54421963  0.23475767  0.01595384  1
  O2-  O306  1  0.95751769  0.56145587  0.71163066  1
  O2-  O307  1  0.03732266  0.89352981  0.96498340  1
  O2-  O308  1  0.95275363  0.23616684  0.50963966  1
  O2-  O309  1  0.04338577  0.90105267  0.71470137  1
  O2-  O310  1  0.04710196  0.76214025  0.76178847  1
  O2-  O311  1  0.96182646  0.77781851  0.25107119  1
  O2-  O312  1  0.95615756  0.56832114  0.23623556  1
  O2-  O313  1  0.45847529  0.55624814  0.96624540  1
  O2-  O314  1  0.04955724  0.76606669  0.51651052  1
  O2-  O315  1  0.04540547  0.22977633  0.98585848  1
  O2-  O316  1  0.95425359  0.56963964  0.51077396  1
  O2-  O317  1  0.05057651  0.57370231  0.73418987  1
  O2-  O318  1  0.04929644  0.43393846  0.23307338  1
  O2-  O319  1  0.95826012  0.77049557  0.53531054  1
  O2-  O320  1  0.55031443  0.23575316  0.23480002  1
  O2-  O321  1  0.54546625  0.56314444  0.28694365  1
  O2-  O322  1  0.54577467  0.90237935  0.73710366  1
  O2-  O323  1  0.04547733  0.76286996  0.98678037  1
  O2-  O324  1  0.56461732  0.59136496  0.78028726  1
  O2-  O325  1  0.93707451  0.73829683  0.71574008  1
  O2-  O326  1  0.42390158  0.60394737  0.05200580  1
  O2-  O327  1  0.56722969  0.25771000  0.52625928  1
  O2-  O328  1  0.93221413  0.92906567  0.27728448  1
  O2-  O329  1  0.43103437  0.27663928  0.44981523  1
  O2-  O330  1  0.43757890  0.59637167  0.28331319  1
  O2-  O331  1  0.43264304  0.41219928  0.05886813  1
  O2-  O332  1  0.57225450  0.26824670  0.70999252  1
  O2-  O333  1  0.06384884  0.59834259  0.53563980  1
  O2-  O334  1  0.56156283  0.26400930  0.21759640  1
  O2-  O335  1  0.43609013  0.59634006  0.78374321  1
  O2-  O336  1  0.42593346  0.06268696  0.04924219  1
  O2-  O337  1  0.56981562  0.60851258  0.16921316  1
  O2-  O338  1  0.93930843  0.59195692  0.96555494  1
  O2-  O339  1  0.57685158  0.72551460  0.53486286  1
  O2-  O340  1  0.93634781  0.40301797  0.46563130  1
  O2-  O341  1  0.92752447  0.61137124  0.80780223  1
  O2-  O342  1  0.42763920  0.72175659  0.93866812  1
  O2-  O343  1  0.56320913  0.07262972  0.03511717  1
  O2-  O344  1  0.06537676  0.40718147  0.22461984  1
  O2-  O345  1  0.56412981  0.74183184  0.77888943  1
  O2-  O346  1  0.93584284  0.92649204  0.96508301  1
  O2-  O347  1  0.92862725  0.72392371  0.44998819  1
  O2-  O348  1  0.55810269  0.58821251  0.30693681  1
  O2-  O349  1  0.05724101  0.92266249  0.69208616  1
  O2-  O350  1  0.93402312  0.25826463  0.97224005  1
  O2-  O351  1  0.92680526  0.73193369  0.19246442  1
  O2-  O352  1  0.06425225  0.26256911  0.52595197  1
  O2-  O353  1  0.93761312  0.06947046  0.78170011  1
  O2-  O354  1  0.07184874  0.94475879  0.05387385  1
  O2-  O355  1  0.93137948  0.72622474  0.31142664  1
  O2-  O356  1  0.93902710  0.07253594  0.96759001  1
  O2-  O357  1  0.06451080  0.74058954  0.77781332  1
  O2-  O358  1  0.43004054  0.72325914  0.44770425  1
  O2-  O359  1  0.56294292  0.92919260  0.03126420  1
  O2-  O360  1  0.56356071  0.06895749  0.53190862  1
  O2-  O361  1  0.43540075  0.92579404  0.96997606  1
  O2-  O362  1  0.07067245  0.94399072  0.82834822  1
  O2-  O363  1  0.56323739  0.40800847  0.52652879  1
  O2-  O364  1  0.43654257  0.40102414  0.93266249  1
  O2-  O365  1  0.93820400  0.07146143  0.53581631  1
  O2-  O366  1  0.07498001  0.26990969  0.79691232  1
  O2-  O367  1  0.56546962  0.58821627  0.52640442  1
  O2-  O368  1  0.43681799  0.26183392  0.22285221  1
  O2-  O369  1  0.43426580  0.92656441  0.72272769  1
  O2-  O370  1  0.06766598  0.73727585  0.27754330  1
  O2-  O371  1  0.06278674  0.06944283  0.46799111  1
  O2-  O372  1  0.25010086  0.33680583  0.85589471  1
  O2-  O373  1  0.74985309  0.33088794  0.40006063  1
  O2-  O374  1  0.25014329  0.66736562  0.42038426  1
  O2-  O375  1  0.75000355  -0.00211669  0.59282925  1
  O2-  O376  1  0.25015322  0.00275634  0.42956142  1
  O2-  O377  1  0.24990807  0.00803238  0.82414921  1
  O2-  O378  1  0.24993605  0.01093842  0.91994733  1
  O2-  O379  1  0.74969433  0.67161418  0.39853521  1
  O2-  O380  1  0.74984446  -0.00058447  0.10346070  1
  O2-  O381  1  0.75012304  0.66706037  0.67797140  1
  O2-  O382  1  0.24998152  0.67138139  0.15740180  1
  O2-  O383  1  0.74991087  0.00465668  0.43014094  1
  O2-  O384  1  0.74935517  -0.00229824  0.90445844  1
  O2-  O385  1  0.25007704  -0.01313417  0.34103924  1
  O2-  O386  1  0.25011042  0.34988923  0.33660448  1
  O2-  O387  1  0.25009095  0.66514918  0.32976470  1
  O2-  O388  1  0.24993610  0.34384966  0.13998406  1
  O2-  O389  1  0.75010327  0.67349566  0.58422012  1
  O2-  O390  1  0.74992878  0.32349204  0.92064939  1
  O2-  O391  1  0.25009140  0.34067812  0.42652836  1
  O2-  O392  1  0.75005832  0.66474405  0.89455803  1
  O2-  O393  1  0.75002934  -0.01208239  0.33700602  1
  O2-  O394  1  0.75006076  0.32459786  0.82579491  1
  O2-  O395  1  0.25018241  0.33929836  0.59946218  1
  O2-  O396  1  0.25000505  0.50258861  0.59446741  1
  O2-  O397  1  0.74994587  0.16464001  0.90990089  1
  O2-  O398  1  0.25003272  0.16614653  0.10100365  1
  O2-  O399  1  0.25005135  0.17600730  0.42954158  1
  O2-  O400  1  0.25001740  0.16813027  0.84004201  1
  O2-  O401  1  0.75036821  0.16581556  0.39444547  1
  O2-  O402  1  0.24999761  0.83663503  0.12344684  1
  O2-  O403  1  0.25004546  0.84466023  0.64089034  1
  O2-  O404  1  0.74986690  0.16630350  0.31332769  1
  O2-  O405  1  0.25008148  0.83337947  0.55847032  1
  O2-  O406  1  0.74999331  0.83343296  0.58952715  1
  O2-  O407  1  0.24986261  0.16668865  0.34835267  1
  O2-  O408  1  0.74996379  0.83090010  0.86588061  1
  O2-  O409  1  0.74997548  0.49932653  0.10632238  1
  O2-  O410  1  0.25010716  0.49692807  0.34279071  1
  O2-  O411  1  0.24992565  0.84363918  0.85793223  1
  O2-  O412  1  0.25018522  0.17017049  0.66107084  1
  O2-  O413  1  0.25009598  0.83288610  0.39488939  1
  O2-  O414  1  0.25000137  0.49841471  0.15668469  1
  O2-  O415  1  0.75006725  0.50501695  0.62265010  1
  O2-  O416  1  0.74995423  0.83469534  0.40709343  1
  O2-  O417  1  0.75018510  0.51233119  0.37941481  1
  O2-  O418  1  0.74979521  0.16743613  0.62726792  1
  O2-  O419  1  0.74986962  0.16702212  0.70639717  1
  O2-  O420  1  0.45854956  0.66466366  0.62832974  1
  O2-  O421  1  0.97289739  0.00029009  0.12501169  1
  O2-  O422  1  0.47588312  -0.00551429  0.13402427  1
  O2-  O423  1  0.52615336  0.00116663  0.37680445  1
  O2-  O424  1  0.03758374  0.33761474  0.63130695  1
  O2-  O425  1  0.47462737  0.00233578  0.61894142  1
  O2-  O426  1  0.02600953  0.65915679  0.37652578  1
  O2-  O427  1  0.02734699  0.66044468  0.88010520  1
  O2-  O428  1  0.02748633  0.33426581  0.37620132  1
  O2-  O429  1  0.53625758  0.66611620  0.63803534  1
  O2-  O430  1  0.52398230  0.66960588  0.88055184  1
  O2-  O431  1  0.52808673  0.33541543  0.87632847  1
  O2-  O432  1  0.47896972  0.33291179  0.12609522  1
  O2-  O433  1  0.96202354  0.33518198  0.86997103  1
  O2-  O434  1  0.95823905  0.33293158  0.12703196  1
  O2-  O435  1  0.04067196  0.66412987  0.12621377  1
  O2-  O436  1  0.97522856  0.00664073  0.37727865  1
  O2-  O437  1  0.47482957  0.67120839  0.13093289  1
  O2-  O438  1  0.95849546  0.33473907  0.62559376  1
  O2-  O439  1  0.51780611  0.33933071  0.62772137  1
  O2-  O440  1  0.96376925  0.66076372  0.11229528  1
  O2-  O441  1  0.04032638  0.33030564  0.11533733  1
  O2-  O442  1  0.03583422  0.34086027  0.88593404  1
  O2-  O443  1  0.47587918  0.00149599  0.86929890  1
