# generated using pymatgen
data_La7(Ru4O11)2
_symmetry_space_group_name_H-M   'P 1'
_cell_length_a   23.99148338
_cell_length_b   16.83223157
_cell_length_c   15.42844312
_cell_angle_alpha   89.99901716
_cell_angle_beta   89.99974379
_cell_angle_gamma   89.99814141
_symmetry_Int_Tables_number   1
_chemical_formula_structural   La7(Ru4O11)2
_chemical_formula_sum   'La84 Ru96 O264'
_cell_volume   6230.47132514
_cell_formula_units_Z   12
loop_
 _symmetry_equiv_pos_site_id
 _symmetry_equiv_pos_as_xyz
  1  'x, y, z'
loop_
 _atom_type_symbol
 _atom_type_oxidation_number
  La3+  3.0
  Ru4+  4.0
  O2-  -2.0
loop_
 _atom_site_type_symbol
 _atom_site_label
 _atom_site_symmetry_multiplicity
 _atom_site_fract_x
 _atom_site_fract_y
 _atom_site_fract_z
 _atom_site_occupancy
  La3+  La0  1  0.12834363  -0.01049649  0.13644865  1
  La3+  La1  1  0.12666340  -0.00245547  0.37350824  1
  La3+  La2  1  0.12798192  0.00818926  0.61390832  1
  La3+  La3  1  0.13333971  -0.00197223  0.87596347  1
  La3+  La4  1  0.14163051  0.33788494  0.12484764  1
  La3+  La5  1  0.13875198  0.33822850  0.37177550  1
  La3+  La6  1  0.14375149  0.33473765  0.62981359  1
  La3+  La7  1  0.14221676  0.33581876  0.87312794  1
  La3+  La8  1  0.14006082  0.66430784  0.12281321  1
  La3+  La9  1  0.14866962  0.66594586  0.37163649  1
  La3+  La10  1  0.13840761  0.67229588  0.62488450  1
  La3+  La11  1  0.14082710  0.66828672  0.87466191  1
  La3+  La12  1  0.63727942  0.00061230  0.12799919  1
  La3+  La13  1  0.64489795  0.00143199  0.37921597  1
  La3+  La14  1  0.64538147  0.00041752  0.62191029  1
  La3+  La15  1  0.63872893  0.00120874  0.87212763  1
  La3+  La16  1  0.63973904  0.33381542  0.12901317  1
  La3+  La17  1  0.64195525  0.32906213  0.37063193  1
  La3+  La18  1  0.63678895  0.33148450  0.62151448  1
  La3+  La19  1  0.63535447  0.33198469  0.87560641  1
  La3+  La20  1  0.63816487  0.66681566  0.12353019  1
  La3+  La21  1  0.63479141  0.66742405  0.37698617  1
  La3+  La22  1  0.63831986  0.66981174  0.62528595  1
  La3+  La23  1  0.63797043  0.67070843  0.87488656  1
  La3+  La24  1  0.36047693  0.00048647  0.12635545  1
  La3+  La25  1  0.36709223  -0.00116224  0.37468449  1
  La3+  La26  1  0.36564274  -0.00544894  0.62350911  1
  La3+  La27  1  0.36227070  -0.00087036  0.87506228  1
  La3+  La28  1  0.35878203  0.33830883  0.12449758  1
  La3+  La29  1  0.36380428  0.33761562  0.37003000  1
  La3+  La30  1  0.35924909  0.33379478  0.63107771  1
  La3+  La31  1  0.36028360  0.33520849  0.87081196  1
  La3+  La32  1  0.35745648  0.66086742  0.12500671  1
  La3+  La33  1  0.35311094  0.66369874  0.37209505  1
  La3+  La34  1  0.35641046  0.66765142  0.62752653  1
  La3+  La35  1  0.35840150  0.66588021  0.87382862  1
  La3+  La36  1  0.86088774  0.00026426  0.12736925  1
  La3+  La37  1  0.85381246  -0.00071795  0.37760901  1
  La3+  La38  1  0.85203260  0.00155132  0.62112558  1
  La3+  La39  1  0.86159951  0.00042946  0.87124401  1
  La3+  La40  1  0.85887627  0.33436375  0.13112383  1
  La3+  La41  1  0.85887199  0.33072412  0.37184773  1
  La3+  La42  1  0.86155927  0.32809253  0.62602706  1
  La3+  La43  1  0.85944291  0.33516432  0.87557828  1
  La3+  La44  1  0.86023460  0.66371948  0.12160556  1
  La3+  La45  1  0.86313729  0.66910712  0.37277963  1
  La3+  La46  1  0.86218645  0.66757050  0.63132276  1
  La3+  La47  1  0.86668873  0.66872834  0.87412200  1
  La3+  La48  1  0.00906361  0.83200010  0.14040977  1
  La3+  La49  1  0.00322825  0.15743677  0.37030507  1
  La3+  La50  1  0.49931499  0.17588515  0.87341962  1
  La3+  La51  1  -0.00311837  0.50415926  0.86869299  1
  La3+  La52  1  0.00956927  0.15768040  0.63250832  1
  La3+  La53  1  -0.00094035  0.16463619  0.39049554  1
  La3+  La54  1  0.00240901  0.16892647  0.11731097  1
  La3+  La55  1  -0.00081258  0.49919914  0.63420134  1
  La3+  La56  1  -0.00551623  0.84147418  0.62386551  1
  La3+  La57  1  0.50361491  0.15922634  0.12906478  1
  La3+  La58  1  0.49946404  0.49638492  0.13130999  1
  La3+  La59  1  0.50010894  0.83087848  0.12966195  1
  La3+  La60  1  0.49253788  0.49744583  0.61511867  1
  La3+  La61  1  0.49620384  0.17219911  0.64359823  1
  La3+  La62  1  -0.00185827  0.49896624  0.35977414  1
  La3+  La63  1  0.49918571  0.83328290  0.38790883  1
  La3+  La64  1  -0.00079157  0.50373804  0.61466417  1
  La3+  La65  1  0.49835478  0.84175505  0.36721156  1
  La3+  La66  1  0.49642982  0.15972287  0.62567592  1
  La3+  La67  1  0.49081259  0.49937873  0.63146213  1
  La3+  La68  1  -0.00266829  0.50375002  0.12894121  1
  La3+  La69  1  0.49948807  0.83038842  0.88381840  1
  La3+  La70  1  -0.00109749  0.16631572  0.86430302  1
  La3+  La71  1  0.00318386  0.83510291  0.12598802  1
  La3+  La72  1  0.75037451  0.50632971  0.48756507  1
  La3+  La73  1  0.75035858  0.52113765  -0.01527230  1
  La3+  La74  1  0.24904366  0.56754392  0.51227261  1
  La3+  La75  1  0.24954873  0.22116737  0.79614614  1
  La3+  La76  1  0.75021289  0.16916459  0.26401175  1
  La3+  La77  1  0.75012375  0.79690133  0.21185350  1
  La3+  La78  1  0.24915672  0.12899091  0.21840916  1
  La3+  La79  1  0.24952326  0.78978579  0.23175614  1
  La3+  La80  1  0.25014449  0.50191020  -0.01736005  1
  La3+  La81  1  0.75070000  0.56409046  0.74265867  1
  La3+  La82  1  0.25056007  0.16737794  0.47451506  1
  La3+  La83  1  0.74975021  0.19551384  -0.00369060  1
  Ru4+  Ru84  1  -0.00174872  0.00383455  -0.00038242  1
  Ru4+  Ru85  1  -0.00086091  -0.00096493  0.25326783  1
  Ru4+  Ru86  1  0.00329477  -0.00165315  0.49935427  1
  Ru4+  Ru87  1  0.00284421  -0.00182461  0.75498813  1
  Ru4+  Ru88  1  -0.00101686  0.33334242  -0.00048373  1
  Ru4+  Ru89  1  0.00141121  0.32846335  0.25098676  1
  Ru4+  Ru90  1  -0.00090160  0.33304204  0.49022054  1
  Ru4+  Ru91  1  -0.00214564  0.32623652  0.75345199  1
  Ru4+  Ru92  1  -0.00077813  0.66827387  -0.00315085  1
  Ru4+  Ru93  1  -0.00307640  0.67667353  0.25190604  1
  Ru4+  Ru94  1  0.00642288  0.67625246  0.49355325  1
  Ru4+  Ru95  1  0.00246989  0.67673835  0.76398957  1
  Ru4+  Ru96  1  0.49960293  0.00015421  0.00048310  1
  Ru4+  Ru97  1  0.49963570  0.00781336  0.24930091  1
  Ru4+  Ru98  1  0.50578296  0.00732064  0.50044084  1
  Ru4+  Ru99  1  0.49859790  -0.00634098  0.74354009  1
  Ru4+  Ru100  1  0.49866887  0.33544764  -0.00279511  1
  Ru4+  Ru101  1  0.50027654  0.33021799  0.25626662  1
  Ru4+  Ru102  1  0.50183195  0.33792814  0.49132455  1
  Ru4+  Ru103  1  0.50701943  0.34208375  0.75705472  1
  Ru4+  Ru104  1  0.50143569  0.66291835  -0.00512109  1
  Ru4+  Ru105  1  0.50045249  0.66032068  0.24569391  1
  Ru4+  Ru106  1  0.49656266  0.66022850  0.50697065  1
  Ru4+  Ru107  1  0.50359804  0.66813465  0.75189856  1
  Ru4+  Ru108  1  0.11074419  0.16616612  -0.00020286  1
  Ru4+  Ru109  1  0.11038181  0.16749562  0.24776826  1
  Ru4+  Ru110  1  0.11121231  0.16633160  0.50054023  1
  Ru4+  Ru111  1  0.10955163  0.16638806  0.74887392  1
  Ru4+  Ru112  1  0.11158670  0.50027352  0.00121100  1
  Ru4+  Ru113  1  0.11565218  0.49997883  0.24972504  1
  Ru4+  Ru114  1  0.11029752  0.49879273  0.50023966  1
  Ru4+  Ru115  1  0.11523382  0.49663212  0.75180755  1
  Ru4+  Ru116  1  0.11916551  0.83522944  0.00087556  1
  Ru4+  Ru117  1  0.11066262  0.83241721  0.25276405  1
  Ru4+  Ru118  1  0.11088281  0.82612409  0.49506542  1
  Ru4+  Ru119  1  0.11264499  0.83184473  0.75032451  1
  Ru4+  Ru120  1  0.61031799  0.16760797  -0.00128907  1
  Ru4+  Ru121  1  0.60850005  0.16543230  0.25087828  1
  Ru4+  Ru122  1  0.61761230  0.16943492  0.49738535  1
  Ru4+  Ru123  1  0.61661970  0.16579728  0.75137284  1
  Ru4+  Ru124  1  0.60851546  0.50151587  -0.00034693  1
  Ru4+  Ru125  1  0.61370708  0.49755322  0.24901784  1
  Ru4+  Ru126  1  0.60927054  0.49659373  0.49118397  1
  Ru4+  Ru127  1  0.61041922  0.50248368  0.75353805  1
  Ru4+  Ru128  1  0.61154190  0.83123463  -0.00127240  1
  Ru4+  Ru129  1  0.61375586  0.83280922  0.24741874  1
  Ru4+  Ru130  1  0.61785503  0.84072394  0.50190063  1
  Ru4+  Ru131  1  0.61484603  0.83153376  0.74964727  1
  Ru4+  Ru132  1  0.38753518  0.16846579  -0.00082572  1
  Ru4+  Ru133  1  0.39079442  0.16438656  0.25047032  1
  Ru4+  Ru134  1  0.38924314  0.16922684  0.49846053  1
  Ru4+  Ru135  1  0.38407173  0.16263925  0.75343168  1
  Ru4+  Ru136  1  0.38965370  0.49767847  -0.00063186  1
  Ru4+  Ru137  1  0.38625090  0.50042016  0.25097723  1
  Ru4+  Ru138  1  0.39163698  0.50470918  0.49775681  1
  Ru4+  Ru139  1  0.38495510  0.50022578  0.74913962  1
  Ru4+  Ru140  1  0.38797001  0.83329171  0.00057146  1
  Ru4+  Ru141  1  0.38682381  0.83545063  0.24631308  1
  Ru4+  Ru142  1  0.38412905  0.82367250  0.50337743  1
  Ru4+  Ru143  1  0.38762984  0.83074778  0.75062909  1
  Ru4+  Ru144  1  0.89036330  0.17081579  -0.00096358  1
  Ru4+  Ru145  1  0.89132614  0.16697254  0.24842570  1
  Ru4+  Ru146  1  0.88291351  0.16344526  0.49994262  1
  Ru4+  Ru147  1  0.88897539  0.16827296  0.75157739  1
  Ru4+  Ru148  1  0.88653840  0.49369806  0.00068742  1
  Ru4+  Ru149  1  0.88518768  0.49596355  0.24924827  1
  Ru4+  Ru150  1  0.89067321  0.49792461  0.49566416  1
  Ru4+  Ru151  1  0.88561543  0.49480767  0.75276114  1
  Ru4+  Ru152  1  0.88596626  0.83185991  -0.00032074  1
  Ru4+  Ru153  1  0.89239765  0.83026268  0.25026568  1
  Ru4+  Ru154  1  0.88913584  0.83631649  0.49824294  1
  Ru4+  Ru155  1  0.88805044  0.83118142  0.75156705  1
  Ru4+  Ru156  1  0.74945535  0.57622090  0.23936669  1
  Ru4+  Ru157  1  0.75018845  0.05553009  -0.00794312  1
  Ru4+  Ru158  1  0.25132871  0.04035917  0.48940781  1
  Ru4+  Ru159  1  0.75084538  0.63734836  0.50340397  1
  Ru4+  Ru160  1  0.75006322  0.37223166  0.48626646  1
  Ru4+  Ru161  1  0.25062186  0.93637749  0.26309087  1
  Ru4+  Ru162  1  0.24940419  0.89791265  0.48537589  1
  Ru4+  Ru163  1  0.74998855  0.94359356  0.27202953  1
  Ru4+  Ru164  1  0.74966045  0.91146018  -0.00304359  1
  Ru4+  Ru165  1  0.25077310  0.74481118  -0.00296640  1
  Ru4+  Ru166  1  0.25064945  0.42605017  0.49984368  1
  Ru4+  Ru167  1  0.25008754  0.91942973  -0.00114343  1
  Ru4+  Ru168  1  0.74895971  0.41456381  0.74677192  1
  Ru4+  Ru169  1  0.74976005  0.39086386  0.01366633  1
  Ru4+  Ru170  1  0.74999575  0.22533586  0.74176313  1
  Ru4+  Ru171  1  0.75022239  0.76250715  0.50761229  1
  Ru4+  Ru172  1  0.24900795  0.07863491  0.00494901  1
  Ru4+  Ru173  1  0.74959620  0.65430079  0.01166662  1
  Ru4+  Ru174  1  0.74984179  0.92152639  0.73594549  1
  Ru4+  Ru175  1  0.25035010  0.27337761  0.24943012  1
  Ru4+  Ru176  1  0.25044652  0.29725880  0.47520737  1
  Ru4+  Ru177  1  0.24955347  0.90509204  0.75916773  1
  Ru4+  Ru178  1  0.24989773  0.25118248  0.00203693  1
  Ru4+  Ru179  1  0.24936370  0.06623769  0.76881799  1
  O2-  O180  1  0.16734435  0.07847693  0.00184164  1
  O2-  O181  1  0.16353544  0.07869254  0.25212335  1
  O2-  O182  1  0.16728081  0.07639341  0.50202098  1
  O2-  O183  1  0.16753864  0.07691250  0.75124672  1
  O2-  O184  1  0.16573807  0.41322724  -0.00184399  1
  O2-  O185  1  0.16453033  0.41543017  0.24833917  1
  O2-  O186  1  0.16870555  0.41545713  0.49779506  1
  O2-  O187  1  0.16693431  0.41756358  0.75306253  1
  O2-  O188  1  0.16742885  0.74790636  0.00008220  1
  O2-  O189  1  0.16060253  0.74581557  0.24574964  1
  O2-  O190  1  0.16832207  0.74859100  0.50287616  1
  O2-  O191  1  0.16450071  0.74899692  0.74882543  1
  O2-  O192  1  0.66569462  0.07871349  -0.00175366  1
  O2-  O193  1  0.66950058  0.08248932  0.24816287  1
  O2-  O194  1  0.66290678  0.08155586  0.49975511  1
  O2-  O195  1  0.66511618  0.07892814  0.75216062  1
  O2-  O196  1  0.66645840  0.41191027  0.00027702  1
  O2-  O197  1  0.66453294  0.41755882  0.24980088  1
  O2-  O198  1  0.66878400  0.41019609  0.50274690  1
  O2-  O199  1  0.66415043  0.41445357  0.74970832  1
  O2-  O200  1  0.66663825  0.74663300  0.00226909  1
  O2-  O201  1  0.66453123  0.74413672  0.25148714  1
  O2-  O202  1  0.66582401  0.74709642  0.50032859  1
  O2-  O203  1  0.66941567  0.75089908  0.75316801  1
  O2-  O204  1  0.32946466  0.25214131  0.00267611  1
  O2-  O205  1  0.33516564  0.25284328  0.24985868  1
  O2-  O206  1  0.33394552  0.25497190  0.49819722  1
  O2-  O207  1  0.33704014  0.25203669  0.74618754  1
  O2-  O208  1  0.33498899  0.58306397  -0.00255257  1
  O2-  O209  1  0.33367124  0.58244744  0.24455110  1
  O2-  O210  1  0.33717880  0.58997388  0.50184847  1
  O2-  O211  1  0.33444635  0.58599621  0.75197521  1
  O2-  O212  1  0.33377455  0.92087673  -0.00039073  1
  O2-  O213  1  0.33325079  0.92180752  0.24949255  1
  O2-  O214  1  0.33498581  0.91674793  0.49793897  1
  O2-  O215  1  0.33363782  0.91938077  0.75306217  1
  O2-  O216  1  0.83543519  0.25187583  0.00271488  1
  O2-  O217  1  0.83431594  0.25194211  0.24954257  1
  O2-  O218  1  0.83724726  0.25213448  0.49994482  1
  O2-  O219  1  0.83176325  0.24990085  0.74962838  1
  O2-  O220  1  0.83451287  0.59041038  -0.00259041  1
  O2-  O221  1  0.83205892  0.58557159  0.25355297  1
  O2-  O222  1  0.83662636  0.58889792  0.49948996  1
  O2-  O223  1  0.84118181  0.59032587  0.75202786  1
  O2-  O224  1  0.83373409  0.91992814  -0.00188084  1
  O2-  O225  1  0.83349463  0.91840828  0.24711660  1
  O2-  O226  1  0.83669680  0.91587339  0.50119790  1
  O2-  O227  1  0.83282001  0.91855483  0.75167008  1
  O2-  O228  1  0.16787775  0.25294123  0.00176078  1
  O2-  O229  1  0.16728761  0.25329164  0.24954581  1
  O2-  O230  1  0.16732191  0.25369761  0.50071103  1
  O2-  O231  1  0.16048544  0.25172661  0.74989836  1
  O2-  O232  1  0.16340231  0.58531079  -0.00185870  1
  O2-  O233  1  0.16288830  0.58413695  0.24632506  1
  O2-  O234  1  0.15811497  0.58986822  0.50163195  1
  O2-  O235  1  0.16393079  0.58567461  0.75006155  1
  O2-  O236  1  0.16737399  0.92135912  -0.00033125  1
  O2-  O237  1  0.16959201  0.92104180  0.24932615  1
  O2-  O238  1  0.16288493  0.91764692  0.49952335  1
  O2-  O239  1  0.16583369  0.91978132  0.75046141  1
  O2-  O240  1  0.66367323  0.25376903  0.00089279  1
  O2-  O241  1  0.66651373  0.24972871  0.24851251  1
  O2-  O242  1  0.66751681  0.24985230  0.50364428  1
  O2-  O243  1  0.66853032  0.25199931  0.74904093  1
  O2-  O244  1  0.66705431  0.59020045  0.00077669  1
  O2-  O245  1  0.66853694  0.58599606  0.25096577  1
  O2-  O246  1  0.66670309  0.58738526  0.49885825  1
  O2-  O247  1  0.66323304  0.58901640  0.74814394  1
  O2-  O248  1  0.66643315  0.92047578  -0.00190311  1
  O2-  O249  1  0.66789429  0.92058044  0.24848565  1
  O2-  O250  1  0.66823008  0.91871228  0.50050476  1
  O2-  O251  1  0.66629503  0.91758817  0.75296483  1
  O2-  O252  1  0.33340381  0.08086297  0.00089718  1
  O2-  O253  1  0.33410491  0.07754590  0.25133260  1
  O2-  O254  1  0.33639471  0.07605817  0.49864452  1
  O2-  O255  1  0.33359588  0.07757171  0.75164350  1
  O2-  O256  1  0.33173685  0.41461712  -0.00196703  1
  O2-  O257  1  0.33470442  0.41601167  0.24973940  1
  O2-  O258  1  0.33672524  0.41401891  0.49846554  1
  O2-  O259  1  0.33741659  0.41697218  0.74931513  1
  O2-  O260  1  0.33448625  0.74887171  -0.00008906  1
  O2-  O261  1  0.33713209  0.74592970  0.24597279  1
  O2-  O262  1  0.32897832  0.74952400  0.50320596  1
  O2-  O263  1  0.33472570  0.74988142  0.75167672  1
  O2-  O264  1  0.83522509  0.07864474  -0.00028288  1
  O2-  O265  1  0.83198752  0.07919336  0.24610828  1
  O2-  O266  1  0.83224225  0.08467326  0.50318988  1
  O2-  O267  1  0.83665834  0.08031362  0.75259862  1
  O2-  O268  1  0.83416311  0.41181084  0.00174420  1
  O2-  O269  1  0.83271164  0.41697834  0.25258432  1
  O2-  O270  1  0.83102216  0.40911988  0.49902929  1
  O2-  O271  1  0.83193930  0.41333415  0.74844111  1
  O2-  O272  1  0.83380628  0.74648238  -0.00126319  1
  O2-  O273  1  0.83440964  0.74508496  0.25524698  1
  O2-  O274  1  0.83420757  0.74680055  0.49960895  1
  O2-  O275  1  0.83476917  0.74874893  0.75210221  1
  O2-  O276  1  0.45019130  0.23759096  0.76142584  1
  O2-  O277  1  0.04570555  0.90008715  0.75944763  1
  O2-  O278  1  0.45061464  0.76437267  0.25545027  1
  O2-  O279  1  0.46497746  0.78382766  0.54023105  1
  O2-  O280  1  0.04691360  0.90622443  0.02331841  1
  O2-  O281  1  0.05638277  0.75736486  0.55319689  1
  O2-  O282  1  0.04909036  0.90397798  0.22144095  1
  O2-  O283  1  0.03781413  0.23040803  0.53054696  1
  O2-  O284  1  0.04462745  0.89507017  0.98626946  1
  O2-  O285  1  0.45450274  0.90602230  0.01279838  1
  O2-  O286  1  0.94888838  0.56698466  0.01321026  1
  O2-  O287  1  0.45054569  0.09294243  0.76912670  1
  O2-  O288  1  0.45528454  0.21422076  0.03547091  1
  O2-  O289  1  0.55483320  0.76934430  0.51836508  1
  O2-  O290  1  0.55279870  0.75100917  0.48500459  1
  O2-  O291  1  0.95253202  0.11463822  0.54275037  1
  O2-  O292  1  0.45481288  0.76050754  0.01373842  1
  O2-  O293  1  0.53640089  0.55245962  0.72515767  1
  O2-  O294  1  0.94825751  0.75799203  0.51552459  1
  O2-  O295  1  0.95443510  0.09667885  0.00888122  1
  O2-  O296  1  0.04203689  0.76194250  0.01691148  1
  O2-  O297  1  0.45575064  0.89892821  0.74407409  1
  O2-  O298  1  0.95652719  0.90630107  0.49039264  1
  O2-  O299  1  0.54532931  0.09274810  0.98165076  1
  O2-  O300  1  0.95322662  0.57001760  0.73681547  1
  O2-  O301  1  0.03583472  0.45480065  0.46893895  1
  O2-  O302  1  0.53231981  0.78720074  0.74286302  1
  O2-  O303  1  0.55099990  0.24090331  0.01235132  1
  O2-  O304  1  0.95399349  0.08955055  0.74159180  1
  O2-  O305  1  0.55001015  0.75989729  0.25888826  1
  O2-  O306  1  0.44688254  0.91039613  0.48108288  1
  O2-  O307  1  0.04638941  0.09702350  0.49237307  1
  O2-  O308  1  0.54550622  0.23074303  0.25570053  1
  O2-  O309  1  0.45158798  0.90326258  0.51865132  1
  O2-  O310  1  0.95239310  0.57207648  0.25829867  1
  O2-  O311  1  0.54688588  0.90755672  0.23900551  1
  O2-  O312  1  0.54763400  0.23396975  0.23986945  1
  O2-  O313  1  0.05189639  0.08880590  0.51777776  1
  O2-  O314  1  0.54105970  0.21680632  0.52813355  1
  O2-  O315  1  0.04706219  0.43364247  0.23504203  1
  O2-  O316  1  0.55292645  0.42665246  0.54355540  1
  O2-  O317  1  0.54883295  0.09524672  0.74448076  1
  O2-  O318  1  0.94925125  0.23892848  0.70591396  1
  O2-  O319  1  0.45087272  0.09633514  0.50532803  1
  O2-  O320  1  0.96681972  0.78199654  0.29537423  1
  O2-  O321  1  0.04302710  0.89542396  0.24638618  1
  O2-  O322  1  0.04409685  0.43072162  0.01389992  1
  O2-  O323  1  0.95511192  0.76908064  0.75867519  1
  O2-  O324  1  0.92116618  0.06173567  0.44454930  1
  O2-  O325  1  0.94027700  0.26296360  0.97813121  1
  O2-  O326  1  0.93824799  0.40110217  0.21656091  1
  O2-  O327  1  0.43743816  0.40318854  0.27955319  1
  O2-  O328  1  0.93945242  0.59670302  0.03032744  1
  O2-  O329  1  0.93451267  0.40553689  0.42446001  1
  O2-  O330  1  0.43644227  0.59088729  0.26814882  1
  O2-  O331  1  0.43381647  0.41583715  0.06191481  1
  O2-  O332  1  0.57704187  0.27101698  0.44914774  1
  O2-  O333  1  0.43372998  0.58068999  0.43791711  1
  O2-  O334  1  0.06618094  0.72117919  0.41048117  1
  O2-  O335  1  0.43411974  0.58997954  0.57239895  1
  O2-  O336  1  0.06439482  0.75119500  0.03075414  1
  O2-  O337  1  0.43820986  0.59340689  0.03671900  1
  O2-  O338  1  0.06596151  0.07431111  0.77275950  1
  O2-  O339  1  0.57903756  0.60267175  0.80722494  1
  O2-  O340  1  0.94291330  0.23950490  0.70354521  1
  O2-  O341  1  0.56379865  0.59036859  0.47491624  1
  O2-  O342  1  0.07959287  0.40009096  0.55361346  1
  O2-  O343  1  0.94207396  0.58848663  0.70774001  1
  O2-  O344  1  0.57966233  0.41294318  0.41305995  1
  O2-  O345  1  0.05290304  0.74959996  0.55453745  1
  O2-  O346  1  0.06740847  0.24989225  0.31024067  1
  O2-  O347  1  0.56522994  0.93308277  0.46411980  1
  O2-  O348  1  0.07060021  0.92768184  0.27125611  1
  O2-  O349  1  0.56683669  0.25845858  0.77656270  1
  O2-  O350  1  0.43605625  0.07420589  0.27068587  1
  O2-  O351  1  0.93791170  0.41082153  0.78540538  1
  O2-  O352  1  0.56545660  0.07143019  0.22433412  1
  O2-  O353  1  0.43784529  0.26302561  0.78133904  1
  O2-  O354  1  0.05988239  0.40377761  0.82669131  1
  O2-  O355  1  0.57582130  0.72809535  0.71752996  1
  O2-  O356  1  0.42761166  0.27337720  0.93852485  1
  O2-  O357  1  0.41934362  0.74755190  0.42275833  1
  O2-  O358  1  0.06701528  0.41803048  0.69079044  1
  O2-  O359  1  0.07455227  0.06493472  0.47049003  1
  O2-  O360  1  0.06158297  0.07364197  0.21156052  1
  O2-  O361  1  0.43628195  0.26729827  0.53068608  1
  O2-  O362  1  0.42997469  0.72316571  0.57121110  1
  O2-  O363  1  0.56456537  0.59004059  0.97701863  1
  O2-  O364  1  0.06216911  0.26411881  0.17385935  1
  O2-  O365  1  0.43753483  0.41605650  0.93307074  1
  O2-  O366  1  0.92700563  0.42144314  0.56362301  1
  O2-  O367  1  0.93048456  0.72295710  0.18518465  1
  O2-  O368  1  0.56392526  0.41118542  0.02811842  1
  O2-  O369  1  0.55783557  0.42420980  0.54959962  1
  O2-  O370  1  0.93253720  0.26726114  0.83774472  1
  O2-  O371  1  0.07736067  0.27363739  0.44864361  1
  O2-  O372  1  0.24958355  0.66861760  0.34879814  1
  O2-  O373  1  0.25033210  0.66718077  0.90740584  1
  O2-  O374  1  0.24966460  0.33557308  0.86087359  1
  O2-  O375  1  0.74993902  0.66479280  0.15323097  1
  O2-  O376  1  0.25015456  -0.00586885  0.68753358  1
  O2-  O377  1  0.25039698  0.33518491  0.35248574  1
  O2-  O378  1  0.75020633  0.31234673  0.57829118  1
  O2-  O379  1  0.24998307  0.33097612  0.14352342  1
  O2-  O380  1  0.25024702  0.00131149  0.14695670  1
  O2-  O381  1  0.25022783  0.67359830  0.09473953  1
  O2-  O382  1  0.74985483  0.31254772  0.93067022  1
  O2-  O383  1  0.75111725  -0.00674384  0.61516817  1
  O2-  O384  1  0.75017683  0.33138695  0.18077221  1
  O2-  O385  1  0.74969924  0.32350942  0.67991687  1
  O2-  O386  1  0.74923832  -0.00316496  0.38512803  1
  O2-  O387  1  0.75019272  -0.00372243  0.10363577  1
  O2-  O388  1  0.75063383  0.66684602  0.63997685  1
  O2-  O389  1  0.24999427  0.32966080  0.68532783  1
  O2-  O390  1  0.75039684  0.32370957  0.38151439  1
  O2-  O391  1  0.25073748  0.33923135  0.59290976  1
  O2-  O392  1  0.74965300  0.30466909  0.09520472  1
  O2-  O393  1  0.24879685  -0.02943087  0.57956006  1
  O2-  O394  1  0.24942724  -0.01298527  0.38206346  1
  O2-  O395  1  0.74967217  0.32236795  0.81316043  1
  O2-  O396  1  0.25019161  0.84832285  0.36689734  1
  O2-  O397  1  0.74984385  0.16705926  0.84340538  1
  O2-  O398  1  0.24999557  0.17544807  0.34311451  1
  O2-  O399  1  0.25025396  0.48924247  0.62304214  1
  O2-  O400  1  0.25004799  0.83136547  0.67179509  1
  O2-  O401  1  0.74985988  0.17027072  0.60871048  1
  O2-  O402  1  0.25016522  0.15989583  0.92219890  1
  O2-  O403  1  0.24996603  0.82858288  0.57989525  1
  O2-  O404  1  0.74989027  0.82925674  0.67298638  1
  O2-  O405  1  0.24987631  0.49940650  0.30774930  1
  O2-  O406  1  0.25033277  0.83588376  0.08696383  1
  O2-  O407  1  0.25011249  0.83747054  0.90869517  1
  O2-  O408  1  0.75013470  0.83829327  0.08147621  1
  O2-  O409  1  0.75000924  0.84335690  0.58704012  1
  O2-  O410  1  0.74965745  0.16559593  0.39707144  1
  O2-  O411  1  0.24957786  0.16806847  0.60276710  1
  O2-  O412  1  0.74993855  0.48273996  0.62934878  1
  O2-  O413  1  0.74961261  0.47885897  0.85324588  1
  O2-  O414  1  0.74987800  0.50094719  0.12771189  1
  O2-  O415  1  0.25059064  0.14888381  0.68500745  1
  O2-  O416  1  0.74993177  0.83959852  0.34630200  1
  O2-  O417  1  0.24967832  0.49946090  0.10774916  1
  O2-  O418  1  0.75009974  0.84640702  0.43210090  1
  O2-  O419  1  0.25016283  0.48777019  0.39272513  1
  O2-  O420  1  0.03018275  0.31383409  0.63339569  1
  O2-  O421  1  0.53428948  0.68903677  0.88423761  1
  O2-  O422  1  0.47625206  -0.00469939  0.37555791  1
  O2-  O423  1  0.04670549  0.66543056  0.87006795  1
  O2-  O424  1  0.95617703  0.66173632  0.88528041  1
  O2-  O425  1  0.52235218  0.32521336  0.63623079  1
  O2-  O426  1  0.95588587  -0.00794090  0.34744469  1
  O2-  O427  1  0.97408142  0.33934385  0.61952541  1
  O2-  O428  1  0.02801368  0.65955019  0.13112854  1
  O2-  O429  1  0.52397531  -0.00422816  0.11969565  1
  O2-  O430  1  0.52622428  0.33854999  0.87965742  1
  O2-  O431  1  0.47064580  0.32449708  0.13509117  1
  O2-  O432  1  0.45555265  0.66446594  0.86866734  1
  O2-  O433  1  0.02264564  0.00261064  0.88248235  1
  O2-  O434  1  0.01646922  0.34552771  0.36958609  1
  O2-  O435  1  0.03708987  -0.00028226  0.37630392  1
  O2-  O436  1  0.54481277  -0.00019472  0.61922753  1
  O2-  O437  1  0.52917453  0.33680002  0.13143811  1
  O2-  O438  1  0.45532389  0.00676531  0.63091249  1
  O2-  O439  1  0.51347689  0.33465321  0.36853394  1
  O2-  O440  1  0.53629588  0.66741450  0.36484238  1
  O2-  O441  1  0.47811161  0.66974987  0.36945113  1
  O2-  O442  1  0.52823066  0.66576328  0.12320404  1
  O2-  O443  1  0.52412709  0.65762121  0.62064663  1
