# generated using pymatgen
data_La7(Ru4O11)2
_symmetry_space_group_name_H-M   'P 1'
_cell_length_a   23.99103675
_cell_length_b   16.83070328
_cell_length_c   15.42711074
_cell_angle_alpha   90.00112251
_cell_angle_beta   89.99906051
_cell_angle_gamma   89.99969194
_symmetry_Int_Tables_number   1
_chemical_formula_structural   La7(Ru4O11)2
_chemical_formula_sum   'La84 Ru96 O264'
_cell_volume   6229.25165674
_cell_formula_units_Z   12
loop_
 _symmetry_equiv_pos_site_id
 _symmetry_equiv_pos_as_xyz
  1  'x, y, z'
loop_
 _atom_type_symbol
 _atom_type_oxidation_number
  La3+  3.0
  Ru4+  4.0
  O2-  -2.0
loop_
 _atom_site_type_symbol
 _atom_site_label
 _atom_site_symmetry_multiplicity
 _atom_site_fract_x
 _atom_site_fract_y
 _atom_site_fract_z
 _atom_site_occupancy
  La3+  La0  1  0.14041894  -0.00071329  0.11993927  1
  La3+  La1  1  0.13907478  0.00128048  0.37497736  1
  La3+  La2  1  0.13662497  -0.00029734  0.62876976  1
  La3+  La3  1  0.14034169  -0.00192975  0.88135436  1
  La3+  La4  1  0.14062661  0.33374003  0.12378404  1
  La3+  La5  1  0.14232819  0.33621114  0.37994284  1
  La3+  La6  1  0.14120476  0.33027677  0.62023685  1
  La3+  La7  1  0.13851525  0.33024220  0.87572867  1
  La3+  La8  1  0.13679957  0.66708502  0.11937352  1
  La3+  La9  1  0.13774303  0.66372123  0.37664037  1
  La3+  La10  1  0.13681766  0.66576248  0.62445027  1
  La3+  La11  1  0.13886486  0.66821073  0.88132417  1
  La3+  La12  1  0.63924928  0.00335171  0.12310257  1
  La3+  La13  1  0.63839471  0.00025777  0.37345383  1
  La3+  La14  1  0.63706537  0.00062555  0.62612222  1
  La3+  La15  1  0.64033827  0.00292917  0.87690363  1
  La3+  La16  1  0.64235847  0.33371173  0.12307213  1
  La3+  La17  1  0.64166997  0.33439041  0.37355377  1
  La3+  La18  1  0.63806119  0.33455657  0.62443383  1
  La3+  La19  1  0.63849068  0.33073778  0.88092982  1
  La3+  La20  1  0.64291079  0.66491234  0.12214075  1
  La3+  La21  1  0.64233599  0.66757137  0.37384744  1
  La3+  La22  1  0.64237865  0.66536750  0.62399017  1
  La3+  La23  1  0.64047625  0.66483817  0.87793091  1
  La3+  La24  1  0.36076094  -0.00019202  0.11752089  1
  La3+  La25  1  0.36082572  -0.00083809  0.37266369  1
  La3+  La26  1  0.36093886  0.00088799  0.62460487  1
  La3+  La27  1  0.36030873  -0.00139641  0.88011975  1
  La3+  La28  1  0.36168362  0.33116547  0.12740057  1
  La3+  La29  1  0.35863437  0.33470302  0.37727334  1
  La3+  La30  1  0.35984142  0.33100010  0.62345238  1
  La3+  La31  1  0.36476424  0.32797035  0.87311754  1
  La3+  La32  1  0.35912136  0.66731668  0.12148925  1
  La3+  La33  1  0.36182498  0.66249779  0.37848757  1
  La3+  La34  1  0.36320334  0.66648747  0.62320030  1
  La3+  La35  1  0.35772146  0.66855503  0.88000441  1
  La3+  La36  1  0.85988130  0.00355598  0.12374158  1
  La3+  La37  1  0.86259454  0.00070579  0.37393472  1
  La3+  La38  1  0.86513704  -0.00102207  0.62852817  1
  La3+  La39  1  0.85996530  0.00127973  0.87463458  1
  La3+  La40  1  0.85884676  0.33276508  0.12093809  1
  La3+  La41  1  0.86058209  0.33617808  0.37443503  1
  La3+  La42  1  0.86273984  0.33481604  0.62398304  1
  La3+  La43  1  0.86124595  0.33298228  0.88070231  1
  La3+  La44  1  0.85695035  0.66597744  0.12066772  1
  La3+  La45  1  0.86165878  0.66443576  0.37648768  1
  La3+  La46  1  0.85794917  0.66506814  0.62140603  1
  La3+  La47  1  0.86014180  0.66356946  0.87765632  1
  La3+  La48  1  -0.00144543  0.17193815  0.86174919  1
  La3+  La49  1  0.50177599  0.83586403  0.11960617  1
  La3+  La50  1  0.49916106  0.49902461  0.13817277  1
  La3+  La51  1  0.50273742  0.49872304  0.87871633  1
  La3+  La52  1  0.50089959  0.83510944  0.60844130  1
  La3+  La53  1  -0.00083968  0.50262874  0.38320374  1
  La3+  La54  1  0.49758543  0.16264757  0.11973415  1
  La3+  La55  1  0.49553329  0.50719892  0.62432364  1
  La3+  La56  1  0.49808266  0.16536827  0.86634643  1
  La3+  La57  1  -0.00364987  0.84151882  0.12280715  1
  La3+  La58  1  0.00017886  0.83976004  0.61606907  1
  La3+  La59  1  0.50009997  0.49737477  0.11664951  1
  La3+  La60  1  0.50096475  0.83482391  0.89087865  1
  La3+  La61  1  0.00465027  0.82455627  0.37130134  1
  La3+  La62  1  0.49929147  0.16937925  0.63662414  1
  La3+  La63  1  0.49449398  0.83274284  0.62854890  1
  La3+  La64  1  -0.00207192  0.82827898  0.63390622  1
  La3+  La65  1  0.00268125  0.83128699  0.86825939  1
  La3+  La66  1  -0.00065554  0.16661386  0.38584910  1
  La3+  La67  1  0.00180848  0.83295911  0.39114104  1
  La3+  La68  1  -0.00519708  0.83917093  0.88506975  1
  La3+  La69  1  0.49500104  0.83729540  0.87025501  1
  La3+  La70  1  0.00025526  0.50183011  0.62263286  1
  La3+  La71  1  0.50161197  0.16708720  0.37001676  1
  La3+  La72  1  0.74969889  0.49738350  0.28518567  1
  La3+  La73  1  0.75047451  0.78780748  -0.02091783  1
  La3+  La74  1  0.74965023  0.53037256  0.74315190  1
  La3+  La75  1  0.25025490  0.16239376  -0.01913145  1
  La3+  La76  1  0.75016555  0.86753804  0.72207486  1
  La3+  La77  1  0.75030179  0.16807380  0.45677098  1
  La3+  La78  1  0.74996140  0.83217894  0.23262115  1
  La3+  La79  1  0.25087476  0.50325727  0.73779171  1
  La3+  La80  1  0.25038211  0.83988626  0.23278053  1
  La3+  La81  1  0.24981386  0.50420565  0.06059460  1
  La3+  La82  1  0.24990659  0.87308135  0.55811365  1
  La3+  La83  1  0.24962200  0.13812481  0.25201562  1
  Ru4+  Ru84  1  -0.00591382  0.00837253  -0.00285738  1
  Ru4+  Ru85  1  0.00148628  0.00685265  0.25305473  1
  Ru4+  Ru86  1  0.00076660  0.00013425  0.49981596  1
  Ru4+  Ru87  1  0.00373912  0.00798567  0.74776282  1
  Ru4+  Ru88  1  -0.00396723  0.33584244  -0.00178067  1
  Ru4+  Ru89  1  -0.00128146  0.33138165  0.24625764  1
  Ru4+  Ru90  1  -0.00309608  0.32735244  0.50144358  1
  Ru4+  Ru91  1  -0.00381042  0.32908179  0.75254116  1
  Ru4+  Ru92  1  -0.00018008  0.65641373  0.00029748  1
  Ru4+  Ru93  1  0.00110185  0.66573455  0.24600532  1
  Ru4+  Ru94  1  -0.00002212  0.66481739  0.49750485  1
  Ru4+  Ru95  1  0.00130342  0.66575092  0.75161699  1
  Ru4+  Ru96  1  0.50400798  0.00708950  -0.00292357  1
  Ru4+  Ru97  1  0.49888840  -0.00040497  0.25453089  1
  Ru4+  Ru98  1  0.50085162  -0.00229256  0.49998283  1
  Ru4+  Ru99  1  0.49928285  0.00497789  0.74940738  1
  Ru4+  Ru100  1  0.49729924  0.33994720  -0.00014778  1
  Ru4+  Ru101  1  0.50265674  0.34063709  0.24801496  1
  Ru4+  Ru102  1  0.49989109  0.33440079  0.49641181  1
  Ru4+  Ru103  1  0.50360479  0.34000083  0.75113332  1
  Ru4+  Ru104  1  0.50292641  0.66442361  0.00168030  1
  Ru4+  Ru105  1  0.50393465  0.66530229  0.24338071  1
  Ru4+  Ru106  1  0.49899757  0.66182320  0.49810325  1
  Ru4+  Ru107  1  0.49901771  0.66003846  0.75343130  1
  Ru4+  Ru108  1  0.11182146  0.16582926  0.00148718  1
  Ru4+  Ru109  1  0.10996919  0.16662039  0.25082109  1
  Ru4+  Ru110  1  0.11426271  0.16899595  0.49957395  1
  Ru4+  Ru111  1  0.11304773  0.16884298  0.74886638  1
  Ru4+  Ru112  1  0.11090527  0.50328497  -0.00127321  1
  Ru4+  Ru113  1  0.11418706  0.49772701  0.25005699  1
  Ru4+  Ru114  1  0.11615959  0.50226123  0.50123084  1
  Ru4+  Ru115  1  0.11369116  0.50462065  0.74940195  1
  Ru4+  Ru116  1  0.11978023  0.83367320  0.00024979  1
  Ru4+  Ru117  1  0.11141649  0.83387745  0.24985246  1
  Ru4+  Ru118  1  0.10872955  0.83454073  0.50203577  1
  Ru4+  Ru119  1  0.11606704  0.82992299  0.74951168  1
  Ru4+  Ru120  1  0.61844457  0.16442276  0.00183758  1
  Ru4+  Ru121  1  0.61289493  0.16707528  0.24950904  1
  Ru4+  Ru122  1  0.61001761  0.16842118  0.49959219  1
  Ru4+  Ru123  1  0.61255856  0.16658344  0.74982353  1
  Ru4+  Ru124  1  0.61335799  0.49967662  0.00085669  1
  Ru4+  Ru125  1  0.61010201  0.49919052  0.24810716  1
  Ru4+  Ru126  1  0.61554575  0.50410127  0.49840722  1
  Ru4+  Ru127  1  0.61123360  0.50041326  0.75192436  1
  Ru4+  Ru128  1  0.61177136  0.83318713  0.00058529  1
  Ru4+  Ru129  1  0.60980434  0.83329518  0.25039354  1
  Ru4+  Ru130  1  0.61148693  0.83414071  0.49896506  1
  Ru4+  Ru131  1  0.61450042  0.83549700  0.74970388  1
  Ru4+  Ru132  1  0.38778425  0.16564668  0.00080861  1
  Ru4+  Ru133  1  0.38557527  0.16276682  0.25215256  1
  Ru4+  Ru134  1  0.38531940  0.16883039  0.49866824  1
  Ru4+  Ru135  1  0.38377395  0.16546355  0.74953107  1
  Ru4+  Ru136  1  0.38883613  0.49677553  0.00093527  1
  Ru4+  Ru137  1  0.38808344  0.49723176  0.24798038  1
  Ru4+  Ru138  1  0.38914892  0.49787040  0.49856536  1
  Ru4+  Ru139  1  0.38994081  0.50213764  0.75062628  1
  Ru4+  Ru140  1  0.38158699  0.82975352  -0.00015182  1
  Ru4+  Ru141  1  0.38724019  0.83471147  0.25191837  1
  Ru4+  Ru142  1  0.39038536  0.83423893  0.50081790  1
  Ru4+  Ru143  1  0.38710289  0.83290411  0.74993198  1
  Ru4+  Ru144  1  0.88514913  0.16825343  -0.00056756  1
  Ru4+  Ru145  1  0.88764138  0.16519797  0.25065012  1
  Ru4+  Ru146  1  0.89140012  0.16747311  0.50106000  1
  Ru4+  Ru147  1  0.88882781  0.16722824  0.74932027  1
  Ru4+  Ru148  1  0.88629633  0.49985417  -0.00116107  1
  Ru4+  Ru149  1  0.88679847  0.49995265  0.24707162  1
  Ru4+  Ru150  1  0.88399465  0.50178013  0.50081663  1
  Ru4+  Ru151  1  0.88803517  0.49890245  0.75009610  1
  Ru4+  Ru152  1  0.88846803  0.83296565  0.00039988  1
  Ru4+  Ru153  1  0.88717083  0.83181538  0.24675886  1
  Ru4+  Ru154  1  0.88589507  0.83313039  0.49874117  1
  Ru4+  Ru155  1  0.88365644  0.82813226  0.75177472  1
  Ru4+  Ru156  1  0.74992297  0.69624637  0.24785995  1
  Ru4+  Ru157  1  0.25017454  0.36660534  0.76853271  1
  Ru4+  Ru158  1  0.74982214  0.09519392  0.75597905  1
  Ru4+  Ru159  1  0.25001716  0.58648421  0.49247566  1
  Ru4+  Ru160  1  0.75024717  0.04355164  0.52407193  1
  Ru4+  Ru161  1  0.25008083  0.57161410  0.24925656  1
  Ru4+  Ru162  1  0.74991999  0.29156060  0.52569447  1
  Ru4+  Ru163  1  0.74985844  0.23856934  0.75658136  1
  Ru4+  Ru164  1  0.24990502  0.09210029  0.49524934  1
  Ru4+  Ru165  1  0.24958025  0.70604788  0.27614144  1
  Ru4+  Ru166  1  0.75013419  0.38935118  0.74510336  1
  Ru4+  Ru167  1  0.74996671  0.72526582  0.76351184  1
  Ru4+  Ru168  1  0.74998313  0.96861027  0.25325265  1
  Ru4+  Ru169  1  0.75002827  0.25065089  0.24436852  1
  Ru4+  Ru170  1  0.24994983  0.73187778  0.50258602  1
  Ru4+  Ru171  1  0.25012963  0.76388352  0.75125162  1
  Ru4+  Ru172  1  0.74996659  0.90818210  0.49338623  1
  Ru4+  Ru173  1  0.24998079  0.97622103  0.23339343  1
  Ru4+  Ru174  1  0.75006207  0.93853434  0.00261453  1
  Ru4+  Ru175  1  0.24989217  0.09294949  0.75274435  1
  Ru4+  Ru176  1  0.24956359  0.28251616  0.25997822  1
  Ru4+  Ru177  1  0.25029989  0.63653595  0.76169464  1
  Ru4+  Ru178  1  0.74967274  0.75310204  0.49701453  1
  Ru4+  Ru179  1  0.25041779  0.90889673  0.75253815  1
  O2-  O180  1  0.16687893  0.08402349  -0.00132829  1
  O2-  O181  1  0.16477805  0.07814545  0.25049640  1
  O2-  O182  1  0.16618569  0.07985957  0.49979891  1
  O2-  O183  1  0.16738035  0.08096693  0.74917148  1
  O2-  O184  1  0.16712299  0.41475923  0.00257207  1
  O2-  O185  1  0.16491417  0.41518551  0.24930116  1
  O2-  O186  1  0.16481075  0.41601209  0.49930689  1
  O2-  O187  1  0.16910493  0.41239186  0.75174254  1
  O2-  O188  1  0.16533290  0.74809680  0.00081821  1
  O2-  O189  1  0.16779714  0.74456100  0.24953221  1
  O2-  O190  1  0.16648066  0.74527523  0.50018788  1
  O2-  O191  1  0.16651054  0.74766919  0.74843758  1
  O2-  O192  1  0.66680358  0.08104489  -0.00005572  1
  O2-  O193  1  0.66762542  0.08009855  0.25119546  1
  O2-  O194  1  0.66573698  0.07801803  0.50032463  1
  O2-  O195  1  0.66796272  0.08103227  0.74987730  1
  O2-  O196  1  0.66767630  0.41380224  -0.00047659  1
  O2-  O197  1  0.66555174  0.41442393  0.24994143  1
  O2-  O198  1  0.66548205  0.41661396  0.50200560  1
  O2-  O199  1  0.66839172  0.41289641  0.74914886  1
  O2-  O200  1  0.66339000  0.74603077  0.00201961  1
  O2-  O201  1  0.66745534  0.74556704  0.24818787  1
  O2-  O202  1  0.66856231  0.74728551  0.49934556  1
  O2-  O203  1  0.66705246  0.74692689  0.75158766  1
  O2-  O204  1  0.33314242  0.25453651  -0.00155480  1
  O2-  O205  1  0.33192608  0.25274703  0.24873977  1
  O2-  O206  1  0.33563197  0.24991656  0.50181802  1
  O2-  O207  1  0.33310363  0.25261417  0.75021314  1
  O2-  O208  1  0.33391440  0.58502402  0.00110367  1
  O2-  O209  1  0.33336539  0.58662883  0.24857484  1
  O2-  O210  1  0.33274884  0.58526591  0.50212118  1
  O2-  O211  1  0.33480062  0.58850576  0.74923160  1
  O2-  O212  1  0.33453278  0.91672086  -0.00012541  1
  O2-  O213  1  0.33377156  0.92218316  0.24916124  1
  O2-  O214  1  0.33390510  0.92059293  0.49951218  1
  O2-  O215  1  0.33167653  0.91995388  0.74893640  1
  O2-  O216  1  0.83227022  0.25071921  0.00103969  1
  O2-  O217  1  0.83341828  0.25002620  0.25061455  1
  O2-  O218  1  0.83356941  0.25391227  0.50011634  1
  O2-  O219  1  0.83102336  0.25088238  0.74892641  1
  O2-  O220  1  0.83462162  0.58183709  -0.00021866  1
  O2-  O221  1  0.83139545  0.58490015  0.25222253  1
  O2-  O222  1  0.83332107  0.58545965  0.49831697  1
  O2-  O223  1  0.83307970  0.58655815  0.75293180  1
  O2-  O224  1  0.83343607  0.92133298  -0.00091700  1
  O2-  O225  1  0.83113230  0.92227495  0.25221516  1
  O2-  O226  1  0.83230124  0.91952456  0.50126472  1
  O2-  O227  1  0.83510998  0.92227591  0.74963374  1
  O2-  O228  1  0.16815316  0.25215436  0.00125444  1
  O2-  O229  1  0.16611077  0.25314312  0.25049025  1
  O2-  O230  1  0.16400918  0.24949972  0.49933413  1
  O2-  O231  1  0.16768809  0.25099015  0.74983012  1
  O2-  O232  1  0.16783814  0.58336331  0.00185934  1
  O2-  O233  1  0.16629307  0.58617009  0.24883953  1
  O2-  O234  1  0.16697586  0.58579389  0.50053518  1
  O2-  O235  1  0.16800067  0.59043335  0.75063939  1
  O2-  O236  1  0.16620527  0.91728879  -0.00007357  1
  O2-  O237  1  0.16671845  0.92082493  0.25149602  1
  O2-  O238  1  0.16615419  0.92192933  0.49821869  1
  O2-  O239  1  0.16825065  0.91934682  0.74827866  1
  O2-  O240  1  0.66827962  0.25075242  -0.00043716  1
  O2-  O241  1  0.66697166  0.24965992  0.24948098  1
  O2-  O242  1  0.66819099  0.25372906  0.50138789  1
  O2-  O243  1  0.66976597  0.25211172  0.74959573  1
  O2-  O244  1  0.66368611  0.58426579  0.00032572  1
  O2-  O245  1  0.66742028  0.58727772  0.24971174  1
  O2-  O246  1  0.66839653  0.58420945  0.50092254  1
  O2-  O247  1  0.66544854  0.58584528  0.75062339  1
  O2-  O248  1  0.66627523  0.92053391  0.00028973  1
  O2-  O249  1  0.66623069  0.92188895  0.25051725  1
  O2-  O250  1  0.66631056  0.91863058  0.49980210  1
  O2-  O251  1  0.66556460  0.92302040  0.75018137  1
  O2-  O252  1  0.33282500  0.08197764  -0.00067230  1
  O2-  O253  1  0.33362907  0.07927503  0.24824739  1
  O2-  O254  1  0.33113450  0.08196070  0.50075254  1
  O2-  O255  1  0.33360808  0.08057573  0.74929189  1
  O2-  O256  1  0.33230437  0.41390871  0.00106712  1
  O2-  O257  1  0.33513119  0.41518630  0.24884593  1
  O2-  O258  1  0.33530919  0.41551388  0.50182785  1
  O2-  O259  1  0.33375989  0.41027172  0.75130353  1
  O2-  O260  1  0.33349129  0.74813634  0.00058671  1
  O2-  O261  1  0.33147650  0.74495528  0.24809325  1
  O2-  O262  1  0.33379479  0.74559340  0.50136390  1
  O2-  O263  1  0.33355612  0.74629752  0.74789341  1
  O2-  O264  1  0.83646925  0.08278990  -0.00009929  1
  O2-  O265  1  0.83197074  0.08127423  0.25056314  1
  O2-  O266  1  0.83401358  0.07768907  0.50052379  1
  O2-  O267  1  0.83242496  0.08184564  0.74928562  1
  O2-  O268  1  0.83266201  0.41598206  0.00054486  1
  O2-  O269  1  0.83250843  0.41626289  0.25214516  1
  O2-  O270  1  0.83637264  0.41389393  0.50015215  1
  O2-  O271  1  0.83274480  0.41377071  0.74976947  1
  O2-  O272  1  0.83840337  0.74608190  0.00002252  1
  O2-  O273  1  0.83235616  0.74586587  0.25116022  1
  O2-  O274  1  0.83101717  0.74728035  0.49905736  1
  O2-  O275  1  0.83133390  0.74606714  0.75068296  1
  O2-  O276  1  0.54062152  0.22555117  0.97919953  1
  O2-  O277  1  0.45124765  0.43151243  0.76850503  1
  O2-  O278  1  0.45882936  0.78557797  0.23456718  1
  O2-  O279  1  0.54626162  0.76020637  0.73767628  1
  O2-  O280  1  0.55403057  0.76660923  0.26163053  1
  O2-  O281  1  0.96189586  0.88836674  0.27983485  1
  O2-  O282  1  0.04596441  0.42923366  0.47973498  1
  O2-  O283  1  0.46671866  0.21923326  0.25212281  1
  O2-  O284  1  0.03639570  0.77958334  0.21683942  1
  O2-  O285  1  0.45468559  0.56827244  0.98908601  1
  O2-  O286  1  0.04831035  0.09914068  0.26687802  1
  O2-  O287  1  0.04529139  0.76611656  0.02049307  1
  O2-  O288  1  0.54589428  0.76168960  0.75776774  1
  O2-  O289  1  0.54159055  0.44196778  0.71125797  1
  O2-  O290  1  0.52126493  0.55170995  0.47862117  1
  O2-  O291  1  0.45342455  0.24324706  0.48797519  1
  O2-  O292  1  0.55064800  0.10049576  0.51413555  1
  O2-  O293  1  0.04798164  0.76418216  0.98185027  1
  O2-  O294  1  0.46377058  0.77011453  0.23760189  1
  O2-  O295  1  0.95447996  0.09993841  0.51415864  1
  O2-  O296  1  0.46220995  0.11169968  0.49769342  1
  O2-  O297  1  0.04190272  0.89427711  0.73700787  1
  O2-  O298  1  0.54462661  0.22360279  -0.01059054  1
  O2-  O299  1  0.04654815  0.43317847  0.51882542  1
  O2-  O300  1  0.03103436  0.45275379  0.75681960  1
  O2-  O301  1  0.54683877  0.09795257  0.26127376  1
  O2-  O302  1  0.44867489  0.23632344  0.98336326  1
  O2-  O303  1  0.04180851  0.89435497  0.73698875  1
  O2-  O304  1  0.96331059  0.22269395  0.71562209  1
  O2-  O305  1  0.95367475  0.09205984  0.73669336  1
  O2-  O306  1  0.54497970  0.76611041  0.48813765  1
  O2-  O307  1  0.04104465  0.23118575  0.03128699  1
  O2-  O308  1  0.95854318  0.55743875  0.77301843  1
  O2-  O309  1  0.45187254  0.23512592  0.76381634  1
  O2-  O310  1  0.96755181  0.43822557  0.24484515  1
  O2-  O311  1  0.04917918  0.90372339  0.98547224  1
  O2-  O312  1  0.45800754  0.22592437  0.21617511  1
  O2-  O313  1  0.94613454  0.90226338  0.73731848  1
  O2-  O314  1  0.03705663  0.10399777  0.96472708  1
  O2-  O315  1  0.44940406  0.42892807  0.51029399  1
  O2-  O316  1  0.95088885  0.10096609  0.26429861  1
  O2-  O317  1  0.96298490  0.55449005  0.76191942  1
  O2-  O318  1  0.54625925  0.90429800  0.73735495  1
  O2-  O319  1  0.45299765  0.90037135  0.01142975  1
  O2-  O320  1  0.03248792  0.45071629  0.75230623  1
  O2-  O321  1  0.44989265  0.42979812  0.49406093  1
  O2-  O322  1  0.96739033  0.55955190  0.24541872  1
  O2-  O323  1  0.54186917  0.43850499  0.49826327  1
  O2-  O324  1  0.92717982  0.27607932  0.80342321  1
  O2-  O325  1  0.43659063  0.92391794  0.02598764  1
  O2-  O326  1  0.06493150  0.07172809  0.71644604  1
  O2-  O327  1  0.42057875  0.29060381  0.30668913  1
  O2-  O328  1  0.56929109  0.60698623  0.58034909  1
  O2-  O329  1  0.07529660  0.06559116  0.04303817  1
  O2-  O330  1  0.43133945  0.59593015  0.47589426  1
  O2-  O331  1  0.57261140  0.38999735  0.80988181  1
  O2-  O332  1  0.56263407  0.26148082  0.71460357  1
  O2-  O333  1  0.07921214  0.39429097  0.81582804  1
  O2-  O334  1  0.93915514  0.92971573  0.71473879  1
  O2-  O335  1  0.56292506  0.25872797  0.46715664  1
  O2-  O336  1  0.57497650  0.38790082  0.45646262  1
  O2-  O337  1  0.06154019  0.92684831  0.96271580  1
  O2-  O338  1  0.42165892  0.05649816  0.46667491  1
  O2-  O339  1  0.06344449  0.59771422  0.53428611  1
  O2-  O340  1  0.92263689  0.38942138  0.21897456  1
  O2-  O341  1  0.41534348  0.71632359  0.29789159  1
  O2-  O342  1  0.06560790  0.92687444  0.22507046  1
  O2-  O343  1  0.93759453  0.59872163  0.96833922  1
  O2-  O344  1  0.08043087  0.38832609  0.68318248  1
  O2-  O345  1  0.56122653  0.40579959  0.96701381  1
  O2-  O346  1  0.93794014  0.40493101  0.96911109  1
  O2-  O347  1  0.07037532  0.26593281  0.96256977  1
  O2-  O348  1  0.93476447  0.74301213  0.47358103  1
  O2-  O349  1  0.43350386  0.07415717  0.27895381  1
  O2-  O350  1  0.93519463  0.74347630  0.21530377  1
  O2-  O351  1  0.06612284  0.25320174  0.77991502  1
  O2-  O352  1  0.07573206  0.95256972  0.80518192  1
  O2-  O353  1  0.06583823  0.59979408  0.71412103  1
  O2-  O354  1  0.43497975  0.07584218  0.03099297  1
  O2-  O355  1  0.93367011  0.92661176  0.47453252  1
  O2-  O356  1  0.56578136  0.59271238  0.77706883  1
  O2-  O357  1  0.93582732  0.25829652  0.96550943  1
  O2-  O358  1  0.92720991  0.61010725  0.20994683  1
  O2-  O359  1  0.56470336  0.74020904  0.97494539  1
  O2-  O360  1  0.92148969  0.93982573  0.19909441  1
  O2-  O361  1  0.58125063  0.60524850  0.43894131  1
  O2-  O362  1  0.43339202  0.92561213  0.77580355  1
  O2-  O363  1  0.93768175  0.59459395  0.53357693  1
  O2-  O364  1  0.06609700  0.59222421  0.97321415  1
  O2-  O365  1  0.43567127  0.73644936  0.96637903  1
  O2-  O366  1  0.43911729  0.26148860  0.78152739  1
  O2-  O367  1  0.56529897  0.07526080  0.02826511  1
  O2-  O368  1  0.57759172  0.28452977  0.06129889  1
  O2-  O369  1  0.07803296  0.72640304  0.29879438  1
  O2-  O370  1  0.92182387  0.62213989  0.69017394  1
  O2-  O371  1  0.93665407  0.73872488  0.78531771  1
  O2-  O372  1  0.75003321  0.00221545  0.10335214  1
  O2-  O373  1  0.25009560  0.66087574  0.60304452  1
  O2-  O374  1  0.25022729  0.33568618  0.57599472  1
  O2-  O375  1  0.25003883  0.31930701  0.66328168  1
  O2-  O376  1  0.24984200  0.00295936  0.56188454  1
  O2-  O377  1  0.74974315  -0.00536449  0.39527600  1
  O2-  O378  1  0.24992013  0.00011138  0.82941107  1
  O2-  O379  1  0.24953152  0.32802722  0.39146168  1
  O2-  O380  1  0.25005656  0.00239612  0.91844986  1
  O2-  O381  1  0.75024322  0.34309371  0.41888196  1
  O2-  O382  1  0.75018390  0.66669688  0.65348305  1
  O2-  O383  1  0.25031593  0.66488410  0.89222650  1
  O2-  O384  1  0.24994148  0.00002122  0.68356485  1
  O2-  O385  1  0.25033580  0.66387737  0.07059552  1
  O2-  O386  1  0.75046172  0.00007889  0.90049116  1
  O2-  O387  1  0.25003621  0.65731879  0.16156432  1
  O2-  O388  1  0.74990371  0.32896467  0.15749986  1
  O2-  O389  1  0.74990127  0.33399538  0.31969326  1
  O2-  O390  1  0.75004191  0.66861383  0.89496738  1
  O2-  O391  1  0.24994699  0.66383321  0.39657969  1
  O2-  O392  1  0.24955678  0.00464341  0.35548925  1
  O2-  O393  1  0.25000493  -0.00228463  0.10645049  1
  O2-  O394  1  0.74966027  0.67128173  0.10638997  1
  O2-  O395  1  0.24981542  0.33557188  0.15263229  1
  O2-  O396  1  0.25002509  0.82500547  0.43729026  1
  O2-  O397  1  0.25023276  0.49768304  0.93809726  1
  O2-  O398  1  0.24998965  0.83268385  0.35642353  1
  O2-  O399  1  0.75019899  0.16826245  0.89117180  1
  O2-  O400  1  0.24995080  0.49843162  0.41589731  1
  O2-  O401  1  0.75010125  0.50045203  0.14788052  1
  O2-  O402  1  0.24992524  0.17043854  0.11638830  1
  O2-  O403  1  0.25004464  0.48545802  0.54129537  1
  O2-  O404  1  0.24963709  0.49676031  0.85841499  1
  O2-  O405  1  0.74994277  0.83182481  0.37519390  1
  O2-  O406  1  0.74991143  0.83116148  0.85133105  1
  O2-  O407  1  0.74986782  0.83145961  0.58718891  1
  O2-  O408  1  0.24952425  0.83146380  0.11519555  1
  O2-  O409  1  0.25008776  0.16573563  0.83474354  1
  O2-  O410  1  0.75034862  0.49581652  0.60415035  1
  O2-  O411  1  0.24975640  0.16263061  0.41208693  1
  O2-  O412  1  0.25005148  0.83261508  0.84425090  1
  O2-  O413  1  0.25021728  0.83342862  0.03613274  1
  O2-  O414  1  0.24996535  0.49638182  0.32914224  1
  O2-  O415  1  0.75021366  0.50196892  0.40819948  1
  O2-  O416  1  0.74991927  0.50008931  0.06620398  1
  O2-  O417  1  0.24970844  0.49924746  0.61898093  1
  O2-  O418  1  0.74996407  0.16687504  0.61289108  1
  O2-  O419  1  0.74995763  0.84540119  0.09961087  1
  O2-  O420  1  0.03615886  0.32267742  0.61307949  1
  O2-  O421  1  0.48017812  -0.01003000  0.37317357  1
  O2-  O422  1  0.97277969  0.33265526  0.37571615  1
  O2-  O423  1  0.02672988  0.66342654  0.12318979  1
  O2-  O424  1  0.47152238  0.33823317  0.12330705  1
  O2-  O425  1  0.54462386  0.00045969  0.87391851  1
  O2-  O426  1  0.53210998  -0.00730285  0.13001026  1
  O2-  O427  1  0.54382540  -0.00018324  0.62507938  1
  O2-  O428  1  0.97592602  0.00408259  0.37206575  1
  O2-  O429  1  0.52742735  0.67271697  0.36519314  1
  O2-  O430  1  0.95760682  0.33834907  0.62195710  1
  O2-  O431  1  0.02587054  0.67139544  0.87098691  1
  O2-  O432  1  0.47263992  0.66539384  0.38042049  1
  O2-  O433  1  0.95849204  0.66249512  0.36623605  1
  O2-  O434  1  0.45953730  0.00621653  0.88132640  1
  O2-  O435  1  0.97711106  0.32893025  0.12051332  1
  O2-  O436  1  0.03982108  0.65744411  0.38960608  1
  O2-  O437  1  0.45607936  0.00037475  0.62505882  1
  O2-  O438  1  0.52124655  0.66414563  0.87554205  1
  O2-  O439  1  0.02739676  -0.00296171  0.12935486  1
  O2-  O440  1  0.01777022  0.33418624  0.87892846  1
  O2-  O441  1  0.96938359  0.00789156  0.11333890  1
  O2-  O442  1  0.47112100  0.66886418  0.62566333  1
  O2-  O443  1  0.46958085  0.00014318  0.13530745  1
