# generated using pymatgen
data_La7(Ru4O11)2
_symmetry_space_group_name_H-M   'P 1'
_cell_length_a   23.99046875
_cell_length_b   16.83037647
_cell_length_c   15.42629536
_cell_angle_alpha   90.00035838
_cell_angle_beta   90.00014116
_cell_angle_gamma   90.00005809
_symmetry_Int_Tables_number   1
_chemical_formula_structural   La7(Ru4O11)2
_chemical_formula_sum   'La84 Ru96 O264'
_cell_volume   6228.65400301
_cell_formula_units_Z   12
loop_
 _symmetry_equiv_pos_site_id
 _symmetry_equiv_pos_as_xyz
  1  'x, y, z'
loop_
 _atom_type_symbol
 _atom_type_oxidation_number
  La3+  3.0
  Ru4+  4.0
  O2-  -2.0
loop_
 _atom_site_type_symbol
 _atom_site_label
 _atom_site_symmetry_multiplicity
 _atom_site_fract_x
 _atom_site_fract_y
 _atom_site_fract_z
 _atom_site_occupancy
  La3+  La0  1  0.13969456  -0.00071038  0.12681174  1
  La3+  La1  1  0.14213449  0.00143308  0.37556881  1
  La3+  La2  1  0.13820076  0.00040056  0.62357084  1
  La3+  La3  1  0.13918662  -0.00106392  0.87519614  1
  La3+  La4  1  0.14107658  0.33291659  0.12743687  1
  La3+  La5  1  0.14188444  0.33035113  0.37456565  1
  La3+  La6  1  0.13874241  0.33319081  0.62153321  1
  La3+  La7  1  0.13511927  0.33369072  0.87671489  1
  La3+  La8  1  0.13796271  0.66892827  0.12454323  1
  La3+  La9  1  0.13759941  0.66727210  0.37431437  1
  La3+  La10  1  0.13605385  0.66746251  0.62447071  1
  La3+  La11  1  0.13848086  0.66852447  0.87619198  1
  La3+  La12  1  0.63928017  0.00128223  0.12715051  1
  La3+  La13  1  0.63644068  0.00177033  0.37207185  1
  La3+  La14  1  0.63935602  0.00128278  0.62674284  1
  La3+  La15  1  0.64053273  0.00164074  0.87367756  1
  La3+  La16  1  0.64231040  0.33427226  0.12691365  1
  La3+  La17  1  0.64317293  0.33334391  0.37071638  1
  La3+  La18  1  0.63661629  0.33039034  0.62790345  1
  La3+  La19  1  0.63694207  0.33360106  0.87283380  1
  La3+  La20  1  0.64235756  0.66611079  0.12472098  1
  La3+  La21  1  0.63730034  0.66827810  0.37277451  1
  La3+  La22  1  0.64132044  0.66590384  0.62837024  1
  La3+  La23  1  0.63946727  0.66439982  0.87472145  1
  La3+  La24  1  0.35928901  -0.00066320  0.12504959  1
  La3+  La25  1  0.35739210  0.00073783  0.37690854  1
  La3+  La26  1  0.35886572  -0.00123892  0.62406899  1
  La3+  La27  1  0.36081228  0.00107596  0.87509666  1
  La3+  La28  1  0.35738605  0.33206691  0.12826986  1
  La3+  La29  1  0.35859119  0.33098646  0.37590063  1
  La3+  La30  1  0.36279096  0.33282121  0.62168742  1
  La3+  La31  1  0.36544097  0.33360646  0.87478916  1
  La3+  La32  1  0.36019673  0.66816373  0.12538967  1
  La3+  La33  1  0.36402547  0.66877534  0.37314021  1
  La3+  La34  1  0.36474059  0.66770260  0.62531550  1
  La3+  La35  1  0.36117216  0.66798700  0.87708267  1
  La3+  La36  1  0.86049888  0.00059968  0.12756062  1
  La3+  La37  1  0.86354096  0.00160423  0.37446262  1
  La3+  La38  1  0.86096357  0.00045256  0.62594047  1
  La3+  La39  1  0.85736763  0.00246571  0.87592872  1
  La3+  La40  1  0.86581152  0.33904573  0.12772969  1
  La3+  La41  1  0.86567014  0.33636337  0.36857973  1
  La3+  La42  1  0.86538885  0.33245790  0.62698960  1
  La3+  La43  1  0.86551200  0.33421504  0.87500823  1
  La3+  La44  1  0.85985496  0.66330570  0.12551447  1
  La3+  La45  1  0.86353728  0.66425786  0.37321544  1
  La3+  La46  1  0.86000236  0.66419403  0.62542342  1
  La3+  La47  1  0.86204998  0.66477743  0.87315980  1
  La3+  La48  1  0.50047586  0.83677404  0.61325636  1
  La3+  La49  1  0.50141400  0.16187879  0.13709746  1
  La3+  La50  1  0.50128494  0.83460017  0.11880071  1
  La3+  La51  1  0.50150864  0.83427760  0.85579650  1
  La3+  La52  1  0.49903550  0.48991808  0.36499732  1
  La3+  La53  1  0.00185612  0.83696479  0.36880691  1
  La3+  La54  1  0.00176055  0.16556367  0.88275804  1
  La3+  La55  1  0.49999508  0.49606707  0.61660540  1
  La3+  La56  1  -0.00337197  0.49807474  0.37713115  1
  La3+  La57  1  0.49270539  0.49734715  0.63599028  1
  La3+  La58  1  0.50506919  0.84185227  0.87488212  1
  La3+  La59  1  -0.00218194  0.49583589  0.36005168  1
  La3+  La60  1  0.49940876  0.50054129  0.13146714  1
  La3+  La61  1  0.50043375  0.50140133  0.38339706  1
  La3+  La62  1  0.50295120  0.49476790  0.11067415  1
  La3+  La63  1  0.00129180  0.83264712  0.88638586  1
  La3+  La64  1  0.50117366  0.16308489  0.37755147  1
  La3+  La65  1  -0.00152386  0.83205764  0.39023897  1
  La3+  La66  1  0.49921288  0.83368087  0.14126319  1
  La3+  La67  1  -0.00335791  0.16751424  0.63826736  1
  La3+  La68  1  0.00034280  0.83433971  0.13313497  1
  La3+  La69  1  -0.00133827  0.49925130  0.86960959  1
  La3+  La70  1  -0.00176956  0.49764105  0.88726474  1
  La3+  La71  1  0.00340576  0.17131247  0.61871111  1
  La3+  La72  1  0.25006467  0.12202174  0.74517811  1
  La3+  La73  1  0.24942499  0.44632663  0.50057989  1
  La3+  La74  1  0.25038737  0.78688030  0.75624842  1
  La3+  La75  1  0.74996913  0.11862648  0.50378838  1
  La3+  La76  1  0.24957783  0.50692137  0.75857339  1
  La3+  La77  1  0.25018010  0.46544963  -0.00203735  1
  La3+  La78  1  0.75012150  0.86522429  0.47815169  1
  La3+  La79  1  0.24957375  0.45327610  0.26546456  1
  La3+  La80  1  0.25019181  0.13588131  0.00407501  1
  La3+  La81  1  0.75033895  0.13432645  -0.02307855  1
  La3+  La82  1  0.75010047  0.83497140  0.24429980  1
  La3+  La83  1  0.24951805  0.88285001  0.45257051  1
  Ru4+  Ru84  1  -0.00063473  -0.00267536  0.00196385  1
  Ru4+  Ru85  1  0.00069285  0.01044064  0.24831158  1
  Ru4+  Ru86  1  0.00145423  -0.00172533  0.50083334  1
  Ru4+  Ru87  1  0.00173088  -0.00201499  0.75134948  1
  Ru4+  Ru88  1  0.00859558  0.33256518  0.00451283  1
  Ru4+  Ru89  1  0.00168990  0.33522326  0.25252168  1
  Ru4+  Ru90  1  0.00501132  0.32885485  0.49831634  1
  Ru4+  Ru91  1  0.00314718  0.33908018  0.74719983  1
  Ru4+  Ru92  1  0.00035026  0.66793179  -0.00139801  1
  Ru4+  Ru93  1  0.00501230  0.66769963  0.24334371  1
  Ru4+  Ru94  1  -0.00075998  0.66836257  0.50385265  1
  Ru4+  Ru95  1  -0.00068220  0.66435499  0.74753933  1
  Ru4+  Ru96  1  0.50017338  0.00565820  -0.00005345  1
  Ru4+  Ru97  1  0.49717036  -0.00540286  0.24721492  1
  Ru4+  Ru98  1  0.50110896  0.00018516  0.50530086  1
  Ru4+  Ru99  1  0.50268788  0.00127963  0.74548244  1
  Ru4+  Ru100  1  0.50066960  0.33263623  -0.00316123  1
  Ru4+  Ru101  1  0.50143403  0.33015152  0.24987944  1
  Ru4+  Ru102  1  0.50043876  0.32662954  0.49597602  1
  Ru4+  Ru103  1  0.49973888  0.32875944  0.75313581  1
  Ru4+  Ru104  1  0.50032239  0.66603455  -0.00236905  1
  Ru4+  Ru105  1  0.49629088  0.66920401  0.25581733  1
  Ru4+  Ru106  1  0.49962002  0.67339463  0.49941504  1
  Ru4+  Ru107  1  0.49591952  0.67498630  0.75214355  1
  Ru4+  Ru108  1  0.11204228  0.16806852  -0.00019214  1
  Ru4+  Ru109  1  0.11327159  0.16739334  0.24962705  1
  Ru4+  Ru110  1  0.11678577  0.16677057  0.49829912  1
  Ru4+  Ru111  1  0.11284501  0.16466114  0.75253324  1
  Ru4+  Ru112  1  0.10948749  0.49835362  0.00083954  1
  Ru4+  Ru113  1  0.11079558  0.49826332  0.25034148  1
  Ru4+  Ru114  1  0.11094933  0.49995207  0.50131524  1
  Ru4+  Ru115  1  0.10890795  0.49978696  0.75143187  1
  Ru4+  Ru116  1  0.11360400  0.83219084  -0.00043383  1
  Ru4+  Ru117  1  0.11426427  0.83535852  0.24877271  1
  Ru4+  Ru118  1  0.11120196  0.83295175  0.49983308  1
  Ru4+  Ru119  1  0.11017412  0.83196706  0.75051499  1
  Ru4+  Ru120  1  0.61153014  0.16359405  0.00026777  1
  Ru4+  Ru121  1  0.61554151  0.17162872  0.24952074  1
  Ru4+  Ru122  1  0.61172969  0.16372877  0.50130636  1
  Ru4+  Ru123  1  0.61353380  0.16740265  0.74901294  1
  Ru4+  Ru124  1  0.61525947  0.49944935  -0.00093252  1
  Ru4+  Ru125  1  0.61469335  0.49715472  0.24950092  1
  Ru4+  Ru126  1  0.61595698  0.50213853  0.49900436  1
  Ru4+  Ru127  1  0.61777027  0.49825639  0.75291629  1
  Ru4+  Ru128  1  0.61183497  0.83232729  -0.00029679  1
  Ru4+  Ru129  1  0.61229762  0.83376084  0.25223034  1
  Ru4+  Ru130  1  0.61074259  0.83569753  0.49936143  1
  Ru4+  Ru131  1  0.61059390  0.83344206  0.75074172  1
  Ru4+  Ru132  1  0.39166726  0.16658380  -0.00117554  1
  Ru4+  Ru133  1  0.38620772  0.16913346  0.24988006  1
  Ru4+  Ru134  1  0.38343870  0.16570311  0.50097300  1
  Ru4+  Ru135  1  0.39079376  0.16901581  0.74810413  1
  Ru4+  Ru136  1  0.38867991  0.49916758  -0.00154139  1
  Ru4+  Ru137  1  0.38579631  0.49707715  0.24822343  1
  Ru4+  Ru138  1  0.38241628  0.50309856  0.49944201  1
  Ru4+  Ru139  1  0.38998599  0.49866516  0.75271031  1
  Ru4+  Ru140  1  0.38448364  0.83187018  0.00091822  1
  Ru4+  Ru141  1  0.38705116  0.83479977  0.25023577  1
  Ru4+  Ru142  1  0.38961050  0.83563036  0.50032684  1
  Ru4+  Ru143  1  0.39015506  0.83220753  0.75180207  1
  Ru4+  Ru144  1  0.88645630  0.16139425  0.00120405  1
  Ru4+  Ru145  1  0.88935603  0.16546235  0.24980414  1
  Ru4+  Ru146  1  0.88271125  0.16904977  0.49502318  1
  Ru4+  Ru147  1  0.88160169  0.16409442  0.75112180  1
  Ru4+  Ru148  1  0.88251795  0.50101618  0.00198042  1
  Ru4+  Ru149  1  0.88509967  0.49475948  0.24898874  1
  Ru4+  Ru150  1  0.88438219  0.50519410  0.49831840  1
  Ru4+  Ru151  1  0.88469723  0.50186597  0.74958407  1
  Ru4+  Ru152  1  0.88778193  0.83174983  -0.00007245  1
  Ru4+  Ru153  1  0.88703953  0.83562935  0.24901037  1
  Ru4+  Ru154  1  0.89001273  0.83395327  0.50040302  1
  Ru4+  Ru155  1  0.88611102  0.83308513  0.74974636  1
  Ru4+  Ru156  1  0.24976320  0.60220901  0.01554178  1
  Ru4+  Ru157  1  0.74962859  0.07939936  0.24215244  1
  Ru4+  Ru158  1  0.74987382  0.74880557  0.00054495  1
  Ru4+  Ru159  1  0.74976546  0.75171515  0.74186374  1
  Ru4+  Ru160  1  0.75002898  0.58508651  0.50493842  1
  Ru4+  Ru161  1  0.24967025  0.63569305  0.72369288  1
  Ru4+  Ru162  1  0.24991567  0.25261526  0.76118637  1
  Ru4+  Ru163  1  0.74961753  0.91955045  0.00180152  1
  Ru4+  Ru164  1  0.25003425  0.37967843  0.77704048  1
  Ru4+  Ru165  1  0.24982549  0.91614240  0.01263904  1
  Ru4+  Ru166  1  0.25002859  0.76156675  0.24269015  1
  Ru4+  Ru167  1  0.74967148  0.91663803  0.74213254  1
  Ru4+  Ru168  1  0.25006924  0.09509781  0.25542667  1
  Ru4+  Ru169  1  0.75010341  0.41341541  0.50221429  1
  Ru4+  Ru170  1  0.25006382  0.73927635  0.50431841  1
  Ru4+  Ru171  1  0.74952727  0.57736184  0.24029561  1
  Ru4+  Ru172  1  0.24975563  0.59235793  0.23838259  1
  Ru4+  Ru173  1  0.25003327  0.93852699  0.75718990  1
  Ru4+  Ru174  1  0.24997942  0.27860645  0.00599033  1
  Ru4+  Ru175  1  0.74937959  0.41817639  0.24369033  1
  Ru4+  Ru176  1  0.75000986  0.27458044  0.49834236  1
  Ru4+  Ru177  1  0.24966798  0.58959626  0.50693894  1
  Ru4+  Ru178  1  0.75007391  0.27503891  0.00234865  1
  Ru4+  Ru179  1  0.74999516  0.72413013  0.50437508  1
  O2-  O180  1  0.16581106  0.07996543  0.00080199  1
  O2-  O181  1  0.16831552  0.08005529  0.25006171  1
  O2-  O182  1  0.16604029  0.08170508  0.50169018  1
  O2-  O183  1  0.16584333  0.07897221  0.74934472  1
  O2-  O184  1  0.16708276  0.41119961  -0.00182260  1
  O2-  O185  1  0.16148255  0.41240731  0.24950381  1
  O2-  O186  1  0.16017787  0.41222380  0.49982216  1
  O2-  O187  1  0.16488418  0.41110785  0.75078062  1
  O2-  O188  1  0.16390564  0.74800789  0.00084036  1
  O2-  O189  1  0.16739233  0.74783126  0.24946249  1
  O2-  O190  1  0.16689704  0.74668509  0.49975364  1
  O2-  O191  1  0.16378068  0.74513458  0.74955422  1
  O2-  O192  1  0.66455636  0.07938331  -0.00020494  1
  O2-  O193  1  0.66671596  0.08084792  0.24980773  1
  O2-  O194  1  0.66339912  0.07694343  0.49971588  1
  O2-  O195  1  0.66601664  0.08288988  0.75229007  1
  O2-  O196  1  0.66502043  0.41450366  -0.00220776  1
  O2-  O197  1  0.66770872  0.41447169  0.24823134  1
  O2-  O198  1  0.66702135  0.41349575  0.50090381  1
  O2-  O199  1  0.66708981  0.41374390  0.75099013  1
  O2-  O200  1  0.66630248  0.74671895  -0.00058106  1
  O2-  O201  1  0.66985638  0.74786208  0.25022812  1
  O2-  O202  1  0.66614009  0.74632570  0.49996430  1
  O2-  O203  1  0.66718990  0.74636473  0.74956633  1
  O2-  O204  1  0.33225003  0.25263703  -0.00022464  1
  O2-  O205  1  0.33642189  0.25122032  0.25039629  1
  O2-  O206  1  0.33560358  0.25020476  0.49952491  1
  O2-  O207  1  0.33350923  0.25098099  0.75163131  1
  O2-  O208  1  0.33278151  0.58654032  0.00034441  1
  O2-  O209  1  0.33367302  0.58789273  0.25146648  1
  O2-  O210  1  0.33354266  0.58854504  0.50004581  1
  O2-  O211  1  0.33527769  0.58840237  0.74981811  1
  O2-  O212  1  0.33281449  0.91899819  -0.00103584  1
  O2-  O213  1  0.33529105  0.91924643  0.24957045  1
  O2-  O214  1  0.33437643  0.91950623  0.50036254  1
  O2-  O215  1  0.33164407  0.92040781  0.75141230  1
  O2-  O216  1  0.83272439  0.25489933  -0.00166552  1
  O2-  O217  1  0.83415835  0.25203611  0.24995463  1
  O2-  O218  1  0.83077232  0.25341319  0.49961497  1
  O2-  O219  1  0.83374610  0.25218450  0.75075155  1
  O2-  O220  1  0.83462252  0.58699481  -0.00138032  1
  O2-  O221  1  0.83386296  0.58590044  0.24934466  1
  O2-  O222  1  0.83158612  0.58513552  0.49999284  1
  O2-  O223  1  0.83232879  0.58404522  0.75066149  1
  O2-  O224  1  0.83323437  0.92011448  0.00109960  1
  O2-  O225  1  0.83168437  0.91777711  0.25084082  1
  O2-  O226  1  0.83282563  0.92225642  0.49864208  1
  O2-  O227  1  0.83287739  0.91718071  0.74984458  1
  O2-  O228  1  0.16696941  0.25215317  -0.00081670  1
  O2-  O229  1  0.16306487  0.24937013  0.25046591  1
  O2-  O230  1  0.16500300  0.25084150  0.50038726  1
  O2-  O231  1  0.16543850  0.25327762  0.75006546  1
  O2-  O232  1  0.16626288  0.58654410  0.00067309  1
  O2-  O233  1  0.16611757  0.58764979  0.24953625  1
  O2-  O234  1  0.16734266  0.58701059  0.49977698  1
  O2-  O235  1  0.16567687  0.58826463  0.75086823  1
  O2-  O236  1  0.16722651  0.91927099  0.00040211  1
  O2-  O237  1  0.16687426  0.91880468  0.25096456  1
  O2-  O238  1  0.16429896  0.92042541  0.50289510  1
  O2-  O239  1  0.16715018  0.91877371  0.74939990  1
  O2-  O240  1  0.66823788  0.25273117  -0.00279432  1
  O2-  O241  1  0.66500427  0.25171456  0.24859358  1
  O2-  O242  1  0.66925984  0.25250147  0.50137079  1
  O2-  O243  1  0.66761439  0.25146090  0.75173822  1
  O2-  O244  1  0.66603435  0.58665769  -0.00122125  1
  O2-  O245  1  0.66733962  0.58734949  0.25004837  1
  O2-  O246  1  0.66812292  0.58701662  0.50037239  1
  O2-  O247  1  0.66818328  0.58496385  0.75076984  1
  O2-  O248  1  0.66853233  0.92098017  0.00014591  1
  O2-  O249  1  0.66642575  0.91770896  0.25000227  1
  O2-  O250  1  0.66682114  0.92122950  0.50030071  1
  O2-  O251  1  0.66705857  0.91997301  0.75031091  1
  O2-  O252  1  0.33565840  0.08065392  -0.00001658  1
  O2-  O253  1  0.33317071  0.07910433  0.25017869  1
  O2-  O254  1  0.33190602  0.08353501  0.49942895  1
  O2-  O255  1  0.33382529  0.07952983  0.75352145  1
  O2-  O256  1  0.33517355  0.41211420  -0.00142411  1
  O2-  O257  1  0.33623167  0.41159612  0.25004808  1
  O2-  O258  1  0.33784246  0.41191416  0.49919933  1
  O2-  O259  1  0.33331386  0.41150338  0.75031039  1
  O2-  O260  1  0.33289667  0.74780469  -0.00227768  1
  O2-  O261  1  0.33151082  0.74737495  0.24950773  1
  O2-  O262  1  0.33467137  0.74596153  0.49952585  1
  O2-  O263  1  0.33849249  0.74367709  0.74864435  1
  O2-  O264  1  0.83535134  0.07932678  0.00105882  1
  O2-  O265  1  0.83410385  0.08129114  0.24991263  1
  O2-  O266  1  0.83593694  0.07505467  0.49920026  1
  O2-  O267  1  0.83271062  0.08188093  0.75161240  1
  O2-  O268  1  0.83363389  0.41564854  -0.00185605  1
  O2-  O269  1  0.83062383  0.41455232  0.24822595  1
  O2-  O270  1  0.83313857  0.41357982  0.50102701  1
  O2-  O271  1  0.83374533  0.41390121  0.75043486  1
  O2-  O272  1  0.83373553  0.74747180  0.00009583  1
  O2-  O273  1  0.83222560  0.74700793  0.25105161  1
  O2-  O274  1  0.83314068  0.74602131  0.49836772  1
  O2-  O275  1  0.83169880  0.74839959  0.74997227  1
  O2-  O276  1  0.54955796  0.43150137  0.48596655  1
  O2-  O277  1  0.95079219  0.43384316  0.47973197  1
  O2-  O278  1  0.45549539  0.42740936  0.98519502  1
  O2-  O279  1  0.95348880  0.09381354  0.24195465  1
  O2-  O280  1  0.54628758  0.43158547  0.73856995  1
  O2-  O281  1  0.95014363  0.10350509  0.48178986  1
  O2-  O282  1  0.46188671  0.11846361  0.50752907  1
  O2-  O283  1  0.95191890  0.09507163  0.25589740  1
  O2-  O284  1  0.54389237  0.90285375  0.26529479  1
  O2-  O285  1  0.45361682  0.76576541  0.51384112  1
  O2-  O286  1  0.54995578  0.09189477  0.98350547  1
  O2-  O287  1  0.45103221  0.09443931  0.98558322  1
  O2-  O288  1  0.95115248  0.43236122  0.98207129  1
  O2-  O289  1  0.95365455  0.43439072  0.24240378  1
  O2-  O290  1  0.54830958  0.10006558  0.26698515  1
  O2-  O291  1  0.95541947  0.90345052  0.01487517  1
  O2-  O292  1  0.95528626  0.43326930  0.76476146  1
  O2-  O293  1  0.95708736  0.43628390  0.51770019  1
  O2-  O294  1  0.45353843  0.42930733  0.51184581  1
  O2-  O295  1  0.54931917  0.57230436  0.26222103  1
  O2-  O296  1  0.95286589  0.24134226  0.98028216  1
  O2-  O297  1  0.05082321  0.09576597  0.50806018  1
  O2-  O298  1  0.53690543  0.22220615  0.00755299  1
  O2-  O299  1  0.53955871  0.22018870  0.53489163  1
  O2-  O300  1  0.46319807  0.77642192  0.96577852  1
  O2-  O301  1  0.03903066  0.10658267  0.02629975  1
  O2-  O302  1  0.94954334  0.57081393  0.26862548  1
  O2-  O303  1  0.95450769  0.76793814  0.26209564  1
  O2-  O304  1  0.55189318  0.08840620  0.51329783  1
  O2-  O305  1  0.96092818  0.23167145  0.27555449  1
  O2-  O306  1  0.04617218  0.23411431  0.76382342  1
  O2-  O307  1  0.95802445  0.57033455  0.23179741  1
  O2-  O308  1  0.55059587  0.75611485  0.26852587  1
  O2-  O309  1  0.94397801  0.24723827  0.52371998  1
  O2-  O310  1  0.95474255  0.23106522  0.01777349  1
  O2-  O311  1  0.46513568  0.11489272  0.74395078  1
  O2-  O312  1  0.54709330  0.56953407  0.98474839  1
  O2-  O313  1  0.52956859  0.22233900  0.49951237  1
  O2-  O314  1  0.45075836  0.57110500  0.49112479  1
  O2-  O315  1  0.55352074  0.58330086  0.71679993  1
  O2-  O316  1  0.45013065  0.57045809  0.01250794  1
  O2-  O317  1  0.44817822  0.23971286  0.98509212  1
  O2-  O318  1  0.94950531  0.23258596  0.76871793  1
  O2-  O319  1  0.96537478  0.89307539  0.75333601  1
  O2-  O320  1  0.95742951  0.43793705  0.26977178  1
  O2-  O321  1  0.45015553  0.56876277  0.26083576  1
  O2-  O322  1  0.95231015  0.09258395  0.51905280  1
  O2-  O323  1  0.96556528  0.77414785  0.74256510  1
  O2-  O324  1  0.56902174  0.60163770  0.80611793  1
  O2-  O325  1  0.56449123  0.59916935  0.46736654  1
  O2-  O326  1  0.43353281  0.25911483  0.72508615  1
  O2-  O327  1  0.93595439  0.07090303  0.71583078  1
  O2-  O328  1  0.43588446  0.40469505  0.78305606  1
  O2-  O329  1  0.43708091  0.92796590  0.78604390  1
  O2-  O330  1  0.43327057  0.74122307  0.27525245  1
  O2-  O331  1  0.42339104  0.72627911  0.05164219  1
  O2-  O332  1  0.43664601  0.92367947  0.52667376  1
  O2-  O333  1  0.93462755  0.59030621  0.47135344  1
  O2-  O334  1  0.93810053  0.40820502  0.96106654  1
  O2-  O335  1  0.56173312  0.07301523  0.28242600  1
  O2-  O336  1  0.92684873  0.94818212  0.79325300  1
  O2-  O337  1  0.57725784  0.27678091  0.03343015  1
  O2-  O338  1  0.56418579  0.92536511  0.02549305  1
  O2-  O339  1  0.92158062  0.72562090  0.71706298  1
  O2-  O340  1  0.06526925  0.07054138  0.21790723  1
  O2-  O341  1  0.43572603  0.40260951  0.21588570  1
  O2-  O342  1  0.55942114  0.74341898  0.27569818  1
  O2-  O343  1  0.93742400  0.93012120  0.21702580  1
  O2-  O344  1  0.93773296  0.26169411  0.78291900  1
  O2-  O345  1  0.06139777  0.92545602  0.21689824  1
  O2-  O346  1  0.06406806  0.73704789  0.81157233  1
  O2-  O347  1  0.06524500  0.58596215  0.44655468  1
  O2-  O348  1  0.55365111  0.58326082  0.71712953  1
  O2-  O349  1  0.06363506  0.73707589  0.69027261  1
  O2-  O350  1  0.06409260  0.92582151  0.96791415  1
  O2-  O351  1  0.43676719  0.40851076  0.52992928  1
  O2-  O352  1  0.06458272  0.40684358  0.02478771  1
  O2-  O353  1  0.56616034  0.26000367  0.72324418  1
  O2-  O354  1  0.06480446  0.92623387  0.78401431  1
  O2-  O355  1  0.93653717  0.59115839  0.78092218  1
  O2-  O356  1  0.58063915  0.29404899  0.43999814  1
  O2-  O357  1  0.93754835  0.92953174  0.53080309  1
  O2-  O358  1  0.56163394  0.93105783  0.46939256  1
  O2-  O359  1  0.42461111  0.05971904  0.53361895  1
  O2-  O360  1  0.92841211  0.26309817  0.20835880  1
  O2-  O361  1  0.06302469  0.73887818  0.52967279  1
  O2-  O362  1  0.06604557  0.06678896  0.95490657  1
  O2-  O363  1  0.06242253  0.92886810  0.46628703  1
  O2-  O364  1  0.06401748  0.59194537  0.56055251  1
  O2-  O365  1  0.06402595  0.73769229  0.21580508  1
  O2-  O366  1  0.06170702  0.07227065  0.78318454  1
  O2-  O367  1  0.92835386  0.40271850  0.28321593  1
  O2-  O368  1  0.42369609  0.06118036  0.71640673  1
  O2-  O369  1  0.56431719  0.06742845  0.71894931  1
  O2-  O370  1  0.43603741  0.92507083  0.02608781  1
  O2-  O371  1  0.94490486  0.24843758  0.52362528  1
  O2-  O372  1  0.75012130  -0.00051614  0.15427792  1
  O2-  O373  1  0.25022220  0.33368300  0.14465807  1
  O2-  O374  1  0.24999276  0.66425968  0.41884722  1
  O2-  O375  1  0.24979237  0.67457088  0.31891379  1
  O2-  O376  1  0.25005690  0.33062425  0.56791786  1
  O2-  O377  1  0.25022671  0.00058993  0.90289770  1
  O2-  O378  1  0.24996131  0.33212322  0.32980490  1
  O2-  O379  1  0.24993804  0.67372075  0.14805283  1
  O2-  O380  1  0.74981762  0.00179152  0.34456559  1
  O2-  O381  1  0.75013534  0.33845135  0.34498549  1
  O2-  O382  1  0.24984401  0.00494719  0.65412316  1
  O2-  O383  1  0.24975993  0.67586634  0.92937232  1
  O2-  O384  1  0.25011584  0.00247547  0.39820399  1
  O2-  O385  1  0.25014508  0.66601622  0.60541882  1
  O2-  O386  1  0.75032483  0.33552306  0.09802652  1
  O2-  O387  1  0.75014694  0.66344541  0.07951936  1
  O2-  O388  1  0.74995105  -0.00263755  0.65604129  1
  O2-  O389  1  0.75020638  0.67109216  0.17080970  1
  O2-  O390  1  0.24982438  0.33281784  0.42016218  1
  O2-  O391  1  0.25031425  0.67753204  0.83546398  1
  O2-  O392  1  0.74994148  -0.00011252  0.90615646  1
  O2-  O393  1  0.74965139  0.66878223  0.65430744  1
  O2-  O394  1  0.24996796  0.00191938  0.09464289  1
  O2-  O395  1  0.24989801  0.32912775  0.65851327  1
  O2-  O396  1  0.24997139  0.16130960  0.33737155  1
  O2-  O397  1  0.24964219  0.85202932  0.86109475  1
  O2-  O398  1  0.74999677  0.17951524  0.61253459  1
  O2-  O399  1  0.25001876  0.51152058  0.13281785  1
  O2-  O400  1  0.75007913  0.83395360  0.09516887  1
  O2-  O401  1  0.75004130  0.83419634  0.93226880  1
  O2-  O402  1  0.24985352  0.85802270  0.65530518  1
  O2-  O403  1  0.74993669  0.82944188  0.61608666  1
  O2-  O404  1  0.75003842  0.16614000  0.69815544  1
  O2-  O405  1  0.74972549  0.16688255  0.11314416  1
  O2-  O406  1  0.74987941  0.50003161  0.31902601  1
  O2-  O407  1  0.74999690  0.17920532  0.38981403  1
  O2-  O408  1  0.25010753  0.16028022  0.15930196  1
  O2-  O409  1  0.74997468  0.49885667  0.59007496  1
  O2-  O410  1  0.25001509  0.82390412  0.94443115  1
  O2-  O411  1  0.25007559  0.51327745  0.62019899  1
  O2-  O412  1  0.25005571  0.82901645  0.33041187  1
  O2-  O413  1  0.75001141  0.83365425  0.81698016  1
  O2-  O414  1  0.74996912  0.17313631  0.30188937  1
  O2-  O415  1  0.25003648  0.51961536  0.38518051  1
  O2-  O416  1  0.74979166  0.49970299  0.43092336  1
  O2-  O417  1  0.74991433  0.49971609  0.10822971  1
  O2-  O418  1  0.25019004  0.82480080  0.57614755  1
  O2-  O419  1  0.25003109  0.83769970  0.08986144  1
  O2-  O420  1  0.47139813  0.33205693  0.37471811  1
  O2-  O421  1  0.46991560  0.33284836  0.63132776  1
  O2-  O422  1  0.52342941  0.33798393  0.13024882  1
  O2-  O423  1  0.97220099  -0.00798337  0.37665962  1
  O2-  O424  1  0.95934575  0.67382306  0.37626887  1
  O2-  O425  1  0.45813563  0.00504822  0.13492524  1
  O2-  O426  1  0.96279180  0.32991729  0.38287572  1
  O2-  O427  1  0.02941016  0.00001120  0.62523692  1
  O2-  O428  1  0.48161428  -0.00783259  0.62841433  1
  O2-  O429  1  0.97543926  0.66171277  0.62009720  1
  O2-  O430  1  0.47551016  0.66331113  0.38014352  1
  O2-  O431  1  0.96935273  0.33705761  0.11871189  1
  O2-  O432  1  0.47824568  0.66161539  0.13344281  1
  O2-  O433  1  0.04019984  0.67736861  0.36585753  1
  O2-  O434  1  0.97509167  0.67036022  0.87891132  1
  O2-  O435  1  0.03315230  0.32803360  0.13304169  1
  O2-  O436  1  0.52781907  0.33292975  0.87548231  1
  O2-  O437  1  0.04301116  0.33413381  0.37329459  1
  O2-  O438  1  0.02901661  0.33580427  0.87716620  1
  O2-  O439  1  0.54089418  0.00561835  0.13171533  1
  O2-  O440  1  0.04307082  0.33433560  0.62176876  1
  O2-  O441  1  0.96103534  0.33633822  0.63460940  1
  O2-  O442  1  0.47176209  0.66633161  0.62524474  1
  O2-  O443  1  0.53183541  0.33981085  0.61718841  1
