# generated using pymatgen
data_La7(Ru4O11)2
_symmetry_space_group_name_H-M   'P 1'
_cell_length_a   23.99172770
_cell_length_b   16.83278189
_cell_length_c   15.42826267
_cell_angle_alpha   89.99993869
_cell_angle_beta   89.99985262
_cell_angle_gamma   89.99853582
_symmetry_Int_Tables_number   1
_chemical_formula_structural   La7(Ru4O11)2
_chemical_formula_sum   'La84 Ru96 O264'
_cell_volume   6230.66560828
_cell_formula_units_Z   12
loop_
 _symmetry_equiv_pos_site_id
 _symmetry_equiv_pos_as_xyz
  1  'x, y, z'
loop_
 _atom_type_symbol
 _atom_type_oxidation_number
  La3+  3.0
  Ru4+  4.0
  O2-  -2.0
loop_
 _atom_site_type_symbol
 _atom_site_label
 _atom_site_symmetry_multiplicity
 _atom_site_fract_x
 _atom_site_fract_y
 _atom_site_fract_z
 _atom_site_occupancy
  La3+  La0  1  0.14455733  0.00257014  0.12293101  1
  La3+  La1  1  0.13983678  0.00135247  0.37608515  1
  La3+  La2  1  0.13891417  -0.00198629  0.61834525  1
  La3+  La3  1  0.13614407  0.00028271  0.87873410  1
  La3+  La4  1  0.14251752  0.33419894  0.12261999  1
  La3+  La5  1  0.14187409  0.33413829  0.37516622  1
  La3+  La6  1  0.14090190  0.33316282  0.62564874  1
  La3+  La7  1  0.13754723  0.33634105  0.87418119  1
  La3+  La8  1  0.14107653  0.66515328  0.12472837  1
  La3+  La9  1  0.14284357  0.66544107  0.37702256  1
  La3+  La10  1  0.13690369  0.66733149  0.62076703  1
  La3+  La11  1  0.13805327  0.66706197  0.87560753  1
  La3+  La12  1  0.63311460  0.00094514  0.12781924  1
  La3+  La13  1  0.64273237  0.00264315  0.37205177  1
  La3+  La14  1  0.63933309  0.00067274  0.62601454  1
  La3+  La15  1  0.63982447  -0.00158177  0.87662511  1
  La3+  La16  1  0.63703699  0.33333041  0.12425039  1
  La3+  La17  1  0.63937043  0.33402002  0.37959630  1
  La3+  La18  1  0.64193253  0.33378507  0.62198569  1
  La3+  La19  1  0.63342480  0.33529844  0.87365910  1
  La3+  La20  1  0.63707000  0.66448209  0.12621244  1
  La3+  La21  1  0.63677765  0.66294041  0.37541066  1
  La3+  La22  1  0.63582454  0.67042201  0.62897087  1
  La3+  La23  1  0.64214239  0.66457532  0.87414403  1
  La3+  La24  1  0.35591072  0.00474436  0.12516740  1
  La3+  La25  1  0.36040411  0.00221589  0.37127451  1
  La3+  La26  1  0.36605920  0.00071374  0.62713571  1
  La3+  La27  1  0.36908888  -0.00032024  0.87681536  1
  La3+  La28  1  0.35949599  0.33264422  0.12667908  1
  La3+  La29  1  0.36017365  0.33291628  0.37111560  1
  La3+  La30  1  0.35829612  0.33507371  0.62561088  1
  La3+  La31  1  0.36104394  0.33875208  0.87630171  1
  La3+  La32  1  0.35660418  0.66510271  0.12519750  1
  La3+  La33  1  0.35519297  0.66656296  0.37814221  1
  La3+  La34  1  0.36585218  0.66267293  0.62483994  1
  La3+  La35  1  0.36042482  0.66489474  0.87600310  1
  La3+  La36  1  0.86788702  0.00215358  0.12983380  1
  La3+  La37  1  0.85966514  0.00101862  0.37334279  1
  La3+  La38  1  0.85867716  -0.00062691  0.62216464  1
  La3+  La39  1  0.86326249  -0.00029442  0.87174884  1
  La3+  La40  1  0.85538869  0.32809923  0.13035214  1
  La3+  La41  1  0.86216670  0.33487604  0.37983468  1
  La3+  La42  1  0.85867045  0.33309545  0.62009705  1
  La3+  La43  1  0.86308012  0.33448326  0.87517498  1
  La3+  La44  1  0.86523236  0.66514362  0.12265812  1
  La3+  La45  1  0.86852152  0.65680940  0.38346834  1
  La3+  La46  1  0.87200483  0.65842387  0.61545244  1
  La3+  La47  1  0.85197622  0.66666755  0.87267613  1
  La3+  La48  1  0.50184884  0.50349958  0.36502199  1
  La3+  La49  1  -0.00188003  0.50973957  0.87294193  1
  La3+  La50  1  0.49791968  0.17043407  0.61903154  1
  La3+  La51  1  0.49766343  0.84003303  0.61727182  1
  La3+  La52  1  0.50063401  0.83672929  0.13195469  1
  La3+  La53  1  0.50118603  0.49320625  0.38360031  1
  La3+  La54  1  -0.00174322  0.82923372  0.11620583  1
  La3+  La55  1  -0.00282528  0.50164726  0.38098656  1
  La3+  La56  1  0.49683997  0.16441313  0.36252406  1
  La3+  La57  1  0.00338516  0.17827219  0.87802564  1
  La3+  La58  1  0.50145484  0.83246091  0.86796123  1
  La3+  La59  1  0.50145443  0.16042737  0.11910934  1
  La3+  La60  1  0.50074334  0.50174484  0.85862373  1
  La3+  La61  1  0.00504861  0.50256191  0.14261938  1
  La3+  La62  1  0.00631735  0.83704513  0.62754374  1
  La3+  La63  1  0.49802382  0.50143425  0.62221856  1
  La3+  La64  1  0.00363497  0.50499906  0.85987391  1
  La3+  La65  1  -0.00516359  0.50654662  0.60406245  1
  La3+  La66  1  0.00167829  0.83568057  0.60617889  1
  La3+  La67  1  0.50081436  0.50146685  0.13109219  1
  La3+  La68  1  0.00762836  0.49818005  0.12105168  1
  La3+  La69  1  0.50092856  0.50152292  0.87599322  1
  La3+  La70  1  0.50344142  0.82673463  0.38482465  1
  La3+  La71  1  0.00616276  0.17492352  0.89357240  1
  La3+  La72  1  0.74874484  0.18430369  -0.03004268  1
  La3+  La73  1  0.24876221  0.89350102  0.25927974  1
  La3+  La74  1  0.75035812  0.83557561  0.47394631  1
  La3+  La75  1  0.24945552  0.82789669  0.74019978  1
  La3+  La76  1  0.75128716  0.54154228  0.71045567  1
  La3+  La77  1  0.74967992  0.53059802  0.25815180  1
  La3+  La78  1  0.74942843  0.89049012  0.23117167  1
  La3+  La79  1  0.74985303  0.16933082  0.49855052  1
  La3+  La80  1  0.75000266  0.82462559  -0.02076965  1
  La3+  La81  1  0.25034757  0.83109662  -0.04939131  1
  La3+  La82  1  0.25022755  0.21630272  0.79855789  1
  La3+  La83  1  0.24973309  0.49761863  0.49876265  1
  Ru4+  Ru84  1  0.00147276  -0.00099501  0.00339696  1
  Ru4+  Ru85  1  -0.00229688  0.00044948  0.25682919  1
  Ru4+  Ru86  1  0.00261523  0.00626518  0.48957475  1
  Ru4+  Ru87  1  0.00012176  0.00260953  0.75116110  1
  Ru4+  Ru88  1  -0.00088727  0.33088538  0.00421546  1
  Ru4+  Ru89  1  0.00059648  0.33121925  0.25474562  1
  Ru4+  Ru90  1  -0.00130618  0.32874417  0.50058712  1
  Ru4+  Ru91  1  -0.00063776  0.33588150  0.74626014  1
  Ru4+  Ru92  1  -0.00048286  0.67087551  0.00443393  1
  Ru4+  Ru93  1  -0.00208380  0.67481066  0.25682764  1
  Ru4+  Ru94  1  -0.00210307  0.66462814  0.50344949  1
  Ru4+  Ru95  1  0.00174906  0.66899039  0.74780249  1
  Ru4+  Ru96  1  0.50193064  0.00270876  -0.00306628  1
  Ru4+  Ru97  1  0.50030296  -0.00795801  0.24900153  1
  Ru4+  Ru98  1  0.50015778  0.00057843  0.49728587  1
  Ru4+  Ru99  1  0.50092140  0.00446324  0.75534163  1
  Ru4+  Ru100  1  0.50368293  0.33885100  -0.00616328  1
  Ru4+  Ru101  1  0.50643440  0.33869780  0.25218993  1
  Ru4+  Ru102  1  0.49789285  0.33246024  0.50255957  1
  Ru4+  Ru103  1  0.49588453  0.32398811  0.75179436  1
  Ru4+  Ru104  1  0.50266070  0.66977943  0.00114794  1
  Ru4+  Ru105  1  0.50230741  0.66418588  0.24631141  1
  Ru4+  Ru106  1  0.50022071  0.67161947  0.50045061  1
  Ru4+  Ru107  1  0.50374474  0.67523300  0.74952906  1
  Ru4+  Ru108  1  0.11297564  0.16129748  0.00539290  1
  Ru4+  Ru109  1  0.11402427  0.16578634  0.25079810  1
  Ru4+  Ru110  1  0.10954313  0.16664008  0.50114267  1
  Ru4+  Ru111  1  0.11026646  0.16465907  0.74632715  1
  Ru4+  Ru112  1  0.11537630  0.49757435  -0.00115606  1
  Ru4+  Ru113  1  0.11538352  0.50149565  0.25277473  1
  Ru4+  Ru114  1  0.11188684  0.49920325  0.49983325  1
  Ru4+  Ru115  1  0.11397614  0.49437047  0.74684882  1
  Ru4+  Ru116  1  0.11032816  0.83258546  -0.00095930  1
  Ru4+  Ru117  1  0.10956024  0.83282028  0.25004025  1
  Ru4+  Ru118  1  0.11716776  0.83286092  0.49733140  1
  Ru4+  Ru119  1  0.10801608  0.83151282  0.75330781  1
  Ru4+  Ru120  1  0.60771981  0.16721481  -0.00016508  1
  Ru4+  Ru121  1  0.61467889  0.16196328  0.25035864  1
  Ru4+  Ru122  1  0.61095116  0.16884139  0.49800526  1
  Ru4+  Ru123  1  0.61203029  0.16738815  0.75213179  1
  Ru4+  Ru124  1  0.61177938  0.50405676  0.00097180  1
  Ru4+  Ru125  1  0.60635412  0.49902778  0.24938920  1
  Ru4+  Ru126  1  0.61576419  0.49711470  0.49987853  1
  Ru4+  Ru127  1  0.61573701  0.50574098  0.74899401  1
  Ru4+  Ru128  1  0.61058402  0.83454254  0.00093944  1
  Ru4+  Ru129  1  0.61129066  0.83106030  0.25017358  1
  Ru4+  Ru130  1  0.61079424  0.82978536  0.49978935  1
  Ru4+  Ru131  1  0.61198902  0.82574313  0.75045587  1
  Ru4+  Ru132  1  0.38634339  0.16365232  -0.00401085  1
  Ru4+  Ru133  1  0.38218597  0.16569804  0.24943338  1
  Ru4+  Ru134  1  0.38711007  0.16794232  0.50049301  1
  Ru4+  Ru135  1  0.38924759  0.16959396  0.74991227  1
  Ru4+  Ru136  1  0.38788029  0.49671164  -0.00021356  1
  Ru4+  Ru137  1  0.38513890  0.50322014  0.24878047  1
  Ru4+  Ru138  1  0.38856263  0.49487152  0.49965848  1
  Ru4+  Ru139  1  0.38309492  0.49563855  0.74999699  1
  Ru4+  Ru140  1  0.38792848  0.83295906  0.00065695  1
  Ru4+  Ru141  1  0.39146588  0.83592063  0.24774877  1
  Ru4+  Ru142  1  0.38415312  0.83305854  0.50018056  1
  Ru4+  Ru143  1  0.38569979  0.82504406  0.74956185  1
  Ru4+  Ru144  1  0.89162298  0.16412989  0.00120735  1
  Ru4+  Ru145  1  0.88587202  0.16405899  0.24981875  1
  Ru4+  Ru146  1  0.89216301  0.16446961  0.50125122  1
  Ru4+  Ru147  1  0.88710173  0.16427510  0.74657935  1
  Ru4+  Ru148  1  0.88844321  0.50687419  -0.00278242  1
  Ru4+  Ru149  1  0.88985193  0.50393555  0.25486420  1
  Ru4+  Ru150  1  0.88449801  0.50246316  0.49700227  1
  Ru4+  Ru151  1  0.89074753  0.49842635  0.74569338  1
  Ru4+  Ru152  1  0.89257242  0.83346609  -0.00200970  1
  Ru4+  Ru153  1  0.88912977  0.83540923  0.25252300  1
  Ru4+  Ru154  1  0.89045805  0.83373875  0.49766102  1
  Ru4+  Ru155  1  0.88550445  0.82451288  0.75688855  1
  Ru4+  Ru156  1  0.74944521  0.38989222  0.26119693  1
  Ru4+  Ru157  1  0.74998538  0.91315648  0.75642564  1
  Ru4+  Ru158  1  0.75085262  0.94818994  0.00146003  1
  Ru4+  Ru159  1  0.75095327  0.31571601  -0.01818648  1
  Ru4+  Ru160  1  0.75029413  0.39305083  0.73871742  1
  Ru4+  Ru161  1  0.74941660  0.43940736  0.01690284  1
  Ru4+  Ru162  1  0.25013187  0.57410034  0.00701716  1
  Ru4+  Ru163  1  0.74990998  0.24737953  0.74515427  1
  Ru4+  Ru164  1  0.75062598  0.73302796  0.26505115  1
  Ru4+  Ru165  1  0.75019910  0.69808520  0.00024899  1
  Ru4+  Ru166  1  0.74999949  0.08698181  0.74959243  1
  Ru4+  Ru167  1  0.24998240  0.95668328  0.75607586  1
  Ru4+  Ru168  1  0.24979711  0.08421408  0.74225095  1
  Ru4+  Ru169  1  0.25033652  0.07638624  0.49851285  1
  Ru4+  Ru170  1  0.24925462  0.24363838  0.24936926  1
  Ru4+  Ru171  1  0.74940829  0.69571349  0.50982197  1
  Ru4+  Ru172  1  0.24983325  0.73248211  0.24855071  1
  Ru4+  Ru173  1  0.74961165  0.97780645  0.50138263  1
  Ru4+  Ru174  1  0.75083625  0.06838752  0.03122852  1
  Ru4+  Ru175  1  0.74987615  0.24810222  0.25907608  1
  Ru4+  Ru176  1  0.24972282  0.69793744  0.71351425  1
  Ru4+  Ru177  1  0.24987171  0.25741995  0.49996436  1
  Ru4+  Ru178  1  0.24986691  0.56475441  0.74824672  1
  Ru4+  Ru179  1  0.24972060  0.24816837  0.00379394  1
  O2-  O180  1  0.16853363  0.08350070  -0.00368027  1
  O2-  O181  1  0.16731677  0.08375244  0.24785744  1
  O2-  O182  1  0.16720572  0.08169066  0.50000620  1
  O2-  O183  1  0.16993033  0.08333295  0.75341706  1
  O2-  O184  1  0.16437105  0.41338561  -0.00035015  1
  O2-  O185  1  0.16376082  0.41369107  0.25031820  1
  O2-  O186  1  0.16754848  0.41585089  0.49879020  1
  O2-  O187  1  0.16903104  0.41448450  0.74855261  1
  O2-  O188  1  0.16634918  0.74827543  -0.00107786  1
  O2-  O189  1  0.16582121  0.74601148  0.25097787  1
  O2-  O190  1  0.16689509  0.74856811  0.50212717  1
  O2-  O191  1  0.16766158  0.74346535  0.74927080  1
  O2-  O192  1  0.66441957  0.07937741  -0.00011753  1
  O2-  O193  1  0.66762469  0.08165424  0.24800027  1
  O2-  O194  1  0.66855809  0.07950646  0.50284384  1
  O2-  O195  1  0.66746031  0.08251292  0.74951167  1
  O2-  O196  1  0.66741079  0.41241985  0.00131913  1
  O2-  O197  1  0.66749328  0.41147430  0.24993624  1
  O2-  O198  1  0.66408384  0.41290675  0.50002996  1
  O2-  O199  1  0.66630434  0.41285366  0.74842668  1
  O2-  O200  1  0.66678439  0.74235956  0.00151879  1
  O2-  O201  1  0.66815493  0.74695006  0.25167861  1
  O2-  O202  1  0.66711113  0.74370203  0.50077365  1
  O2-  O203  1  0.66806340  0.74844998  0.74496997  1
  O2-  O204  1  0.33129039  0.25150609  -0.00221335  1
  O2-  O205  1  0.33414864  0.25289547  0.25019354  1
  O2-  O206  1  0.33540555  0.25313818  0.49955687  1
  O2-  O207  1  0.33495990  0.25504664  0.75102336  1
  O2-  O208  1  0.33575355  0.58756212  0.00038879  1
  O2-  O209  1  0.33581169  0.58547903  0.25072274  1
  O2-  O210  1  0.33120283  0.58615657  0.50366724  1
  O2-  O211  1  0.33365483  0.58486587  0.74746399  1
  O2-  O212  1  0.33312038  0.91772970  -0.00567259  1
  O2-  O213  1  0.33874999  0.92187685  0.25127177  1
  O2-  O214  1  0.33503381  0.91991830  0.50305922  1
  O2-  O215  1  0.33477685  0.92209349  0.74985884  1
  O2-  O216  1  0.83519314  0.25438346  -0.00069199  1
  O2-  O217  1  0.83378222  0.25166078  0.25453543  1
  O2-  O218  1  0.83486546  0.24976289  0.49646638  1
  O2-  O219  1  0.83427913  0.24988576  0.74968561  1
  O2-  O220  1  0.83155872  0.58282011  0.00541956  1
  O2-  O221  1  0.83725470  0.58830140  0.25319600  1
  O2-  O222  1  0.82832043  0.58754513  0.50148870  1
  O2-  O223  1  0.83677355  0.58537088  0.74422363  1
  O2-  O224  1  0.83750855  0.92271013  -0.00031399  1
  O2-  O225  1  0.83793258  0.92363596  0.24876496  1
  O2-  O226  1  0.82998761  0.92233059  0.49851068  1
  O2-  O227  1  0.83572581  0.91828753  0.75272698  1
  O2-  O228  1  0.16779330  0.24958340  -0.00196379  1
  O2-  O229  1  0.16343097  0.25083741  0.24943312  1
  O2-  O230  1  0.16542114  0.25149343  0.49833399  1
  O2-  O231  1  0.16783667  0.25300853  0.74983694  1
  O2-  O232  1  0.16782971  0.58682891  0.00044540  1
  O2-  O233  1  0.16679212  0.58449982  0.25059031  1
  O2-  O234  1  0.16903050  0.58383856  0.50220945  1
  O2-  O235  1  0.16608450  0.58339892  0.74860607  1
  O2-  O236  1  0.16662788  0.91690968  -0.00462716  1
  O2-  O237  1  0.15715266  0.92284376  0.24897626  1
  O2-  O238  1  0.16807281  0.91712677  0.50021423  1
  O2-  O239  1  0.16385012  0.92037343  0.74958860  1
  O2-  O240  1  0.66494513  0.25610505  -0.00123557  1
  O2-  O241  1  0.66522756  0.25299779  0.24999915  1
  O2-  O242  1  0.66908019  0.25209285  0.49843799  1
  O2-  O243  1  0.66508958  0.25113849  0.74875397  1
  O2-  O244  1  0.66353329  0.58385618  0.00325778  1
  O2-  O245  1  0.66236235  0.58969212  0.25180299  1
  O2-  O246  1  0.66693115  0.58971341  0.50219853  1
  O2-  O247  1  0.66649623  0.58882687  0.74593976  1
  O2-  O248  1  0.66628996  0.92169655  0.00059867  1
  O2-  O249  1  0.66053948  0.92378634  0.24962878  1
  O2-  O250  1  0.66768498  0.92342719  0.50174841  1
  O2-  O251  1  0.66432432  0.91826369  0.75093960  1
  O2-  O252  1  0.33423823  0.08228620  -0.00490873  1
  O2-  O253  1  0.33426771  0.08356849  0.25136887  1
  O2-  O254  1  0.33412613  0.07920975  0.50191081  1
  O2-  O255  1  0.33268248  0.07899652  0.75156635  1
  O2-  O256  1  0.33606270  0.41337935  -0.00103049  1
  O2-  O257  1  0.33444970  0.41353538  0.25092934  1
  O2-  O258  1  0.33261101  0.41479182  0.49942144  1
  O2-  O259  1  0.33291976  0.41389723  0.74973500  1
  O2-  O260  1  0.33376966  0.74784236  -0.00127890  1
  O2-  O261  1  0.33570961  0.74770526  0.25037940  1
  O2-  O262  1  0.33663812  0.74692645  0.50460402  1
  O2-  O263  1  0.33401238  0.74172295  0.74850733  1
  O2-  O264  1  0.83640151  0.07890852  -0.00006730  1
  O2-  O265  1  0.83696245  0.08151481  0.24702926  1
  O2-  O266  1  0.83113125  0.08078064  0.49979748  1
  O2-  O267  1  0.82989828  0.08164306  0.75357138  1
  O2-  O268  1  0.83193808  0.41630011  -0.00153889  1
  O2-  O269  1  0.83239753  0.41206505  0.25203337  1
  O2-  O270  1  0.83919499  0.41341021  0.49982239  1
  O2-  O271  1  0.83132450  0.41133595  0.74740739  1
  O2-  O272  1  0.83305778  0.74563610  0.00250591  1
  O2-  O273  1  0.83258072  0.74654417  0.25211928  1
  O2-  O274  1  0.83428218  0.74324167  0.49991280  1
  O2-  O275  1  0.83179265  0.75004153  0.74244456  1
  O2-  O276  1  0.54450079  0.75757855  0.69334368  1
  O2-  O277  1  0.95189676  0.11239044  0.79525154  1
  O2-  O278  1  0.05060627  0.76795672  0.23840292  1
  O2-  O279  1  0.04635024  0.76687756  0.98617947  1
  O2-  O280  1  0.55010016  0.56844023  0.49353393  1
  O2-  O281  1  0.45398738  0.75625043  0.26139436  1
  O2-  O282  1  0.94484197  0.75677222  0.23356411  1
  O2-  O283  1  0.44948976  0.09508553  0.99088754  1
  O2-  O284  1  0.05343151  0.24424666  0.02183504  1
  O2-  O285  1  0.44502874  0.08786420  0.72397130  1
  O2-  O286  1  0.54627733  0.42976846  0.73033536  1
  O2-  O287  1  0.55014967  0.09734969  0.51446340  1
  O2-  O288  1  0.44408767  0.25279501  0.03326623  1
  O2-  O289  1  0.54740102  0.24243958  0.73066241  1
  O2-  O290  1  0.95517455  0.90569558  0.98443094  1
  O2-  O291  1  0.04494444  0.42611763  0.48594765  1
  O2-  O292  1  0.55005116  0.09770661  0.98456854  1
  O2-  O293  1  0.55127423  0.90251376  0.49444357  1
  O2-  O294  1  0.95176640  0.42749274  0.24307252  1
  O2-  O295  1  0.95005434  0.76633927  0.70873399  1
  O2-  O296  1  0.96780933  0.44499526  -0.00984745  1
  O2-  O297  1  0.44926201  0.42563877  0.76888785  1
  O2-  O298  1  0.44995379  0.10216185  0.23592809  1
  O2-  O299  1  0.45475380  0.90332274  0.99120384  1
  O2-  O300  1  0.04004048  0.10532380  0.22158024  1
  O2-  O301  1  0.45826477  0.88856534  0.29132325  1
  O2-  O302  1  0.55157551  0.42953259  0.76873863  1
  O2-  O303  1  0.45414786  0.43467794  0.25707177  1
  O2-  O304  1  0.96307275  0.43867395  0.97547133  1
  O2-  O305  1  0.95211751  0.22919803  0.01462708  1
  O2-  O306  1  0.94793055  0.57054437  0.51539140  1
  O2-  O307  1  0.44756770  0.89828843  0.75928895  1
  O2-  O308  1  0.55100477  0.90062397  0.26257450  1
  O2-  O309  1  0.44822743  0.56870554  0.73689592  1
  O2-  O310  1  0.45077248  0.09529784  0.51100921  1
  O2-  O311  1  0.45052349  0.90270823  0.48814571  1
  O2-  O312  1  0.95198217  0.09987411  0.50908713  1
  O2-  O313  1  0.55390596  0.75694047  0.98390478  1
  O2-  O314  1  0.54770339  0.90777405  0.73576462  1
  O2-  O315  1  0.95349445  0.56116744  0.49023562  1
  O2-  O316  1  0.54838081  0.57188899  0.73206945  1
  O2-  O317  1  0.05108889  0.57413268  0.48210853  1
  O2-  O318  1  0.95005054  0.57499673  0.04525915  1
  O2-  O319  1  0.45058285  0.57150089  0.48741594  1
  O2-  O320  1  0.03293134  0.12787348  0.74295647  1
  O2-  O321  1  0.53678845  0.11140933  0.75833159  1
  O2-  O322  1  0.44871525  0.75853066  0.98461344  1
  O2-  O323  1  0.45366530  0.23827225  0.23381124  1
  O2-  O324  1  0.43788182  0.92932599  0.77262715  1
  O2-  O325  1  0.06473578  0.92297126  0.52406528  1
  O2-  O326  1  0.55814775  0.75062282  0.98305897  1
  O2-  O327  1  0.93041986  0.42219487  0.81735955  1
  O2-  O328  1  0.06700110  0.08292788  0.93562920  1
  O2-  O329  1  0.06479788  0.26362765  0.53068511  1
  O2-  O330  1  0.93883304  0.93242682  0.27805728  1
  O2-  O331  1  0.08591439  0.04644216  0.71839848  1
  O2-  O332  1  0.93361012  0.41613940  0.68067476  1
  O2-  O333  1  0.93994705  0.75201980  0.23169779  1
  O2-  O334  1  0.44066640  0.07209289  0.22002527  1
  O2-  O335  1  0.05957344  0.59619051  0.28555200  1
  O2-  O336  1  0.42795845  0.93879405  0.18247471  1
  O2-  O337  1  0.56478232  0.92531168  0.02243180  1
  O2-  O338  1  0.93236052  0.60224636  0.46544342  1
  O2-  O339  1  0.56798368  0.08403346  0.31717536  1
  O2-  O340  1  0.06217622  0.74047779  0.52283493  1
  O2-  O341  1  0.44443230  0.25244709  0.03581338  1
  O2-  O342  1  0.93603737  0.92886533  0.47295346  1
  O2-  O343  1  0.06943629  0.42089920  0.81407802  1
  O2-  O344  1  0.06469684  0.74305586  0.78288536  1
  O2-  O345  1  0.56440918  0.26166755  0.03807943  1
  O2-  O346  1  0.06128673  0.40870723  0.67367977  1
  O2-  O347  1  0.06956290  0.06589417  0.28469098  1
  O2-  O348  1  0.57462589  0.05335496  0.78798930  1
  O2-  O349  1  0.06434802  0.25828407  0.77541769  1
  O2-  O350  1  0.56276611  0.41342523  0.97213165  1
  O2-  O351  1  0.92312577  0.36406945  0.06590911  1
  O2-  O352  1  0.43066522  0.26778675  0.94655606  1
  O2-  O353  1  0.06255301  0.59251294  0.78325460  1
  O2-  O354  1  0.91946377  0.58337333  0.90983317  1
  O2-  O355  1  0.06609933  0.59288604  0.01854526  1
  O2-  O356  1  0.06697271  0.07745964  0.47573086  1
  O2-  O357  1  0.56800104  0.08257410  0.18408213  1
  O2-  O358  1  0.55469157  0.74951320  0.69440878  1
  O2-  O359  1  0.44045656  0.07897781  0.71754670  1
  O2-  O360  1  0.57682863  0.73814444  0.82432627  1
  O2-  O361  1  0.05890144  0.25150747  0.02628868  1
  O2-  O362  1  0.43879040  0.59873797  0.72164722  1
  O2-  O363  1  0.91868687  0.05898073  0.69742720  1
  O2-  O364  1  0.93440877  0.74286002  0.02651824  1
  O2-  O365  1  0.94465117  0.75885116  0.70119700  1
  O2-  O366  1  0.91907376  0.74063811  0.83426086  1
  O2-  O367  1  0.94021648  0.58059536  0.05070783  1
  O2-  O368  1  0.43569492  0.26065163  0.22066263  1
  O2-  O369  1  0.56206539  0.26372124  0.46507985  1
  O2-  O370  1  0.56646338  0.74012824  0.22273678  1
  O2-  O371  1  0.06225790  0.06876161  0.06930543  1
  O2-  O372  1  0.24977624  0.33293094  0.07532821  1
  O2-  O373  1  0.74970576  -0.00221035  0.65357583  1
  O2-  O374  1  0.24997584  0.33622187  0.32677644  1
  O2-  O375  1  0.74962462  0.32431055  0.85229051  1
  O2-  O376  1  0.25055137  0.33434819  0.59602856  1
  O2-  O377  1  0.74911565  0.62950751  0.09371481  1
  O2-  O378  1  0.25001803  0.00268891  0.16847602  1
  O2-  O379  1  0.75005693  0.65662201  0.18113157  1
  O2-  O380  1  0.74906142  0.33912799  0.11291150  1
  O2-  O381  1  0.25031093  0.67352914  0.94512364  1
  O2-  O382  1  0.25023966  0.00895466  0.33069713  1
  O2-  O383  1  0.74994919  -0.00800154  0.36231888  1
  O2-  O384  1  0.25024765  0.65155294  0.33364852  1
  O2-  O385  1  0.74933453  0.66737898  0.81698788  1
  O2-  O386  1  0.25012044  0.33502810  0.16904028  1
  O2-  O387  1  0.25040548  0.66491471  0.42385934  1
  O2-  O388  1  0.25031677  0.34331354  0.41893860  1
  O2-  O389  1  0.25053939  -0.01009754  0.42036870  1
  O2-  O390  1  0.75025572  0.00147778  0.84611489  1
  O2-  O391  1  0.25051916  0.66241591  0.14745396  1
  O2-  O392  1  0.74905732  0.33438094  0.61556588  1
  O2-  O393  1  0.25062704  0.65503808  0.82762684  1
  O2-  O394  1  0.74857590  0.63495939  0.90011453  1
  O2-  O395  1  0.24943421  -0.00069694  0.07886735  1
  O2-  O396  1  0.25028981  0.81279496  0.36920023  1
  O2-  O397  1  0.75008977  0.15469106  0.19839653  1
  O2-  O398  1  0.25011889  0.50407435  0.08926785  1
  O2-  O399  1  0.74984246  0.81492940  0.34294408  1
  O2-  O400  1  0.75029966  0.16775998  0.65412908  1
  O2-  O401  1  0.25024971  0.49856941  0.91979199  1
  O2-  O402  1  0.25066118  0.80829939  0.15784587  1
  O2-  O403  1  0.24995616  0.83320027  0.45029573  1
  O2-  O404  1  0.74962811  0.50755812  0.93067792  1
  O2-  O405  1  0.74999386  0.83291033  0.60556465  1
  O2-  O406  1  0.24999174  0.16859337  0.41766203  1
  O2-  O407  1  0.74988129  0.17481685  0.34754305  1
  O2-  O408  1  0.75012212  0.83866256  0.84646663  1
  O2-  O409  1  0.25035418  0.49106143  0.82994460  1
  O2-  O410  1  0.25018814  0.16649393  0.57035368  1
  O2-  O411  1  0.75020409  0.16708661  0.11354239  1
  O2-  O412  1  0.24986236  0.84102350  0.07752569  1
  O2-  O413  1  0.74977502  0.49080990  0.84181699  1
  O2-  O414  1  0.25015717  0.16705390  0.66064810  1
  O2-  O415  1  0.75004389  0.81789971  0.11991387  1
  O2-  O416  1  0.74958852  0.49507662  0.38809805  1
  O2-  O417  1  0.24993285  0.16208454  0.32674597  1
  O2-  O418  1  0.75008580  0.16563992  0.83786455  1
  O2-  O419  1  0.74996559  0.82433268  0.69177846  1
  O2-  O420  1  0.04012610  0.33133719  0.89641490  1
  O2-  O421  1  0.47176792  0.33272745  0.62321842  1
  O2-  O422  1  0.52216338  0.65650581  0.12280667  1
  O2-  O423  1  0.99055123  0.66315123  0.87676420  1
  O2-  O424  1  0.02101812  -0.01021903  0.37586913  1
  O2-  O425  1  0.97095222  -0.00087898  0.12546576  1
  O2-  O426  1  0.97703545  0.32279991  0.61342352  1
  O2-  O427  1  0.52515324  0.32818133  0.86977628  1
  O2-  O428  1  0.97025531  0.66575949  0.13740862  1
  O2-  O429  1  0.04500578  0.66017502  0.63904676  1
  O2-  O430  1  0.04232860  0.67010455  0.12535427  1
  O2-  O431  1  0.45701998  0.01118919  0.36780545  1
  O2-  O432  1  0.47636949  0.00177282  0.87892236  1
  O2-  O433  1  0.47244576  0.33159122  0.37816346  1
  O2-  O434  1  0.51601097  0.64317706  0.87836475  1
  O2-  O435  1  0.97213307  0.33554590  0.37881290  1
  O2-  O436  1  0.51893936  -0.00664294  0.12289355  1
  O2-  O437  1  0.53481940  -0.00873753  0.39080840  1
  O2-  O438  1  0.02654848  0.00070264  0.62274469  1
  O2-  O439  1  0.95957862  0.65689502  0.61728394  1
  O2-  O440  1  0.95653630  0.30971364  0.87670679  1
  O2-  O441  1  0.02338366  -0.00964376  0.86573789  1
  O2-  O442  1  0.96947120  -0.01305448  0.61675447  1
  O2-  O443  1  0.52747357  0.66820413  0.37225951  1
