# generated using pymatgen
data_La7(Ru4O11)2
_symmetry_space_group_name_H-M   'P 1'
_cell_length_a   23.98883505
_cell_length_b   16.82823517
_cell_length_c   15.42541823
_cell_angle_alpha   89.99957374
_cell_angle_beta   90.00003053
_cell_angle_gamma   89.99941575
_symmetry_Int_Tables_number   1
_chemical_formula_structural   La7(Ru4O11)2
_chemical_formula_sum   'La84 Ru96 O264'
_cell_volume   6227.08335020
_cell_formula_units_Z   12
loop_
 _symmetry_equiv_pos_site_id
 _symmetry_equiv_pos_as_xyz
  1  'x, y, z'
loop_
 _atom_type_symbol
 _atom_type_oxidation_number
  La3+  3.0
  Ru4+  4.0
  O2-  -2.0
loop_
 _atom_site_type_symbol
 _atom_site_label
 _atom_site_symmetry_multiplicity
 _atom_site_fract_x
 _atom_site_fract_y
 _atom_site_fract_z
 _atom_site_occupancy
  La3+  La0  1  0.13951387  0.00034618  0.12468666  1
  La3+  La1  1  0.13772855  -0.00110474  0.37644604  1
  La3+  La2  1  0.13740805  -0.00129504  0.62295666  1
  La3+  La3  1  0.13848420  -0.00001946  0.87573731  1
  La3+  La4  1  0.13747079  0.33290156  0.12569764  1
  La3+  La5  1  0.13834011  0.33303916  0.37442214  1
  La3+  La6  1  0.13856192  0.33290570  0.62528727  1
  La3+  La7  1  0.13914457  0.33289641  0.87476615  1
  La3+  La8  1  0.13809564  0.66745911  0.12558055  1
  La3+  La9  1  0.13804836  0.66728814  0.37551682  1
  La3+  La10  1  0.13786418  0.66704726  0.62430283  1
  La3+  La11  1  0.13835948  0.66672792  0.87444155  1
  La3+  La12  1  0.63900625  0.00002870  0.12430827  1
  La3+  La13  1  0.63905425  -0.00053763  0.37538548  1
  La3+  La14  1  0.63859096  0.00022965  0.62416767  1
  La3+  La15  1  0.63877345  0.00037944  0.87619264  1
  La3+  La16  1  0.63855919  0.33398648  0.12425153  1
  La3+  La17  1  0.63772857  0.33392249  0.37510710  1
  La3+  La18  1  0.63788423  0.33351120  0.62442592  1
  La3+  La19  1  0.63894968  0.33324345  0.87534317  1
  La3+  La20  1  0.63847313  0.66746303  0.12466467  1
  La3+  La21  1  0.63903921  0.66715278  0.37559176  1
  La3+  La22  1  0.63856924  0.66686245  0.62365807  1
  La3+  La23  1  0.63792274  0.66746472  0.87621152  1
  La3+  La24  1  0.36017168  0.00057232  0.12478330  1
  La3+  La25  1  0.36092073  0.00032018  0.37486433  1
  La3+  La26  1  0.36109849  -0.00028367  0.62426232  1
  La3+  La27  1  0.36158840  -0.00038253  0.87608586  1
  La3+  La28  1  0.36196985  0.33182503  0.12523755  1
  La3+  La29  1  0.36152112  0.33236426  0.37509716  1
  La3+  La30  1  0.36189846  0.33266441  0.62580617  1
  La3+  La31  1  0.36134443  0.33265454  0.87405752  1
  La3+  La32  1  0.36225536  0.66698550  0.12505773  1
  La3+  La33  1  0.36207734  0.66688401  0.37576997  1
  La3+  La34  1  0.36202282  0.66694769  0.62386474  1
  La3+  La35  1  0.36178714  0.66632968  0.87522760  1
  La3+  La36  1  0.86061009  -0.00060029  0.12344627  1
  La3+  La37  1  0.86065913  -0.00058077  0.37516962  1
  La3+  La38  1  0.86117626  0.00019032  0.62425645  1
  La3+  La39  1  0.86125291  0.00053033  0.87657096  1
  La3+  La40  1  0.86147177  0.33328652  0.12402874  1
  La3+  La41  1  0.86207888  0.33423230  0.37559515  1
  La3+  La42  1  0.86202808  0.33373575  0.62524597  1
  La3+  La43  1  0.86143144  0.33287242  0.87532034  1
  La3+  La44  1  0.86220818  0.66728411  0.12478680  1
  La3+  La45  1  0.86140329  0.66641453  0.37463232  1
  La3+  La46  1  0.86138080  0.66613867  0.62383094  1
  La3+  La47  1  0.86225153  0.66687966  0.87662650  1
  La3+  La48  1  0.00061721  0.83394386  0.36596854  1
  La3+  La49  1  0.50007776  0.49920632  0.13410088  1
  La3+  La50  1  0.50004337  0.83661882  0.11392279  1
  La3+  La51  1  0.49952466  0.16659592  0.36556241  1
  La3+  La52  1  -0.00018300  0.16588456  0.38516303  1
  La3+  La53  1  0.50060201  0.83488771  0.36805752  1
  La3+  La54  1  0.50075459  0.83377169  0.61403937  1
  La3+  La55  1  0.00009911  0.16729927  0.63515308  1
  La3+  La56  1  0.50030906  0.16756147  0.63549709  1
  La3+  La57  1  0.50029407  0.83357308  0.13599709  1
  La3+  La58  1  0.49981845  0.50040001  0.63446804  1
  La3+  La59  1  0.49926490  0.49868634  0.38404534  1
  La3+  La60  1  0.49938569  0.16616334  0.61312783  1
  La3+  La61  1  -0.00014121  0.50170726  0.38683058  1
  La3+  La62  1  -0.00019077  0.83324727  0.88618223  1
  La3+  La63  1  -0.00043023  0.49948444  0.86431007  1
  La3+  La64  1  0.00251922  0.83636229  0.63466331  1
  La3+  La65  1  0.00014122  0.16700985  0.88695367  1
  La3+  La66  1  -0.00248098  0.83278496  0.61391296  1
  La3+  La67  1  0.49932331  0.16579272  0.88431590  1
  La3+  La68  1  0.50011804  0.16620358  0.13527596  1
  La3+  La69  1  -0.00110598  0.50095571  0.11315733  1
  La3+  La70  1  0.49944926  0.16533076  0.86724528  1
  La3+  La71  1  0.49991085  0.50183651  0.36725357  1
  La3+  La72  1  0.25010470  0.49870463  0.28051899  1
  La3+  La73  1  0.74985331  0.13753890  0.22127515  1
  La3+  La74  1  0.74996834  0.13995256  0.52854579  1
  La3+  La75  1  0.25009658  0.85891598  -0.01454984  1
  La3+  La76  1  0.25006053  0.47406881  -0.02843269  1
  La3+  La77  1  0.75013528  0.83181695  0.75780656  1
  La3+  La78  1  0.25004065  0.16604454  -0.01344774  1
  La3+  La79  1  0.75000481  0.50067812  0.51117033  1
  La3+  La80  1  0.25003998  0.85991020  0.73114270  1
  La3+  La81  1  0.74987615  0.47132126  0.74954023  1
  La3+  La82  1  0.74997802  0.47542639  -0.02077277  1
  La3+  La83  1  0.25012888  0.46946264  0.49394303  1
  Ru4+  Ru84  1  -0.00020505  -0.00047471  -0.00097858  1
  Ru4+  Ru85  1  0.00128998  -0.00060966  0.25141671  1
  Ru4+  Ru86  1  0.00022085  -0.00055877  0.49747134  1
  Ru4+  Ru87  1  0.00100577  -0.00129848  0.75251201  1
  Ru4+  Ru88  1  0.00018513  0.33282791  -0.00093016  1
  Ru4+  Ru89  1  -0.00253699  0.32926130  0.25086874  1
  Ru4+  Ru90  1  -0.00001437  0.33373808  0.49950764  1
  Ru4+  Ru91  1  -0.00043358  0.33321326  0.74991466  1
  Ru4+  Ru92  1  -0.00042897  0.67103730  0.00131293  1
  Ru4+  Ru93  1  -0.00080158  0.66674022  0.24990058  1
  Ru4+  Ru94  1  -0.00032183  0.66578122  0.49946008  1
  Ru4+  Ru95  1  0.00001439  0.66619005  0.75116576  1
  Ru4+  Ru96  1  0.49985646  0.00018808  -0.00052378  1
  Ru4+  Ru97  1  0.50044809  0.00034162  0.25016809  1
  Ru4+  Ru98  1  0.49998039  0.00004986  0.50001696  1
  Ru4+  Ru99  1  0.50140743  -0.00143294  0.75048881  1
  Ru4+  Ru100  1  0.49975920  0.33684493  0.00132014  1
  Ru4+  Ru101  1  0.49854651  0.33256631  0.24701318  1
  Ru4+  Ru102  1  0.49556810  0.33101095  0.50005394  1
  Ru4+  Ru103  1  0.50035887  0.33912198  0.74805340  1
  Ru4+  Ru104  1  0.49797697  0.66545762  0.00047494  1
  Ru4+  Ru105  1  0.49967523  0.66667425  0.24907627  1
  Ru4+  Ru106  1  0.49941696  0.66917435  0.50260896  1
  Ru4+  Ru107  1  0.50445442  0.66333530  0.75042429  1
  Ru4+  Ru108  1  0.11239670  0.16656967  0.00016232  1
  Ru4+  Ru109  1  0.11354828  0.16476256  0.24990214  1
  Ru4+  Ru110  1  0.11301434  0.16634177  0.50000448  1
  Ru4+  Ru111  1  0.11297601  0.16689288  0.75013113  1
  Ru4+  Ru112  1  0.11267935  0.49907354  0.00016580  1
  Ru4+  Ru113  1  0.11502088  0.50241999  0.25004398  1
  Ru4+  Ru114  1  0.11215404  0.49968772  0.49965210  1
  Ru4+  Ru115  1  0.11252234  0.49940713  0.75016261  1
  Ru4+  Ru116  1  0.11203321  0.83454121  0.00022631  1
  Ru4+  Ru117  1  0.11230640  0.83367657  0.25015332  1
  Ru4+  Ru118  1  0.11251245  0.83512080  0.50010987  1
  Ru4+  Ru119  1  0.11240516  0.83336909  0.74965629  1
  Ru4+  Ru120  1  0.61420566  0.16491957  0.00026181  1
  Ru4+  Ru121  1  0.61402602  0.16311328  0.24938629  1
  Ru4+  Ru122  1  0.61339021  0.16454409  0.49980756  1
  Ru4+  Ru123  1  0.61387125  0.16474807  0.74999132  1
  Ru4+  Ru124  1  0.61260595  0.49732790  0.00003776  1
  Ru4+  Ru125  1  0.61537185  0.50147205  0.24928738  1
  Ru4+  Ru126  1  0.61600473  0.50274680  0.49995406  1
  Ru4+  Ru127  1  0.61191028  0.49964734  0.75009102  1
  Ru4+  Ru128  1  0.61479247  0.83467742  -0.00041552  1
  Ru4+  Ru129  1  0.61319913  0.83379347  0.25024355  1
  Ru4+  Ru130  1  0.61411379  0.83557792  0.50019810  1
  Ru4+  Ru131  1  0.61222874  0.83328706  0.74988248  1
  Ru4+  Ru132  1  0.38707295  0.16586580  -0.00006421  1
  Ru4+  Ru133  1  0.38557472  0.16549947  0.25002372  1
  Ru4+  Ru134  1  0.38753395  0.16661541  0.49997896  1
  Ru4+  Ru135  1  0.38412445  0.16661304  0.74981475  1
  Ru4+  Ru136  1  0.38844016  0.49926428  -0.00030539  1
  Ru4+  Ru137  1  0.38700538  0.50112693  0.24997016  1
  Ru4+  Ru138  1  0.38642879  0.49760873  0.50005273  1
  Ru4+  Ru139  1  0.38682410  0.49856203  0.75006411  1
  Ru4+  Ru140  1  0.38758822  0.83476664  -0.00064406  1
  Ru4+  Ru141  1  0.38641907  0.83497335  0.25030655  1
  Ru4+  Ru142  1  0.38662026  0.83376556  0.49984237  1
  Ru4+  Ru143  1  0.38557044  0.83755052  0.75110052  1
  Ru4+  Ru144  1  0.88641891  0.16630137  -0.00025144  1
  Ru4+  Ru145  1  0.88746291  0.16667703  0.24977677  1
  Ru4+  Ru146  1  0.88793905  0.16631347  0.50034211  1
  Ru4+  Ru147  1  0.88615055  0.16775798  0.74996524  1
  Ru4+  Ru148  1  0.88667066  0.49771460  0.00053069  1
  Ru4+  Ru149  1  0.88707090  0.50060735  0.25001779  1
  Ru4+  Ru150  1  0.88769621  0.50044887  0.50013731  1
  Ru4+  Ru151  1  0.88795859  0.49899586  0.74962584  1
  Ru4+  Ru152  1  0.88686968  0.83347758  0.00044736  1
  Ru4+  Ru153  1  0.88715447  0.83302216  0.25021509  1
  Ru4+  Ru154  1  0.88677508  0.83439215  0.49968833  1
  Ru4+  Ru155  1  0.88768909  0.83396440  0.75019254  1
  Ru4+  Ru156  1  0.25005125  0.75561066  0.24943415  1
  Ru4+  Ru157  1  0.75003406  0.75312802  0.25103635  1
  Ru4+  Ru158  1  0.25004294  0.60840732  0.24677615  1
  Ru4+  Ru159  1  0.25003283  0.41676189  0.75304987  1
  Ru4+  Ru160  1  0.74993082  0.75298354  0.49709419  1
  Ru4+  Ru161  1  0.24992150  0.91392750  0.24845421  1
  Ru4+  Ru162  1  0.24995760  0.73193850  0.00087255  1
  Ru4+  Ru163  1  0.25019202  0.24492165  0.49922550  1
  Ru4+  Ru164  1  0.75011813  0.42069369  0.25110678  1
  Ru4+  Ru165  1  0.75002600  0.91596298  0.25085534  1
  Ru4+  Ru166  1  0.74991953  0.73017867  0.74963982  1
  Ru4+  Ru167  1  0.25001453  0.08729813  0.74799392  1
  Ru4+  Ru168  1  0.75000304  0.60166816  0.74983041  1
  Ru4+  Ru169  1  0.24987412  0.60023602  0.49527446  1
  Ru4+  Ru170  1  0.24997738  0.58011958  0.75354941  1
  Ru4+  Ru171  1  0.24999350  0.73663325  0.75386744  1
  Ru4+  Ru172  1  0.74995408  0.93181964  0.75018382  1
  Ru4+  Ru173  1  0.25003864  0.60165471  0.00002491  1
  Ru4+  Ru174  1  0.25013129  0.39082028  0.24039168  1
  Ru4+  Ru175  1  0.74994287  0.26392930  0.24698310  1
  Ru4+  Ru176  1  0.75023201  0.60201025  0.00314564  1
  Ru4+  Ru177  1  0.74997411  0.26719555  0.50512840  1
  Ru4+  Ru178  1  0.25013152  0.08803561  0.49906357  1
  Ru4+  Ru179  1  0.74995149  0.24696422  0.75151366  1
  O2-  O180  1  0.16742209  0.08075326  -0.00100523  1
  O2-  O181  1  0.16717583  0.08137830  0.24996715  1
  O2-  O182  1  0.16810206  0.08102732  0.50032577  1
  O2-  O183  1  0.16811372  0.08067121  0.75040734  1
  O2-  O184  1  0.16751338  0.41328078  0.00032429  1
  O2-  O185  1  0.16734735  0.41368949  0.24975748  1
  O2-  O186  1  0.16697810  0.41332817  0.50053622  1
  O2-  O187  1  0.16788395  0.41436829  0.74956888  1
  O2-  O188  1  0.16704593  0.74656736  -0.00012035  1
  O2-  O189  1  0.16799043  0.74730381  0.24976762  1
  O2-  O190  1  0.16752755  0.74755196  0.49997415  1
  O2-  O191  1  0.16722310  0.74659259  0.74984898  1
  O2-  O192  1  0.66761294  0.08153553  -0.00009505  1
  O2-  O193  1  0.66747577  0.08095558  0.25031441  1
  O2-  O194  1  0.66731247  0.08047752  0.49963050  1
  O2-  O195  1  0.66757562  0.08093858  0.74985469  1
  O2-  O196  1  0.66760323  0.41404857  -0.00022972  1
  O2-  O197  1  0.66768649  0.41411771  0.25021145  1
  O2-  O198  1  0.66797683  0.41372597  0.50025755  1
  O2-  O199  1  0.66736482  0.41305526  0.75002918  1
  O2-  O200  1  0.66770947  0.74741516  -0.00022102  1
  O2-  O201  1  0.66811140  0.74749697  0.24980181  1
  O2-  O202  1  0.66793360  0.74736822  0.50041224  1
  O2-  O203  1  0.66689256  0.74634647  0.75005737  1
  O2-  O204  1  0.33207243  0.25336055  -0.00002638  1
  O2-  O205  1  0.33219119  0.25255174  0.24982178  1
  O2-  O206  1  0.33166416  0.25288860  0.50025648  1
  O2-  O207  1  0.33254316  0.25216455  0.74974233  1
  O2-  O208  1  0.33279358  0.58651697  0.00010071  1
  O2-  O209  1  0.33293768  0.58628216  0.24990344  1
  O2-  O210  1  0.33267075  0.58650388  0.50016560  1
  O2-  O211  1  0.33185494  0.58598720  0.75006399  1
  O2-  O212  1  0.33256781  0.91917168  -0.00034409  1
  O2-  O213  1  0.33204085  0.91875584  0.25004468  1
  O2-  O214  1  0.33237569  0.91888627  0.50018150  1
  O2-  O215  1  0.33252423  0.91985089  0.75008277  1
  O2-  O216  1  0.83261395  0.25260372  0.00016693  1
  O2-  O217  1  0.83304332  0.25322454  0.25032739  1
  O2-  O218  1  0.83237585  0.25347402  0.49983910  1
  O2-  O219  1  0.83179792  0.25230377  0.75008702  1
  O2-  O220  1  0.83219616  0.58668692  0.00013278  1
  O2-  O221  1  0.83242866  0.58560275  0.24986709  1
  O2-  O222  1  0.83260922  0.58586879  0.50043768  1
  O2-  O223  1  0.83291145  0.58671066  0.75007188  1
  O2-  O224  1  0.83222586  0.91847698  -0.00045315  1
  O2-  O225  1  0.83235763  0.91887276  0.25016571  1
  O2-  O226  1  0.83271285  0.91885534  0.49988768  1
  O2-  O227  1  0.83319274  0.91994322  0.74990808  1
  O2-  O228  1  0.16782571  0.25323123  -0.00017185  1
  O2-  O229  1  0.16777841  0.25278062  0.24945270  1
  O2-  O230  1  0.16793504  0.25258886  0.50023711  1
  O2-  O231  1  0.16730365  0.25246875  0.74980408  1
  O2-  O232  1  0.16748438  0.58673202  -0.00008207  1
  O2-  O233  1  0.16686339  0.58643540  0.24978600  1
  O2-  O234  1  0.16769689  0.58653728  0.50000574  1
  O2-  O235  1  0.16799593  0.58622497  0.74996079  1
  O2-  O236  1  0.16745243  0.91957142  -0.00083437  1
  O2-  O237  1  0.16816019  0.91875703  0.25002818  1
  O2-  O238  1  0.16849668  0.91868931  0.50005035  1
  O2-  O239  1  0.16750139  0.92022972  0.75046018  1
  O2-  O240  1  0.66802756  0.25261707  0.00000255  1
  O2-  O241  1  0.66731522  0.25334066  0.25026493  1
  O2-  O242  1  0.66760255  0.25338846  0.50009457  1
  O2-  O243  1  0.66892123  0.25307566  0.75000785  1
  O2-  O244  1  0.66749317  0.58648714  -0.00025200  1
  O2-  O245  1  0.66785617  0.58546691  0.24967826  1
  O2-  O246  1  0.66789208  0.58591342  0.49999016  1
  O2-  O247  1  0.66729487  0.58667699  0.75016325  1
  O2-  O248  1  0.66706314  0.91851240  -0.00030100  1
  O2-  O249  1  0.66776451  0.91886931  0.25005907  1
  O2-  O250  1  0.66688675  0.91863884  0.50028017  1
  O2-  O251  1  0.66669782  0.92022810  0.74985211  1
  O2-  O252  1  0.33257834  0.08086746  -0.00060687  1
  O2-  O253  1  0.33268418  0.08144177  0.25015213  1
  O2-  O254  1  0.33167689  0.08055248  0.50023320  1
  O2-  O255  1  0.33189540  0.08066827  0.75003839  1
  O2-  O256  1  0.33223976  0.41337727  0.00044237  1
  O2-  O257  1  0.33267680  0.41349406  0.24963205  1
  O2-  O258  1  0.33242962  0.41367805  0.50056188  1
  O2-  O259  1  0.33206525  0.41461056  0.74976632  1
  O2-  O260  1  0.33277466  0.74658656  0.00010658  1
  O2-  O261  1  0.33163006  0.74716235  0.24995668  1
  O2-  O262  1  0.33210131  0.74746156  0.49997294  1
  O2-  O263  1  0.33269761  0.74617548  0.74976769  1
  O2-  O264  1  0.83213944  0.08144196  0.00025505  1
  O2-  O265  1  0.83231514  0.08089361  0.25072353  1
  O2-  O266  1  0.83264249  0.08038694  0.49938781  1
  O2-  O267  1  0.83182565  0.08101919  0.75005157  1
  O2-  O268  1  0.83246644  0.41335173  0.00005360  1
  O2-  O269  1  0.83223266  0.41369887  0.25018656  1
  O2-  O270  1  0.83229575  0.41360921  0.50014029  1
  O2-  O271  1  0.83241082  0.41308271  0.75038704  1
  O2-  O272  1  0.83228048  0.74794153  -0.00028152  1
  O2-  O273  1  0.83162830  0.74762717  0.24970171  1
  O2-  O274  1  0.83228069  0.74726071  0.50043003  1
  O2-  O275  1  0.83302115  0.74623990  0.74979374  1
  O2-  O276  1  0.96258510  0.11402714  0.24284998  1
  O2-  O277  1  0.45377860  0.43243989  0.98554893  1
  O2-  O278  1  0.45503011  0.23443198  0.98593903  1
  O2-  O279  1  0.45366658  0.43142131  0.73549003  1
  O2-  O280  1  0.94415803  0.58222247  0.97584394  1
  O2-  O281  1  0.04185694  0.89602336  0.51233825  1
  O2-  O282  1  0.54055105  0.56250792  0.98618334  1
  O2-  O283  1  0.95964398  0.10536040  0.77550610  1
  O2-  O284  1  0.45243217  0.23558452  0.76566076  1
  O2-  O285  1  0.95502140  0.56889995  0.51544973  1
  O2-  O286  1  0.55315310  0.41914646  0.53243104  1
  O2-  O287  1  0.55415117  0.24847253  0.28551494  1
  O2-  O288  1  0.04513661  0.76580473  0.23510945  1
  O2-  O289  1  0.54714728  0.23717426  0.51564986  1
  O2-  O290  1  0.54751724  0.43094408  0.26637547  1
  O2-  O291  1  0.04437103  0.09901056  0.51530431  1
  O2-  O292  1  0.44651208  0.75257528  0.71821536  1
  O2-  O293  1  0.04493325  0.43257171  0.01418550  1
  O2-  O294  1  0.04465558  0.43193196  0.26398775  1
  O2-  O295  1  0.54628518  0.43182409  0.73492207  1
  O2-  O296  1  0.04710892  0.09820028  0.23542818  1
  O2-  O297  1  0.54674958  0.76461418  0.01925775  1
  O2-  O298  1  0.95416218  0.76542646  0.48464913  1
  O2-  O299  1  0.53729893  0.55817133  0.00068281  1
  O2-  O300  1  0.45893634  0.56210700  0.77450244  1
  O2-  O301  1  0.54696752  0.76352570  0.48376301  1
  O2-  O302  1  0.04066511  0.22934179  0.22610568  1
  O2-  O303  1  0.45313343  0.76455224  0.01374799  1
  O2-  O304  1  0.04645818  0.76341997  0.51383878  1
  O2-  O305  1  0.45767739  0.77153053  0.27490486  1
  O2-  O306  1  0.45269167  0.56903716  0.48433931  1
  O2-  O307  1  0.54550546  0.76604161  0.98012418  1
  O2-  O308  1  0.54615769  0.43099070  0.01562851  1
  O2-  O309  1  0.95460336  0.76466387  0.73601928  1
  O2-  O310  1  0.04461331  0.90170965  0.76599691  1
  O2-  O311  1  0.54199246  0.56139984  0.47558479  1
  O2-  O312  1  0.45001950  0.24264717  0.22993806  1
  O2-  O313  1  0.04684658  0.90362898  0.48614380  1
  O2-  O314  1  0.04497418  0.23595834  0.48534093  1
  O2-  O315  1  0.04462759  0.23480708  0.76514365  1
  O2-  O316  1  0.95520929  0.43043947  0.48507395  1
  O2-  O317  1  0.54629435  0.76554472  0.26416244  1
  O2-  O318  1  0.03961671  0.44111678  0.24118429  1
  O2-  O319  1  0.04489887  0.23392392  0.01428698  1
  O2-  O320  1  0.04498683  0.56830379  0.76481428  1
  O2-  O321  1  0.45450996  0.76529771  0.51500121  1
  O2-  O322  1  0.54228653  0.22802261  0.77555640  1
  O2-  O323  1  0.45769298  0.43847949  0.27434625  1
  O2-  O324  1  0.93069343  0.06366192  0.70947603  1
  O2-  O325  1  0.92568581  0.05597417  0.21243791  1
  O2-  O326  1  0.44127175  0.25583421  0.22254202  1
  O2-  O327  1  0.56893338  0.27221930  0.70628974  1
  O2-  O328  1  0.56311343  0.73819353  0.47117073  1
  O2-  O329  1  0.06430149  0.59802402  0.95359469  1
  O2-  O330  1  0.56233103  0.40519889  0.28128350  1
  O2-  O331  1  0.43707703  0.26040312  0.78044044  1
  O2-  O332  1  0.43760162  0.59418559  0.46904822  1
  O2-  O333  1  0.06755620  0.93356214  0.53144755  1
  O2-  O334  1  0.06439121  0.59807612  0.04639424  1
  O2-  O335  1  0.06776576  0.26963488  0.29247454  1
  O2-  O336  1  0.93630442  0.40173504  0.71804343  1
  O2-  O337  1  0.56439190  0.59781398  0.20253292  1
  O2-  O338  1  0.56511502  0.26252183  0.04520975  1
  O2-  O339  1  0.43618364  0.06861812  0.21756819  1
  O2-  O340  1  0.43061255  0.72966112  0.20912103  1
  O2-  O341  1  0.56208552  0.26224142  0.53184949  1
  O2-  O342  1  0.56830194  0.60430947  0.54302907  1
  O2-  O343  1  0.43190562  0.60410852  0.70783669  1
  O2-  O344  1  0.55314638  0.41908750  0.53220387  1
  O2-  O345  1  0.44634189  0.75210095  0.71756709  1
  O2-  O346  1  0.43193826  0.73425561  0.79400824  1
  O2-  O347  1  0.43147564  0.39645353  0.20710910  1
  O2-  O348  1  0.56540308  0.59609042  0.29452881  1
  O2-  O349  1  0.06429845  0.59780250  0.46769249  1
  O2-  O350  1  0.56474502  0.07055511  0.21982774  1
  O2-  O351  1  0.43556814  0.40324922  0.46911071  1
  O2-  O352  1  0.43456647  0.07014631  0.79605218  1
  O2-  O353  1  0.93539987  0.92919372  0.03032863  1
  O2-  O354  1  0.56851315  0.39971551  0.45476009  1
  O2-  O355  1  0.06447776  0.73478654  0.71741206  1
  O2-  O356  1  0.56546010  0.26267378  0.95482990  1
  O2-  O357  1  0.93545665  0.73702986  0.03041069  1
  O2-  O358  1  0.93634355  0.06900909  0.96689258  1
  O2-  O359  1  0.57522062  0.61569845  0.04597058  1
  O2-  O360  1  0.93581737  0.26467646  0.53260045  1
  O2-  O361  1  0.93511503  0.73668048  0.28045202  1
  O2-  O362  1  0.56445982  0.07018603  0.02990942  1
  O2-  O363  1  0.94592559  0.58043812  0.97683657  1
  O2-  O364  1  0.06466950  0.93005329  0.03003971  1
  O2-  O365  1  0.56940459  0.26843574  0.19804253  1
  O2-  O366  1  0.43547677  0.06803385  0.70186253  1
  O2-  O367  1  0.43529873  0.93030049  0.97021695  1
  O2-  O368  1  0.55180483  0.24388348  0.28302518  1
  O2-  O369  1  0.43505561  0.59591071  0.28075838  1
  O2-  O370  1  0.07078462  0.39577775  0.21462943  1
  O2-  O371  1  0.06430984  0.59792997  0.28195606  1
  O2-  O372  1  0.24993371  0.00053086  0.33108552  1
  O2-  O373  1  0.75013773  -0.00037578  0.34175134  1
  O2-  O374  1  0.75003856  0.66686547  0.59291915  1
  O2-  O375  1  0.75002282  0.00423093  0.66655022  1
  O2-  O376  1  0.74993576  0.66639582  0.33057309  1
  O2-  O377  1  0.24991647  0.66908612  0.15404455  1
  O2-  O378  1  0.24995830  0.33435983  0.42170893  1
  O2-  O379  1  0.25004702  0.66908321  0.34573002  1
  O2-  O380  1  0.24994152  -0.00091725  0.41886339  1
  O2-  O381  1  0.74984722  0.66713155  0.90587479  1
  O2-  O382  1  0.24993164  0.33444735  0.84233792  1
  O2-  O383  1  0.75005214  0.33530937  0.15500150  1
  O2-  O384  1  0.24999801  0.32858719  0.33325918  1
  O2-  O385  1  0.75005454  -0.00014346  0.58000106  1
  O2-  O386  1  0.24998926  0.66426397  0.84540694  1
  O2-  O387  1  0.75000312  -0.00054471  0.91895693  1
  O2-  O388  1  0.25010777  0.67113982  0.58101463  1
  O2-  O389  1  0.74999625  0.00433922  0.83436536  1
  O2-  O390  1  0.24998597  -0.00090038  0.09357737  1
  O2-  O391  1  0.75006679  -0.00041266  0.15843734  1
  O2-  O392  1  0.74992455  0.66608224  0.41911226  1
  O2-  O393  1  0.74993037  0.33730599  0.41942831  1
  O2-  O394  1  0.25002261  0.66200226  0.66728988  1
  O2-  O395  1  0.74996349  0.33699789  0.33323781  1
  O2-  O396  1  0.74995775  0.50187091  0.17637419  1
  O2-  O397  1  0.75002326  0.83487043  0.57218266  1
  O2-  O398  1  0.74998519  0.83325155  0.08326455  1
  O2-  O399  1  0.74999948  0.16771995  0.90833348  1
  O2-  O400  1  0.24999558  0.83154518  0.85396229  1
  O2-  O401  1  0.25004820  0.50390794  0.60245730  1
  O2-  O402  1  0.24999949  0.49938070  0.67822734  1
  O2-  O403  1  0.74998076  0.50204650  0.09622105  1
  O2-  O404  1  0.24997004  0.16496612  0.66050372  1
  O2-  O405  1  0.74996646  0.83322709  0.16615772  1
  O2-  O406  1  0.75000698  0.50271787  0.63732667  1
  O2-  O407  1  0.74997544  0.16961088  0.33586600  1
  O2-  O408  1  0.74992215  0.16895197  0.41324493  1
  O2-  O409  1  0.75000594  0.50323760  0.86155852  1
  O2-  O410  1  0.25000100  0.16658547  0.34297550  1
  O2-  O411  1  0.24999708  0.83148711  0.10849153  1
  O2-  O412  1  0.75001010  0.49927633  0.39374330  1
  O2-  O413  1  0.75005997  0.83170935  0.41026427  1
  O2-  O414  1  0.75003079  0.83404347  0.86258092  1
  O2-  O415  1  0.25002932  0.50387884  0.38722778  1
  O2-  O416  1  0.24999355  0.16718434  0.10366896  1
  O2-  O417  1  0.25005910  0.49960188  0.16249989  1
  O2-  O418  1  0.25001273  0.50258486  0.08676115  1
  O2-  O419  1  0.75005262  0.83398884  0.64956710  1
  O2-  O420  1  0.02917330  0.33230718  0.12254755  1
  O2-  O421  1  0.02767324  0.00011005  0.37472280  1
  O2-  O422  1  0.97281760  0.66831789  0.87325765  1
  O2-  O423  1  0.46946431  0.33193846  0.37351871  1
  O2-  O424  1  0.96930013  0.33370234  0.12490586  1
  O2-  O425  1  0.97262831  -0.00015634  0.12464840  1
  O2-  O426  1  0.97320636  0.66511212  0.12741383  1
  O2-  O427  1  0.52916446  0.66708723  0.37485782  1
  O2-  O428  1  0.52578860  -0.00339147  0.12487598  1
  O2-  O429  1  0.47098753  0.66504925  0.87853009  1
  O2-  O430  1  0.47411361  0.00051941  0.87552447  1
  O2-  O431  1  0.47016007  0.66919393  0.37412995  1
  O2-  O432  1  0.97322406  0.66497954  0.37592022  1
  O2-  O433  1  0.52826615  0.33124133  0.37776695  1
  O2-  O434  1  0.03086748  0.00159213  0.62793704  1
  O2-  O435  1  0.96930288  -0.00145711  0.62147869  1
  O2-  O436  1  0.52530911  0.33719469  0.12469429  1
  O2-  O437  1  0.02844724  0.00085506  0.12652138  1
  O2-  O438  1  0.47038912  0.33487157  0.87713266  1
  O2-  O439  1  0.47303137  0.66436745  0.12291527  1
  O2-  O440  1  0.47216049  0.33289257  0.62408514  1
  O2-  O441  1  0.52773140  -0.00006584  0.37463137  1
  O2-  O442  1  0.53045800  0.66696748  0.87438905  1
  O2-  O443  1  0.52945433  0.33518914  0.87259582  1
