# generated using pymatgen
data_La7(Ru4O11)2
_symmetry_space_group_name_H-M   'P 1'
_cell_length_a   23.99150237
_cell_length_b   16.83161574
_cell_length_c   15.42790837
_cell_angle_alpha   89.99967302
_cell_angle_beta   90.00075756
_cell_angle_gamma   89.99932404
_symmetry_Int_Tables_number   1
_chemical_formula_structural   La7(Ru4O11)2
_chemical_formula_sum   'La84 Ru96 O264'
_cell_volume   6230.03237274
_cell_formula_units_Z   12
loop_
 _symmetry_equiv_pos_site_id
 _symmetry_equiv_pos_as_xyz
  1  'x, y, z'
loop_
 _atom_type_symbol
 _atom_type_oxidation_number
  La3+  3.0
  Ru4+  4.0
  O2-  -2.0
loop_
 _atom_site_type_symbol
 _atom_site_label
 _atom_site_symmetry_multiplicity
 _atom_site_fract_x
 _atom_site_fract_y
 _atom_site_fract_z
 _atom_site_occupancy
  La3+  La0  1  0.14118879  0.00457900  0.12829306  1
  La3+  La1  1  0.13976748  0.00698521  0.37634527  1
  La3+  La2  1  0.14044582  0.00165206  0.62608893  1
  La3+  La3  1  0.14275499  0.00043709  0.87592437  1
  La3+  La4  1  0.13508586  0.33354630  0.12384099  1
  La3+  La5  1  0.13771593  0.33205956  0.37880097  1
  La3+  La6  1  0.14149266  0.33142015  0.62512043  1
  La3+  La7  1  0.13685780  0.33210804  0.87492179  1
  La3+  La8  1  0.14530872  0.67092898  0.11942354  1
  La3+  La9  1  0.13520305  0.66671729  0.37503219  1
  La3+  La10  1  0.13942491  0.66503653  0.62826115  1
  La3+  La11  1  0.13967558  0.66743127  0.87540185  1
  La3+  La12  1  0.64455072  -0.00045480  0.12163794  1
  La3+  La13  1  0.63794668  -0.00157022  0.37216817  1
  La3+  La14  1  0.64311938  0.00009812  0.63017897  1
  La3+  La15  1  0.63967349  -0.00067045  0.87612728  1
  La3+  La16  1  0.64053866  0.33170308  0.12348461  1
  La3+  La17  1  0.64193134  0.32852295  0.37145975  1
  La3+  La18  1  0.64144403  0.32958269  0.62657829  1
  La3+  La19  1  0.63848199  0.33340051  0.87698813  1
  La3+  La20  1  0.63882698  0.66908811  0.11826926  1
  La3+  La21  1  0.63832112  0.66827564  0.37797083  1
  La3+  La22  1  0.64551184  0.66663419  0.62825854  1
  La3+  La23  1  0.64042948  0.66821719  0.87749098  1
  La3+  La24  1  0.35777165  0.00059536  0.12326423  1
  La3+  La25  1  0.36413953  0.00198513  0.37501922  1
  La3+  La26  1  0.36098073  0.00256794  0.62810253  1
  La3+  La27  1  0.36010116  0.00145456  0.87393833  1
  La3+  La28  1  0.36179386  0.33045141  0.12256689  1
  La3+  La29  1  0.36347021  0.33350379  0.38074076  1
  La3+  La30  1  0.36182248  0.33434762  0.62142409  1
  La3+  La31  1  0.36124012  0.33251190  0.87394645  1
  La3+  La32  1  0.36246393  0.66748177  0.12364448  1
  La3+  La33  1  0.36398836  0.66521856  0.37498581  1
  La3+  La34  1  0.36281065  0.66642627  0.62688945  1
  La3+  La35  1  0.35877250  0.66873526  0.87610751  1
  La3+  La36  1  0.85417239  -0.00132061  0.12100936  1
  La3+  La37  1  0.86302125  -0.00197001  0.37273510  1
  La3+  La38  1  0.85770382  0.00070482  0.62992606  1
  La3+  La39  1  0.86042758  -0.00124187  0.87828506  1
  La3+  La40  1  0.85685366  0.32944241  0.12473411  1
  La3+  La41  1  0.85921012  0.33198899  0.37388286  1
  La3+  La42  1  0.85993015  0.33203111  0.62622673  1
  La3+  La43  1  0.86420746  0.33511561  0.87867864  1
  La3+  La44  1  0.85909178  0.66986650  0.11938016  1
  La3+  La45  1  0.86153573  0.66880599  0.37703463  1
  La3+  La46  1  0.85398457  0.66730090  0.62804980  1
  La3+  La47  1  0.86108388  0.66874413  0.87698252  1
  La3+  La48  1  0.00024871  0.50074806  0.61923370  1
  La3+  La49  1  -0.00189018  0.83489821  0.61198203  1
  La3+  La50  1  0.00114535  0.16621993  0.62416495  1
  La3+  La51  1  -0.00002379  0.49882303  0.64077048  1
  La3+  La52  1  0.49936753  0.50269112  0.88800840  1
  La3+  La53  1  0.50208704  0.16926612  0.63210915  1
  La3+  La54  1  0.00084276  0.82791476  0.87841068  1
  La3+  La55  1  0.00036067  0.50188077  0.38764761  1
  La3+  La56  1  0.00444903  0.15939376  0.12698519  1
  La3+  La57  1  0.00201058  0.50399198  0.11335694  1
  La3+  La58  1  0.50104267  0.16944892  0.86997685  1
  La3+  La59  1  0.49722845  0.50176930  0.60401137  1
  La3+  La60  1  0.49612146  0.84044747  0.87296837  1
  La3+  La61  1  0.49574179  0.49155361  0.61642962  1
  La3+  La62  1  0.50038773  0.16321404  0.36395393  1
  La3+  La63  1  0.50034430  0.17288588  0.38336480  1
  La3+  La64  1  -0.00508746  0.49396669  0.12969283  1
  La3+  La65  1  0.50437976  0.49684301  0.86778303  1
  La3+  La66  1  0.00391989  0.15839221  0.10980146  1
  La3+  La67  1  0.50100650  0.16627911  0.13018452  1
  La3+  La68  1  -0.00326574  0.83869259  0.63402542  1
  La3+  La69  1  -0.00215301  0.49203177  0.36820945  1
  La3+  La70  1  0.00074104  0.16221729  0.38033095  1
  La3+  La71  1  0.50181779  0.49936404  0.13972571  1
  La3+  La72  1  0.75040114  0.79477609  0.49771756  1
  La3+  La73  1  0.75016385  0.21057508  0.49833877  1
  La3+  La74  1  0.75037803  0.83174225  0.77409662  1
  La3+  La75  1  0.24962330  0.85661484  0.51584062  1
  La3+  La76  1  0.24974862  0.88951006  0.27300629  1
  La3+  La77  1  0.74960388  0.53300690  0.51099809  1
  La3+  La78  1  0.24981219  0.50080660  0.72696737  1
  La3+  La79  1  0.74981319  0.50149444  0.01102691  1
  La3+  La80  1  0.25054646  0.10904488  0.24926040  1
  La3+  La81  1  0.24995215  0.45962174  0.03421063  1
  La3+  La82  1  0.24974202  0.50344819  0.19126049  1
  La3+  La83  1  0.74998161  0.48332366  0.29742145  1
  Ru4+  Ru84  1  -0.00021262  0.00373937  0.00341804  1
  Ru4+  Ru85  1  -0.00095751  -0.01312115  0.25257817  1
  Ru4+  Ru86  1  0.00171897  0.00015813  0.50066730  1
  Ru4+  Ru87  1  0.00135390  0.00631924  0.74581360  1
  Ru4+  Ru88  1  -0.00393907  0.33651333  -0.00762433  1
  Ru4+  Ru89  1  -0.00381885  0.32457898  0.25168065  1
  Ru4+  Ru90  1  0.00200247  0.32695700  0.50342848  1
  Ru4+  Ru91  1  0.00089559  0.32876487  0.74892988  1
  Ru4+  Ru92  1  -0.00112501  0.66469179  -0.00373517  1
  Ru4+  Ru93  1  -0.00146857  0.67493090  0.24954220  1
  Ru4+  Ru94  1  0.00085069  0.67208574  0.50052397  1
  Ru4+  Ru95  1  -0.00087325  0.66316382  0.75194102  1
  Ru4+  Ru96  1  0.49978978  -0.00363070  -0.00098466  1
  Ru4+  Ru97  1  0.50058205  -0.00088316  0.25093642  1
  Ru4+  Ru98  1  0.49889895  -0.00444047  0.49722094  1
  Ru4+  Ru99  1  0.50378011  -0.00350885  0.75469947  1
  Ru4+  Ru100  1  0.50142092  0.33068566  -0.00165190  1
  Ru4+  Ru101  1  0.49945414  0.32859346  0.25222673  1
  Ru4+  Ru102  1  0.49932130  0.33128379  0.50055160  1
  Ru4+  Ru103  1  0.50031800  0.32920139  0.75027344  1
  Ru4+  Ru104  1  0.50419145  0.66941342  -0.00129259  1
  Ru4+  Ru105  1  0.50084307  0.66101521  0.24646531  1
  Ru4+  Ru106  1  0.50147063  0.67309115  0.50182335  1
  Ru4+  Ru107  1  0.49973107  0.66885999  0.75106361  1
  Ru4+  Ru108  1  0.11408760  0.16661699  -0.00132270  1
  Ru4+  Ru109  1  0.11497410  0.17191446  0.25028156  1
  Ru4+  Ru110  1  0.11479690  0.16846761  0.49915940  1
  Ru4+  Ru111  1  0.10911170  0.16676948  0.75199490  1
  Ru4+  Ru112  1  0.11258698  0.50104540  -0.00120312  1
  Ru4+  Ru113  1  0.11592845  0.50389266  0.24938874  1
  Ru4+  Ru114  1  0.11390382  0.49938004  0.50078312  1
  Ru4+  Ru115  1  0.11002641  0.50008253  0.74825842  1
  Ru4+  Ru116  1  0.11471874  0.83220487  0.00356605  1
  Ru4+  Ru117  1  0.10625299  0.84125242  0.24965496  1
  Ru4+  Ru118  1  0.10960597  0.83232259  0.49551640  1
  Ru4+  Ru119  1  0.11540963  0.83734131  0.75032750  1
  Ru4+  Ru120  1  0.61380459  0.16358606  0.00087189  1
  Ru4+  Ru121  1  0.61275705  0.16788239  0.24843179  1
  Ru4+  Ru122  1  0.61085021  0.16992695  0.50062558  1
  Ru4+  Ru123  1  0.61284932  0.16377749  0.75008049  1
  Ru4+  Ru124  1  0.61440937  0.50105738  0.00107504  1
  Ru4+  Ru125  1  0.61079745  0.50333143  0.25094483  1
  Ru4+  Ru126  1  0.60965892  0.49484003  0.49841380  1
  Ru4+  Ru127  1  0.61685870  0.50322034  0.74990906  1
  Ru4+  Ru128  1  0.61386441  0.83290912  0.00033376  1
  Ru4+  Ru129  1  0.61487249  0.83577237  0.25039082  1
  Ru4+  Ru130  1  0.60805030  0.83088881  0.49842656  1
  Ru4+  Ru131  1  0.61336885  0.83604207  0.75017169  1
  Ru4+  Ru132  1  0.38638472  0.16345575  0.00030006  1
  Ru4+  Ru133  1  0.39114926  0.16612531  0.24970189  1
  Ru4+  Ru134  1  0.38444643  0.16948514  0.50032205  1
  Ru4+  Ru135  1  0.38458150  0.17152327  0.74977805  1
  Ru4+  Ru136  1  0.38681910  0.50070622  0.00076990  1
  Ru4+  Ru137  1  0.38871606  0.50086889  0.25273076  1
  Ru4+  Ru138  1  0.38404552  0.50082059  0.49731353  1
  Ru4+  Ru139  1  0.38524092  0.50015328  0.74765153  1
  Ru4+  Ru140  1  0.38692422  0.83276423  0.00310223  1
  Ru4+  Ru141  1  0.38940068  0.83302308  0.24844378  1
  Ru4+  Ru142  1  0.39252102  0.83554813  0.49808711  1
  Ru4+  Ru143  1  0.38615399  0.83572456  0.75063848  1
  Ru4+  Ru144  1  0.88623488  0.16624377  -0.00089158  1
  Ru4+  Ru145  1  0.88542857  0.16887089  0.25203760  1
  Ru4+  Ru146  1  0.88966889  0.16934824  0.50068712  1
  Ru4+  Ru147  1  0.88916112  0.16554317  0.75036856  1
  Ru4+  Ru148  1  0.88813944  0.49647422  -0.00388943  1
  Ru4+  Ru149  1  0.88622359  0.50082031  0.25185115  1
  Ru4+  Ru150  1  0.88651632  0.50309381  0.50342139  1
  Ru4+  Ru151  1  0.88735450  0.50148673  0.75020579  1
  Ru4+  Ru152  1  0.88377920  0.83305538  0.00218212  1
  Ru4+  Ru153  1  0.88827626  0.83357118  0.25126101  1
  Ru4+  Ru154  1  0.89046977  0.83220328  0.50055637  1
  Ru4+  Ru155  1  0.88873203  0.83292988  0.74887920  1
  Ru4+  Ru156  1  0.25012578  0.39535440  0.26767006  1
  Ru4+  Ru157  1  0.74996160  0.06909491  0.50610547  1
  Ru4+  Ru158  1  0.24990078  0.91378518  -0.01420924  1
  Ru4+  Ru159  1  0.25001627  0.61216211  -0.00350583  1
  Ru4+  Ru160  1  0.25016872  0.98648007  0.48591777  1
  Ru4+  Ru161  1  0.75002867  0.60897995  0.24174008  1
  Ru4+  Ru162  1  0.25013648  0.23894999  0.00087039  1
  Ru4+  Ru163  1  0.25025747  0.75557579  0.75506135  1
  Ru4+  Ru164  1  0.24935611  0.41565973  0.51369672  1
  Ru4+  Ru165  1  0.25059847  0.62244414  0.23413568  1
  Ru4+  Ru166  1  0.24997800  0.24154818  0.73681570  1
  Ru4+  Ru167  1  0.25050994  0.24602920  0.25352884  1
  Ru4+  Ru168  1  0.74993092  0.76911384  0.24905700  1
  Ru4+  Ru169  1  0.75008403  0.39083151  0.49759164  1
  Ru4+  Ru170  1  0.74978333  0.35732072  0.22775158  1
  Ru4+  Ru171  1  0.75028687  0.42637120  0.75174312  1
  Ru4+  Ru172  1  0.25010094  0.75215384  0.23421891  1
  Ru4+  Ru173  1  0.24993658  0.72750719  0.50235764  1
  Ru4+  Ru174  1  0.75035663  0.93469503  0.50974120  1
  Ru4+  Ru175  1  0.74987984  0.24463327  0.74337160  1
  Ru4+  Ru176  1  0.24941452  0.57063502  0.51033911  1
  Ru4+  Ru177  1  0.24993373  0.09561703  0.74177957  1
  Ru4+  Ru178  1  0.74975755  0.08579694  0.24827396  1
  Ru4+  Ru179  1  0.74988540  0.24369946  0.01042940  1
  O2-  O180  1  0.16455944  0.08395690  -0.00195987  1
  O2-  O181  1  0.16199328  0.07892278  0.25203725  1
  O2-  O182  1  0.16696795  0.08362594  0.50120888  1
  O2-  O183  1  0.16767772  0.08117224  0.74982808  1
  O2-  O184  1  0.16487425  0.41192028  -0.00235699  1
  O2-  O185  1  0.16577054  0.41232098  0.24886303  1
  O2-  O186  1  0.16719305  0.41446795  0.50226169  1
  O2-  O187  1  0.16569257  0.41283392  0.75218966  1
  O2-  O188  1  0.16718735  0.74996783  -0.00428481  1
  O2-  O189  1  0.16469649  0.75000632  0.25044452  1
  O2-  O190  1  0.16622150  0.74393615  0.50060947  1
  O2-  O191  1  0.16679590  0.74790971  0.75061482  1
  O2-  O192  1  0.66588919  0.08322968  -0.00334783  1
  O2-  O193  1  0.67040408  0.07985202  0.25120860  1
  O2-  O194  1  0.66664978  0.07850287  0.49994641  1
  O2-  O195  1  0.66456685  0.08139879  0.75205385  1
  O2-  O196  1  0.66617806  0.41223535  -0.00022958  1
  O2-  O197  1  0.66834517  0.41299713  0.24951487  1
  O2-  O198  1  0.67140569  0.41411209  0.50015557  1
  O2-  O199  1  0.66737180  0.41414054  0.75158993  1
  O2-  O200  1  0.66639547  0.75022207  0.00196958  1
  O2-  O201  1  0.66551935  0.74738304  0.25057795  1
  O2-  O202  1  0.66324489  0.74533006  0.49963899  1
  O2-  O203  1  0.66726352  0.74895638  0.75204372  1
  O2-  O204  1  0.33233451  0.25193682  -0.00142154  1
  O2-  O205  1  0.33456003  0.25383563  0.24933904  1
  O2-  O206  1  0.33574135  0.25227781  0.50071425  1
  O2-  O207  1  0.33244156  0.25253225  0.75022514  1
  O2-  O208  1  0.33105859  0.58753191  0.00080158  1
  O2-  O209  1  0.33443723  0.58743727  0.24976264  1
  O2-  O210  1  0.33366652  0.58560030  0.50062655  1
  O2-  O211  1  0.33404634  0.58615695  0.75045065  1
  O2-  O212  1  0.33518938  0.91812376  -0.00132314  1
  O2-  O213  1  0.33685817  0.92310866  0.25234078  1
  O2-  O214  1  0.33664833  0.92185299  0.49912340  1
  O2-  O215  1  0.33484043  0.91977288  0.74931689  1
  O2-  O216  1  0.83120422  0.25206341  -0.00269805  1
  O2-  O217  1  0.83133982  0.25025532  0.24859889  1
  O2-  O218  1  0.83840568  0.25599210  0.50109504  1
  O2-  O219  1  0.83181625  0.25189633  0.75035478  1
  O2-  O220  1  0.83582486  0.58578010  -0.00048038  1
  O2-  O221  1  0.83306011  0.58908351  0.24866551  1
  O2-  O222  1  0.83378926  0.58695255  0.50000446  1
  O2-  O223  1  0.83615124  0.58472463  0.75225874  1
  O2-  O224  1  0.83321678  0.91843188  -0.00201217  1
  O2-  O225  1  0.83677713  0.91837832  0.25181299  1
  O2-  O226  1  0.83323734  0.92107593  0.49898298  1
  O2-  O227  1  0.83471042  0.92075449  0.75245379  1
  O2-  O228  1  0.16919594  0.25144032  -0.00098613  1
  O2-  O229  1  0.16579047  0.25465926  0.24968055  1
  O2-  O230  1  0.16604086  0.25123754  0.50006144  1
  O2-  O231  1  0.16730303  0.25174475  0.75057643  1
  O2-  O232  1  0.16895647  0.58587285  -0.00201200  1
  O2-  O233  1  0.16834599  0.58691448  0.25290628  1
  O2-  O234  1  0.16694548  0.58562815  0.50170303  1
  O2-  O235  1  0.16474449  0.58644874  0.75077614  1
  O2-  O236  1  0.16745796  0.91747533  -0.00244246  1
  O2-  O237  1  0.16507500  0.92040561  0.24977770  1
  O2-  O238  1  0.16575536  0.92222827  0.49901005  1
  O2-  O239  1  0.16831632  0.91839358  0.75106394  1
  O2-  O240  1  0.66848215  0.25184466  -0.00243866  1
  O2-  O241  1  0.66580227  0.25098903  0.24744112  1
  O2-  O242  1  0.66247010  0.25528447  0.50060960  1
  O2-  O243  1  0.66843998  0.25230450  0.75224315  1
  O2-  O244  1  0.66766587  0.58576862  0.00040837  1
  O2-  O245  1  0.66545076  0.58884040  0.25070975  1
  O2-  O246  1  0.66308154  0.58547871  0.49914726  1
  O2-  O247  1  0.66754203  0.58254132  0.74967811  1
  O2-  O248  1  0.66393156  0.91830613  -0.00131051  1
  O2-  O249  1  0.66408573  0.91933312  0.25151981  1
  O2-  O250  1  0.66552986  0.91963408  0.49945176  1
  O2-  O251  1  0.66714853  0.91844028  0.75149562  1
  O2-  O252  1  0.33558033  0.08309011  -0.00083144  1
  O2-  O253  1  0.34050703  0.07556392  0.25214468  1
  O2-  O254  1  0.33418544  0.07916028  0.49804972  1
  O2-  O255  1  0.33172224  0.07977217  0.74849495  1
  O2-  O256  1  0.33498229  0.41189231  -0.00136019  1
  O2-  O257  1  0.33266604  0.41153582  0.25028363  1
  O2-  O258  1  0.33225804  0.41565727  0.50111540  1
  O2-  O259  1  0.33349999  0.41282094  0.75145309  1
  O2-  O260  1  0.33315553  0.74771225  -0.00088526  1
  O2-  O261  1  0.33553078  0.74853738  0.25003072  1
  O2-  O262  1  0.33379535  0.74447974  0.50066706  1
  O2-  O263  1  0.33304275  0.74850535  0.75020212  1
  O2-  O264  1  0.83384840  0.08361962  -0.00383944  1
  O2-  O265  1  0.83182105  0.08216021  0.25134556  1
  O2-  O266  1  0.83332897  0.07922468  0.49908941  1
  O2-  O267  1  0.83520823  0.08262759  0.75288828  1
  O2-  O268  1  0.83147543  0.41284023  -0.00130141  1
  O2-  O269  1  0.83198739  0.41192050  0.24859370  1
  O2-  O270  1  0.83248891  0.41282242  0.50070451  1
  O2-  O271  1  0.83276767  0.41399372  0.75029972  1
  O2-  O272  1  0.83373062  0.74838982  0.00012937  1
  O2-  O273  1  0.83388845  0.74754984  0.24984854  1
  O2-  O274  1  0.83770143  0.74531950  0.50106431  1
  O2-  O275  1  0.83547423  0.74643142  0.75280120  1
  O2-  O276  1  0.04519007  0.09939588  0.23955636  1
  O2-  O277  1  0.45525265  0.22915931  0.01170235  1
  O2-  O278  1  0.04743745  0.09700818  0.00818958  1
  O2-  O279  1  0.04583316  0.76364545  0.73713665  1
  O2-  O280  1  0.45170869  0.57581508  0.25976867  1
  O2-  O281  1  0.54947210  0.90134306  0.98291244  1
  O2-  O282  1  0.54846929  0.09651887  0.49117203  1
  O2-  O283  1  0.95562370  0.56775939  0.76275073  1
  O2-  O284  1  0.94070316  0.75021543  0.97623103  1
  O2-  O285  1  0.45053227  0.91061879  0.01666507  1
  O2-  O286  1  0.54020962  0.77509995  0.77264603  1
  O2-  O287  1  0.54990915  0.76366435  0.48168891  1
  O2-  O288  1  0.04764856  0.42302170  0.23512679  1
  O2-  O289  1  0.95235245  0.42768094  0.49222436  1
  O2-  O290  1  0.45326729  0.09804796  0.76738311  1
  O2-  O291  1  0.54839234  0.43181221  0.01257392  1
  O2-  O292  1  0.95345755  0.10019792  0.51075536  1
  O2-  O293  1  0.45365201  0.42798876  0.52293443  1
  O2-  O294  1  0.95421522  0.76476658  0.26117959  1
  O2-  O295  1  0.45334815  0.44196121  0.49871532  1
  O2-  O296  1  0.94249863  0.91714447  0.96134244  1
  O2-  O297  1  0.03452666  0.55402050  0.25312182  1
  O2-  O298  1  0.53201579  0.47582711  0.46926917  1
  O2-  O299  1  0.45093686  0.57408840  0.76458703  1
  O2-  O300  1  0.03515284  0.77361414  0.00904529  1
  O2-  O301  1  0.45102265  0.09681851  0.48638197  1
  O2-  O302  1  0.45528356  0.43681822  0.28033325  1
  O2-  O303  1  0.45099347  0.43138688  0.01598972  1
  O2-  O304  1  0.05147536  0.42568005  0.01434069  1
  O2-  O305  1  0.03903265  0.56032123  0.26830919  1
  O2-  O306  1  0.46042451  0.89301434  0.28022396  1
  O2-  O307  1  0.44987454  0.57765017  0.24016646  1
  O2-  O308  1  0.03678876  0.89485049  0.00831610  1
  O2-  O309  1  0.02177180  0.86717857  0.26856817  1
  O2-  O310  1  0.05092106  0.23729623  0.76235438  1
  O2-  O311  1  0.94839589  0.23762658  0.75976277  1
  O2-  O312  1  0.45432416  0.43079607  0.73690776  1
  O2-  O313  1  0.05010236  0.09446987  0.76770409  1
  O2-  O314  1  0.46628126  0.77750247  0.00707548  1
  O2-  O315  1  0.45626390  0.77214696  0.52868266  1
  O2-  O316  1  0.94805472  0.43419742  0.95505940  1
  O2-  O317  1  0.96069603  0.22280379  0.21922255  1
  O2-  O318  1  0.55365122  0.57414942  0.26616072  1
  O2-  O319  1  0.54215889  0.55061975  0.71274606  1
  O2-  O320  1  0.54394815  0.43966899  0.27944549  1
  O2-  O321  1  0.45244543  0.09575247  0.72828333  1
  O2-  O322  1  0.45424503  0.90874660  0.48532565  1
  O2-  O323  1  0.95076787  0.09366825  0.73612087  1
  O2-  O324  1  0.06259810  0.08124828  0.21938572  1
  O2-  O325  1  0.06474606  0.26194584  0.97659244  1
  O2-  O326  1  0.57808024  0.40955722  0.57529602  1
  O2-  O327  1  0.93220730  0.59404322  0.27677815  1
  O2-  O328  1  0.06602391  0.25543362  0.56088007  1
  O2-  O329  1  0.06191120  0.25828292  0.42858452  1
  O2-  O330  1  0.42636608  0.40023674  0.20914595  1
  O2-  O331  1  0.07282234  0.95149818  0.31360765  1
  O2-  O332  1  0.93528810  0.25683063  0.97458694  1
  O2-  O333  1  0.42891552  0.40173855  0.47100388  1
  O2-  O334  1  0.57289365  0.40074582  0.20989651  1
  O2-  O335  1  0.56689159  0.74164472  0.97309547  1
  O2-  O336  1  0.93123613  0.38960855  0.08901120  1
  O2-  O337  1  0.56578459  0.25485802  0.97414043  1
  O2-  O338  1  0.93341173  0.92833599  0.05459030  1
  O2-  O339  1  0.06169518  0.92522174  0.43810461  1
  O2-  O340  1  0.43439833  0.59191408  0.52697724  1
  O2-  O341  1  0.43592363  0.59622188  0.96698612  1
  O2-  O342  1  0.43203596  0.73008079  0.45077819  1
  O2-  O343  1  0.92849150  0.27343865  0.31557265  1
  O2-  O344  1  0.06590377  0.59212578  0.47457352  1
  O2-  O345  1  0.56370098  0.59313368  0.97275545  1
  O2-  O346  1  0.06335523  0.07586396  0.46481457  1
  O2-  O347  1  0.93718891  0.07554343  0.03230342  1
  O2-  O348  1  0.06275766  0.40198887  0.21389947  1
  O2-  O349  1  0.93528731  0.40818388  0.28163999  1
  O2-  O350  1  0.94261240  0.91698636  0.96222160  1
  O2-  O351  1  0.56082959  0.07050479  0.03202884  1
  O2-  O352  1  0.57223949  0.73376448  0.70808303  1
  O2-  O353  1  0.06510777  0.40602789  0.46781088  1
  O2-  O354  1  0.93819399  0.59715097  0.53571805  1
  O2-  O355  1  0.58122187  0.39568337  0.43702261  1
  O2-  O356  1  0.56324089  0.93024421  0.78186884  1
  O2-  O357  1  0.43252487  0.93939184  0.20335791  1
  O2-  O358  1  0.06302470  0.73391937  0.57128922  1
  O2-  O359  1  0.06332352  0.59217023  0.03026615  1
  O2-  O360  1  0.06710867  0.74943048  0.44036105  1
  O2-  O361  1  0.07474743  0.92868851  0.18365699  1
  O2-  O362  1  0.57567004  0.60296216  0.80177812  1
  O2-  O363  1  0.06367099  0.92543037  0.72477819  1
  O2-  O364  1  0.94456893  0.74445886  0.97038041  1
  O2-  O365  1  0.42811316  0.72156761  0.04040311  1
  O2-  O366  1  0.06812169  0.91982550  0.55833049  1
  O2-  O367  1  0.56208829  0.06946231  0.21888676  1
  O2-  O368  1  0.08001899  0.94463820  0.02983799  1
  O2-  O369  1  0.07919365  0.63619750  0.19063706  1
  O2-  O370  1  0.07542150  0.72464990  0.04156994  1
  O2-  O371  1  0.94686545  0.42526096  0.95281735  1
  O2-  O372  1  0.25056053  -0.00459943  0.17078870  1
  O2-  O373  1  0.74966590  0.33479248  0.09484079  1
  O2-  O374  1  0.75002318  0.66252738  0.43191775  1
  O2-  O375  1  0.75021426  0.66719025  0.64793272  1
  O2-  O376  1  0.75040527  0.66210160  0.06711710  1
  O2-  O377  1  0.74978129  0.68187079  0.33965134  1
  O2-  O378  1  0.25002728  0.33183550  0.65796235  1
  O2-  O379  1  0.25029212  0.31671233  0.34900922  1
  O2-  O380  1  0.25011473  0.68324536  0.33550304  1
  O2-  O381  1  0.25024819  0.67016611  0.84380470  1
  O2-  O382  1  0.75002596  0.68642412  0.15431358  1
  O2-  O383  1  0.75048269  0.33439362  0.65820609  1
  O2-  O384  1  0.75028268  0.33264469  0.35432465  1
  O2-  O385  1  0.25014289  0.66341167  0.69168501  1
  O2-  O386  1  0.25043346  0.32905470  0.44640824  1
  O2-  O387  1  0.25055233  0.33430494  0.04933819  1
  O2-  O388  1  0.25039834  0.65292448  0.59134081  1
  O2-  O389  1  0.75000884  0.00631553  0.10893339  1
  O2-  O390  1  0.24985198  -0.00102664  0.90511089  1
  O2-  O391  1  0.25002068  0.64280567  0.41885642  1
  O2-  O392  1  0.74915563  -0.00063062  0.63841835  1
  O2-  O393  1  0.25083909  0.00265395  0.60647012  1
  O2-  O394  1  0.25057325  0.00138255  0.07869459  1
  O2-  O395  1  0.25008082  0.32761186  0.16949576  1
  O2-  O396  1  0.74990341  0.16488399  0.63158149  1
  O2-  O397  1  0.74997687  0.49381478  0.87111016  1
  O2-  O398  1  0.75014194  0.49486342  0.66187226  1
  O2-  O399  1  0.25023916  0.49364862  0.84844566  1
  O2-  O400  1  0.25000447  0.16719569  0.84001426  1
  O2-  O401  1  0.25016603  0.16752611  0.61279953  1
  O2-  O402  1  0.75004439  0.83673957  0.63238912  1
  O2-  O403  1  0.25005001  0.82973437  0.14786559  1
  O2-  O404  1  0.74993542  0.14883243  0.36719925  1
  O2-  O405  1  0.24998187  0.51599047  0.92709298  1
  O2-  O406  1  0.74995083  0.16996902  0.08659006  1
  O2-  O407  1  0.25007475  0.17689285  0.36632327  1
  O2-  O408  1  0.25017593  0.83704605  0.90947279  1
  O2-  O409  1  0.24985775  0.49743683  0.33603754  1
  O2-  O410  1  0.25011444  0.82269027  0.64573070  1
  O2-  O411  1  0.25025695  0.81872995  0.38452205  1
  O2-  O412  1  0.74970922  0.83329114  0.90479288  1
  O2-  O413  1  0.74988390  0.83417505  0.34329886  1
  O2-  O414  1  0.25019343  0.49255146  0.42592547  1
  O2-  O415  1  0.25015675  0.18089236  0.12380280  1
  O2-  O416  1  0.24999789  0.82475570  0.06186129  1
  O2-  O417  1  0.74993431  0.50251539  0.15288882  1
  O2-  O418  1  0.24998461  0.49775385  0.59990801  1
  O2-  O419  1  0.74981930  0.83145848  0.16106896  1
  O2-  O420  1  0.45450988  0.32615893  0.62589993  1
  O2-  O421  1  0.45732598  0.32211885  0.37005828  1
  O2-  O422  1  0.53866801  0.31412941  0.36610229  1
  O2-  O423  1  0.52749967  0.66595376  0.12608194  1
  O2-  O424  1  0.52907672  0.00103282  0.37277271  1
  O2-  O425  1  0.46109421  0.67008826  0.63970239  1
  O2-  O426  1  0.95418567  -0.01024829  0.62148987  1
  O2-  O427  1  0.02980428  0.66688624  0.87462487  1
  O2-  O428  1  0.47210542  -0.00079341  0.87668364  1
  O2-  O429  1  0.51494900  0.67258989  0.87518478  1
  O2-  O430  1  0.97240441  0.32947583  0.86312966  1
  O2-  O431  1  0.03626014  0.01891803  0.62657329  1
  O2-  O432  1  0.02302925  0.34625813  0.63177684  1
  O2-  O433  1  0.45437750  0.33214871  0.87479108  1
  O2-  O434  1  0.53844516  0.31788842  0.63830972  1
  O2-  O435  1  0.03351097  0.66582441  0.35879969  1
  O2-  O436  1  0.96152761  0.66860421  0.38872473  1
  O2-  O437  1  0.01657769  0.00798533  0.12505361  1
  O2-  O438  1  0.53128359  0.32301434  0.11930372  1
  O2-  O439  1  0.53712907  0.65639126  0.60805058  1
  O2-  O440  1  0.03137963  0.34028893  0.87036080  1
  O2-  O441  1  0.54214592  0.34058910  0.86571478  1
  O2-  O442  1  0.96986883  0.00177385  0.37284867  1
  O2-  O443  1  0.46983689  0.32707740  0.11992992  1
