# generated using pymatgen
data_La7(Ru4O11)2
_symmetry_space_group_name_H-M   'P 1'
_cell_length_a   23.99539480
_cell_length_b   16.83480725
_cell_length_c   15.43123081
_cell_angle_alpha   90.00352963
_cell_angle_beta   89.99629281
_cell_angle_gamma   89.99983453
_symmetry_Int_Tables_number   1
_chemical_formula_structural   La7(Ru4O11)2
_chemical_formula_sum   'La84 Ru96 O264'
_cell_volume   6233.56673722
_cell_formula_units_Z   12
loop_
 _symmetry_equiv_pos_site_id
 _symmetry_equiv_pos_as_xyz
  1  'x, y, z'
loop_
 _atom_type_symbol
 _atom_type_oxidation_number
  La3+  3.0
  Ru4+  4.0
  O2-  -2.0
loop_
 _atom_site_type_symbol
 _atom_site_label
 _atom_site_symmetry_multiplicity
 _atom_site_fract_x
 _atom_site_fract_y
 _atom_site_fract_z
 _atom_site_occupancy
  La3+  La0  1  0.14553631  0.00686875  0.12508163  1
  La3+  La1  1  0.14119740  0.00500022  0.37319693  1
  La3+  La2  1  0.14373998  0.00470280  0.62723673  1
  La3+  La3  1  0.14570582  0.00659578  0.87854702  1
  La3+  La4  1  0.14250490  0.32633529  0.12382938  1
  La3+  La5  1  0.13211837  0.32229564  0.37362740  1
  La3+  La6  1  0.13994286  0.33600786  0.63101505  1
  La3+  La7  1  0.14541967  0.32487891  0.87601200  1
  La3+  La8  1  0.13345417  0.66388911  0.12896122  1
  La3+  La9  1  0.13606366  0.67095307  0.36973297  1
  La3+  La10  1  0.13976140  0.66546050  0.62990827  1
  La3+  La11  1  0.14455784  0.66372873  0.87427546  1
  La3+  La12  1  0.63683096  -0.00440471  0.12562831  1
  La3+  La13  1  0.63917814  0.00187430  0.37659226  1
  La3+  La14  1  0.64455533  -0.01072694  0.62905113  1
  La3+  La15  1  0.63947504  -0.00148955  0.87223411  1
  La3+  La16  1  0.63295357  0.33469195  0.12495600  1
  La3+  La17  1  0.63924963  0.33641918  0.37140760  1
  La3+  La18  1  0.63387764  0.33051183  0.62155927  1
  La3+  La19  1  0.63969299  0.32930995  0.87479891  1
  La3+  La20  1  0.64170873  0.66875653  0.12045032  1
  La3+  La21  1  0.63708709  0.66719528  0.38019709  1
  La3+  La22  1  0.63330875  0.66235749  0.63448054  1
  La3+  La23  1  0.63457808  0.66435603  0.86826728  1
  La3+  La24  1  0.36528228  0.00634109  0.11826692  1
  La3+  La25  1  0.35865125  0.00931269  0.37670257  1
  La3+  La26  1  0.34923249  0.00217626  0.62648794  1
  La3+  La27  1  0.35749224  0.00329182  0.87782262  1
  La3+  La28  1  0.35713998  0.32457602  0.12670437  1
  La3+  La29  1  0.36028997  0.32980699  0.37128787  1
  La3+  La30  1  0.35339800  0.32873010  0.62123567  1
  La3+  La31  1  0.36323180  0.33047502  0.87465335  1
  La3+  La32  1  0.36658614  0.66683092  0.11777578  1
  La3+  La33  1  0.36303373  0.66897684  0.37229152  1
  La3+  La34  1  0.35347807  0.66318146  0.62523940  1
  La3+  La35  1  0.34501687  0.66265957  0.87163987  1
  La3+  La36  1  0.87584392  -0.00111692  0.12901438  1
  La3+  La37  1  0.85458981  0.00161030  0.37548926  1
  La3+  La38  1  0.86273011  -0.00433409  0.62802322  1
  La3+  La39  1  0.85568698  -0.00055280  0.87874458  1
  La3+  La40  1  0.86233592  0.34047256  0.12399771  1
  La3+  La41  1  0.86631896  0.33530640  0.37070823  1
  La3+  La42  1  0.86016673  0.33531579  0.62557913  1
  La3+  La43  1  0.85793951  0.33104478  0.87823405  1
  La3+  La44  1  0.86309473  0.66393907  0.12207030  1
  La3+  La45  1  0.86364073  0.66918482  0.37571654  1
  La3+  La46  1  0.86197582  0.66622278  0.62744586  1
  La3+  La47  1  0.85566091  0.66504236  0.86965751  1
  La3+  La48  1  0.49824574  0.82799665  0.64041160  1
  La3+  La49  1  0.50797625  0.83640463  0.90286625  1
  La3+  La50  1  0.50242174  0.17096583  0.11311582  1
  La3+  La51  1  0.00451904  0.82813353  0.62282285  1
  La3+  La52  1  0.49479070  0.18306879  0.36971225  1
  La3+  La53  1  -0.00286843  0.50740265  0.38082153  1
  La3+  La54  1  0.00410287  0.50117855  0.87804900  1
  La3+  La55  1  0.00255672  0.17218424  0.64252408  1
  La3+  La56  1  0.48439164  0.18281246  0.88467624  1
  La3+  La57  1  0.50437247  0.50008609  0.64103801  1
  La3+  La58  1  0.50228986  0.50842776  0.12871684  1
  La3+  La59  1  0.49751630  0.49537194  0.38069443  1
  La3+  La60  1  0.00203313  0.16945223  0.62585493  1
  La3+  La61  1  -0.00084670  0.83392962  0.87630947  1
  La3+  La62  1  0.49535946  0.50150108  0.86426802  1
  La3+  La63  1  0.49300390  0.83851457  0.62246163  1
  La3+  La64  1  0.50183742  0.83299161  0.36278652  1
  La3+  La65  1  -0.00091007  0.17055187  0.11562252  1
  La3+  La66  1  0.00995519  0.82268391  0.11042349  1
  La3+  La67  1  0.49459646  0.18415239  0.35349978  1
  La3+  La68  1  0.00540031  0.50267072  0.87772723  1
  La3+  La69  1  0.50191955  0.50271280  0.62448831  1
  La3+  La70  1  0.50364468  0.14401667  0.64023298  1
  La3+  La71  1  -0.00564132  0.81933547  0.37365669  1
  La3+  La72  1  0.74759869  0.87823439  0.25919599  1
  La3+  La73  1  0.74818165  0.20830785  0.51587497  1
  La3+  La74  1  0.74981168  0.51244621  0.49927684  1
  La3+  La75  1  0.24942202  0.43293954  0.43936477  1
  La3+  La76  1  0.75158135  0.10819440  0.23713585  1
  La3+  La77  1  0.75047757  0.44692850  0.22197432  1
  La3+  La78  1  0.25110915  0.50377118  0.23692915  1
  La3+  La79  1  0.25075687  0.85020258  0.41898420  1
  La3+  La80  1  0.75150598  0.12005759  -0.00478780  1
  La3+  La81  1  0.75034743  0.50543402  -0.03025705  1
  La3+  La82  1  0.24881998  0.50363717  0.76522317  1
  La3+  La83  1  0.75081146  0.88191806  0.01457838  1
  Ru4+  Ru84  1  0.00284715  0.00575442  -0.00543128  1
  Ru4+  Ru85  1  -0.00239060  -0.01506464  0.25705509  1
  Ru4+  Ru86  1  -0.00556520  0.00242287  0.49627504  1
  Ru4+  Ru87  1  -0.00139839  -0.00369305  0.75000128  1
  Ru4+  Ru88  1  -0.00833276  0.32030362  0.01466570  1
  Ru4+  Ru89  1  -0.00244205  0.32968662  0.25831063  1
  Ru4+  Ru90  1  0.00972035  0.35336973  0.49588647  1
  Ru4+  Ru91  1  -0.00333522  0.34662117  0.72043598  1
  Ru4+  Ru92  1  -0.00424700  0.66928226  0.01044697  1
  Ru4+  Ru93  1  0.00116299  0.66149214  0.25201328  1
  Ru4+  Ru94  1  0.00075826  0.66131987  0.50672795  1
  Ru4+  Ru95  1  -0.00191692  0.67257785  0.73868421  1
  Ru4+  Ru96  1  0.49773537  0.00311296  0.00727467  1
  Ru4+  Ru97  1  0.50085341  -0.00075549  0.24269865  1
  Ru4+  Ru98  1  0.49753479  0.00529149  0.48541335  1
  Ru4+  Ru99  1  0.49334804  0.00272310  0.76770329  1
  Ru4+  Ru100  1  0.49978831  0.33564981  -0.00129001  1
  Ru4+  Ru101  1  0.49900510  0.33966637  0.23947816  1
  Ru4+  Ru102  1  0.50327872  0.31407622  0.51841225  1
  Ru4+  Ru103  1  0.50278010  0.33099250  0.74212924  1
  Ru4+  Ru104  1  0.49315032  0.67762860  0.00706790  1
  Ru4+  Ru105  1  0.49714062  0.66849461  0.25258674  1
  Ru4+  Ru106  1  0.49968234  0.66466466  0.49378311  1
  Ru4+  Ru107  1  0.49802621  0.67608111  0.76113221  1
  Ru4+  Ru108  1  0.11461522  0.16659522  0.00065832  1
  Ru4+  Ru109  1  0.11266553  0.16816826  0.25314594  1
  Ru4+  Ru110  1  0.11278179  0.16869975  0.50069625  1
  Ru4+  Ru111  1  0.11276319  0.16459055  0.75189941  1
  Ru4+  Ru112  1  0.11916059  0.49733404  0.00515697  1
  Ru4+  Ru113  1  0.10814889  0.50284417  0.24918732  1
  Ru4+  Ru114  1  0.10692616  0.49679854  0.49751110  1
  Ru4+  Ru115  1  0.10997513  0.49375176  0.74183913  1
  Ru4+  Ru116  1  0.11214125  0.83114645  -0.00216851  1
  Ru4+  Ru117  1  0.11125753  0.84097759  0.24942036  1
  Ru4+  Ru118  1  0.10713019  0.83563932  0.50271779  1
  Ru4+  Ru119  1  0.11554718  0.83201413  0.75061295  1
  Ru4+  Ru120  1  0.60810448  0.16666455  0.00031744  1
  Ru4+  Ru121  1  0.61037240  0.16564085  0.25156070  1
  Ru4+  Ru122  1  0.60966366  0.16354920  0.50206044  1
  Ru4+  Ru123  1  0.60731374  0.16141268  0.75415174  1
  Ru4+  Ru124  1  0.61325709  0.50268174  0.00891129  1
  Ru4+  Ru125  1  0.60830305  0.50068205  0.25274144  1
  Ru4+  Ru126  1  0.60295897  0.50104634  0.49797137  1
  Ru4+  Ru127  1  0.62195764  0.49894352  0.75079896  1
  Ru4+  Ru128  1  0.61003835  0.83159744  0.00350759  1
  Ru4+  Ru129  1  0.60426790  0.83280861  0.25322085  1
  Ru4+  Ru130  1  0.61427316  0.83288546  0.49098295  1
  Ru4+  Ru131  1  0.61928199  0.82439690  0.75383745  1
  Ru4+  Ru132  1  0.37868350  0.16995340  0.00279227  1
  Ru4+  Ru133  1  0.38321545  0.16463322  0.24847643  1
  Ru4+  Ru134  1  0.38824074  0.16377810  0.50197385  1
  Ru4+  Ru135  1  0.38453121  0.16235537  0.74636805  1
  Ru4+  Ru136  1  0.38315374  0.50063239  0.00318693  1
  Ru4+  Ru137  1  0.39572039  0.50243338  0.25055956  1
  Ru4+  Ru138  1  0.39187558  0.49813230  0.50128056  1
  Ru4+  Ru139  1  0.38598518  0.49864873  0.74934657  1
  Ru4+  Ru140  1  0.39443660  0.82240576  -0.00459135  1
  Ru4+  Ru141  1  0.38751669  0.83253647  0.25023323  1
  Ru4+  Ru142  1  0.39433725  0.83520325  0.49336774  1
  Ru4+  Ru143  1  0.38785250  0.83040952  0.75483241  1
  Ru4+  Ru144  1  0.89783743  0.17250188  -0.00535913  1
  Ru4+  Ru145  1  0.89500000  0.16597560  0.25158112  1
  Ru4+  Ru146  1  0.88103613  0.15967378  0.49092555  1
  Ru4+  Ru147  1  0.88939788  0.16423027  0.74617030  1
  Ru4+  Ru148  1  0.88766305  0.49711245  0.00528323  1
  Ru4+  Ru149  1  0.89339459  0.50035551  0.24956074  1
  Ru4+  Ru150  1  0.89249099  0.49775214  0.49681675  1
  Ru4+  Ru151  1  0.88830083  0.49419411  0.74195409  1
  Ru4+  Ru152  1  0.89133691  0.83505970  -0.00190533  1
  Ru4+  Ru153  1  0.89237233  0.83791548  0.25376743  1
  Ru4+  Ru154  1  0.88620308  0.83242655  0.50050584  1
  Ru4+  Ru155  1  0.88456350  0.83220899  0.75110318  1
  Ru4+  Ru156  1  0.74917753  0.74022645  0.26670306  1
  Ru4+  Ru157  1  0.74914047  0.27105610  0.02331133  1
  Ru4+  Ru158  1  0.25038692  0.34899390  0.26110138  1
  Ru4+  Ru159  1  0.75098790  0.05997925  0.52457446  1
  Ru4+  Ru160  1  0.25058602  0.23231634  0.72338131  1
  Ru4+  Ru161  1  0.24943237  0.91302541  0.75369897  1
  Ru4+  Ru162  1  0.24874265  0.59802233  0.48864478  1
  Ru4+  Ru163  1  0.25052619  0.90640354  0.00046124  1
  Ru4+  Ru164  1  0.24883201  0.75620078  -0.00467214  1
  Ru4+  Ru165  1  0.74980678  0.23837205  0.75625264  1
  Ru4+  Ru166  1  0.25148692  0.91488102  0.24531067  1
  Ru4+  Ru167  1  0.24916924  0.73841126  0.52154090  1
  Ru4+  Ru168  1  0.25035401  0.65436258  0.25033769  1
  Ru4+  Ru169  1  0.75151962  0.09130098  0.75209280  1
  Ru4+  Ru170  1  0.74988990  0.58995957  0.26273173  1
  Ru4+  Ru171  1  0.24919013  0.97176794  0.52397650  1
  Ru4+  Ru172  1  0.75066092  0.26571614  0.23917830  1
  Ru4+  Ru173  1  0.75055664  0.43272933  0.74384041  1
  Ru4+  Ru174  1  0.25102213  0.41523280  0.01743091  1
  Ru4+  Ru175  1  0.75020926  0.90188683  0.50937460  1
  Ru4+  Ru176  1  0.74996254  0.66325333  0.50470311  1
  Ru4+  Ru177  1  0.75025710  0.90086627  0.75869989  1
  Ru4+  Ru178  1  0.75067690  0.73577169  -0.03045190  1
  Ru4+  Ru179  1  0.74957747  0.37105642  0.45962391  1
  O2-  O180  1  0.16707578  0.08340238  0.00021139  1
  O2-  O181  1  0.16266715  0.08168330  0.25132257  1
  O2-  O182  1  0.16055085  0.08003557  0.49952445  1
  O2-  O183  1  0.16284368  0.08092401  0.75052887  1
  O2-  O184  1  0.16792866  0.40954593  0.00303902  1
  O2-  O185  1  0.16508925  0.41293805  0.25724441  1
  O2-  O186  1  0.16309273  0.41097038  0.49536650  1
  O2-  O187  1  0.16779281  0.41266163  0.75270133  1
  O2-  O188  1  0.16443311  0.74619916  0.00282707  1
  O2-  O189  1  0.16617358  0.75098712  0.24838152  1
  O2-  O190  1  0.16577787  0.74787935  0.49990589  1
  O2-  O191  1  0.16589295  0.74835839  0.75177587  1
  O2-  O192  1  0.66030162  0.07835702  -0.00039079  1
  O2-  O193  1  0.65880063  0.07701356  0.24600723  1
  O2-  O194  1  0.67171586  0.07683139  0.49984248  1
  O2-  O195  1  0.67098245  0.08422155  0.75674094  1
  O2-  O196  1  0.66215309  0.41383078  0.00188126  1
  O2-  O197  1  0.66026892  0.41295660  0.24694650  1
  O2-  O198  1  0.66622527  0.41516335  0.49805124  1
  O2-  O199  1  0.67053138  0.41419122  0.75272670  1
  O2-  O200  1  0.67068277  0.74856762  -0.00488705  1
  O2-  O201  1  0.66373393  0.74810028  0.25595490  1
  O2-  O202  1  0.66759790  0.74416777  0.50272544  1
  O2-  O203  1  0.67292120  0.74592933  0.74444295  1
  O2-  O204  1  0.33139760  0.25619856  -0.00464691  1
  O2-  O205  1  0.32969405  0.25334181  0.25084717  1
  O2-  O206  1  0.33300273  0.24687754  0.50310098  1
  O2-  O207  1  0.33325125  0.25362906  0.75246321  1
  O2-  O208  1  0.33427286  0.58578938  0.00877915  1
  O2-  O209  1  0.33240211  0.59127303  0.24868458  1
  O2-  O210  1  0.33358090  0.58674190  0.48936457  1
  O2-  O211  1  0.33080729  0.58408452  0.74569224  1
  O2-  O212  1  0.33494869  0.91384309  0.00573971  1
  O2-  O213  1  0.33211873  0.91596876  0.24958104  1
  O2-  O214  1  0.32991552  0.91837200  0.49497996  1
  O2-  O215  1  0.33104962  0.91280116  0.76081365  1
  O2-  O216  1  0.83012800  0.25084388  0.00143936  1
  O2-  O217  1  0.83584873  0.25238384  0.24678857  1
  O2-  O218  1  0.83656452  0.25536346  0.49612130  1
  O2-  O219  1  0.83272511  0.24985909  0.75324716  1
  O2-  O220  1  0.83795963  0.58577887  -0.00444090  1
  O2-  O221  1  0.83594266  0.58668120  0.24965272  1
  O2-  O222  1  0.83398533  0.58933194  0.50200775  1
  O2-  O223  1  0.83680447  0.58242884  0.74971175  1
  O2-  O224  1  0.84304044  0.92357876  0.00442842  1
  O2-  O225  1  0.83530385  0.91958789  0.23498757  1
  O2-  O226  1  0.83106351  0.91328278  0.50639957  1
  O2-  O227  1  0.83253516  0.91723146  0.75080735  1
  O2-  O228  1  0.16755562  0.25156320  0.00192023  1
  O2-  O229  1  0.16721418  0.25503480  0.25256439  1
  O2-  O230  1  0.16173744  0.25574114  0.49689983  1
  O2-  O231  1  0.16938653  0.24913885  0.75012984  1
  O2-  O232  1  0.16202708  0.58772953  0.00429823  1
  O2-  O233  1  0.17291992  0.59154335  0.25045048  1
  O2-  O234  1  0.16291421  0.58686119  0.49577370  1
  O2-  O235  1  0.16668354  0.58500410  0.75260183  1
  O2-  O236  1  0.16522473  0.91880161  0.00086640  1
  O2-  O237  1  0.17116286  0.91635176  0.25429636  1
  O2-  O238  1  0.16857110  0.92089104  0.49879571  1
  O2-  O239  1  0.16444630  0.92045420  0.74991754  1
  O2-  O240  1  0.66794754  0.25106091  0.00438129  1
  O2-  O241  1  0.66646087  0.25379129  0.24105740  1
  O2-  O242  1  0.66151150  0.25525886  0.49585563  1
  O2-  O243  1  0.66587331  0.24651939  0.74901859  1
  O2-  O244  1  0.66674875  0.58383988  -0.00931570  1
  O2-  O245  1  0.66371006  0.58696168  0.25515790  1
  O2-  O246  1  0.66637492  0.59131927  0.50212489  1
  O2-  O247  1  0.66861439  0.58785750  0.75186602  1
  O2-  O248  1  0.65793749  0.92136698  0.00006350  1
  O2-  O249  1  0.65662618  0.91950516  0.25127578  1
  O2-  O250  1  0.66922522  0.91187676  0.49853288  1
  O2-  O251  1  0.66855089  0.91345766  0.75637604  1
  O2-  O252  1  0.33029869  0.08008010  0.00151522  1
  O2-  O253  1  0.33274548  0.07981117  0.24568783  1
  O2-  O254  1  0.32981324  0.08307425  0.49401211  1
  O2-  O255  1  0.32979809  0.08573519  0.75174131  1
  O2-  O256  1  0.33431628  0.41241213  0.00102940  1
  O2-  O257  1  0.33270430  0.41372100  0.24969104  1
  O2-  O258  1  0.33637131  0.41256414  0.49619133  1
  O2-  O259  1  0.33439481  0.41255276  0.75470900  1
  O2-  O260  1  0.33053298  0.74974512  0.01015347  1
  O2-  O261  1  0.33279104  0.74518593  0.24906954  1
  O2-  O262  1  0.33366811  0.74763848  0.49602151  1
  O2-  O263  1  0.33359337  0.75119348  0.75105730  1
  O2-  O264  1  0.84671609  0.08027734  0.00443917  1
  O2-  O265  1  0.84505053  0.07670280  0.24627085  1
  O2-  O266  1  0.83486926  0.07369438  0.51230195  1
  O2-  O267  1  0.83675547  0.08010886  0.75071008  1
  O2-  O268  1  0.83178821  0.41692826  -0.00055812  1
  O2-  O269  1  0.83986935  0.41273426  0.25146705  1
  O2-  O270  1  0.83494082  0.41371103  0.49461087  1
  O2-  O271  1  0.83181292  0.41636448  0.75296844  1
  O2-  O272  1  0.83113968  0.74890085  -0.00087924  1
  O2-  O273  1  0.83273175  0.75236499  0.24877780  1
  O2-  O274  1  0.83110703  0.74457003  0.50241374  1
  O2-  O275  1  0.83164117  0.74648728  0.74845659  1
  O2-  O276  1  0.96771191  0.21272093  0.94526009  1
  O2-  O277  1  0.45310881  0.56627671  0.01751372  1
  O2-  O278  1  0.54272042  0.57094016  0.27136736  1
  O2-  O279  1  0.45053888  0.23921257  0.74959657  1
  O2-  O280  1  0.55601451  0.53862403  0.94784110  1
  O2-  O281  1  0.04870932  0.57347954  0.75660297  1
  O2-  O282  1  0.95115816  0.76768013  0.74364870  1
  O2-  O283  1  0.04541733  0.09495736  0.73386421  1
  O2-  O284  1  0.04825021  0.76055055  0.23176644  1
  O2-  O285  1  0.04608577  0.90132720  0.99363963  1
  O2-  O286  1  0.04662420  0.55652840  -0.00070628  1
  O2-  O287  1  0.45848840  0.90200323  0.79547607  1
  O2-  O288  1  0.95284293  0.24195790  0.50652578  1
  O2-  O289  1  0.05123174  0.23926396  0.25853691  1
  O2-  O290  1  0.46834523  0.78025495  0.03363787  1
  O2-  O291  1  0.94949137  0.76492196  0.75306542  1
  O2-  O292  1  0.96205016  0.23196506  0.48554792  1
  O2-  O293  1  0.45358658  0.76694263  0.24523384  1
  O2-  O294  1  0.55628787  0.90407293  0.77472161  1
  O2-  O295  1  0.95643923  0.76908894  0.51195304  1
  O2-  O296  1  0.54616122  0.10462979  0.44532620  1
  O2-  O297  1  0.04149399  0.55872382  0.50815941  1
  O2-  O298  1  0.05268624  0.58140035  0.77248595  1
  O2-  O299  1  0.46837575  0.78707736  1.02519108  1
  O2-  O300  1  0.95682844  0.09095331  0.23112487  1
  O2-  O301  1  0.95697222  0.88261838  0.19753252  1
  O2-  O302  1  0.44061784  0.08947669  0.01487290  1
  O2-  O303  1  0.54536740  0.76562660  0.49389601  1
  O2-  O304  1  0.55522475  0.23146823  0.55534454  1
  O2-  O305  1  0.45359046  0.56600286  0.99651012  1
  O2-  O306  1  0.94754902  0.57448383  0.97562372  1
  O2-  O307  1  0.05050102  0.90932791  0.31570838  1
  O2-  O308  1  0.54921255  0.11024817  0.95403620  1
  O2-  O309  1  0.45587946  0.21652525  0.54646137  1
  O2-  O310  1  0.05093832  0.58461370  0.97523768  1
  O2-  O311  1  0.95568892  0.56557896  0.24815096  1
  O2-  O312  1  0.05525478  0.42653298  0.69468963  1
  O2-  O313  1  0.04640221  0.76305786  0.25217340  1
  O2-  O314  1  0.54938907  0.56646477  0.74258857  1
  O2-  O315  1  0.45972327  0.76975855  0.79691952  1
  O2-  O316  1  0.45348663  0.42778086  0.74747947  1
  O2-  O317  1  0.94539107  0.57405839  0.77965365  1
  O2-  O318  1  0.44995116  0.57862391  0.75408133  1
  O2-  O319  1  0.94700228  0.24222622  0.25996213  1
  O2-  O320  1  0.55290649  0.91143948  0.73656561  1
  O2-  O321  1  0.53374158  0.11502432  0.79310943  1
  O2-  O322  1  0.05278926  0.75968762  0.77384311  1
  O2-  O323  1  0.43997630  0.07356812  0.43659249  1
  O2-  O324  1  0.56253679  0.24290444  0.56092444  1
  O2-  O325  1  0.44093800  0.58911792  0.53407280  1
  O2-  O326  1  0.92521181  0.94113642  0.31158990  1
  O2-  O327  1  0.55974243  0.27955450  0.41206242  1
  O2-  O328  1  0.55893766  0.06975703  0.28671000  1
  O2-  O329  1  0.41242860  0.09685647  0.59822154  1
  O2-  O330  1  0.43937772  0.25718422  0.22028046  1
  O2-  O331  1  0.56172224  0.92467745  0.45750622  1
  O2-  O332  1  0.06763277  0.95108233  0.17784302  1
  O2-  O333  1  0.56022420  0.41265683  0.22973951  1
  O2-  O334  1  0.58621197  0.06296493  0.70248362  1
  O2-  O335  1  0.56532942  0.26560893  0.96899507  1
  O2-  O336  1  0.56126340  0.25649876  0.26029205  1
  O2-  O337  1  0.93825049  0.40839377  0.27605550  1
  O2-  O338  1  0.41850781  0.70299490  0.93525896  1
  O2-  O339  1  0.56228706  0.42166509  0.74057633  1
  O2-  O340  1  0.93365315  0.92454495  0.48148792  1
  O2-  O341  1  0.56866678  0.74207329  0.02283207  1
  O2-  O342  1  0.06509912  0.59375163  0.21715506  1
  O2-  O343  1  0.44298099  0.09196430  0.03512530  1
  O2-  O344  1  0.92958828  0.23317686  0.42830501  1
  O2-  O345  1  0.56139374  0.58510007  0.71474052  1
  O2-  O346  1  0.05247502  0.42444057  0.70341657  1
  O2-  O347  1  0.93760215  0.74574251  0.01404004  1
  O2-  O348  1  0.43244500  0.92692192  0.97540262  1
  O2-  O349  1  0.44479231  0.08552547  0.44598036  1
  O2-  O350  1  0.43699805  0.26113281  0.03385285  1
  O2-  O351  1  0.93968887  0.41046928  0.01562458  1
  O2-  O352  1  0.56425115  0.26295227  0.78456950  1
  O2-  O353  1  0.93623518  0.26279444  0.56677845  1
  O2-  O354  1  0.06304151  0.26222796  0.03466093  1
  O2-  O355  1  0.56654795  0.73999062  0.76886638  1
  O2-  O356  1  0.94227157  0.25200646  0.72586274  1
  O2-  O357  1  0.05977451  0.25568048  0.72581392  1
  O2-  O358  1  0.56106421  0.04728477  0.07958650  1
  O2-  O359  1  0.06252464  0.07818885  0.98154417  1
  O2-  O360  1  0.06816932  0.39635223  0.86592155  1
  O2-  O361  1  0.43202458  0.72138257  0.67176831  1
  O2-  O362  1  0.57365210  0.59401791  0.07055683  1
  O2-  O363  1  0.41260699  0.91678576  0.67789024  1
  O2-  O364  1  0.94197489  0.40116388  0.82703870  1
  O2-  O365  1  0.92425000  0.26004220  0.06364681  1
  O2-  O366  1  0.42559535  0.26142683  0.42889249  1
  O2-  O367  1  0.93312719  0.73800961  0.27850040  1
  O2-  O368  1  0.43906493  0.07426101  0.27228732  1
  O2-  O369  1  0.58652537  0.07646968  0.56205044  1
  O2-  O370  1  0.93524875  0.41455639  0.67321812  1
  O2-  O371  1  0.43238371  0.07416076  0.77831271  1
  O2-  O372  1  0.75057694  -0.00398807  0.95187302  1
  O2-  O373  1  0.75115536  -0.00019052  0.65666027  1
  O2-  O374  1  0.74897058  0.35327204  0.94695310  1
  O2-  O375  1  0.24792452  -0.01014161  0.39089104  1
  O2-  O376  1  0.24926151  -0.00201708  0.92221694  1
  O2-  O377  1  0.74955532  0.67006479  0.17275043  1
  O2-  O378  1  0.25098536  0.66805725  0.38358568  1
  O2-  O379  1  0.75067896  -0.02024417  0.43103467  1
  O2-  O380  1  0.74996354  0.33726549  0.13107820  1
  O2-  O381  1  0.75047622  0.32990154  0.68794319  1
  O2-  O382  1  0.74901425  -0.00509154  0.29659677  1
  O2-  O383  1  0.75150663  0.65155751  0.88578272  1
  O2-  O384  1  0.24895039  0.00304370  0.82858896  1
  O2-  O385  1  0.75041188  0.33734028  0.56986096  1
  O2-  O386  1  0.75096096  0.34443180  0.34145874  1
  O2-  O387  1  0.75056657  0.33604814  0.82347016  1
  O2-  O388  1  0.24883130  0.32933253  0.65810785  1
  O2-  O389  1  0.24911867  0.65752636  0.61680878  1
  O2-  O390  1  0.24920817  0.33700061  0.13242535  1
  O2-  O391  1  0.74856131  0.66728726  0.37218735  1
  O2-  O392  1  0.24631715  -0.00853477  0.64934669  1
  O2-  O393  1  0.75010430  0.65598157  0.04731196  1
  O2-  O394  1  0.75093771  -0.00112225  0.81757526  1
  O2-  O395  1  0.24649873  0.67275878  0.90695834  1
  O2-  O396  1  0.24976782  0.82610229  0.68128515  1
  O2-  O397  1  0.25002233  0.50431208  0.55001434  1
  O2-  O398  1  0.74924589  0.20574629  0.33754393  1
  O2-  O399  1  0.75025841  0.49239521  0.64556744  1
  O2-  O400  1  0.24941537  0.51910175  0.96997137  1
  O2-  O401  1  0.74965059  0.51115137  0.35393558  1
  O2-  O402  1  0.75047809  0.17043429  0.85852801  1
  O2-  O403  1  0.75045674  0.15421331  0.64870395  1
  O2-  O404  1  0.74973294  0.51512877  0.10604156  1
  O2-  O405  1  0.24898076  0.16968665  0.41577392  1
  O2-  O406  1  0.25093386  0.47891676  0.89234965  1
  O2-  O407  1  0.75404345  0.11308681  0.41455112  1
  O2-  O408  1  0.24981653  0.49234549  0.63554050  1
  O2-  O409  1  0.24952438  0.49413781  0.10289754  1
  O2-  O410  1  0.25012671  0.83595756  0.59142560  1
  O2-  O411  1  0.75017869  0.19585578  0.12587323  1
  O2-  O412  1  0.24967440  0.16773483  0.33552826  1
  O2-  O413  1  0.25050405  0.16254943  0.09242306  1
  O2-  O414  1  0.24910358  0.83677245  0.09745575  1
  O2-  O415  1  0.24954971  0.83621467  0.90084062  1
  O2-  O416  1  0.75088460  0.83200822  0.87798222  1
  O2-  O417  1  0.24973902  0.17414372  0.90838361  1
  O2-  O418  1  0.24972832  0.16884909  0.82438036  1
  O2-  O419  1  0.24936595  0.17952919  0.62805547  1
  O2-  O420  1  0.01995223  -0.01187396  0.86585784  1
  O2-  O421  1  0.99251025  0.35369198  0.38070923  1
  O2-  O422  1  0.99195059  0.02249529  0.37997212  1
  O2-  O423  1  0.48692129  0.00541244  0.88723780  1
  O2-  O424  1  0.53818700  0.35704843  0.62638717  1
  O2-  O425  1  0.52395214  0.67124832  0.61913428  1
  O2-  O426  1  0.52680614  0.32728705  0.11694713  1
  O2-  O427  1  0.44785046  0.35007432  0.61231968  1
  O2-  O428  1  0.98705842  0.33809107  0.13976023  1
  O2-  O429  1  0.52377596  0.66488052  0.88057575  1
  O2-  O430  1  0.51413079  0.67193125  0.14000162  1
  O2-  O431  1  0.95237733  0.64509457  0.40451232  1
  O2-  O432  1  0.47181916  0.33768268  0.87764263  1
  O2-  O433  1  0.47999621  -0.00006189  0.63711739  1
  O2-  O434  1  0.03047717  0.31773906  0.60419740  1
  O2-  O435  1  0.04476679  0.66517708  0.38520154  1
  O2-  O436  1  0.47399803  -0.01994532  0.13518276  1
  O2-  O437  1  0.47781699  0.36149001  0.35957561  1
  O2-  O438  1  0.97412611  0.00161063  0.62527987  1
  O2-  O439  1  0.97278786  0.66872085  0.13295504  1
  O2-  O440  1  0.04689828  0.68904591  0.61506015  1
  O2-  O441  1  0.95393034  0.65181771  0.61727401  1
  O2-  O442  1  0.53284033  -0.02876114  0.59982636  1
  O2-  O443  1  0.97327422  0.00194520  0.10692577  1
