# generated using pymatgen
data_La7(Ru4O11)2
_symmetry_space_group_name_H-M   'P 1'
_cell_length_a   23.98935006
_cell_length_b   16.82923426
_cell_length_c   15.42634054
_cell_angle_alpha   89.99966698
_cell_angle_beta   89.99966931
_cell_angle_gamma   90.00093725
_symmetry_Int_Tables_number   1
_chemical_formula_structural   La7(Ru4O11)2
_chemical_formula_sum   'La84 Ru96 O264'
_cell_volume   6227.95909819
_cell_formula_units_Z   12
loop_
 _symmetry_equiv_pos_site_id
 _symmetry_equiv_pos_as_xyz
  1  'x, y, z'
loop_
 _atom_type_symbol
 _atom_type_oxidation_number
  La3+  3.0
  Ru4+  4.0
  O2-  -2.0
loop_
 _atom_site_type_symbol
 _atom_site_label
 _atom_site_symmetry_multiplicity
 _atom_site_fract_x
 _atom_site_fract_y
 _atom_site_fract_z
 _atom_site_occupancy
  La3+  La0  1  0.13780948  -0.00227570  0.12764088  1
  La3+  La1  1  0.13915699  0.00033220  0.37343057  1
  La3+  La2  1  0.13689647  0.00151553  0.62478886  1
  La3+  La3  1  0.13696629  -0.00139412  0.87458063  1
  La3+  La4  1  0.13630381  0.33423145  0.12509567  1
  La3+  La5  1  0.13756823  0.33153269  0.37670561  1
  La3+  La6  1  0.13995846  0.33109091  0.62611686  1
  La3+  La7  1  0.13803695  0.33362158  0.87299174  1
  La3+  La8  1  0.13758910  0.66574140  0.12296687  1
  La3+  La9  1  0.13601093  0.66623093  0.37371455  1
  La3+  La10  1  0.13712260  0.66560841  0.62492570  1
  La3+  La11  1  0.13833865  0.66664490  0.87787951  1
  La3+  La12  1  0.63953351  -0.00157887  0.12532288  1
  La3+  La13  1  0.63958195  -0.00041795  0.37345125  1
  La3+  La14  1  0.63838130  -0.00018614  0.62632451  1
  La3+  La15  1  0.63784859  0.00005047  0.87411738  1
  La3+  La16  1  0.63813249  0.33276977  0.12464611  1
  La3+  La17  1  0.63996310  0.33174663  0.37627441  1
  La3+  La18  1  0.63959076  0.33278231  0.62546292  1
  La3+  La19  1  0.63826175  0.33306364  0.87472902  1
  La3+  La20  1  0.63897259  0.66803228  0.12355014  1
  La3+  La21  1  0.63816147  0.66773909  0.37570914  1
  La3+  La22  1  0.63881833  0.66756707  0.62538969  1
  La3+  La23  1  0.64040426  0.66803739  0.87597535  1
  La3+  La24  1  0.36172392  -0.00180930  0.12725385  1
  La3+  La25  1  0.36145952  0.00011224  0.37540943  1
  La3+  La26  1  0.36306600  0.00182348  0.62280275  1
  La3+  La27  1  0.36326512  -0.00026338  0.87414692  1
  La3+  La28  1  0.36187929  0.33419579  0.12653718  1
  La3+  La29  1  0.36243945  0.33254921  0.37637690  1
  La3+  La30  1  0.35914143  0.33131793  0.62508354  1
  La3+  La31  1  0.36055690  0.33313326  0.87116594  1
  La3+  La32  1  0.36082658  0.66786408  0.12220584  1
  La3+  La33  1  0.36245408  0.66687495  0.37520263  1
  La3+  La34  1  0.36305809  0.66635717  0.62497751  1
  La3+  La35  1  0.36153060  0.66721290  0.87662089  1
  La3+  La36  1  0.86252351  -0.00219742  0.12868994  1
  La3+  La37  1  0.86174017  -0.00199036  0.37116174  1
  La3+  La38  1  0.86132330  -0.00002284  0.62641354  1
  La3+  La39  1  0.86258504  -0.00047552  0.87387272  1
  La3+  La40  1  0.86276698  0.33263279  0.12348806  1
  La3+  La41  1  0.86030008  0.33177152  0.37780596  1
  La3+  La42  1  0.86172730  0.33464587  0.62452573  1
  La3+  La43  1  0.86155777  0.33422072  0.87453504  1
  La3+  La44  1  0.86114123  0.66819932  0.12211802  1
  La3+  La45  1  0.86031771  0.66799163  0.37600532  1
  La3+  La46  1  0.86042893  0.66713116  0.62499982  1
  La3+  La47  1  0.85994407  0.66669933  0.87709388  1
  La3+  La48  1  0.00247363  0.49914201  0.61426769  1
  La3+  La49  1  0.49901091  0.16679305  0.13485870  1
  La3+  La50  1  0.00056921  0.49975762  0.36310095  1
  La3+  La51  1  0.50097156  0.49983085  0.13744466  1
  La3+  La52  1  0.49795430  0.16877344  0.37238859  1
  La3+  La53  1  -0.00234374  0.82937943  0.63701358  1
  La3+  La54  1  0.49998133  0.49958419  0.38602734  1
  La3+  La55  1  0.00074991  0.83555954  0.11934800  1
  La3+  La56  1  0.00038137  0.50162964  0.11446187  1
  La3+  La57  1  0.00001534  0.16660931  0.88521704  1
  La3+  La58  1  -0.00018827  0.83544901  0.36629374  1
  La3+  La59  1  0.50068638  0.49718868  0.11592194  1
  La3+  La60  1  -0.00160949  0.83539483  0.38295224  1
  La3+  La61  1  0.50030980  0.49796242  0.88366848  1
  La3+  La62  1  0.49915444  0.49854730  0.61636824  1
  La3+  La63  1  -0.00048595  0.16542217  0.61588023  1
  La3+  La64  1  -0.00021615  0.83391517  0.61536850  1
  La3+  La65  1  0.49718373  0.16291879  0.63456061  1
  La3+  La66  1  0.50025740  0.83362615  0.13571785  1
  La3+  La67  1  -0.00047878  0.16859716  0.36646967  1
  La3+  La68  1  0.50124577  0.16811415  0.61401576  1
  La3+  La69  1  0.00200445  0.83443320  0.13628019  1
  La3+  La70  1  -0.00297956  0.50293808  0.63426530  1
  La3+  La71  1  0.50258174  0.16873682  0.11310671  1
  La3+  La72  1  0.24952262  0.17418106  0.00269536  1
  La3+  La73  1  0.75008470  0.46802017  0.78677969  1
  La3+  La74  1  0.75017332  0.49972626  0.47552914  1
  La3+  La75  1  0.75007804  0.80482669  0.49593052  1
  La3+  La76  1  0.24971932  0.83824719  0.80116769  1
  La3+  La77  1  0.24997053  0.49648023  0.75234332  1
  La3+  La78  1  0.24946626  0.88163013  0.49334751  1
  La3+  La79  1  0.24991122  0.46229321  0.23375272  1
  La3+  La80  1  0.74991813  0.20023978  0.03101715  1
  La3+  La81  1  0.74987086  0.83267078  0.75303385  1
  La3+  La82  1  0.24999947  0.52836610  0.53931045  1
  La3+  La83  1  0.74954013  0.49999280  0.24666055  1
  Ru4+  Ru84  1  -0.00126198  0.00134325  -0.00271155  1
  Ru4+  Ru85  1  -0.00385536  0.00324888  0.25065417  1
  Ru4+  Ru86  1  -0.00014270  0.00096045  0.49994338  1
  Ru4+  Ru87  1  -0.00420619  0.00108126  0.75650766  1
  Ru4+  Ru88  1  -0.00096434  0.33179207  -0.00128613  1
  Ru4+  Ru89  1  0.00405176  0.32865743  0.24765263  1
  Ru4+  Ru90  1  0.00035949  0.33077295  0.49985581  1
  Ru4+  Ru91  1  0.00184892  0.33024627  0.75317107  1
  Ru4+  Ru92  1  -0.00131626  0.65958517  -0.00166757  1
  Ru4+  Ru93  1  -0.00239935  0.66778465  0.25098800  1
  Ru4+  Ru94  1  0.00065410  0.66573023  0.49993264  1
  Ru4+  Ru95  1  -0.00028902  0.66550052  0.74964093  1
  Ru4+  Ru96  1  0.50229982  -0.00119303  -0.00365699  1
  Ru4+  Ru97  1  0.49934956  -0.00478723  0.25052972  1
  Ru4+  Ru98  1  0.50432643  -0.00503490  0.49797416  1
  Ru4+  Ru99  1  0.50091118  -0.00247658  0.75510032  1
  Ru4+  Ru100  1  0.50050445  0.33408003  -0.00135395  1
  Ru4+  Ru101  1  0.50041082  0.33304037  0.25061132  1
  Ru4+  Ru102  1  0.49828600  0.33337799  0.49935506  1
  Ru4+  Ru103  1  0.49799530  0.33588356  0.75012993  1
  Ru4+  Ru104  1  0.49967257  0.66931539  0.00102805  1
  Ru4+  Ru105  1  0.50103665  0.66942688  0.25232507  1
  Ru4+  Ru106  1  0.50130650  0.66923935  0.49992544  1
  Ru4+  Ru107  1  0.50008266  0.66904062  0.74930478  1
  Ru4+  Ru108  1  0.11072353  0.16730306  -0.00044436  1
  Ru4+  Ru109  1  0.11402854  0.16867578  0.24901765  1
  Ru4+  Ru110  1  0.11512517  0.16441992  0.49921048  1
  Ru4+  Ru111  1  0.11415099  0.16942635  0.74924784  1
  Ru4+  Ru112  1  0.11571621  0.50423933  -0.00049531  1
  Ru4+  Ru113  1  0.11363915  0.49673752  0.25020556  1
  Ru4+  Ru114  1  0.11123551  0.50006750  0.49970348  1
  Ru4+  Ru115  1  0.11299234  0.50059822  0.74992903  1
  Ru4+  Ru116  1  0.11516215  0.83438530  0.00000466  1
  Ru4+  Ru117  1  0.11807348  0.83231287  0.25055051  1
  Ru4+  Ru118  1  0.11340984  0.83199624  0.49992312  1
  Ru4+  Ru119  1  0.11358143  0.83016488  0.75100188  1
  Ru4+  Ru120  1  0.61141444  0.16578109  -0.00061719  1
  Ru4+  Ru121  1  0.61499212  0.16935572  0.24995333  1
  Ru4+  Ru122  1  0.61356698  0.16812938  0.49913692  1
  Ru4+  Ru123  1  0.61524240  0.16342674  0.75070343  1
  Ru4+  Ru124  1  0.61431229  0.49976253  -0.00010169  1
  Ru4+  Ru125  1  0.61056869  0.49999609  0.24978618  1
  Ru4+  Ru126  1  0.61268133  0.50008396  0.49993989  1
  Ru4+  Ru127  1  0.61164406  0.49878543  0.74959693  1
  Ru4+  Ru128  1  0.61311701  0.83298636  -0.00043006  1
  Ru4+  Ru129  1  0.61365504  0.83370246  0.25001668  1
  Ru4+  Ru130  1  0.60987140  0.83186329  0.49939415  1
  Ru4+  Ru131  1  0.60987719  0.83279671  0.75112251  1
  Ru4+  Ru132  1  0.38888344  0.16735294  -0.00074502  1
  Ru4+  Ru133  1  0.38734863  0.16784997  0.25035100  1
  Ru4+  Ru134  1  0.38394910  0.17104949  0.49921955  1
  Ru4+  Ru135  1  0.38653037  0.16908981  0.75148776  1
  Ru4+  Ru136  1  0.38682842  0.49990047  -0.00003093  1
  Ru4+  Ru137  1  0.38690599  0.49818185  0.24925868  1
  Ru4+  Ru138  1  0.38881272  0.49979966  0.49937721  1
  Ru4+  Ru139  1  0.38686898  0.49786136  0.74883607  1
  Ru4+  Ru140  1  0.38720949  0.83055415  -0.00036676  1
  Ru4+  Ru141  1  0.38658898  0.83509823  0.24966451  1
  Ru4+  Ru142  1  0.38811749  0.83250297  0.50005059  1
  Ru4+  Ru143  1  0.38954211  0.83164864  0.75089512  1
  Ru4+  Ru144  1  0.88848707  0.16660570  0.00128837  1
  Ru4+  Ru145  1  0.88638756  0.16734274  0.25044769  1
  Ru4+  Ru146  1  0.88553401  0.16938392  0.49992753  1
  Ru4+  Ru147  1  0.88724441  0.16638233  0.75053122  1
  Ru4+  Ru148  1  0.88674698  0.50041346  -0.00123042  1
  Ru4+  Ru149  1  0.88508569  0.50312435  0.25070744  1
  Ru4+  Ru150  1  0.88549473  0.50235712  0.49917230  1
  Ru4+  Ru151  1  0.88605437  0.50323812  0.75195344  1
  Ru4+  Ru152  1  0.88423291  0.83497122  -0.00065012  1
  Ru4+  Ru153  1  0.88630838  0.83630901  0.25034727  1
  Ru4+  Ru154  1  0.88844757  0.83385814  0.49841607  1
  Ru4+  Ru155  1  0.88723430  0.83349510  0.75042607  1
  Ru4+  Ru156  1  0.74999367  0.08948940  0.25353473  1
  Ru4+  Ru157  1  0.75006380  0.08846655  0.50046637  1
  Ru4+  Ru158  1  0.74997422  0.60850901  0.75513487  1
  Ru4+  Ru159  1  0.24995767  0.39153757  0.50357464  1
  Ru4+  Ru160  1  0.24996793  0.42639153  -0.00245141  1
  Ru4+  Ru161  1  0.24999262  0.29619745  -0.02398411  1
  Ru4+  Ru162  1  0.75029593  0.94285978  0.50011185  1
  Ru4+  Ru163  1  0.75012625  0.25356438  0.74542329  1
  Ru4+  Ru164  1  0.24973846  0.09369392  0.74892280  1
  Ru4+  Ru165  1  0.74981621  0.37870149  0.23759280  1
  Ru4+  Ru166  1  0.25004226  0.08813238  0.25349257  1
  Ru4+  Ru167  1  0.25020599  0.94958325  0.72525025  1
  Ru4+  Ru168  1  0.24990527  0.90480183  0.00315057  1
  Ru4+  Ru169  1  0.25031296  0.75154303  0.24224389  1
  Ru4+  Ru170  1  0.25007258  0.24330980  0.25196327  1
  Ru4+  Ru171  1  0.74981498  0.91082969  0.00107797  1
  Ru4+  Ru172  1  0.25009032  0.60657240  0.24991134  1
  Ru4+  Ru173  1  0.25008293  0.08536071  0.49819887  1
  Ru4+  Ru174  1  0.25021982  0.72030767  0.75326315  1
  Ru4+  Ru175  1  0.75006649  0.08370950  0.74393264  1
  Ru4+  Ru176  1  0.25002082  0.73419373  0.48928214  1
  Ru4+  Ru177  1  0.74999636  0.06302601  0.00968366  1
  Ru4+  Ru178  1  0.74977460  0.62108356  0.23694660  1
  Ru4+  Ru179  1  0.24998851  0.05407767  0.00252537  1
  O2-  O180  1  0.16519390  0.07878639  -0.00016859  1
  O2-  O181  1  0.16848883  0.08162486  0.24986194  1
  O2-  O182  1  0.16920605  0.08158438  0.50070796  1
  O2-  O183  1  0.16791905  0.08083445  0.74972874  1
  O2-  O184  1  0.16828678  0.41409630  0.00019442  1
  O2-  O185  1  0.16503444  0.41271459  0.25150839  1
  O2-  O186  1  0.16755010  0.41266973  0.49940984  1
  O2-  O187  1  0.16716935  0.41580273  0.75013205  1
  O2-  O188  1  0.16738074  0.74796209  0.00001440  1
  O2-  O189  1  0.16781058  0.74711278  0.25122087  1
  O2-  O190  1  0.16753190  0.74634452  0.49903222  1
  O2-  O191  1  0.16619145  0.74671517  0.74996764  1
  O2-  O192  1  0.66795765  0.07974059  0.00069989  1
  O2-  O193  1  0.66744631  0.08090232  0.25060603  1
  O2-  O194  1  0.66801551  0.07982747  0.49979662  1
  O2-  O195  1  0.66745813  0.08173739  0.74880162  1
  O2-  O196  1  0.66718508  0.41402167  0.00003254  1
  O2-  O197  1  0.66623822  0.41169555  0.24976674  1
  O2-  O198  1  0.66722809  0.41413864  0.50018836  1
  O2-  O199  1  0.66690806  0.41434467  0.75029221  1
  O2-  O200  1  0.66576503  0.74914566  0.00134789  1
  O2-  O201  1  0.66692055  0.74741813  0.24956464  1
  O2-  O202  1  0.66632410  0.74634042  0.50073408  1
  O2-  O203  1  0.66733255  0.74765578  0.74922942  1
  O2-  O204  1  0.33468945  0.25422861  -0.00025651  1
  O2-  O205  1  0.33237203  0.25268808  0.24963919  1
  O2-  O206  1  0.33178512  0.25169628  0.49848452  1
  O2-  O207  1  0.33413893  0.25046352  0.75049852  1
  O2-  O208  1  0.33223684  0.58603716  0.00044564  1
  O2-  O209  1  0.33218804  0.58724248  0.25126524  1
  O2-  O210  1  0.33341684  0.58723471  0.49919894  1
  O2-  O211  1  0.33139886  0.58471242  0.74990574  1
  O2-  O212  1  0.33311349  0.91969679  0.00012221  1
  O2-  O213  1  0.33428296  0.91849677  0.24989624  1
  O2-  O214  1  0.33369679  0.92149318  0.50009750  1
  O2-  O215  1  0.33400299  0.92067314  0.74977386  1
  O2-  O216  1  0.83300056  0.25364040  -0.00064138  1
  O2-  O217  1  0.83396234  0.25235648  0.24931345  1
  O2-  O218  1  0.83414186  0.25077299  0.50013087  1
  O2-  O219  1  0.83256414  0.25180643  0.74984159  1
  O2-  O220  1  0.83259938  0.58424648  0.00132617  1
  O2-  O221  1  0.83300654  0.58801159  0.24973615  1
  O2-  O222  1  0.83273664  0.58606492  0.50041161  1
  O2-  O223  1  0.83246189  0.58596037  0.74987282  1
  O2-  O224  1  0.83316870  0.91874247  -0.00018328  1
  O2-  O225  1  0.83232038  0.91760123  0.25016131  1
  O2-  O226  1  0.83255601  0.92056113  0.50024090  1
  O2-  O227  1  0.83282662  0.92023171  0.74947959  1
  O2-  O228  1  0.16634552  0.25464460  0.00052997  1
  O2-  O229  1  0.16689183  0.25176181  0.25027952  1
  O2-  O230  1  0.16726204  0.25218736  0.49944378  1
  O2-  O231  1  0.16626761  0.25031866  0.75041202  1
  O2-  O232  1  0.16684516  0.58484145  -0.00075527  1
  O2-  O233  1  0.16777377  0.58660459  0.25069659  1
  O2-  O234  1  0.16709004  0.58765224  0.49920076  1
  O2-  O235  1  0.16893453  0.58501466  0.75034713  1
  O2-  O236  1  0.16712454  0.91855271  0.00002447  1
  O2-  O237  1  0.16657505  0.91776734  0.25012870  1
  O2-  O238  1  0.16609628  0.92128262  0.50035673  1
  O2-  O239  1  0.16678469  0.92032442  0.74948105  1
  O2-  O240  1  0.66617683  0.25419511  0.00010363  1
  O2-  O241  1  0.66704862  0.25231474  0.24998222  1
  O2-  O242  1  0.66602376  0.25216601  0.49971914  1
  O2-  O243  1  0.66739097  0.25260299  0.75002117  1
  O2-  O244  1  0.66677137  0.58524180  0.00124317  1
  O2-  O245  1  0.66623194  0.58836504  0.24942754  1
  O2-  O246  1  0.66728732  0.58611487  0.50072690  1
  O2-  O247  1  0.66682109  0.58655843  0.75038788  1
  O2-  O248  1  0.66857783  0.91854010  0.00028006  1
  O2-  O249  1  0.66588460  0.91784215  0.25059052  1
  O2-  O250  1  0.66705971  0.91992585  0.50031536  1
  O2-  O251  1  0.66650806  0.91958024  0.74831022  1
  O2-  O252  1  0.33473897  0.07847569  -0.00008878  1
  O2-  O253  1  0.33242362  0.08031022  0.24927287  1
  O2-  O254  1  0.33134044  0.08085684  0.49984351  1
  O2-  O255  1  0.33260326  0.08022870  0.74983438  1
  O2-  O256  1  0.33210999  0.41431522  -0.00021966  1
  O2-  O257  1  0.33402499  0.41284864  0.25124434  1
  O2-  O258  1  0.33142269  0.41314887  0.49968047  1
  O2-  O259  1  0.33146774  0.41692737  0.75130405  1
  O2-  O260  1  0.33198750  0.74802389  0.00075690  1
  O2-  O261  1  0.33269444  0.74650343  0.25065869  1
  O2-  O262  1  0.33336924  0.74713390  0.49913497  1
  O2-  O263  1  0.33268239  0.74635425  0.74937094  1
  O2-  O264  1  0.83267100  0.07990964  -0.00013011  1
  O2-  O265  1  0.83315075  0.08062785  0.24991177  1
  O2-  O266  1  0.83108346  0.08037873  0.49933729  1
  O2-  O267  1  0.83189416  0.08117695  0.74912635  1
  O2-  O268  1  0.83291088  0.41443435  0.00041302  1
  O2-  O269  1  0.83360499  0.41210116  0.24942595  1
  O2-  O270  1  0.83214981  0.41421916  0.50022205  1
  O2-  O271  1  0.83386682  0.41425091  0.74970842  1
  O2-  O272  1  0.83224972  0.74869752  0.00119417  1
  O2-  O273  1  0.83320503  0.74714911  0.24977099  1
  O2-  O274  1  0.83275049  0.74609561  0.50130605  1
  O2-  O275  1  0.83364179  0.74728154  0.74920332  1
  O2-  O276  1  0.04877761  0.90444816  0.73062682  1
  O2-  O277  1  0.95794449  0.89399348  0.25932389  1
  O2-  O278  1  0.04741156  0.76436552  0.98462455  1
  O2-  O279  1  0.46167318  0.55757829  0.28245607  1
  O2-  O280  1  0.45934333  0.89265090  0.47492988  1
  O2-  O281  1  0.04922960  0.89886309  0.23538589  1
  O2-  O282  1  0.47026374  0.44911527  0.74957411  1
  O2-  O283  1  0.05613826  0.75352596  0.29373992  1
  O2-  O284  1  0.54676945  0.23315675  0.76876318  1
  O2-  O285  1  0.95052940  0.90407279  0.23604964  1
  O2-  O286  1  0.95185966  0.90070719  0.76424070  1
  O2-  O287  1  0.45733781  0.56516698  0.77716288  1
  O2-  O288  1  0.04710595  0.43209417  0.23755968  1
  O2-  O289  1  0.54527234  0.57036496  0.51433811  1
  O2-  O290  1  0.04634471  0.56997401  0.23382719  1
  O2-  O291  1  0.04725580  0.43005642  0.73569971  1
  O2-  O292  1  0.95265617  0.76251652  0.26388055  1
  O2-  O293  1  0.54581284  0.42932023  0.48572192  1
  O2-  O294  1  0.45487444  0.23599678  0.98455629  1
  O2-  O295  1  0.95292180  0.42906344  0.51350180  1
  O2-  O296  1  0.94605630  0.41912412  0.21571221  1
  O2-  O297  1  0.05498962  0.08815108  0.70707616  1
  O2-  O298  1  0.04448239  0.23661911  0.47907025  1
  O2-  O299  1  0.45266679  0.56847254  0.01406635  1
  O2-  O300  1  0.45165788  0.23704653  0.76606345  1
  O2-  O301  1  0.45494931  0.09523250  0.76487467  1
  O2-  O302  1  0.54720117  0.23716038  0.72970498  1
  O2-  O303  1  0.45225884  0.09942597  0.26337597  1
  O2-  O304  1  0.54688481  0.56832707  0.73357490  1
  O2-  O305  1  0.54688952  0.56868786  0.98665994  1
  O2-  O306  1  0.95967882  0.10942315  0.47221935  1
  O2-  O307  1  0.54568936  0.76598640  0.48675718  1
  O2-  O308  1  0.54570579  0.90157016  0.76209567  1
  O2-  O309  1  0.04766484  0.43057763  0.01941986  1
  O2-  O310  1  0.54412304  0.76555691  0.26230907  1
  O2-  O311  1  0.04514455  0.76304980  0.76519012  1
  O2-  O312  1  0.45423484  0.09484160  0.01347515  1
  O2-  O313  1  0.04682006  0.43396541  0.98041270  1
  O2-  O314  1  0.03866295  0.10760825  0.26462474  1
  O2-  O315  1  0.03516218  0.11285419  0.24840475  1
  O2-  O316  1  0.04700274  0.90292338  0.76979564  1
  O2-  O317  1  0.53008187  0.87800330  0.99820297  1
  O2-  O318  1  0.94986183  0.43008128  0.73495153  1
  O2-  O319  1  0.54278857  0.10793368  0.27789615  1
  O2-  O320  1  0.95152840  0.43123596  0.98604750  1
  O2-  O321  1  0.94760626  0.75294666  0.03506581  1
  O2-  O322  1  0.04572318  0.23771548  0.51847377  1
  O2-  O323  1  0.45283767  0.09775927  0.51540274  1
  O2-  O324  1  0.93691952  0.26459768  0.03121670  1
  O2-  O325  1  0.56538056  0.07532467  0.97181370  1
  O2-  O326  1  0.06282757  0.92396878  0.21742306  1
  O2-  O327  1  0.06457760  0.26050849  0.97106773  1
  O2-  O328  1  0.42987615  0.60118354  0.70878994  1
  O2-  O329  1  0.43207820  0.93555997  0.54357699  1
  O2-  O330  1  0.93700662  0.59644192  0.97005171  1
  O2-  O331  1  0.92782315  0.06315616  0.54195559  1
  O2-  O332  1  0.41991361  0.38347679  0.71114897  1
  O2-  O333  1  0.93153456  0.93406066  0.28153611  1
  O2-  O334  1  0.93597317  0.59755305  0.19610411  1
  O2-  O335  1  0.56523472  0.73732253  0.77761144  1
  O2-  O336  1  0.06528170  0.59512605  0.72137434  1
  O2-  O337  1  0.43769831  0.07544717  0.53523077  1
  O2-  O338  1  0.93235758  0.73302914  0.94610768  1
  O2-  O339  1  0.06658711  0.07284130  0.46980646  1
  O2-  O340  1  0.43608956  0.40199758  0.21712904  1
  O2-  O341  1  0.93584029  0.59723477  0.30342061  1
  O2-  O342  1  0.93772394  0.40331267  0.71664310  1
  O2-  O343  1  0.06736277  0.92629939  0.54952160  1
  O2-  O344  1  0.43509470  0.26002356  0.52880663  1
  O2-  O345  1  0.43424877  0.40692076  0.47037811  1
  O2-  O346  1  0.93247812  0.39790488  0.30270977  1
  O2-  O347  1  0.94718151  0.75249500  0.03473976  1
  O2-  O348  1  0.93645995  0.59841965  0.78082493  1
  O2-  O349  1  0.42968898  0.60967415  0.19873140  1
  O2-  O350  1  0.93449946  0.07223971  0.02801845  1
  O2-  O351  1  0.93882463  0.40447924  0.53220077  1
  O2-  O352  1  0.43430687  0.73968264  0.77905108  1
  O2-  O353  1  0.06138563  0.73723125  0.97022066  1
  O2-  O354  1  0.06635698  0.92598846  0.44971642  1
  O2-  O355  1  0.94602934  0.41944509  0.21595676  1
  O2-  O356  1  0.06602709  0.73825584  0.52896934  1
  O2-  O357  1  0.56476689  0.26239364  0.22157629  1
  O2-  O358  1  0.05072004  0.76054329  0.28750676  1
  O2-  O359  1  0.93682346  0.26305159  0.78306086  1
  O2-  O360  1  0.06312665  0.26382047  0.71782511  1
  O2-  O361  1  0.56452105  0.40226766  0.71643076  1
  O2-  O362  1  0.08120531  0.05096269  0.20468547  1
  O2-  O363  1  0.04908887  0.09567135  0.71246691  1
  O2-  O364  1  0.07013325  0.05948021  0.82198259  1
  O2-  O365  1  0.06399419  0.59349666  0.22205656  1
  O2-  O366  1  0.43511047  0.73795204  0.97274203  1
  O2-  O367  1  0.93486876  0.07270256  0.77924876  1
  O2-  O368  1  0.57957391  0.94692938  0.96112771  1
  O2-  O369  1  0.57198325  0.06236544  0.20671343  1
  O2-  O370  1  0.93613178  0.73525405  0.46663917  1
  O2-  O371  1  0.07350367  0.73120519  0.18201094  1
  O2-  O372  1  0.75005254  -0.00119860  0.82261187  1
  O2-  O373  1  0.75000833  0.67566012  0.33510310  1
  O2-  O374  1  0.74984520  0.66373315  0.90079335  1
  O2-  O375  1  0.75009127  0.33226506  0.84270881  1
  O2-  O376  1  0.75003625  -0.00487827  0.91635823  1
  O2-  O377  1  0.74994753  0.33557917  0.42295986  1
  O2-  O378  1  0.25029057  0.00166924  0.34415899  1
  O2-  O379  1  0.75015286  0.66571078  0.42401970  1
  O2-  O380  1  0.25007358  0.66096256  0.57516266  1
  O2-  O381  1  0.24982375  0.66086278  0.85062830  1
  O2-  O382  1  0.25008192  0.00906934  0.82772589  1
  O2-  O383  1  0.24989468  -0.01576291  0.09141462  1
  O2-  O384  1  0.75013686  0.00179802  0.15518888  1
  O2-  O385  1  0.24991953  0.33359236  0.17869984  1
  O2-  O386  1  0.74994215  0.66753396  0.65417249  1
  O2-  O387  1  0.24997180  -0.01744201  0.91355100  1
  O2-  O388  1  0.25030207  0.33591743  0.84980056  1
  O2-  O389  1  0.24997943  0.34325736  0.08735155  1
  O2-  O390  1  0.75007749  0.00107794  0.34468697  1
  O2-  O391  1  0.24998116  0.65101339  0.66449964  1
  O2-  O392  1  0.25009326  -0.00097426  0.17975810  1
  O2-  O393  1  0.75003512  0.32497430  0.33523865  1
  O2-  O394  1  0.24978991  0.33797352  0.65022129  1
  O2-  O395  1  0.74993479  0.33263145  0.65774744  1
  O2-  O396  1  0.75005780  0.16253312  0.90652186  1
  O2-  O397  1  0.25008447  0.83269266  0.92001881  1
  O2-  O398  1  0.25005521  0.49222219  0.42195623  1
  O2-  O399  1  0.75001025  0.83528169  0.87490491  1
  O2-  O400  1  0.25017152  0.81927972  0.59526870  1
  O2-  O401  1  0.25002463  0.83941155  0.30949608  1
  O2-  O402  1  0.74996894  0.16667161  0.81954293  1
  O2-  O403  1  0.75006946  0.49998335  0.12779479  1
  O2-  O404  1  0.24999915  0.16737715  0.34184461  1
  O2-  O405  1  0.74998672  0.16231761  0.33840625  1
  O2-  O406  1  0.74996249  0.50447321  0.66803124  1
  O2-  O407  1  0.25013756  0.82999075  0.16022751  1
  O2-  O408  1  0.24991332  0.83421433  0.67430896  1
  O2-  O409  1  0.74995736  0.83221688  0.08300457  1
  O2-  O410  1  0.74982480  0.49947620  0.58926068  1
  O2-  O411  1  0.74999129  0.16269314  0.59006358  1
  O2-  O412  1  0.25008064  0.16413372  0.83904371  1
  O2-  O413  1  0.25000976  0.82017493  0.39024411  1
  O2-  O414  1  0.74997797  0.16437793  0.16284315  1
  O2-  O415  1  0.75001891  0.83490488  0.62775542  1
  O2-  O416  1  0.25014301  0.51123533  0.34391027  1
  O2-  O417  1  0.75007390  0.50014911  0.36376069  1
  O2-  O418  1  0.74994927  0.83349669  0.16654020  1
  O2-  O419  1  0.25013103  0.50639241  0.11956189  1
  O2-  O420  1  0.52979715  0.66473241  0.87644266  1
  O2-  O421  1  0.02958708  0.00006467  0.36843547  1
  O2-  O422  1  0.52649476  0.33644239  0.12131786  1
  O2-  O423  1  0.97417482  -0.00092177  0.88089435  1
  O2-  O424  1  0.02782829  0.33171583  0.12475239  1
  O2-  O425  1  0.52763152  0.66465702  0.37534624  1
  O2-  O426  1  0.52503910  -0.00310657  0.12156361  1
  O2-  O427  1  0.02450666  0.66445596  0.11488605  1
  O2-  O428  1  0.52306161  0.00213668  0.86901494  1
  O2-  O429  1  0.47427388  0.33002290  0.37175082  1
  O2-  O430  1  0.02911218  0.00073972  0.62336120  1
  O2-  O431  1  0.02421237  0.66694722  0.62426936  1
  O2-  O432  1  0.03002121  -0.00100977  0.11449238  1
  O2-  O433  1  0.47199208  0.66223032  0.87527060  1
  O2-  O434  1  0.52759590  0.33496690  0.87569143  1
  O2-  O435  1  0.96757577  0.00315639  0.37944329  1
  O2-  O436  1  0.02676386  0.66234890  0.38082074  1
  O2-  O437  1  0.96816291  -0.00380219  0.62947464  1
  O2-  O438  1  0.47429095  0.66936420  0.61999523  1
  O2-  O439  1  0.53533276  -0.00032495  0.37554254  1
  O2-  O440  1  0.46484622  0.00060615  0.37248572  1
  O2-  O441  1  0.02589710  0.33362037  0.87229867  1
  O2-  O442  1  0.96893556  -0.00078063  0.12692146  1
  O2-  O443  1  0.47726582  0.33304763  0.62325441  1
