# generated using pymatgen
data_La7(Ru4O11)2
_symmetry_space_group_name_H-M   'P 1'
_cell_length_a   23.99152848
_cell_length_b   16.83126871
_cell_length_c   15.42871361
_cell_angle_alpha   89.99759131
_cell_angle_beta   90.00215367
_cell_angle_gamma   89.99653024
_symmetry_Int_Tables_number   1
_chemical_formula_structural   La7(Ru4O11)2
_chemical_formula_sum   'La84 Ru96 O264'
_cell_volume   6230.23584340
_cell_formula_units_Z   12
loop_
 _symmetry_equiv_pos_site_id
 _symmetry_equiv_pos_as_xyz
  1  'x, y, z'
loop_
 _atom_type_symbol
 _atom_type_oxidation_number
  La3+  3.0
  Ru4+  4.0
  O2-  -2.0
loop_
 _atom_site_type_symbol
 _atom_site_label
 _atom_site_symmetry_multiplicity
 _atom_site_fract_x
 _atom_site_fract_y
 _atom_site_fract_z
 _atom_site_occupancy
  La3+  La0  1  0.13815060  -0.00465809  0.12668376  1
  La3+  La1  1  0.13881919  -0.00564126  0.37385592  1
  La3+  La2  1  0.14092301  0.00134801  0.62117100  1
  La3+  La3  1  0.13495765  0.00201122  0.87437844  1
  La3+  La4  1  0.13843961  0.34131261  0.12228733  1
  La3+  La5  1  0.14105959  0.33165876  0.37751814  1
  La3+  La6  1  0.14194632  0.33099119  0.62830796  1
  La3+  La7  1  0.13725957  0.33236601  0.86850055  1
  La3+  La8  1  0.13624183  0.66762783  0.12923168  1
  La3+  La9  1  0.14781579  0.67087448  0.37312323  1
  La3+  La10  1  0.13475917  0.66534232  0.62528077  1
  La3+  La11  1  0.13399475  0.66200844  0.87149275  1
  La3+  La12  1  0.62163968  0.01575134  0.14141172  1
  La3+  La13  1  0.63545867  0.00924863  0.37198385  1
  La3+  La14  1  0.64188526  0.00473891  0.62153001  1
  La3+  La15  1  0.63908336  0.00307813  0.87312084  1
  La3+  La16  1  0.64101868  0.33118138  0.12797180  1
  La3+  La17  1  0.64316412  0.32995382  0.37274981  1
  La3+  La18  1  0.63857971  0.33256631  0.62824277  1
  La3+  La19  1  0.64540304  0.33594460  0.86969467  1
  La3+  La20  1  0.63782846  0.66627286  0.12323971  1
  La3+  La21  1  0.64298892  0.66588514  0.37734631  1
  La3+  La22  1  0.64565465  0.66751028  0.62756876  1
  La3+  La23  1  0.63517495  0.66440296  0.87512667  1
  La3+  La24  1  0.36085637  -0.00146919  0.12801319  1
  La3+  La25  1  0.35913529  -0.00312239  0.37757002  1
  La3+  La26  1  0.36622392  -0.00347549  0.62808521  1
  La3+  La27  1  0.36524158  -0.00292035  0.86788415  1
  La3+  La28  1  0.37116777  0.32929409  0.12691716  1
  La3+  La29  1  0.36149760  0.33041756  0.37399175  1
  La3+  La30  1  0.35932055  0.33121633  0.62464271  1
  La3+  La31  1  0.35724597  0.33517395  0.87242372  1
  La3+  La32  1  0.36432085  0.66757149  0.12887170  1
  La3+  La33  1  0.35624672  0.66864624  0.37726440  1
  La3+  La34  1  0.36406526  0.67483826  0.62491627  1
  La3+  La35  1  0.36217573  0.66331790  0.87510111  1
  La3+  La36  1  0.87045885  0.00300134  0.13157959  1
  La3+  La37  1  0.85271469  -0.00048377  0.37634582  1
  La3+  La38  1  0.85677201  0.00280152  0.62113834  1
  La3+  La39  1  0.86185375  0.00287478  0.87362876  1
  La3+  La40  1  0.86144156  0.33373196  0.12803817  1
  La3+  La41  1  0.85783473  0.33240739  0.37203964  1
  La3+  La42  1  0.85890538  0.33347295  0.62737367  1
  La3+  La43  1  0.85273623  0.33561294  0.87009347  1
  La3+  La44  1  0.85992312  0.66620347  0.12660724  1
  La3+  La45  1  0.85893953  0.66547202  0.37385669  1
  La3+  La46  1  0.85817724  0.66479791  0.62384316  1
  La3+  La47  1  0.85860347  0.65984609  0.87655054  1
  La3+  La48  1  0.00863433  0.84193292  0.60991556  1
  La3+  La49  1  -0.00401870  0.16320300  0.11381420  1
  La3+  La50  1  0.50101076  0.17587139  0.86494698  1
  La3+  La51  1  0.50698654  0.84121984  0.12449683  1
  La3+  La52  1  0.49790554  0.17055239  0.88602230  1
  La3+  La53  1  0.50509383  0.16083338  0.37909722  1
  La3+  La54  1  0.49796626  0.83257812  0.37259576  1
  La3+  La55  1  0.49813176  0.50743038  0.63495261  1
  La3+  La56  1  0.00077774  0.18415703  0.63465483  1
  La3+  La57  1  -0.00099576  0.50455711  0.38391464  1
  La3+  La58  1  -0.00305902  0.15338073  0.37146565  1
  La3+  La59  1  -0.00151469  0.82770944  0.86879736  1
  La3+  La60  1  0.49916019  0.48364118  0.36949755  1
  La3+  La61  1  0.50064310  0.16669072  0.13285439  1
  La3+  La62  1  0.49998560  0.83525727  0.86225764  1
  La3+  La63  1  -0.00370298  0.49789068  0.64759901  1
  La3+  La64  1  0.00023199  0.82649632  0.11578085  1
  La3+  La65  1  0.01064785  0.84282882  0.62626327  1
  La3+  La66  1  0.49673140  0.83442792  0.87863971  1
  La3+  La67  1  0.49639913  0.49300241  0.35019253  1
  La3+  La68  1  -0.00575538  0.16346660  0.86055443  1
  La3+  La69  1  0.50011257  0.16725147  0.35914197  1
  La3+  La70  1  0.00151140  0.16784461  0.13404408  1
  La3+  La71  1  0.00132441  0.18366818  0.65149722  1
  La3+  La72  1  0.24976978  0.54563751  0.21307119  1
  La3+  La73  1  0.25088391  0.50191034  -0.00639575  1
  La3+  La74  1  0.24934515  0.82465684  0.28662233  1
  La3+  La75  1  0.25251982  0.83223581  0.04505117  1
  La3+  La76  1  0.75011826  0.83145954  0.53948832  1
  La3+  La77  1  0.25033824  0.49512711  0.74708796  1
  La3+  La78  1  0.25034818  0.17238986  0.71326775  1
  La3+  La79  1  0.75053804  0.21995039  0.00099336  1
  La3+  La80  1  0.24949514  0.77322688  0.71848557  1
  La3+  La81  1  0.75037420  0.79262471  -0.04053321  1
  La3+  La82  1  0.25002896  0.18847768  -0.04061717  1
  La3+  La83  1  0.74732498  0.89301231  0.21536850  1
  Ru4+  Ru84  1  -0.00290538  0.00187808  -0.00652503  1
  Ru4+  Ru85  1  0.00006231  -0.01088867  0.25255785  1
  Ru4+  Ru86  1  -0.00480504  0.00621400  0.48866905  1
  Ru4+  Ru87  1  0.00000686  0.00027788  0.75440039  1
  Ru4+  Ru88  1  -0.00412196  0.33336497  0.00505435  1
  Ru4+  Ru89  1  -0.00287865  0.33900574  0.24888291  1
  Ru4+  Ru90  1  -0.00006136  0.33104659  0.50772701  1
  Ru4+  Ru91  1  -0.00385549  0.34052513  0.74131372  1
  Ru4+  Ru92  1  -0.00456024  0.64849075  -0.00257776  1
  Ru4+  Ru93  1  0.00687266  0.66499381  0.24779807  1
  Ru4+  Ru94  1  0.00007805  0.66017231  0.50252110  1
  Ru4+  Ru95  1  -0.00248069  0.66733835  0.74726510  1
  Ru4+  Ru96  1  0.49725852  0.00695707  0.00264597  1
  Ru4+  Ru97  1  0.50333108  0.00450651  0.25185657  1
  Ru4+  Ru98  1  0.49653248  0.00265073  0.50757150  1
  Ru4+  Ru99  1  0.50121470  -0.00012343  0.74466776  1
  Ru4+  Ru100  1  0.49870687  0.34361836  0.00595769  1
  Ru4+  Ru101  1  0.50600014  0.33943160  0.24046026  1
  Ru4+  Ru102  1  0.50208774  0.33166464  0.51105575  1
  Ru4+  Ru103  1  0.49982968  0.33994538  0.75362160  1
  Ru4+  Ru104  1  0.49602851  0.66038642  -0.00246567  1
  Ru4+  Ru105  1  0.50030900  0.66495939  0.24223184  1
  Ru4+  Ru106  1  0.50347746  0.66406807  0.50332145  1
  Ru4+  Ru107  1  0.49868799  0.67069845  0.75789042  1
  Ru4+  Ru108  1  0.10953122  0.17012098  0.00092766  1
  Ru4+  Ru109  1  0.11313356  0.16151614  0.25272719  1
  Ru4+  Ru110  1  0.11376418  0.16580213  0.49510427  1
  Ru4+  Ru111  1  0.11590169  0.16386757  0.75015978  1
  Ru4+  Ru112  1  0.11190571  0.50859597  -0.00296748  1
  Ru4+  Ru113  1  0.10736269  0.50133105  0.25151140  1
  Ru4+  Ru114  1  0.11019936  0.50555532  0.49759596  1
  Ru4+  Ru115  1  0.11159443  0.50092873  0.74649230  1
  Ru4+  Ru116  1  0.11549471  0.82414695  -0.00127585  1
  Ru4+  Ru117  1  0.10854177  0.83337332  0.25048016  1
  Ru4+  Ru118  1  0.11632373  0.82778529  0.49768523  1
  Ru4+  Ru119  1  0.11203899  0.83800060  0.74992324  1
  Ru4+  Ru120  1  0.61087312  0.17000396  0.00815171  1
  Ru4+  Ru121  1  0.61357640  0.16877788  0.25287359  1
  Ru4+  Ru122  1  0.61247523  0.16430652  0.50076874  1
  Ru4+  Ru123  1  0.61433479  0.16625289  0.74967782  1
  Ru4+  Ru124  1  0.61041813  0.49779512  -0.00158213  1
  Ru4+  Ru125  1  0.61503812  0.50245923  0.24796861  1
  Ru4+  Ru126  1  0.61286048  0.50063680  0.50346141  1
  Ru4+  Ru127  1  0.61519264  0.49681421  0.74987658  1
  Ru4+  Ru128  1  0.61360533  0.83898311  -0.00007984  1
  Ru4+  Ru129  1  0.60669082  0.83578989  0.25014868  1
  Ru4+  Ru130  1  0.61206914  0.83285513  0.49942741  1
  Ru4+  Ru131  1  0.61047512  0.83480601  0.74850299  1
  Ru4+  Ru132  1  0.39187386  0.16479275  0.00009624  1
  Ru4+  Ru133  1  0.38379608  0.15952739  0.24761314  1
  Ru4+  Ru134  1  0.38920400  0.16220236  0.50139015  1
  Ru4+  Ru135  1  0.38976547  0.16932835  0.75097432  1
  Ru4+  Ru136  1  0.39228661  0.50209140  0.00397790  1
  Ru4+  Ru137  1  0.38817399  0.50214410  0.24624922  1
  Ru4+  Ru138  1  0.38428379  0.50035442  0.50437511  1
  Ru4+  Ru139  1  0.39034612  0.50095073  0.75030715  1
  Ru4+  Ru140  1  0.39210166  0.83512827  -0.00364679  1
  Ru4+  Ru141  1  0.39118692  0.82718447  0.25402509  1
  Ru4+  Ru142  1  0.38477218  0.83737659  0.50072694  1
  Ru4+  Ru143  1  0.38656881  0.83078855  0.74889839  1
  Ru4+  Ru144  1  0.88828315  0.17005360  -0.00406338  1
  Ru4+  Ru145  1  0.88071025  0.17224085  0.25155734  1
  Ru4+  Ru146  1  0.88651403  0.16223899  0.49678616  1
  Ru4+  Ru147  1  0.88584260  0.16643332  0.74963006  1
  Ru4+  Ru148  1  0.89367774  0.50582646  0.00075251  1
  Ru4+  Ru149  1  0.88701378  0.50062460  0.25185965  1
  Ru4+  Ru150  1  0.88756887  0.50075399  0.50168607  1
  Ru4+  Ru151  1  0.88454833  0.50059650  0.74882751  1
  Ru4+  Ru152  1  0.88883641  0.83310644  -0.00243483  1
  Ru4+  Ru153  1  0.88926432  0.84241793  0.25590298  1
  Ru4+  Ru154  1  0.88832330  0.83137181  0.49812931  1
  Ru4+  Ru155  1  0.88851447  0.82757526  0.75374931  1
  Ru4+  Ru156  1  0.25000927  0.08083561  0.25902305  1
  Ru4+  Ru157  1  0.74922129  0.74981698  0.75542987  1
  Ru4+  Ru158  1  0.74954313  0.57423100  0.00009618  1
  Ru4+  Ru159  1  0.74952660  0.73573026  0.24875142  1
  Ru4+  Ru160  1  0.75002644  0.07319473  -0.01008736  1
  Ru4+  Ru161  1  0.25077020  0.32301196  0.00191075  1
  Ru4+  Ru162  1  0.75044323  0.09294129  0.24236934  1
  Ru4+  Ru163  1  0.25045147  0.09659598  0.49557500  1
  Ru4+  Ru164  1  0.74997717  0.93266585  0.00553656  1
  Ru4+  Ru165  1  0.25013684  0.59069668  0.49289725  1
  Ru4+  Ru166  1  0.24969811  0.90672987  0.50745672  1
  Ru4+  Ru167  1  0.75009530  0.43326404  0.51378871  1
  Ru4+  Ru168  1  0.24945265  0.93725597  0.73899614  1
  Ru4+  Ru169  1  0.24952059  0.41481990  0.51097939  1
  Ru4+  Ru170  1  0.74986055  0.41629742  0.24599543  1
  Ru4+  Ru171  1  0.24976943  0.39746537  0.25184418  1
  Ru4+  Ru172  1  0.25002544  0.94646068  -0.04089954  1
  Ru4+  Ru173  1  0.74988930  0.23600047  0.49697891  1
  Ru4+  Ru174  1  0.74995167  0.57633705  0.51337744  1
  Ru4+  Ru175  1  0.24995235  0.70769154  -0.02061689  1
  Ru4+  Ru176  1  0.25011703  0.25305378  0.26156646  1
  Ru4+  Ru177  1  0.74997545  0.92109426  0.75111124  1
  Ru4+  Ru178  1  0.75043410  0.42219159  -0.00865011  1
  Ru4+  Ru179  1  0.25075612  0.06159850  0.03785852  1
  O2-  O180  1  0.16810583  0.08163525  0.00301776  1
  O2-  O181  1  0.16847161  0.08064092  0.24801597  1
  O2-  O182  1  0.16912016  0.08202137  0.50109832  1
  O2-  O183  1  0.16685110  0.07987850  0.74632545  1
  O2-  O184  1  0.17007194  0.41661868  -0.00085769  1
  O2-  O185  1  0.16648955  0.41297858  0.25060520  1
  O2-  O186  1  0.16424250  0.41683077  0.49950453  1
  O2-  O187  1  0.16660433  0.41554032  0.75036527  1
  O2-  O188  1  0.16715298  0.74141286  -0.00083559  1
  O2-  O189  1  0.16401078  0.74905570  0.24730614  1
  O2-  O190  1  0.16561062  0.74624849  0.50413442  1
  O2-  O191  1  0.16267488  0.74320885  0.75559877  1
  O2-  O192  1  0.66651937  0.08078053  0.00011339  1
  O2-  O193  1  0.66898760  0.08335820  0.24658312  1
  O2-  O194  1  0.66669494  0.08278240  0.49953671  1
  O2-  O195  1  0.66292042  0.07907730  0.75341919  1
  O2-  O196  1  0.66862525  0.41485713  0.00223625  1
  O2-  O197  1  0.66672934  0.41612611  0.25024658  1
  O2-  O198  1  0.66702103  0.41598453  0.50439853  1
  O2-  O199  1  0.66850926  0.41625443  0.74533630  1
  O2-  O200  1  0.66324450  0.74655064  0.00002640  1
  O2-  O201  1  0.66364968  0.74523283  0.24890965  1
  O2-  O202  1  0.66584590  0.74852620  0.49957738  1
  O2-  O203  1  0.66744390  0.74768960  0.75458387  1
  O2-  O204  1  0.33133029  0.25870884  0.00187960  1
  O2-  O205  1  0.33239789  0.25257312  0.24981926  1
  O2-  O206  1  0.34016608  0.25115396  0.50083476  1
  O2-  O207  1  0.33521599  0.25223983  0.74608149  1
  O2-  O208  1  0.33154760  0.58076688  -0.00111129  1
  O2-  O209  1  0.33537235  0.58604876  0.24982912  1
  O2-  O210  1  0.32900734  0.58513596  0.50279109  1
  O2-  O211  1  0.33100746  0.58342322  0.74873539  1
  O2-  O212  1  0.33438399  0.92307487  -0.00168947  1
  O2-  O213  1  0.33831729  0.91724317  0.24811215  1
  O2-  O214  1  0.33186396  0.91709450  0.50239261  1
  O2-  O215  1  0.33181064  0.91845958  0.75014661  1
  O2-  O216  1  0.84088717  0.25951413  0.00220189  1
  O2-  O217  1  0.83107055  0.25319358  0.25212109  1
  O2-  O218  1  0.83383236  0.25144618  0.50103564  1
  O2-  O219  1  0.83724712  0.25296992  0.74932828  1
  O2-  O220  1  0.83124833  0.58214788  0.00271719  1
  O2-  O221  1  0.83671992  0.58207590  0.24769113  1
  O2-  O222  1  0.83144949  0.58332469  0.50202172  1
  O2-  O223  1  0.83567681  0.58514512  0.74984181  1
  O2-  O224  1  0.83326063  0.92011132  -0.00042818  1
  O2-  O225  1  0.83520895  0.92375272  0.24505662  1
  O2-  O226  1  0.83267952  0.91459785  0.50395016  1
  O2-  O227  1  0.83507795  0.91663703  0.75395681  1
  O2-  O228  1  0.16738152  0.25815684  -0.00172636  1
  O2-  O229  1  0.16509162  0.25335171  0.25053006  1
  O2-  O230  1  0.16167828  0.25268080  0.49793763  1
  O2-  O231  1  0.16721238  0.25172008  0.74834409  1
  O2-  O232  1  0.16811660  0.58445437  0.00067173  1
  O2-  O233  1  0.16076188  0.58515902  0.24890812  1
  O2-  O234  1  0.16954681  0.58476210  0.50393763  1
  O2-  O235  1  0.17308999  0.58526830  0.75059879  1
  O2-  O236  1  0.16691635  0.92175539  -0.00308627  1
  O2-  O237  1  0.16498655  0.91681151  0.24743484  1
  O2-  O238  1  0.16762414  0.91764734  0.50232748  1
  O2-  O239  1  0.16891529  0.92154349  0.74744991  1
  O2-  O240  1  0.66289758  0.25923133  0.00241257  1
  O2-  O241  1  0.66463209  0.25181229  0.24791553  1
  O2-  O242  1  0.66621995  0.25355036  0.50175960  1
  O2-  O243  1  0.66277587  0.25228667  0.74715056  1
  O2-  O244  1  0.66512689  0.58365027  0.00041165  1
  O2-  O245  1  0.66580440  0.58502441  0.24962084  1
  O2-  O246  1  0.66722547  0.58381855  0.49997785  1
  O2-  O247  1  0.66284210  0.58654844  0.75309044  1
  O2-  O248  1  0.66662882  0.92132026  0.00046065  1
  O2-  O249  1  0.65797790  0.92578734  0.25113166  1
  O2-  O250  1  0.66443926  0.91884978  0.50260646  1
  O2-  O251  1  0.66643395  0.91810826  0.75494590  1
  O2-  O252  1  0.33519938  0.07901550  0.00086399  1
  O2-  O253  1  0.33299531  0.07796841  0.25028529  1
  O2-  O254  1  0.33222710  0.07937135  0.50031193  1
  O2-  O255  1  0.33484373  0.07878634  0.74752873  1
  O2-  O256  1  0.33101328  0.41490749  0.00056143  1
  O2-  O257  1  0.33260947  0.41207502  0.24697219  1
  O2-  O258  1  0.33214878  0.41438676  0.50042296  1
  O2-  O259  1  0.33191319  0.41521751  0.74736435  1
  O2-  O260  1  0.33508010  0.74280765  -0.00044772  1
  O2-  O261  1  0.33208810  0.74863751  0.24708760  1
  O2-  O262  1  0.33392793  0.74964227  0.50354005  1
  O2-  O263  1  0.33563838  0.74379125  0.75607976  1
  O2-  O264  1  0.83386742  0.07764697  0.00015987  1
  O2-  O265  1  0.83122596  0.08228736  0.24714139  1
  O2-  O266  1  0.83312041  0.08340309  0.50591245  1
  O2-  O267  1  0.83765478  0.07802162  0.75352397  1
  O2-  O268  1  0.83495025  0.41716828  0.00135006  1
  O2-  O269  1  0.83177554  0.41595705  0.24907486  1
  O2-  O270  1  0.83454630  0.41381036  0.50193763  1
  O2-  O271  1  0.83707504  0.41526386  0.74916927  1
  O2-  O272  1  0.83626712  0.74593887  0.00015227  1
  O2-  O273  1  0.83577131  0.75117894  0.24811423  1
  O2-  O274  1  0.83087479  0.75073945  0.50341148  1
  O2-  O275  1  0.83050246  0.74860968  0.74992407  1
  O2-  O276  1  0.45547091  0.09882756  0.76281891  1
  O2-  O277  1  0.05192211  0.75687899  0.23823911  1
  O2-  O278  1  0.46483286  0.89258317  0.75888940  1
  O2-  O279  1  0.54671103  0.76830699  0.96540328  1
  O2-  O280  1  0.54675445  0.10232206  0.25536925  1
  O2-  O281  1  0.04700332  0.42952124  0.24037680  1
  O2-  O282  1  0.95234759  0.90975202  0.73897385  1
  O2-  O283  1  0.44796688  0.43119854  0.00833968  1
  O2-  O284  1  0.95515315  0.09675300  0.23832481  1
  O2-  O285  1  0.05356639  0.43274304  0.97938010  1
  O2-  O286  1  0.45460127  0.43850467  0.75857926  1
  O2-  O287  1  0.04719820  0.12011822  0.54643621  1
  O2-  O288  1  0.54690325  0.90877294  0.98170325  1
  O2-  O289  1  0.55037825  0.76538205  0.48099365  1
  O2-  O290  1  0.04887948  0.90769817  0.02051975  1
  O2-  O291  1  0.95117126  0.09580979  0.98084941  1
  O2-  O292  1  0.53628127  0.76911553  0.00085925  1
  O2-  O293  1  0.05185575  0.89778232  0.98281253  1
  O2-  O294  1  0.44531052  0.75991876  0.19713561  1
  O2-  O295  1  0.44927200  0.75757510  0.48259071  1
  O2-  O296  1  0.54810756  0.55946022  0.45931426  1
  O2-  O297  1  0.54752558  0.76769260  0.73495140  1
  O2-  O298  1  0.55554631  0.09088315  0.23406153  1
  O2-  O299  1  0.96248011  0.77680804  0.71752571  1
  O2-  O300  1  0.04739714  0.09656652  0.75215988  1
  O2-  O301  1  0.04689738  0.24027687  0.26471860  1
  O2-  O302  1  0.94802278  0.91057871  0.98013660  1
  O2-  O303  1  0.94730115  0.76751766  0.26443310  1
  O2-  O304  1  0.95713306  0.89364219  0.20683405  1
  O2-  O305  1  0.45502489  0.88663706  0.78193715  1
  O2-  O306  1  0.45247218  0.76430309  0.52049498  1
  O2-  O307  1  0.03276131  0.22543282  0.96169635  1
  O2-  O308  1  0.04311174  0.90856503  0.48758908  1
  O2-  O309  1  0.04879890  0.23838269  0.76097977  1
  O2-  O310  1  0.05256359  0.90639987  0.25962802  1
  O2-  O311  1  0.55069180  0.57482215  0.25871136  1
  O2-  O312  1  0.55110310  0.43177577  0.99060083  1
  O2-  O313  1  0.04578495  0.42345338  0.01501684  1
  O2-  O314  1  0.96363300  0.77401003  0.52584752  1
  O2-  O315  1  0.95365530  0.10712265  0.54827664  1
  O2-  O316  1  0.03571586  0.54177656  0.53470740  1
  O2-  O317  1  0.94743150  0.42777147  0.00688335  1
  O2-  O318  1  0.95636846  0.75840692  0.99034196  1
  O2-  O319  1  0.45515778  0.54692731  0.46847919  1
  O2-  O320  1  0.45474886  0.23399812  0.24143264  1
  O2-  O321  1  0.95016419  0.75049889  0.23032545  1
  O2-  O322  1  0.95623682  0.43322041  0.50897452  1
  O2-  O323  1  0.04939167  0.57029108  0.98898618  1
  O2-  O324  1  0.06363409  0.06822303  0.17090789  1
  O2-  O325  1  0.06010179  0.26439494  0.78155526  1
  O2-  O326  1  0.43667412  0.59766412  0.03128448  1
  O2-  O327  1  0.07718666  0.06050690  0.44898797  1
  O2-  O328  1  0.92732200  0.71772043  0.81463907  1
  O2-  O329  1  0.56344506  0.26670496  0.28368161  1
  O2-  O330  1  0.93626517  0.25581417  0.22798887  1
  O2-  O331  1  0.42080559  0.75400505  0.33725330  1
  O2-  O332  1  0.07090847  0.91088831  0.81936708  1
  O2-  O333  1  0.93729379  0.59353171  0.92827567  1
  O2-  O334  1  0.93653442  0.59689378  0.07266511  1
  O2-  O335  1  0.93467576  0.58674662  0.46888469  1
  O2-  O336  1  0.43514843  0.40121662  0.27865304  1
  O2-  O337  1  0.43505990  0.25287766  0.22772988  1
  O2-  O338  1  0.57228471  0.24130603  0.93301473  1
  O2-  O339  1  0.56296768  0.07746630  0.52057314  1
  O2-  O340  1  0.06401269  0.74867665  0.72603233  1
  O2-  O341  1  0.93545865  0.25789755  0.52166595  1
  O2-  O342  1  0.43261461  0.74153009  0.72504032  1
  O2-  O343  1  0.56156253  0.25837619  0.07811306  1
  O2-  O344  1  0.56335836  0.07732262  0.02361751  1
  O2-  O345  1  0.06138841  0.58759191  0.72611823  1
  O2-  O346  1  0.07235181  0.27266428  0.06990896  1
  O2-  O347  1  0.56260711  0.26032933  0.53314053  1
  O2-  O348  1  0.43705802  0.59046956  0.21997575  1
  O2-  O349  1  0.06592988  0.93739811  0.67505444  1
  O2-  O350  1  0.92909429  0.05951135  0.42923216  1
  O2-  O351  1  0.43584737  0.07556087  0.41988803  1
  O2-  O352  1  0.42970200  0.08920457  0.56510013  1
  O2-  O353  1  0.43725942  0.92678883  0.46372768  1
  O2-  O354  1  0.93660138  0.40878365  0.28800884  1
  O2-  O355  1  0.43487979  0.39882126  0.46915043  1
  O2-  O356  1  0.92703795  0.94396702  0.31136941  1
  O2-  O357  1  0.43310628  0.93803456  0.78772712  1
  O2-  O358  1  0.07251924  0.61558686  0.43623490  1
  O2-  O359  1  0.41842221  0.60195344  0.56000639  1
  O2-  O360  1  0.06595733  0.07377630  0.97892001  1
  O2-  O361  1  0.56519216  0.40193579  0.46544507  1
  O2-  O362  1  0.06697848  0.91927628  0.48174244  1
  O2-  O363  1  0.44886789  0.75192383  0.19577603  1
  O2-  O364  1  0.93397367  0.08206006  0.22434957  1
  O2-  O365  1  0.91889847  0.73004946  0.44185788  1
  O2-  O366  1  0.43887355  0.25585921  0.02503249  1
  O2-  O367  1  0.56548982  0.41202699  0.76284117  1
  O2-  O368  1  0.93840211  0.92924805  0.53840390  1
  O2-  O369  1  0.06815154  0.08668997  0.31068152  1
  O2-  O370  1  0.57131803  0.61610141  0.57167473  1
  O2-  O371  1  0.57224421  0.06651381  0.28423692  1
  O2-  O372  1  0.74995262  0.65349869  0.16360930  1
  O2-  O373  1  0.24952449  0.67612479  0.17292508  1
  O2-  O374  1  0.25024331  -0.00186611  0.43816660  1
  O2-  O375  1  0.24958492  0.64591167  0.87691059  1
  O2-  O376  1  0.24921399  0.64301935  0.08614983  1
  O2-  O377  1  0.25020060  0.33742213  0.60062910  1
  O2-  O378  1  0.74971963  0.65054260  0.33690244  1
  O2-  O379  1  0.75016963  0.33793304  0.44329304  1
  O2-  O380  1  0.75055104  0.34362067  0.14438396  1
  O2-  O381  1  0.25048932  -0.01290900  0.31119700  1
  O2-  O382  1  0.74924799  0.00105500  0.41576071  1
  O2-  O383  1  0.75154103  0.33722727  0.87089124  1
  O2-  O384  1  0.25011231  0.00051518  0.59751509  1
  O2-  O385  1  0.24999800  0.65883413  0.35854331  1
  O2-  O386  1  0.25047131  0.00496007  0.15002054  1
  O2-  O387  1  0.75030224  -0.00596165  0.65604100  1
  O2-  O388  1  0.75008172  0.33198646  0.31071975  1
  O2-  O389  1  0.25045107  0.00198422  0.84936903  1
  O2-  O390  1  0.24866956  0.33686737  0.86449455  1
  O2-  O391  1  0.24969856  0.32970194  0.36001463  1
  O2-  O392  1  0.74934041  0.66634084  0.59464314  1
  O2-  O393  1  0.74863420  0.00049548  0.32408879  1
  O2-  O394  1  0.74961145  0.66808482  0.07351621  1
  O2-  O395  1  0.74959780  0.66851284  0.42559677  1
  O2-  O396  1  0.24945381  0.81560580  0.91429072  1
  O2-  O397  1  0.74985520  0.16057301  0.58458297  1
  O2-  O398  1  0.25003160  0.15944497  0.39929921  1
  O2-  O399  1  0.24985530  0.16572997  0.09558566  1
  O2-  O400  1  0.75028091  0.49733996  0.61987219  1
  O2-  O401  1  0.74958409  0.83184703  0.67686359  1
  O2-  O402  1  0.24988097  0.85964632  0.82270542  1
  O2-  O403  1  0.75004070  0.49742487  0.40932250  1
  O2-  O404  1  0.74997237  0.17112706  0.66725716  1
  O2-  O405  1  0.25017231  0.16833491  0.57893557  1
  O2-  O406  1  0.75052865  0.81710349  0.32829747  1
  O2-  O407  1  0.74994920  0.50024231  0.90462652  1
  O2-  O408  1  0.24898269  0.83852977  0.16396751  1
  O2-  O409  1  0.24995588  0.83992809  0.41738922  1
  O2-  O410  1  0.75021672  0.14685825  0.13486680  1
  O2-  O411  1  0.24978171  0.85076380  0.60987617  1
  O2-  O412  1  0.74996921  0.17242723  0.40878921  1
  O2-  O413  1  0.25001400  0.15289681  0.83880921  1
  O2-  O414  1  0.75007636  0.82939108  0.09360107  1
  O2-  O415  1  0.75015689  0.14204306  0.88409472  1
  O2-  O416  1  0.74994899  0.83949266  0.41154889  1
  O2-  O417  1  0.24969963  0.49666541  0.43048991  1
  O2-  O418  1  0.24997646  0.49025303  0.34185055  1
  O2-  O419  1  0.24982420  0.17019934  0.18514393  1
  O2-  O420  1  0.47919112  0.34524025  0.12689633  1
  O2-  O421  1  0.97464741  0.00073849  0.11630389  1
  O2-  O422  1  0.02967298  0.67647730  0.87377573  1
  O2-  O423  1  0.45498613  0.67096313  0.87783240  1
  O2-  O424  1  0.47194982  0.33379810  0.62761773  1
  O2-  O425  1  0.04740081  0.33272541  0.61903204  1
  O2-  O426  1  0.97292202  0.33305424  0.12380731  1
  O2-  O427  1  0.04294144  0.67948066  0.60185688  1
  O2-  O428  1  0.44945923  0.32319965  0.87776635  1
  O2-  O429  1  0.95216104  0.34159798  0.64341311  1
  O2-  O430  1  0.48265827  0.65779837  0.37549327  1
  O2-  O431  1  0.01454822  0.00522713  0.87461193  1
  O2-  O432  1  0.46182040  -0.01150848  0.63299863  1
  O2-  O433  1  0.95310542  0.65213226  0.62959107  1
  O2-  O434  1  0.53457621  0.33311625  0.86620105  1
  O2-  O435  1  0.02874235  0.66920429  0.11834314  1
  O2-  O436  1  0.52222522  -0.01099746  0.13060822  1
  O2-  O437  1  0.98315296  0.65344145  0.35886861  1
  O2-  O438  1  0.54662045  0.65965101  0.86631053  1
  O2-  O439  1  0.53040655  0.66565582  0.12122624  1
  O2-  O440  1  0.48647288  0.66020917  0.63791109  1
  O2-  O441  1  0.52445167  -0.01233805  0.38435978  1
  O2-  O442  1  0.54411825  -0.00951294  0.63220561  1
  O2-  O443  1  0.01566705  -0.01209446  0.37045532  1
