# generated using pymatgen
data_La7(Ru4O11)2
_symmetry_space_group_name_H-M   'P 1'
_cell_length_a   23.99163748
_cell_length_b   16.83123263
_cell_length_c   15.42789555
_cell_angle_alpha   89.99904188
_cell_angle_beta   90.00053318
_cell_angle_gamma   89.99991892
_symmetry_Int_Tables_number   1
_chemical_formula_structural   La7(Ru4O11)2
_chemical_formula_sum   'La84 Ru96 O264'
_cell_volume   6229.92047367
_cell_formula_units_Z   12
loop_
 _symmetry_equiv_pos_site_id
 _symmetry_equiv_pos_as_xyz
  1  'x, y, z'
loop_
 _atom_type_symbol
 _atom_type_oxidation_number
  La3+  3.0
  Ru4+  4.0
  O2-  -2.0
loop_
 _atom_site_type_symbol
 _atom_site_label
 _atom_site_symmetry_multiplicity
 _atom_site_fract_x
 _atom_site_fract_y
 _atom_site_fract_z
 _atom_site_occupancy
  La3+  La0  1  0.13323666  -0.00124390  0.12267247  1
  La3+  La1  1  0.13695046  -0.00300822  0.37811499  1
  La3+  La2  1  0.14512206  0.00127942  0.63011080  1
  La3+  La3  1  0.13953503  -0.00174279  0.87595066  1
  La3+  La4  1  0.13491956  0.33409439  0.13021958  1
  La3+  La5  1  0.13186367  0.33676662  0.37506912  1
  La3+  La6  1  0.14186797  0.33673661  0.62340868  1
  La3+  La7  1  0.13690592  0.33329773  0.87044399  1
  La3+  La8  1  0.13987973  0.67161692  0.12667655  1
  La3+  La9  1  0.13973631  0.67263319  0.37774698  1
  La3+  La10  1  0.14304669  0.66927519  0.62642202  1
  La3+  La11  1  0.13897333  0.66826755  0.86972310  1
  La3+  La12  1  0.63780908  0.00081823  0.12368843  1
  La3+  La13  1  0.63608840  0.00206554  0.37596105  1
  La3+  La14  1  0.63427946  0.00486640  0.62662328  1
  La3+  La15  1  0.64078259  0.00155565  0.87374547  1
  La3+  La16  1  0.63727416  0.33337032  0.12162084  1
  La3+  La17  1  0.63857915  0.33452619  0.37835813  1
  La3+  La18  1  0.64357856  0.33333691  0.62787912  1
  La3+  La19  1  0.64534019  0.33520433  0.87183080  1
  La3+  La20  1  0.64268866  0.66823464  0.12047837  1
  La3+  La21  1  0.64108725  0.66355303  0.37308799  1
  La3+  La22  1  0.64542435  0.66228936  0.62761312  1
  La3+  La23  1  0.64047598  0.66741250  0.87203652  1
  La3+  La24  1  0.36476621  -0.00181526  0.12860102  1
  La3+  La25  1  0.36112060  -0.00192863  0.37155231  1
  La3+  La26  1  0.36095464  -0.00252634  0.62629551  1
  La3+  La27  1  0.35960733  -0.00200044  0.87232607  1
  La3+  La28  1  0.36268938  0.33272768  0.12364439  1
  La3+  La29  1  0.36726403  0.33543580  0.38219234  1
  La3+  La30  1  0.35720616  0.33724427  0.62249011  1
  La3+  La31  1  0.36398232  0.33410933  0.87043989  1
  La3+  La32  1  0.36075782  0.66803537  0.12563092  1
  La3+  La33  1  0.35962018  0.66888635  0.37847303  1
  La3+  La34  1  0.35586352  0.66899938  0.62979734  1
  La3+  La35  1  0.36043887  0.66907541  0.86979682  1
  La3+  La36  1  0.86349732  -0.00148949  0.12294062  1
  La3+  La37  1  0.86417539  0.00090568  0.37448169  1
  La3+  La38  1  0.86305548  0.00073031  0.62706066  1
  La3+  La39  1  0.86088794  0.00099351  0.87412998  1
  La3+  La40  1  0.86892273  0.34008419  0.13183731  1
  La3+  La41  1  0.87023043  0.33878789  0.36891899  1
  La3+  La42  1  0.85766223  0.33483619  0.62740210  1
  La3+  La43  1  0.85374433  0.33508532  0.87179183  1
  La3+  La44  1  0.86021789  0.67025689  0.12341204  1
  La3+  La45  1  0.86163306  0.66823177  0.37422480  1
  La3+  La46  1  0.85888284  0.66529365  0.62744625  1
  La3+  La47  1  0.85395813  0.66466154  0.87339233  1
  La3+  La48  1  -0.00152065  0.50323415  0.88022613  1
  La3+  La49  1  0.49869515  0.83504740  0.11719200  1
  La3+  La50  1  0.00035986  0.16828842  0.63170573  1
  La3+  La51  1  0.49661955  0.50526516  0.88350905  1
  La3+  La52  1  -0.00663910  0.49631117  0.12203219  1
  La3+  La53  1  0.49907324  0.83778390  0.87939735  1
  La3+  La54  1  0.50135608  0.49723763  0.14360369  1
  La3+  La55  1  0.00011118  0.84082893  0.88693718  1
  La3+  La56  1  0.49605078  0.50367963  0.12385887  1
  La3+  La57  1  0.00287133  0.49748754  0.85995440  1
  La3+  La58  1  0.49661805  0.83314056  0.63751557  1
  La3+  La59  1  0.00004180  0.83346248  0.86573742  1
  La3+  La60  1  0.49661322  0.16723513  0.37502132  1
  La3+  La61  1  0.49405812  0.83050559  0.13807947  1
  La3+  La62  1  0.50550507  0.50171697  0.86617824  1
  La3+  La63  1  -0.00489789  0.49192490  0.37622262  1
  La3+  La64  1  0.00109654  0.50276330  0.13984699  1
  La3+  La65  1  0.49708886  0.17079162  0.61948854  1
  La3+  La66  1  -0.00274119  0.17271077  0.60996498  1
  La3+  La67  1  0.50188272  0.50176701  0.60909305  1
  La3+  La68  1  -0.00134209  0.17185750  0.11528306  1
  La3+  La69  1  0.49914170  0.49357020  0.62944729  1
  La3+  La70  1  0.49778556  0.16920300  0.86771303  1
  La3+  La71  1  0.50197060  0.83548791  0.37542844  1
  La3+  La72  1  0.24957498  0.11885285  0.22720360  1
  La3+  La73  1  0.25048173  0.20428017  0.71591691  1
  La3+  La74  1  0.75042253  0.20312440  0.49660694  1
  La3+  La75  1  0.25072201  0.12388218  0.00012119  1
  La3+  La76  1  0.25007573  0.51740405  0.21753906  1
  La3+  La77  1  0.75088407  0.11212157  0.00025197  1
  La3+  La78  1  0.75019095  0.21498228  0.24302702  1
  La3+  La79  1  0.75020047  0.53685372  0.25200575  1
  La3+  La80  1  0.25006062  0.56517406  -0.00259683  1
  La3+  La81  1  0.74967791  0.17263589  0.75632014  1
  La3+  La82  1  0.74977017  0.90453296  0.49778175  1
  La3+  La83  1  0.75094932  0.77673831  0.77546307  1
  Ru4+  Ru84  1  0.00122623  0.00308421  -0.00212252  1
  Ru4+  Ru85  1  0.00025905  -0.00485301  0.25311147  1
  Ru4+  Ru86  1  -0.00248031  -0.00804581  0.49315218  1
  Ru4+  Ru87  1  0.00028710  0.00045806  0.75879539  1
  Ru4+  Ru88  1  -0.00185212  0.32345049  0.00565773  1
  Ru4+  Ru89  1  -0.00092149  0.33453189  0.25456360  1
  Ru4+  Ru90  1  -0.00400682  0.33744212  0.49150163  1
  Ru4+  Ru91  1  -0.00298032  0.34034182  0.74245578  1
  Ru4+  Ru92  1  -0.00040920  0.67203757  0.00239441  1
  Ru4+  Ru93  1  -0.00019679  0.67538897  0.25371363  1
  Ru4+  Ru94  1  0.00389624  0.67463016  0.50070984  1
  Ru4+  Ru95  1  0.00302570  0.66971205  0.74423843  1
  Ru4+  Ru96  1  0.50216822  0.00750535  -0.00063465  1
  Ru4+  Ru97  1  0.50554229  0.00795994  0.24972458  1
  Ru4+  Ru98  1  0.49626102  -0.00652592  0.50261006  1
  Ru4+  Ru99  1  0.49982735  -0.00307899  0.74981509  1
  Ru4+  Ru100  1  0.49783830  0.32564845  -0.00824791  1
  Ru4+  Ru101  1  0.49866127  0.33071285  0.25596386  1
  Ru4+  Ru102  1  0.50407841  0.33226226  0.49939831  1
  Ru4+  Ru103  1  0.50122666  0.32827846  0.75033540  1
  Ru4+  Ru104  1  0.50159051  0.66832333  -0.00181174  1
  Ru4+  Ru105  1  0.50144061  0.66457907  0.25010327  1
  Ru4+  Ru106  1  0.49994170  0.67133289  0.49653575  1
  Ru4+  Ru107  1  0.50402821  0.67631239  0.75217708  1
  Ru4+  Ru108  1  0.11155318  0.16726786  0.00096884  1
  Ru4+  Ru109  1  0.11027759  0.16886763  0.25126988  1
  Ru4+  Ru110  1  0.11764668  0.17245479  0.49700899  1
  Ru4+  Ru111  1  0.11141071  0.16868960  0.75246093  1
  Ru4+  Ru112  1  0.11603837  0.50065801  0.00259681  1
  Ru4+  Ru113  1  0.11350614  0.50226851  0.25413117  1
  Ru4+  Ru114  1  0.11194901  0.49876961  0.49849425  1
  Ru4+  Ru115  1  0.11492405  0.49953715  0.75008662  1
  Ru4+  Ru116  1  0.11124141  0.83340764  0.00010660  1
  Ru4+  Ru117  1  0.10804249  0.83248027  0.25161340  1
  Ru4+  Ru118  1  0.10702680  0.83356827  0.50004396  1
  Ru4+  Ru119  1  0.11523614  0.83379478  0.75254872  1
  Ru4+  Ru120  1  0.60922984  0.16514092  0.00085879  1
  Ru4+  Ru121  1  0.60908341  0.16657964  0.24845178  1
  Ru4+  Ru122  1  0.61308998  0.17136166  0.49819104  1
  Ru4+  Ru123  1  0.61175905  0.16375055  0.74945925  1
  Ru4+  Ru124  1  0.61756286  0.50076252  0.00185917  1
  Ru4+  Ru125  1  0.60891830  0.50127063  0.25263215  1
  Ru4+  Ru126  1  0.61186970  0.49805600  0.49799520  1
  Ru4+  Ru127  1  0.61647982  0.49962282  0.74866172  1
  Ru4+  Ru128  1  0.61659744  0.82970333  -0.00068697  1
  Ru4+  Ru129  1  0.61449320  0.82927859  0.25056038  1
  Ru4+  Ru130  1  0.60861389  0.82901386  0.49730530  1
  Ru4+  Ru131  1  0.60934139  0.83002366  0.74741980  1
  Ru4+  Ru132  1  0.39153515  0.16570337  0.00095920  1
  Ru4+  Ru133  1  0.38983293  0.16737162  0.24999849  1
  Ru4+  Ru134  1  0.38626821  0.16868425  0.50023765  1
  Ru4+  Ru135  1  0.39032296  0.16699934  0.75201353  1
  Ru4+  Ru136  1  0.38687766  0.49915503  0.00161765  1
  Ru4+  Ru137  1  0.39003194  0.49889249  0.24841777  1
  Ru4+  Ru138  1  0.38408125  0.50409881  0.49557623  1
  Ru4+  Ru139  1  0.37836455  0.50232837  0.74678443  1
  Ru4+  Ru140  1  0.38456379  0.83441858  -0.00146391  1
  Ru4+  Ru141  1  0.38264996  0.82671078  0.25136046  1
  Ru4+  Ru142  1  0.38650261  0.83117284  0.49978919  1
  Ru4+  Ru143  1  0.38351780  0.83168886  0.75065178  1
  Ru4+  Ru144  1  0.88979617  0.16815161  0.00072538  1
  Ru4+  Ru145  1  0.89160077  0.16733681  0.24927098  1
  Ru4+  Ru146  1  0.88955143  0.16834441  0.49408569  1
  Ru4+  Ru147  1  0.88790457  0.16422610  0.75285441  1
  Ru4+  Ru148  1  0.88471368  0.49711660  0.00303564  1
  Ru4+  Ru149  1  0.88764868  0.49855250  0.25213658  1
  Ru4+  Ru150  1  0.88884992  0.49624868  0.49853456  1
  Ru4+  Ru151  1  0.88750323  0.49456182  0.74592570  1
  Ru4+  Ru152  1  0.88712373  0.83418294  0.00209044  1
  Ru4+  Ru153  1  0.89261153  0.83289877  0.24992860  1
  Ru4+  Ru154  1  0.89024395  0.82854931  0.50252944  1
  Ru4+  Ru155  1  0.89152975  0.83230675  0.75031962  1
  Ru4+  Ru156  1  0.25027887  0.65059156  0.26493521  1
  Ru4+  Ru157  1  0.75010764  0.27566150  -0.01739050  1
  Ru4+  Ru158  1  0.25018547  0.40885640  -0.01876987  1
  Ru4+  Ru159  1  0.24988607  0.91055661  0.00172935  1
  Ru4+  Ru160  1  0.25009988  0.07975479  0.49785967  1
  Ru4+  Ru161  1  0.75040826  0.58566423  -0.00673855  1
  Ru4+  Ru162  1  0.24983067  0.26205425  -0.02807204  1
  Ru4+  Ru163  1  0.24966682  0.91476101  0.25864011  1
  Ru4+  Ru164  1  0.24941983  0.58501648  0.50195581  1
  Ru4+  Ru165  1  0.75012594  0.91826977  0.23874022  1
  Ru4+  Ru166  1  0.25020962  0.25223961  0.27555280  1
  Ru4+  Ru167  1  0.75028911  0.56973100  0.49789059  1
  Ru4+  Ru168  1  0.75041350  0.74441407  0.23428509  1
  Ru4+  Ru169  1  0.24972784  0.75553456  0.00334301  1
  Ru4+  Ru170  1  0.74973293  0.91013223  -0.00692450  1
  Ru4+  Ru171  1  0.74888092  0.39543410  0.23506363  1
  Ru4+  Ru172  1  0.74996957  0.94059539  0.75191824  1
  Ru4+  Ru173  1  0.75003725  0.06768390  0.25412883  1
  Ru4+  Ru174  1  0.25017897  0.05905816  0.75459651  1
  Ru4+  Ru175  1  0.24971526  0.90877180  0.50214730  1
  Ru4+  Ru176  1  0.75050984  0.06003930  0.50484009  1
  Ru4+  Ru177  1  0.74992471  0.73615123  0.49133444  1
  Ru4+  Ru178  1  0.25068497  0.39304172  0.29115989  1
  Ru4+  Ru179  1  0.75053081  0.42726865  0.50339231  1
  O2-  O180  1  0.16598917  0.07576280  -0.00017434  1
  O2-  O181  1  0.16323883  0.07742757  0.24830273  1
  O2-  O182  1  0.17104570  0.08100054  0.49907872  1
  O2-  O183  1  0.16630744  0.08134321  0.75366104  1
  O2-  O184  1  0.16607228  0.41216983  -0.00341443  1
  O2-  O185  1  0.16995020  0.41057444  0.25198971  1
  O2-  O186  1  0.16568277  0.41315270  0.49799921  1
  O2-  O187  1  0.16315094  0.41280347  0.75282921  1
  O2-  O188  1  0.16575789  0.74793572  -0.00052915  1
  O2-  O189  1  0.16580298  0.74808052  0.24881369  1
  O2-  O190  1  0.16159042  0.75109404  0.50055660  1
  O2-  O191  1  0.16328860  0.74673572  0.75173918  1
  O2-  O192  1  0.66273318  0.07484754  -0.00247269  1
  O2-  O193  1  0.66837194  0.07910715  0.24949947  1
  O2-  O194  1  0.66747665  0.07991299  0.50134241  1
  O2-  O195  1  0.66743738  0.08001167  0.75062425  1
  O2-  O196  1  0.66727316  0.41215202  0.00316040  1
  O2-  O197  1  0.66567961  0.41311373  0.24660835  1
  O2-  O198  1  0.66872735  0.41549738  0.50000829  1
  O2-  O199  1  0.66399600  0.41459543  0.74919614  1
  O2-  O200  1  0.66889138  0.74964852  0.00151797  1
  O2-  O201  1  0.66803204  0.74586331  0.24826901  1
  O2-  O202  1  0.66605309  0.74695601  0.50005663  1
  O2-  O203  1  0.66280146  0.74586139  0.74935883  1
  O2-  O204  1  0.33235812  0.25102648  -0.00051987  1
  O2-  O205  1  0.33349458  0.25150941  0.25004486  1
  O2-  O206  1  0.33545345  0.25118367  0.49846699  1
  O2-  O207  1  0.33725045  0.25364067  0.75102248  1
  O2-  O208  1  0.33939236  0.59137977  -0.00268401  1
  O2-  O209  1  0.33117699  0.59137388  0.25088818  1
  O2-  O210  1  0.33287152  0.58625171  0.50019662  1
  O2-  O211  1  0.33235877  0.58839505  0.75310186  1
  O2-  O212  1  0.33110377  0.91907748  0.00059148  1
  O2-  O213  1  0.33035296  0.91785927  0.24820055  1
  O2-  O214  1  0.33309408  0.92024401  0.50236508  1
  O2-  O215  1  0.33638329  0.91966066  0.75024632  1
  O2-  O216  1  0.83258385  0.25295722  0.00115577  1
  O2-  O217  1  0.83868343  0.25602669  0.25173652  1
  O2-  O218  1  0.83673205  0.25591122  0.49841466  1
  O2-  O219  1  0.83437833  0.25063765  0.75188442  1
  O2-  O220  1  0.83378262  0.58641933  -0.00053181  1
  O2-  O221  1  0.83591707  0.58924777  0.25153619  1
  O2-  O222  1  0.83519879  0.58454535  0.49806344  1
  O2-  O223  1  0.83797454  0.58280953  0.74879933  1
  O2-  O224  1  0.82982252  0.91836373  0.00138766  1
  O2-  O225  1  0.83558450  0.91874490  0.25061471  1
  O2-  O226  1  0.84318490  0.92168079  0.49832205  1
  O2-  O227  1  0.83376780  0.92135866  0.74997968  1
  O2-  O228  1  0.16665495  0.25171512  -0.00368803  1
  O2-  O229  1  0.16618808  0.25023696  0.25146810  1
  O2-  O230  1  0.16675847  0.25209796  0.49947095  1
  O2-  O231  1  0.16674792  0.25472765  0.75457795  1
  O2-  O232  1  0.15932098  0.59476945  -0.00116539  1
  O2-  O233  1  0.16595477  0.59128290  0.24917065  1
  O2-  O234  1  0.16411014  0.58530058  0.49997718  1
  O2-  O235  1  0.16308890  0.58701057  0.75237761  1
  O2-  O236  1  0.17034392  0.91961445  0.00096327  1
  O2-  O237  1  0.16895676  0.91659547  0.24790490  1
  O2-  O238  1  0.17111054  0.91623704  0.49923569  1
  O2-  O239  1  0.16279232  0.91791890  0.75152348  1
  O2-  O240  1  0.66654337  0.25273954  0.00116185  1
  O2-  O241  1  0.65870364  0.25686650  0.24869007  1
  O2-  O242  1  0.66188977  0.25611981  0.49909413  1
  O2-  O243  1  0.66292845  0.25180270  0.75076658  1
  O2-  O244  1  0.66885550  0.58528610  -0.00022283  1
  O2-  O245  1  0.66735010  0.58897448  0.24686799  1
  O2-  O246  1  0.66606983  0.58328477  0.49882341  1
  O2-  O247  1  0.66725329  0.58300028  0.74934200  1
  O2-  O248  1  0.66867938  0.92011736  -0.00035055  1
  O2-  O249  1  0.66683933  0.92054428  0.25016172  1
  O2-  O250  1  0.65689651  0.92215060  0.50222482  1
  O2-  O251  1  0.66507784  0.92076189  0.74952988  1
  O2-  O252  1  0.33721533  0.07586180  0.00121490  1
  O2-  O253  1  0.33504320  0.07706301  0.24815915  1
  O2-  O254  1  0.33080398  0.07970089  0.50024838  1
  O2-  O255  1  0.33257390  0.07947813  0.74868637  1
  O2-  O256  1  0.33323370  0.41263139  -0.00228835  1
  O2-  O257  1  0.33491806  0.41125262  0.25237477  1
  O2-  O258  1  0.33552807  0.41495017  0.49869694  1
  O2-  O259  1  0.33199367  0.41214392  0.75171679  1
  O2-  O260  1  0.33221811  0.74760243  0.00072844  1
  O2-  O261  1  0.33139199  0.74516534  0.24913488  1
  O2-  O262  1  0.33551952  0.74943070  0.50044429  1
  O2-  O263  1  0.33308966  0.74864920  0.75240888  1
  O2-  O264  1  0.83969919  0.07418391  0.00113059  1
  O2-  O265  1  0.83451043  0.07960681  0.25092410  1
  O2-  O266  1  0.83331896  0.07902627  0.49959429  1
  O2-  O267  1  0.83142594  0.08070149  0.74970518  1
  O2-  O268  1  0.83160509  0.41484457  0.00116156  1
  O2-  O269  1  0.83065902  0.41484338  0.24965003  1
  O2-  O270  1  0.83107387  0.41638077  0.49770094  1
  O2-  O271  1  0.83278549  0.41710690  0.75034208  1
  O2-  O272  1  0.83660728  0.74895823  -0.00091659  1
  O2-  O273  1  0.83122136  0.74661239  0.24888266  1
  O2-  O274  1  0.83421074  0.74561146  0.49798597  1
  O2-  O275  1  0.84135524  0.74565557  0.74807358  1
  O2-  O276  1  0.02938582  0.88811722  0.50035698  1
  O2-  O277  1  0.95413752  0.57073369  0.76211368  1
  O2-  O278  1  0.45166767  0.76280401  0.98883885  1
  O2-  O279  1  0.55021173  0.90424400  0.00656046  1
  O2-  O280  1  0.55591889  0.75714131  0.79938546  1
  O2-  O281  1  0.95476473  0.43924365  0.24316241  1
  O2-  O282  1  0.95032035  0.08693284  0.48337927  1
  O2-  O283  1  0.04835711  0.76356848  0.25854517  1
  O2-  O284  1  0.04697799  0.43529561  0.49334285  1
  O2-  O285  1  0.04949746  0.10063550  0.48056539  1
  O2-  O286  1  0.44898737  0.90469918  0.74610908  1
  O2-  O287  1  0.04854993  0.43812721  0.25416828  1
  O2-  O288  1  0.95692511  0.89854259  0.74006506  1
  O2-  O289  1  0.94473835  0.25002240  0.47980274  1
  O2-  O290  1  0.44909432  0.75902416  0.47947323  1
  O2-  O291  1  0.45132162  0.90284096  0.26200699  1
  O2-  O292  1  0.04453386  0.42780863  -0.00027266  1
  O2-  O293  1  0.95229520  0.90871387  0.26212474  1
  O2-  O294  1  0.55088382  0.09466964  0.48154571  1
  O2-  O295  1  0.54552363  0.08932826  0.51965371  1
  O2-  O296  1  0.95130534  0.57680387  0.24612569  1
  O2-  O297  1  0.44853840  0.91259827  0.98615000  1
  O2-  O298  1  0.54270763  0.22735606  0.73797356  1
  O2-  O299  1  0.45538347  0.90066407  0.48957506  1
  O2-  O300  1  0.55084101  0.90049778  0.24036515  1
  O2-  O301  1  0.45435153  0.09752621  0.00790898  1
  O2-  O302  1  0.45263567  0.42522814  0.51884040  1
  O2-  O303  1  0.06035110  0.07831247  0.03260931  1
  O2-  O304  1  0.04484349  0.43781860  0.50197040  1
  O2-  O305  1  0.94876683  0.09733204  0.01160817  1
  O2-  O306  1  0.54631378  0.43096502  0.00158105  1
  O2-  O307  1  0.03298228  0.89057570  0.46206833  1
  O2-  O308  1  0.05829986  0.41745593  0.24798519  1
  O2-  O309  1  0.45356093  0.43922577  0.48263034  1
  O2-  O310  1  0.94789203  0.09144846  0.23472746  1
  O2-  O311  1  0.04487711  0.10022662  0.22171414  1
  O2-  O312  1  0.05017016  0.09317583  0.51891707  1
  O2-  O313  1  0.44504871  0.42306458  0.76808717  1
  O2-  O314  1  0.05011420  0.75504127  0.48759996  1
  O2-  O315  1  0.94626859  0.42356386  0.26137161  1
  O2-  O316  1  0.54509324  0.23650947  0.48870502  1
  O2-  O317  1  0.54616880  0.43118829  1.00444693  1
  O2-  O318  1  0.04683914  0.57727072  0.01181997  1
  O2-  O319  1  0.04444806  0.42772634  0.99611681  1
  O2-  O320  1  0.54164837  0.78207794  0.53542371  1
  O2-  O321  1  0.95616967  0.76881782  0.00595382  1
  O2-  O322  1  0.55208936  0.90991812  0.73353209  1
  O2-  O323  1  0.04813738  0.09818170  0.74442593  1
  O2-  O324  1  0.43765759  0.74070205  0.71339147  1
  O2-  O325  1  0.43489800  0.59175613  0.22566931  1
  O2-  O326  1  0.43518673  0.25714424  0.27262668  1
  O2-  O327  1  0.93805556  0.41078666  0.68433379  1
  O2-  O328  1  0.06667177  0.06777342  0.29905598  1
  O2-  O329  1  0.43206762  0.08218493  0.30992082  1
  O2-  O330  1  0.93862982  0.25919038  0.21377673  1
  O2-  O331  1  0.06456006  0.26253657  0.72946485  1
  O2-  O332  1  0.93023293  0.08157830  0.68202216  1
  O2-  O333  1  0.93260359  0.40119963  0.21069762  1
  O2-  O334  1  0.43739194  0.59227543  0.02798302  1
  O2-  O335  1  0.56231392  0.59696669  0.28167792  1
  O2-  O336  1  0.93556011  0.92921067  0.03312006  1
  O2-  O337  1  0.56130596  0.07135860  0.71596414  1
  O2-  O338  1  0.93520017  0.73400740  0.53098433  1
  O2-  O339  1  0.54952736  0.76213004  0.79247700  1
  O2-  O340  1  0.93568945  0.39774235  0.02888793  1
  O2-  O341  1  0.56559086  0.40534491  0.46552963  1
  O2-  O342  1  0.06171418  0.92389274  0.03020362  1
  O2-  O343  1  0.94780867  0.24517533  0.48640181  1
  O2-  O344  1  0.06238911  0.25963139  0.21776550  1
  O2-  O345  1  0.56275989  0.59360584  0.04069816  1
  O2-  O346  1  0.93905363  0.40030781  0.82558004  1
  O2-  O347  1  0.43257022  0.08306549  0.19020003  1
  O2-  O348  1  0.93663348  0.25703399  0.71727131  1
  O2-  O349  1  0.05333907  0.08960459  0.02013515  1
  O2-  O350  1  0.43901553  0.07315257  0.78500885  1
  O2-  O351  1  0.44084156  0.58949232  0.71151637  1
  O2-  O352  1  0.56616347  0.71876258  0.66190998  1
  O2-  O353  1  0.56498187  0.07492481  0.02252037  1
  O2-  O354  1  0.06201189  0.40773714  0.17448986  1
  O2-  O355  1  0.56745221  0.08430616  0.31431778  1
  O2-  O356  1  0.43406251  0.92716455  0.27285239  1
  O2-  O357  1  0.06483312  0.41490718  0.31163153  1
  O2-  O358  1  0.06510057  0.92755385  0.27821998  1
  O2-  O359  1  0.56910284  0.71768435  0.43386672  1
  O2-  O360  1  0.06327407  0.26474694  0.03032055  1
  O2-  O361  1  0.56469436  0.74472387  0.97786998  1
  O2-  O362  1  0.43575506  0.40489954  0.03881997  1
  O2-  O363  1  0.93305775  0.08415464  0.81333981  1
  O2-  O364  1  0.43935921  0.59894570  0.46969341  1
  O2-  O365  1  0.56346328  0.58978633  0.77244132  1
  O2-  O366  1  0.56687032  0.08165773  0.18889268  1
  O2-  O367  1  0.93314081  0.40697182  0.53135282  1
  O2-  O368  1  0.43564062  0.25412843  0.97744518  1
  O2-  O369  1  0.44606527  0.42344897  0.76628448  1
  O2-  O370  1  0.08836385  0.96112125  0.54521582  1
  O2-  O371  1  0.93308868  0.74024241  0.22601626  1
  O2-  O372  1  0.75074454  0.65469057  0.39480011  1
  O2-  O373  1  0.74943717  0.33178136  0.57697360  1
  O2-  O374  1  0.24997032  -0.00159174  0.34135813  1
  O2-  O375  1  0.25009288  0.66183422  0.39773638  1
  O2-  O376  1  0.75047042  0.32710060  0.86403045  1
  O2-  O377  1  0.75119689  0.66332584  0.85988826  1
  O2-  O378  1  0.75045435  0.66709617  0.67436836  1
  O2-  O379  1  0.74950055  0.33463860  0.43670306  1
  O2-  O380  1  0.24961768  0.33013091  0.58090464  1
  O2-  O381  1  0.75007282  0.66088051  0.09877590  1
  O2-  O382  1  0.74959405  0.32664962  0.32348780  1
  O2-  O383  1  0.25079112  -0.00162390  0.85476436  1
  O2-  O384  1  0.24991148  0.33017689  0.06727150  1
  O2-  O385  1  0.75094824  0.65372353  0.58015530  1
  O2-  O386  1  0.24980213  0.67234613  0.58064876  1
  O2-  O387  1  0.25002765  0.33237923  0.18670752  1
  O2-  O388  1  0.75021109  -0.00111422  0.14081854  1
  O2-  O389  1  0.75014821  -0.00846108  0.35639093  1
  O2-  O390  1  0.74992160  0.33511448  0.66785378  1
  O2-  O391  1  0.24950213  0.66836609  0.10248089  1
  O2-  O392  1  0.74923742  0.00541784  0.85277033  1
  O2-  O393  1  0.24978267  0.33409148  0.67139131  1
  O2-  O394  1  0.25055781  0.00159194  0.64510107  1
  O2-  O395  1  0.24979705  0.66350913  0.67008633  1
  O2-  O396  1  0.74972801  0.14759405  0.36353522  1
  O2-  O397  1  0.24996477  0.48265072  0.88812997  1
  O2-  O398  1  0.25029283  0.17131548  0.36509224  1
  O2-  O399  1  0.24976153  0.83261204  0.83134047  1
  O2-  O400  1  0.74962978  0.83159449  0.30814257  1
  O2-  O401  1  0.24984815  0.50316049  0.66352977  1
  O2-  O402  1  0.75009639  0.50034919  0.91975252  1
  O2-  O403  1  0.24961605  0.49757341  0.58171114  1
  O2-  O404  1  0.74988587  0.85099794  0.89632604  1
  O2-  O405  1  0.74961255  0.17413832  0.11589958  1
  O2-  O406  1  0.24995370  0.49495596  0.35500753  1
  O2-  O407  1  0.75004785  0.50142109  0.83516924  1
  O2-  O408  1  0.75040759  0.79604215  0.58599017  1
  O2-  O409  1  0.74972539  0.81036441  0.39848015  1
  O2-  O410  1  0.25025288  0.16734638  0.86223578  1
  O2-  O411  1  0.24973042  0.83840093  0.64388952  1
  O2-  O412  1  0.74972301  0.87200330  0.66561416  1
  O2-  O413  1  0.24963172  0.50151578  0.80726834  1
  O2-  O414  1  0.74982509  0.18600230  0.89153682  1
  O2-  O415  1  0.74985945  0.15370911  0.62413502  1
  O2-  O416  1  0.25062783  0.84216872  0.41086662  1
  O2-  O417  1  0.24991740  0.47285926  0.09323597  1
  O2-  O418  1  0.25006563  0.48970464  0.44140361  1
  O2-  O419  1  0.24971158  0.83248402  0.91843077  1
  O2-  O420  1  0.46405201  0.00288924  0.38816268  1
  O2-  O421  1  0.45439872  0.32534532  0.63031513  1
  O2-  O422  1  0.02493376  0.32947266  0.61870613  1
  O2-  O423  1  0.47117115  0.00531424  0.62138857  1
  O2-  O424  1  0.02523774  0.65555706  0.37375236  1
  O2-  O425  1  0.54875189  0.33234203  0.87060133  1
  O2-  O426  1  0.54441643  0.34212248  0.62388698  1
  O2-  O427  1  0.04066137  0.31072570  0.39063837  1
  O2-  O428  1  0.47560466  0.33519900  0.38172825  1
  O2-  O429  1  0.45196011  0.66361697  0.86647882  1
  O2-  O430  1  0.95824173  -0.02009990  0.88870783  1
  O2-  O431  1  0.02536050  0.66458214  0.62711793  1
  O2-  O432  1  0.95824103  0.34098884  0.37394843  1
  O2-  O433  1  0.46010601  0.33270696  0.87216568  1
  O2-  O434  1  0.53789760  -0.01814596  0.38485534  1
  O2-  O435  1  0.04729570  -0.00740794  0.86775128  1
  O2-  O436  1  0.97602751  0.65920388  0.12113769  1
  O2-  O437  1  0.97174148  -0.00804329  0.61193662  1
  O2-  O438  1  0.46345410  -0.01610934  0.12255665  1
  O2-  O439  1  0.02758133  0.67036494  0.87377659  1
  O2-  O440  1  0.02752560  0.00443226  0.64095062  1
  O2-  O441  1  0.47786375  0.68066725  0.12730656  1
  O2-  O442  1  0.53666408  0.64419112  0.89245078  1
  O2-  O443  1  0.52903183  -0.01435560  0.12419018  1
