# generated using pymatgen
data_La7(Ru4O11)2
_symmetry_space_group_name_H-M   'P 1'
_cell_length_a   23.99315400
_cell_length_b   16.83336182
_cell_length_c   15.42961588
_cell_angle_alpha   89.99981833
_cell_angle_beta   89.99754461
_cell_angle_gamma   90.00437755
_symmetry_Int_Tables_number   1
_chemical_formula_structural   La7(Ru4O11)2
_chemical_formula_sum   'La84 Ru96 O264'
_cell_volume   6231.79721178
_cell_formula_units_Z   12
loop_
 _symmetry_equiv_pos_site_id
 _symmetry_equiv_pos_as_xyz
  1  'x, y, z'
loop_
 _atom_type_symbol
 _atom_type_oxidation_number
  La3+  3.0
  Ru4+  4.0
  O2-  -2.0
loop_
 _atom_site_type_symbol
 _atom_site_label
 _atom_site_symmetry_multiplicity
 _atom_site_fract_x
 _atom_site_fract_y
 _atom_site_fract_z
 _atom_site_occupancy
  La3+  La0  1  0.12917510  0.01642743  0.13563904  1
  La3+  La1  1  0.13499225  0.01430490  0.36341908  1
  La3+  La2  1  0.13956984  -0.00020510  0.62332395  1
  La3+  La3  1  0.14335603  -0.00134706  0.86262317  1
  La3+  La4  1  0.14788234  0.33528230  0.13170021  1
  La3+  La5  1  0.14324633  0.33782627  0.37571195  1
  La3+  La6  1  0.14535249  0.33437563  0.62294027  1
  La3+  La7  1  0.13742068  0.33427396  0.87927437  1
  La3+  La8  1  0.14354521  0.66566183  0.13027641  1
  La3+  La9  1  0.14613639  0.66462244  0.37729249  1
  La3+  La10  1  0.13346171  0.66658958  0.62010674  1
  La3+  La11  1  0.14625177  0.66792321  0.86955246  1
  La3+  La12  1  0.64302552  0.00253055  0.12284516  1
  La3+  La13  1  0.62803501  0.00601334  0.38190463  1
  La3+  La14  1  0.63419307  0.00604488  0.62950531  1
  La3+  La15  1  0.64097171  -0.00610870  0.88162502  1
  La3+  La16  1  0.63888094  0.32710970  0.12034595  1
  La3+  La17  1  0.63913690  0.32961697  0.38548443  1
  La3+  La18  1  0.64238877  0.32898775  0.62768092  1
  La3+  La19  1  0.64870619  0.34016806  0.87199390  1
  La3+  La20  1  0.63454661  0.66688209  0.12485966  1
  La3+  La21  1  0.63806816  0.66516744  0.37540580  1
  La3+  La22  1  0.63316718  0.66006384  0.62305781  1
  La3+  La23  1  0.63554226  0.66258030  0.87182785  1
  La3+  La24  1  0.35599966  0.00473383  0.12438497  1
  La3+  La25  1  0.36252210  0.00761492  0.37105704  1
  La3+  La26  1  0.35465510  0.00233844  0.62308621  1
  La3+  La27  1  0.36455240  0.00517153  0.87608384  1
  La3+  La28  1  0.35857477  0.34134952  0.12659396  1
  La3+  La29  1  0.35838093  0.33426175  0.37370547  1
  La3+  La30  1  0.36029861  0.33285762  0.62034605  1
  La3+  La31  1  0.36663078  0.33212205  0.87949923  1
  La3+  La32  1  0.36220026  0.67195423  0.12527003  1
  La3+  La33  1  0.35133859  0.66548064  0.37027759  1
  La3+  La34  1  0.35954931  0.66811318  0.62402572  1
  La3+  La35  1  0.36102313  0.67505338  0.87555691  1
  La3+  La36  1  0.85753552  0.00443711  0.12155658  1
  La3+  La37  1  0.86714505  -0.00116327  0.37377882  1
  La3+  La38  1  0.85856357  0.00107424  0.62388278  1
  La3+  La39  1  0.86345237  0.00373726  0.88106550  1
  La3+  La40  1  0.86034506  0.33098797  0.12032405  1
  La3+  La41  1  0.87304784  0.33628276  0.38506636  1
  La3+  La42  1  0.85008736  0.33669960  0.62114937  1
  La3+  La43  1  0.84766643  0.33899205  0.87711436  1
  La3+  La44  1  0.86608239  0.66287402  0.12370933  1
  La3+  La45  1  0.86434015  0.66307699  0.37644713  1
  La3+  La46  1  0.86493810  0.66142306  0.61973387  1
  La3+  La47  1  0.85082682  0.66930836  0.87088208  1
  La3+  La48  1  0.50391681  0.83454076  0.62111671  1
  La3+  La49  1  0.49893871  0.16305868  0.38971652  1
  La3+  La50  1  0.49703921  0.83169583  0.88850953  1
  La3+  La51  1  0.49681926  0.50363121  0.87035420  1
  La3+  La52  1  0.00408543  0.16251168  0.35990004  1
  La3+  La53  1  -0.00033931  0.17083516  0.13842639  1
  La3+  La54  1  0.49322483  0.15673484  0.13915462  1
  La3+  La55  1  0.00077522  0.16842621  0.61915497  1
  La3+  La56  1  0.00416580  0.15865474  0.37660741  1
  La3+  La57  1  0.49825672  0.84293471  0.63953067  1
  La3+  La58  1  0.00594331  0.83194086  0.87084323  1
  La3+  La59  1  0.01098070  0.50074454  0.90167906  1
  La3+  La60  1  0.49790738  0.49528850  0.36074218  1
  La3+  La61  1  0.49708585  0.82881714  0.12224299  1
  La3+  La62  1  0.50411260  0.16557962  0.88206898  1
  La3+  La63  1  -0.00956811  0.84090920  0.12737151  1
  La3+  La64  1  0.00253261  0.83075777  0.38189901  1
  La3+  La65  1  0.49020420  0.51430427  0.11102153  1
  La3+  La66  1  0.50329502  0.50097971  0.63220036  1
  La3+  La67  1  0.00497878  0.83895057  0.62580338  1
  La3+  La68  1  -0.00836480  0.84572215  0.14323896  1
  La3+  La69  1  -0.00191324  0.50053460  0.60943050  1
  La3+  La70  1  0.50487836  0.49884361  0.88800146  1
  La3+  La71  1  0.00028628  0.49637440  0.62568574  1
  La3+  La72  1  0.74872305  0.82438515  0.45988234  1
  La3+  La73  1  0.74702527  0.24118729  0.74789059  1
  La3+  La74  1  0.75033382  0.17292881  -0.00518129  1
  La3+  La75  1  0.24906348  0.89209909  -0.03449111  1
  La3+  La76  1  0.74965271  0.49884198  0.52274976  1
  La3+  La77  1  0.75012861  0.88418984  0.00837990  1
  La3+  La78  1  0.74904888  0.12025828  0.25516224  1
  La3+  La79  1  0.24919791  0.46118596  0.76196615  1
  La3+  La80  1  0.75040316  0.16487357  0.49307725  1
  La3+  La81  1  0.74832240  0.44696433  0.03151785  1
  La3+  La82  1  0.75083271  0.84141403  0.72242566  1
  La3+  La83  1  0.25107795  0.16908929  0.23478608  1
  Ru4+  Ru84  1  0.00682161  0.01333666  -0.00515616  1
  Ru4+  Ru85  1  0.00021391  0.00783994  0.24362215  1
  Ru4+  Ru86  1  0.00143404  -0.00122625  0.51001268  1
  Ru4+  Ru87  1  -0.00154630  -0.00427408  0.74332934  1
  Ru4+  Ru88  1  -0.00627241  0.33105116  0.00072528  1
  Ru4+  Ru89  1  -0.00214989  0.33813321  0.24651905  1
  Ru4+  Ru90  1  0.00278959  0.34279838  0.48767432  1
  Ru4+  Ru91  1  -0.00637641  0.33678644  0.76211465  1
  Ru4+  Ru92  1  -0.00385618  0.65959578  0.00314576  1
  Ru4+  Ru93  1  0.00504222  0.66435755  0.25663076  1
  Ru4+  Ru94  1  -0.00407891  0.67206336  0.50098975  1
  Ru4+  Ru95  1  -0.00635401  0.67508802  0.75048477  1
  Ru4+  Ru96  1  0.49726115  -0.00401484  0.00321560  1
  Ru4+  Ru97  1  0.49866167  -0.01261577  0.25402099  1
  Ru4+  Ru98  1  0.50202402  -0.00238312  0.49470580  1
  Ru4+  Ru99  1  0.49869348  0.00578377  0.74141562  1
  Ru4+  Ru100  1  0.50944893  0.32376999  0.00456699  1
  Ru4+  Ru101  1  0.50179191  0.34169137  0.24996628  1
  Ru4+  Ru102  1  0.50438794  0.33897639  0.50574585  1
  Ru4+  Ru103  1  0.50080247  0.32892284  0.74196003  1
  Ru4+  Ru104  1  0.50733612  0.65943282  0.00584967  1
  Ru4+  Ru105  1  0.49637661  0.66503352  0.26402953  1
  Ru4+  Ru106  1  0.50015419  0.66845901  0.48149364  1
  Ru4+  Ru107  1  0.49638440  0.67305987  0.75371611  1
  Ru4+  Ru108  1  0.11354426  0.15211059  -0.00161164  1
  Ru4+  Ru109  1  0.11191409  0.17047953  0.25787742  1
  Ru4+  Ru110  1  0.11210224  0.16238227  0.48827958  1
  Ru4+  Ru111  1  0.11770901  0.16987172  0.75290762  1
  Ru4+  Ru112  1  0.11271199  0.49998163  0.00142077  1
  Ru4+  Ru113  1  0.11507431  0.50027701  0.24895797  1
  Ru4+  Ru114  1  0.11478100  0.49143276  0.49800526  1
  Ru4+  Ru115  1  0.10950039  0.49955761  0.75050326  1
  Ru4+  Ru116  1  0.10998735  0.83050368  -0.00496820  1
  Ru4+  Ru117  1  0.11486618  0.83534790  0.25007177  1
  Ru4+  Ru118  1  0.11743844  0.82946493  0.49823686  1
  Ru4+  Ru119  1  0.11533595  0.82865537  0.75080384  1
  Ru4+  Ru120  1  0.60684543  0.17539386  -0.00118054  1
  Ru4+  Ru121  1  0.60891323  0.16588896  0.25062440  1
  Ru4+  Ru122  1  0.61398702  0.17005915  0.50528007  1
  Ru4+  Ru123  1  0.60708115  0.16230666  0.74917853  1
  Ru4+  Ru124  1  0.60644678  0.50134284  0.00292612  1
  Ru4+  Ru125  1  0.60882650  0.49325922  0.24888039  1
  Ru4+  Ru126  1  0.60807707  0.49245040  0.50375170  1
  Ru4+  Ru127  1  0.61666502  0.49207282  0.75155510  1
  Ru4+  Ru128  1  0.60473368  0.83095289  0.00415764  1
  Ru4+  Ru129  1  0.61095017  0.83537304  0.24630592  1
  Ru4+  Ru130  1  0.60940532  0.83737700  0.48682967  1
  Ru4+  Ru131  1  0.61346577  0.82597960  0.75542652  1
  Ru4+  Ru132  1  0.38527625  0.16455263  0.00019121  1
  Ru4+  Ru133  1  0.38654388  0.17400236  0.24989758  1
  Ru4+  Ru134  1  0.38588206  0.15855540  0.50260313  1
  Ru4+  Ru135  1  0.38754291  0.16882974  0.75346835  1
  Ru4+  Ru136  1  0.38463219  0.50432705  0.00362446  1
  Ru4+  Ru137  1  0.38363902  0.50009472  0.24860996  1
  Ru4+  Ru138  1  0.38422973  0.49817532  0.49836363  1
  Ru4+  Ru139  1  0.38790467  0.49793947  0.74488497  1
  Ru4+  Ru140  1  0.38693203  0.83906607  0.00184276  1
  Ru4+  Ru141  1  0.38690735  0.83284865  0.24911444  1
  Ru4+  Ru142  1  0.38433154  0.82866824  0.50139339  1
  Ru4+  Ru143  1  0.38352600  0.83186473  0.75364974  1
  Ru4+  Ru144  1  0.89353455  0.16808197  -0.00429232  1
  Ru4+  Ru145  1  0.88915534  0.17485656  0.25189949  1
  Ru4+  Ru146  1  0.88648587  0.16275330  0.50005643  1
  Ru4+  Ru147  1  0.89074008  0.17702516  0.74388812  1
  Ru4+  Ru148  1  0.89821828  0.50044072  0.00051283  1
  Ru4+  Ru149  1  0.89230802  0.49671093  0.25102496  1
  Ru4+  Ru150  1  0.89037451  0.49250822  0.49006791  1
  Ru4+  Ru151  1  0.88966707  0.48877468  0.75489176  1
  Ru4+  Ru152  1  0.89223762  0.82952504  0.00309075  1
  Ru4+  Ru153  1  0.89197758  0.83454374  0.24718267  1
  Ru4+  Ru154  1  0.88939865  0.82806801  0.49885254  1
  Ru4+  Ru155  1  0.89415946  0.82848159  0.75738408  1
  Ru4+  Ru156  1  0.74995485  0.95197616  0.80688992  1
  Ru4+  Ru157  1  0.75006949  0.70246807  0.71490414  1
  Ru4+  Ru158  1  0.74839860  0.96840134  0.46608204  1
  Ru4+  Ru159  1  0.25040862  0.60350459  0.73380213  1
  Ru4+  Ru160  1  0.75046388  0.74529604  0.24932090  1
  Ru4+  Ru161  1  0.25081261  0.09138655  0.73695032  1
  Ru4+  Ru162  1  0.25016813  0.92530289  0.23988561  1
  Ru4+  Ru163  1  0.25106253  0.23933023  0.74257245  1
  Ru4+  Ru164  1  0.25005993  0.24033645  0.00014439  1
  Ru4+  Ru165  1  0.75086224  0.41384577  0.24824737  1
  Ru4+  Ru166  1  0.25009467  0.42566679  0.00161742  1
  Ru4+  Ru167  1  0.75156733  0.08615531  0.75092225  1
  Ru4+  Ru168  1  0.75000380  0.56279153  0.73939535  1
  Ru4+  Ru169  1  0.74902590  0.59141762  0.00686917  1
  Ru4+  Ru170  1  0.74992283  0.59987581  0.24426263  1
  Ru4+  Ru171  1  0.74905303  0.73883235  0.03543497  1
  Ru4+  Ru172  1  0.24961168  0.56334159  0.48050836  1
  Ru4+  Ru173  1  0.25026216  0.74262235  -0.00664466  1
  Ru4+  Ru174  1  0.24954572  0.24521095  0.48020890  1
  Ru4+  Ru175  1  0.75018479  0.68306126  0.48427078  1
  Ru4+  Ru176  1  0.74967222  0.92166565  0.23503443  1
  Ru4+  Ru177  1  0.24998198  0.91768568  0.49067504  1
  Ru4+  Ru178  1  0.74973052  0.26725625  0.26960304  1
  Ru4+  Ru179  1  0.24978196  0.57431620  -0.00159933  1
  O2-  O180  1  0.17169225  0.08577891  0.00597560  1
  O2-  O181  1  0.16850783  0.08358632  0.24704689  1
  O2-  O182  1  0.16315301  0.07886203  0.49800909  1
  O2-  O183  1  0.16837135  0.08271113  0.74615512  1
  O2-  O184  1  0.16472192  0.41374393  0.00085070  1
  O2-  O185  1  0.16217407  0.41481646  0.25159721  1
  O2-  O186  1  0.16926652  0.41339179  0.50051786  1
  O2-  O187  1  0.15974784  0.40920067  0.75184500  1
  O2-  O188  1  0.16688862  0.74719404  0.00254722  1
  O2-  O189  1  0.16178838  0.74959256  0.25252891  1
  O2-  O190  1  0.16912279  0.74949264  0.50149803  1
  O2-  O191  1  0.16742800  0.74726947  0.74524157  1
  O2-  O192  1  0.66021158  0.08518226  0.00231582  1
  O2-  O193  1  0.65923695  0.07613311  0.25033169  1
  O2-  O194  1  0.66773810  0.08384298  0.49644155  1
  O2-  O195  1  0.67122201  0.08966908  0.74621964  1
  O2-  O196  1  0.65684368  0.41138273  0.00145169  1
  O2-  O197  1  0.67009150  0.41486861  0.24570862  1
  O2-  O198  1  0.67059013  0.41660820  0.49724484  1
  O2-  O199  1  0.66840803  0.41411737  0.74159978  1
  O2-  O200  1  0.66410073  0.74579745  0.00446013  1
  O2-  O201  1  0.66451711  0.74671169  0.24895248  1
  O2-  O202  1  0.66308839  0.74539471  0.50041815  1
  O2-  O203  1  0.66630475  0.73986567  0.74608664  1
  O2-  O204  1  0.33422896  0.25367370  0.00299604  1
  O2-  O205  1  0.33448873  0.25415659  0.24942157  1
  O2-  O206  1  0.33229093  0.24791626  0.49765355  1
  O2-  O207  1  0.33425134  0.25233042  0.74982534  1
  O2-  O208  1  0.33446794  0.58727489  -0.00161896  1
  O2-  O209  1  0.33432166  0.58402314  0.24538390  1
  O2-  O210  1  0.33177582  0.58686805  0.50179857  1
  O2-  O211  1  0.33126522  0.58678157  0.75333949  1
  O2-  O212  1  0.33948025  0.92689560  -0.00219897  1
  O2-  O213  1  0.33603348  0.92134394  0.25016950  1
  O2-  O214  1  0.33067695  0.92011301  0.49667862  1
  O2-  O215  1  0.33930849  0.92012512  0.74972658  1
  O2-  O216  1  0.83805851  0.24976968  0.00185676  1
  O2-  O217  1  0.83332357  0.25465854  0.25482668  1
  O2-  O218  1  0.83058935  0.25119462  0.49283929  1
  O2-  O219  1  0.83644986  0.25578358  0.75342712  1
  O2-  O220  1  0.83440844  0.58306784  0.00896750  1
  O2-  O221  1  0.83694115  0.58624571  0.24689110  1
  O2-  O222  1  0.83143560  0.58325427  0.49607588  1
  O2-  O223  1  0.83581997  0.57968708  0.74502515  1
  O2-  O224  1  0.84264285  0.92282506  -0.00139033  1
  O2-  O225  1  0.83312173  0.92171745  0.24981619  1
  O2-  O226  1  0.83399381  0.92008750  0.49502790  1
  O2-  O227  1  0.84028443  0.91880578  0.75222348  1
  O2-  O228  1  0.16210575  0.25112160  0.00105499  1
  O2-  O229  1  0.16640828  0.25244134  0.25034988  1
  O2-  O230  1  0.16638071  0.25085480  0.49847760  1
  O2-  O231  1  0.17039295  0.24933448  0.74836992  1
  O2-  O232  1  0.16474024  0.58569075  0.00090035  1
  O2-  O233  1  0.16171477  0.58381109  0.24928300  1
  O2-  O234  1  0.16768001  0.58340521  0.50255562  1
  O2-  O235  1  0.17040766  0.58568795  0.74795754  1
  O2-  O236  1  0.15636671  0.91988103  0.00228841  1
  O2-  O237  1  0.16684025  0.92304243  0.24975914  1
  O2-  O238  1  0.17186158  0.91995605  0.49661957  1
  O2-  O239  1  0.16112830  0.91750794  0.74499369  1
  O2-  O240  1  0.66563305  0.25147600  -0.00048889  1
  O2-  O241  1  0.66583935  0.25333208  0.25296121  1
  O2-  O242  1  0.67439062  0.25119424  0.50422850  1
  O2-  O243  1  0.65590427  0.25176515  0.75221612  1
  O2-  O244  1  0.66413972  0.58911617  0.00208010  1
  O2-  O245  1  0.66203214  0.58579038  0.24847313  1
  O2-  O246  1  0.66358274  0.58525684  0.49984465  1
  O2-  O247  1  0.66541816  0.58291376  0.74388122  1
  O2-  O248  1  0.65726641  0.91862886  0.00735454  1
  O2-  O249  1  0.66615688  0.92014976  0.24912861  1
  O2-  O250  1  0.67031757  0.92437572  0.49603105  1
  O2-  O251  1  0.66580956  0.91899865  0.74858804  1
  O2-  O252  1  0.33251896  0.08249098  -0.00034327  1
  O2-  O253  1  0.33307784  0.08505019  0.24782735  1
  O2-  O254  1  0.33344157  0.08045490  0.49851412  1
  O2-  O255  1  0.33425868  0.08218496  0.75082314  1
  O2-  O256  1  0.33355803  0.41341565  -0.00157672  1
  O2-  O257  1  0.33259728  0.41558184  0.24952089  1
  O2-  O258  1  0.33397994  0.41487574  0.49977938  1
  O2-  O259  1  0.33579178  0.40772022  0.75443647  1
  O2-  O260  1  0.33336906  0.74672591  -0.00125992  1
  O2-  O261  1  0.33858805  0.75006481  0.24958345  1
  O2-  O262  1  0.33162638  0.75014425  0.50237875  1
  O2-  O263  1  0.33333396  0.74548969  0.74458527  1
  O2-  O264  1  0.83439870  0.08345331  -0.00100955  1
  O2-  O265  1  0.83843617  0.07434528  0.25373545  1
  O2-  O266  1  0.83516370  0.07897497  0.49233853  1
  O2-  O267  1  0.83761154  0.08162508  0.75170892  1
  O2-  O268  1  0.83900390  0.41787712  0.00739305  1
  O2-  O269  1  0.83630302  0.41345747  0.25138426  1
  O2-  O270  1  0.82799903  0.41252978  0.48970792  1
  O2-  O271  1  0.83059545  0.42074171  0.74945257  1
  O2-  O272  1  0.83406648  0.74941992  0.00935930  1
  O2-  O273  1  0.83447459  0.74530030  0.24916697  1
  O2-  O274  1  0.83017852  0.74341175  0.49665337  1
  O2-  O275  1  0.83114609  0.74486005  0.74373401  1
  O2-  O276  1  0.03857104  0.12498473  1.01213979  1
  O2-  O277  1  0.95859876  0.23572496  0.46772397  1
  O2-  O278  1  0.45658345  0.24168239  0.25408893  1
  O2-  O279  1  0.55218486  0.23948370  0.05758466  1
  O2-  O280  1  0.95620976  0.23754065  0.98784272  1
  O2-  O281  1  0.44289655  0.23899117  0.47842929  1
  O2-  O282  1  0.05985424  0.08616911  0.24002487  1
  O2-  O283  1  0.95921453  0.90081485  0.98613269  1
  O2-  O284  1  0.04806433  0.10253344  0.25255686  1
  O2-  O285  1  0.97157633  0.46053950  0.78678019  1
  O2-  O286  1  0.95067394  0.90040946  0.50668851  1
  O2-  O287  1  0.45299802  0.89798300  0.51398037  1
  O2-  O288  1  0.96710765  0.18022579  0.76122900  1
  O2-  O289  1  0.96553519  0.56277069  1.02871291  1
  O2-  O290  1  0.45478795  0.42816486  -0.00037141  1
  O2-  O291  1  0.05487295  0.09982481  0.73264586  1
  O2-  O292  1  0.95305983  0.23316037  0.50566850  1
  O2-  O293  1  0.56133962  0.08112700  0.46732202  1
  O2-  O294  1  0.53924089  0.90412672  0.76600075  1
  O2-  O295  1  0.54690192  0.56992642  0.76244079  1
  O2-  O296  1  0.96264616  0.18566289  0.75273776  1
  O2-  O297  1  0.45499687  0.24356681  0.51221568  1
  O2-  O298  1  0.44901377  0.08872231  0.98789937  1
  O2-  O299  1  0.53369918  0.45520284  0.47974316  1
  O2-  O300  1  0.96890055  0.55822310  0.03840979  1
  O2-  O301  1  0.44988677  0.09749912  0.26562726  1
  O2-  O302  1  0.03640246  0.78695732  0.02934520  1
  O2-  O303  1  0.44968089  0.09161794  0.50901204  1
  O2-  O304  1  0.45665765  0.76073430  0.01024797  1
  O2-  O305  1  0.05671095  0.42116438  0.48116270  1
  O2-  O306  1  0.44566592  0.43074411  0.51390260  1
  O2-  O307  1  0.05581838  0.91484886  0.51012407  1
  O2-  O308  1  0.52005813  0.11635220  0.74146437  1
  O2-  O309  1  0.05020790  0.56419951  0.51469289  1
  O2-  O310  1  0.44833825  0.24407330  0.97907703  1
  O2-  O311  1  0.96644682  0.42523895  0.03926722  1
  O2-  O312  1  0.04665656  0.23216815  0.75429831  1
  O2-  O313  1  0.45074404  0.23809294  0.76795476  1
  O2-  O314  1  0.94953588  0.41628595  0.43930402  1
  O2-  O315  1  0.53368396  0.45150245  0.20621977  1
  O2-  O316  1  0.04581887  0.08838871  0.76721553  1
  O2-  O317  1  0.94646600  0.09573722  0.24292666  1
  O2-  O318  1  0.95314246  0.42829488  0.25995639  1
  O2-  O319  1  0.04302987  0.77170500  0.24065745  1
  O2-  O320  1  0.93855101  0.08236548  0.01680492  1
  O2-  O321  1  0.04121472  0.11761381  0.02810785  1
  O2-  O322  1  0.53292243  0.12610472  0.70990084  1
  O2-  O323  1  0.54799658  0.58619061  0.52305395  1
  O2-  O324  1  0.58274095  0.39934937  0.30584212  1
  O2-  O325  1  0.56309258  0.26465067  0.71661717  1
  O2-  O326  1  0.94230084  0.74244759  0.83025812  1
  O2-  O327  1  0.44050010  0.41093162  0.02600834  1
  O2-  O328  1  0.93573818  0.75356419  0.42628469  1
  O2-  O329  1  0.05900388  0.74604760  0.72064709  1
  O2-  O330  1  0.92920721  0.64106751  0.92964768  1
  O2-  O331  1  0.92667817  0.40152719  0.69926809  1
  O2-  O332  1  0.08470268  0.02871690  0.95069909  1
  O2-  O333  1  0.56601777  0.25374261  0.47330816  1
  O2-  O334  1  0.44231182  0.39951307  0.83304272  1
  O2-  O335  1  0.94548029  0.42344516  0.43928198  1
  O2-  O336  1  0.06557102  0.71188116  0.92657796  1
  O2-  O337  1  0.05820436  0.26465317  0.28691451  1
  O2-  O338  1  0.56237799  0.27685967  0.90942741  1
  O2-  O339  1  0.93409392  0.75079162  0.56342999  1
  O2-  O340  1  0.06429170  0.07281806  0.30083622  1
  O2-  O341  1  0.43104432  0.42261067  0.68385695  1
  O2-  O342  1  0.55969262  0.08308491  0.46733228  1
  O2-  O343  1  0.43521449  0.41091066  0.27304677  1
  O2-  O344  1  0.43726063  0.59275831  0.71165349  1
  O2-  O345  1  0.43826505  0.58495313  0.27203823  1
  O2-  O346  1  0.91345246  0.25613244  0.65710857  1
  O2-  O347  1  0.05959998  0.41671418  0.48033070  1
  O2-  O348  1  0.08008105  0.29583024  0.77142138  1
  O2-  O349  1  0.58740259  0.05516440  0.79814968  1
  O2-  O350  1  0.06012116  0.92542348  0.21169212  1
  O2-  O351  1  0.55991467  0.58757111  0.79008940  1
  O2-  O352  1  0.56211641  0.91649146  0.42343957  1
  O2-  O353  1  0.56333956  0.91476991  0.76999687  1
  O2-  O354  1  0.57501556  0.90535509  0.57035550  1
  O2-  O355  1  0.43541515  0.06786199  0.26842035  1
  O2-  O356  1  0.92678609  0.39836365  0.93649881  1
  O2-  O357  1  0.06016665  0.58987637  0.72227411  1
  O2-  O358  1  0.55813095  0.40944078  0.78493225  1
  O2-  O359  1  0.93353794  0.75185120  0.69397911  1
  O2-  O360  1  0.05942129  0.90805075  0.51415405  1
  O2-  O361  1  0.44095168  0.73487303  0.54226405  1
  O2-  O362  1  0.43543177  0.74396443  0.02087116  1
  O2-  O363  1  0.91961335  0.42529662  0.57888162  1
  O2-  O364  1  0.44356090  0.08286774  0.98109208  1
  O2-  O365  1  0.05983569  0.74193188  0.53438233  1
  O2-  O366  1  0.05553166  0.58818131  0.54298550  1
  O2-  O367  1  0.93325616  0.30534586  0.82738400  1
  O2-  O368  1  0.57601440  0.38022547  0.56011512  1
  O2-  O369  1  0.55605010  0.24553692  0.06222728  1
  O2-  O370  1  0.93706151  0.58619121  0.52189977  1
  O2-  O371  1  0.43908629  0.74511094  0.78657855  1
  O2-  O372  1  0.74979845  0.31995931  0.04806621  1
  O2-  O373  1  0.25024518  0.33091336  0.40641970  1
  O2-  O374  1  0.74816232  0.32693010  0.85699490  1
  O2-  O375  1  0.24985655  0.66529072  0.33550998  1
  O2-  O376  1  0.74869286  0.64791850  0.81965932  1
  O2-  O377  1  0.24939073  0.66878515  0.17315921  1
  O2-  O378  1  0.25042633  0.66697439  0.42623217  1
  O2-  O379  1  0.25028031  -0.01184581  0.12289130  1
  O2-  O380  1  0.24988512  0.00627714  0.65231447  1
  O2-  O381  1  0.75098001  0.33025294  0.16857400  1
  O2-  O382  1  0.24923130  0.33546675  0.06723016  1
  O2-  O383  1  0.24946925  0.33254531  0.67089860  1
  O2-  O384  1  0.74896761  0.68340049  0.93310291  1
  O2-  O385  1  0.75087020  -0.01340278  0.68733713  1
  O2-  O386  1  0.75098921  0.02480083  0.56046539  1
  O2-  O387  1  0.75040562  0.67390265  0.14500481  1
  O2-  O388  1  0.75210372  0.00261550  0.91406736  1
  O2-  O389  1  0.25019840  0.65687355  0.08282134  1
  O2-  O390  1  0.74837522  0.65490205  0.60397526  1
  O2-  O391  1  0.25111665  0.65934293  0.89597754  1
  O2-  O392  1  0.24968127  0.32549856  0.18324680  1
  O2-  O393  1  0.24967409  -0.01178712  0.35000597  1
  O2-  O394  1  0.74942249  -0.00788261  0.12053599  1
  O2-  O395  1  0.24988136  0.33190280  0.57755616  1
  O2-  O396  1  0.75004137  0.17211320  0.13395980  1
  O2-  O397  1  0.24949944  0.17741094  0.38673773  1
  O2-  O398  1  0.75015272  0.83915908  0.87138089  1
  O2-  O399  1  0.24987902  0.50060635  0.90396610  1
  O2-  O400  1  0.24965244  0.15865896  0.93441166  1
  O2-  O401  1  0.75100906  0.83045300  0.59230568  1
  O2-  O402  1  0.74979845  0.83826924  0.31916558  1
  O2-  O403  1  0.74931381  0.50324006  0.39255019  1
  O2-  O404  1  0.25007466  0.82953381  0.18720745  1
  O2-  O405  1  0.75066650  0.51587930  0.90875381  1
  O2-  O406  1  0.25077758  0.52714785  0.62727913  1
  O2-  O407  1  0.24978934  0.17218564  0.09119781  1
  O2-  O408  1  0.24978202  0.49827367  0.09770596  1
  O2-  O409  1  0.74992670  0.50842495  0.30746585  1
  O2-  O410  1  0.74907887  0.48511768  0.82149216  1
  O2-  O411  1  0.24944454  0.51574938  0.37931967  1
  O2-  O412  1  0.74953842  0.82818570  0.15451123  1
  O2-  O413  1  0.25028340  0.82271669  0.09326498  1
  O2-  O414  1  0.75085194  0.14866603  0.85368707  1
  O2-  O415  1  0.25032712  0.16368239  0.82145263  1
  O2-  O416  1  0.75017931  0.48958494  0.65556776  1
  O2-  O417  1  0.75138357  0.15693302  0.63259841  1
  O2-  O418  1  0.75003127  0.50714713  0.16275727  1
  O2-  O419  1  0.25014537  0.82186936  0.85726487  1
  O2-  O420  1  1.00274321  0.33206860  0.62339662  1
  O2-  O421  1  0.44535650  -0.00998698  0.65069881  1
  O2-  O422  1  0.95318546  0.64573133  0.33890190  1
  O2-  O423  1  0.53917385  0.00476813  0.63720645  1
  O2-  O424  1  0.48196154  0.32390144  0.62298769  1
  O2-  O425  1  0.95037228  0.00354107  0.63632009  1
  O2-  O426  1  0.52397805  0.32673114  0.37610056  1
  O2-  O427  1  0.54206128  -0.00618030  0.90971466  1
  O2-  O428  1  0.04657110  0.67299280  0.37588847  1
  O2-  O429  1  0.46485984  0.33484382  0.38772938  1
  O2-  O430  1  0.54743634  0.66218444  0.36681571  1
  O2-  O431  1  0.02942123  0.34775079  0.88931425  1
  O2-  O432  1  0.45299988  -0.01734707  0.84345278  1
  O2-  O433  1  0.45354409  0.67827946  0.38357983  1
  O2-  O434  1  0.97332929  -0.01127681  0.12238235  1
  O2-  O435  1  0.01389664  -0.02143626  0.86310158  1
  O2-  O436  1  0.47520804  -0.00623248  0.37460997  1
  O2-  O437  1  0.97403037  -0.00127515  0.37807565  1
  O2-  O438  1  0.04301704  0.00457054  0.63097196  1
  O2-  O439  1  0.97261050  0.32221050  0.13166884  1
  O2-  O440  1  0.47724409  -0.00714788  0.13069581  1
  O2-  O441  1  0.98467220  0.64414887  0.63039549  1
  O2-  O442  1  0.47969437  0.66218921  0.13628966  1
  O2-  O443  1  0.02772325  0.66597371  0.12920620  1
