# generated using pymatgen
data_La7(Ru4O11)2
_symmetry_space_group_name_H-M   'P 1'
_cell_length_a   23.99022244
_cell_length_b   16.83004712
_cell_length_c   15.42648191
_cell_angle_alpha   89.99970814
_cell_angle_beta   89.99964833
_cell_angle_gamma   89.99935005
_symmetry_Int_Tables_number   1
_chemical_formula_structural   La7(Ru4O11)2
_chemical_formula_sum   'La84 Ru96 O264'
_cell_volume   6228.54348540
_cell_formula_units_Z   12
loop_
 _symmetry_equiv_pos_site_id
 _symmetry_equiv_pos_as_xyz
  1  'x, y, z'
loop_
 _atom_type_symbol
 _atom_type_oxidation_number
  La3+  3.0
  Ru4+  4.0
  O2-  -2.0
loop_
 _atom_site_type_symbol
 _atom_site_label
 _atom_site_symmetry_multiplicity
 _atom_site_fract_x
 _atom_site_fract_y
 _atom_site_fract_z
 _atom_site_occupancy
  La3+  La0  1  0.14031675  -0.00043470  0.12798679  1
  La3+  La1  1  0.13791966  0.00097264  0.37348712  1
  La3+  La2  1  0.13925177  0.00109166  0.62899416  1
  La3+  La3  1  0.13945172  -0.00021211  0.87148393  1
  La3+  La4  1  0.13785130  0.33470054  0.12794775  1
  La3+  La5  1  0.14077912  0.33548454  0.37741421  1
  La3+  La6  1  0.14157624  0.33603764  0.61960950  1
  La3+  La7  1  0.13925409  0.33451524  0.87263748  1
  La3+  La8  1  0.13829925  0.66715792  0.12675000  1
  La3+  La9  1  0.14275370  0.66442677  0.37251962  1
  La3+  La10  1  0.13885218  0.66648339  0.62388417  1
  La3+  La11  1  0.13847346  0.66831943  0.87571542  1
  La3+  La12  1  0.63776441  0.00016620  0.12334358  1
  La3+  La13  1  0.63938338  -0.00047707  0.37708461  1
  La3+  La14  1  0.63693520  0.00092758  0.62238463  1
  La3+  La15  1  0.63729295  0.00031561  0.87712228  1
  La3+  La16  1  0.63841373  0.33219554  0.12594563  1
  La3+  La17  1  0.63934377  0.33361531  0.37428496  1
  La3+  La18  1  0.64331231  0.33639440  0.62830269  1
  La3+  La19  1  0.63898756  0.33415347  0.87334067  1
  La3+  La20  1  0.63622823  0.66606064  0.12683274  1
  La3+  La21  1  0.63809695  0.66632264  0.37614127  1
  La3+  La22  1  0.63916581  0.66579814  0.62309068  1
  La3+  La23  1  0.63982627  0.66508666  0.87511370  1
  La3+  La24  1  0.35933877  -0.00128106  0.12540790  1
  La3+  La25  1  0.36120721  0.00029681  0.37312834  1
  La3+  La26  1  0.35993131  0.00117469  0.62863879  1
  La3+  La27  1  0.36163790  -0.00177353  0.87456124  1
  La3+  La28  1  0.36273753  0.33351413  0.12619276  1
  La3+  La29  1  0.35903383  0.33463813  0.37855593  1
  La3+  La30  1  0.35928551  0.33465972  0.62206805  1
  La3+  La31  1  0.36076776  0.33413540  0.87340321  1
  La3+  La32  1  0.36159919  0.66730223  0.12717183  1
  La3+  La33  1  0.35827056  0.66205600  0.37461934  1
  La3+  La34  1  0.36186263  0.66362576  0.62133415  1
  La3+  La35  1  0.36091850  0.66836269  0.87567818  1
  La3+  La36  1  0.86116598  0.00041396  0.12379334  1
  La3+  La37  1  0.86112560  -0.00179026  0.37587984  1
  La3+  La38  1  0.86243199  -0.00088988  0.62297252  1
  La3+  La39  1  0.86281672  0.00054623  0.87759765  1
  La3+  La40  1  0.86022811  0.33280262  0.12458787  1
  La3+  La41  1  0.86029163  0.33398735  0.37421260  1
  La3+  La42  1  0.85992159  0.33332706  0.62706251  1
  La3+  La43  1  0.86003225  0.33434776  0.87304053  1
  La3+  La44  1  0.86270921  0.66733792  0.12425842  1
  La3+  La45  1  0.86024984  0.66853511  0.37824431  1
  La3+  La46  1  0.86157438  0.66671396  0.62428520  1
  La3+  La47  1  0.86298984  0.66572585  0.87499208  1
  La3+  La48  1  0.50232637  0.49987756  0.36403244  1
  La3+  La49  1  -0.00119551  0.83240399  0.38107111  1
  La3+  La50  1  0.49836247  0.83639802  0.13433575  1
  La3+  La51  1  0.49959729  0.50055685  0.85975712  1
  La3+  La52  1  0.50251319  0.83175675  0.38173594  1
  La3+  La53  1  0.49922545  0.16357506  0.12980093  1
  La3+  La54  1  0.49702472  0.16738700  0.62140921  1
  La3+  La55  1  0.00102249  0.83134411  0.11484588  1
  La3+  La56  1  -0.00049215  0.83255103  0.61851583  1
  La3+  La57  1  0.00646821  0.16718598  0.13819546  1
  La3+  La58  1  0.50179518  0.83499871  0.88642120  1
  La3+  La59  1  0.50089250  0.50132698  0.13354288  1
  La3+  La60  1  0.49915198  0.83341579  0.36004206  1
  La3+  La61  1  0.49599049  0.49256801  0.87938164  1
  La3+  La62  1  0.49931373  0.84008987  0.63969273  1
  La3+  La63  1  -0.00141320  0.49658114  0.61877834  1
  La3+  La64  1  0.49733623  0.16582925  0.88557569  1
  La3+  La65  1  0.50349862  0.49628849  0.62231942  1
  La3+  La66  1  0.00435101  0.50353646  0.11267959  1
  La3+  La67  1  0.00046030  0.16422060  0.87941397  1
  La3+  La68  1  -0.00167975  0.16630118  0.11966954  1
  La3+  La69  1  0.00080021  0.49744981  0.13375604  1
  La3+  La70  1  -0.00109253  0.49569631  0.63610145  1
  La3+  La71  1  0.50250435  0.83352868  0.62532153  1
  La3+  La72  1  0.24962541  0.49558137  0.51648256  1
  La3+  La73  1  0.74993161  0.83852583  0.78452260  1
  La3+  La74  1  0.74991495  0.86914361  0.25939451  1
  La3+  La75  1  0.24968073  0.50011451  -0.00053407  1
  La3+  La76  1  0.75006434  0.45411233  -0.01698855  1
  La3+  La77  1  0.24979733  0.79188333  0.46340062  1
  La3+  La78  1  0.24994152  0.13441210  0.28812557  1
  La3+  La79  1  0.75021002  0.83205475  0.02864167  1
  La3+  La80  1  0.24982532  0.13357701  0.77051131  1
  La3+  La81  1  0.75019596  0.19608412  0.25150714  1
  La3+  La82  1  0.24994347  0.83296535  0.24722884  1
  La3+  La83  1  0.74979128  0.21761491  0.73625198  1
  Ru4+  Ru84  1  0.00164002  -0.00288535  -0.00271013  1
  Ru4+  Ru85  1  0.00109434  -0.00253989  0.25108165  1
  Ru4+  Ru86  1  0.00008793  0.00166663  0.49709781  1
  Ru4+  Ru87  1  -0.00310890  -0.00797378  0.75190623  1
  Ru4+  Ru88  1  -0.00030667  0.33536632  -0.00375922  1
  Ru4+  Ru89  1  0.00453452  0.33184161  0.25261435  1
  Ru4+  Ru90  1  -0.00230061  0.32815307  0.50081099  1
  Ru4+  Ru91  1  0.00075231  0.33424382  0.75098306  1
  Ru4+  Ru92  1  -0.00037968  0.66795639  -0.00594784  1
  Ru4+  Ru93  1  0.00171955  0.66963826  0.24926486  1
  Ru4+  Ru94  1  -0.00102653  0.66917073  0.50190179  1
  Ru4+  Ru95  1  -0.00108345  0.66874128  0.75196383  1
  Ru4+  Ru96  1  0.50198359  0.00468611  -0.00143698  1
  Ru4+  Ru97  1  0.50160420  0.00033883  0.24855114  1
  Ru4+  Ru98  1  0.49570837  -0.00180836  0.50507011  1
  Ru4+  Ru99  1  0.50029480  0.00155540  0.75255419  1
  Ru4+  Ru100  1  0.49993425  0.32844683  0.00108851  1
  Ru4+  Ru101  1  0.49927680  0.32818287  0.25155367  1
  Ru4+  Ru102  1  0.49964468  0.32909453  0.49822904  1
  Ru4+  Ru103  1  0.49923907  0.33524481  0.74954031  1
  Ru4+  Ru104  1  0.49894481  0.66957178  0.00277058  1
  Ru4+  Ru105  1  0.49658587  0.67234196  0.24863070  1
  Ru4+  Ru106  1  0.50507308  0.67268109  0.49745277  1
  Ru4+  Ru107  1  0.50060242  0.66267465  0.74962978  1
  Ru4+  Ru108  1  0.11356193  0.16475884  -0.00019205  1
  Ru4+  Ru109  1  0.11220114  0.16660371  0.25143581  1
  Ru4+  Ru110  1  0.11389682  0.16777994  0.49903795  1
  Ru4+  Ru111  1  0.11452649  0.16904707  0.74857425  1
  Ru4+  Ru112  1  0.11082943  0.49986322  -0.00023745  1
  Ru4+  Ru113  1  0.11604462  0.50058785  0.25141179  1
  Ru4+  Ru114  1  0.11574619  0.50237240  0.49763977  1
  Ru4+  Ru115  1  0.11350480  0.49773559  0.74987052  1
  Ru4+  Ru116  1  0.11337341  0.83080676  0.00093536  1
  Ru4+  Ru117  1  0.11134104  0.83443414  0.24952389  1
  Ru4+  Ru118  1  0.11077629  0.83067262  0.49996709  1
  Ru4+  Ru119  1  0.11236087  0.83453524  0.75012774  1
  Ru4+  Ru120  1  0.61240090  0.16645439  -0.00023492  1
  Ru4+  Ru121  1  0.61236266  0.16613656  0.25072797  1
  Ru4+  Ru122  1  0.61616710  0.16837815  0.49994267  1
  Ru4+  Ru123  1  0.61182559  0.16589757  0.74858547  1
  Ru4+  Ru124  1  0.61411450  0.49952034  0.00152616  1
  Ru4+  Ru125  1  0.61543329  0.49517759  0.25152497  1
  Ru4+  Ru126  1  0.61368041  0.50051068  0.49945047  1
  Ru4+  Ru127  1  0.61505208  0.49932174  0.75029663  1
  Ru4+  Ru128  1  0.61189683  0.83383254  0.00007397  1
  Ru4+  Ru129  1  0.61087867  0.83355945  0.24989389  1
  Ru4+  Ru130  1  0.61677525  0.83163179  0.50021113  1
  Ru4+  Ru131  1  0.61121816  0.83537967  0.75097329  1
  Ru4+  Ru132  1  0.38777074  0.16635483  -0.00004351  1
  Ru4+  Ru133  1  0.38755140  0.16833378  0.25041473  1
  Ru4+  Ru134  1  0.38641343  0.17028207  0.49968730  1
  Ru4+  Ru135  1  0.38798007  0.16514357  0.74890190  1
  Ru4+  Ru136  1  0.38792953  0.49891774  0.00010224  1
  Ru4+  Ru137  1  0.38402503  0.50191623  0.25001067  1
  Ru4+  Ru138  1  0.38095969  0.50087301  0.49834067  1
  Ru4+  Ru139  1  0.38705141  0.49793415  0.74967934  1
  Ru4+  Ru140  1  0.38435317  0.82824271  0.00073560  1
  Ru4+  Ru141  1  0.38808132  0.83281144  0.24991510  1
  Ru4+  Ru142  1  0.38605674  0.83266987  0.49958397  1
  Ru4+  Ru143  1  0.38601931  0.83580635  0.74971042  1
  Ru4+  Ru144  1  0.88458890  0.16575131  -0.00093361  1
  Ru4+  Ru145  1  0.88691516  0.16726736  0.25155764  1
  Ru4+  Ru146  1  0.88685222  0.16586629  0.49900804  1
  Ru4+  Ru147  1  0.88807982  0.16642784  0.74981429  1
  Ru4+  Ru148  1  0.88800852  0.49971588  -0.00095366  1
  Ru4+  Ru149  1  0.88555055  0.50146425  0.25211396  1
  Ru4+  Ru150  1  0.88715506  0.50035366  0.50016919  1
  Ru4+  Ru151  1  0.88503160  0.49879109  0.75044925  1
  Ru4+  Ru152  1  0.88834345  0.83171565  0.00108234  1
  Ru4+  Ru153  1  0.88964753  0.83494690  0.25093850  1
  Ru4+  Ru154  1  0.88497360  0.83310730  0.49989509  1
  Ru4+  Ru155  1  0.89130796  0.83265031  0.74839117  1
  Ru4+  Ru156  1  0.75009471  0.08463844  0.49936287  1
  Ru4+  Ru157  1  0.74999038  0.59903573  0.00978455  1
  Ru4+  Ru158  1  0.74975780  0.05642820  0.25025461  1
  Ru4+  Ru159  1  0.75033666  0.41321546  0.50512575  1
  Ru4+  Ru160  1  0.75018884  0.71951323  0.74175397  1
  Ru4+  Ru161  1  0.25017501  0.74770506  0.75063368  1
  Ru4+  Ru162  1  0.24960862  0.62983627  0.00948456  1
  Ru4+  Ru163  1  0.25000594  0.27506594  0.73483950  1
  Ru4+  Ru164  1  0.75002458  0.40974473  0.25722590  1
  Ru4+  Ru165  1  0.25002276  0.57973076  0.74976918  1
  Ru4+  Ru166  1  0.24970630  0.92961551  0.49912481  1
  Ru4+  Ru167  1  0.25008915  0.07656436  0.00267904  1
  Ru4+  Ru168  1  0.24990012  0.09117205  0.50306741  1
  Ru4+  Ru169  1  0.75008002  0.25011494  0.00018665  1
  Ru4+  Ru170  1  0.74990882  0.73659598  0.24630201  1
  Ru4+  Ru171  1  0.25029063  0.91701992  0.00406419  1
  Ru4+  Ru172  1  0.75016652  0.95459299  0.73419333  1
  Ru4+  Ru173  1  0.75014038  0.58687994  0.25083825  1
  Ru4+  Ru174  1  0.24995266  0.27625780  0.25373613  1
  Ru4+  Ru175  1  0.25007138  0.25051573  -0.00670779  1
  Ru4+  Ru176  1  0.75022816  0.25032588  0.50515320  1
  Ru4+  Ru177  1  0.24966316  0.37225679  0.00150559  1
  Ru4+  Ru178  1  0.74997643  0.08101466  0.75347982  1
  Ru4+  Ru179  1  0.75013490  0.57778196  0.50339334  1
  O2-  O180  1  0.16655114  0.08070683  -0.00037499  1
  O2-  O181  1  0.16658555  0.08059608  0.25129706  1
  O2-  O182  1  0.16841928  0.08114816  0.50037120  1
  O2-  O183  1  0.16407533  0.08044221  0.75002701  1
  O2-  O184  1  0.16546822  0.41020372  -0.00053093  1
  O2-  O185  1  0.16762176  0.41499789  0.24956564  1
  O2-  O186  1  0.16564186  0.41614074  0.50010628  1
  O2-  O187  1  0.16499529  0.41522045  0.75100697  1
  O2-  O188  1  0.16820108  0.74860795  0.00002327  1
  O2-  O189  1  0.16784471  0.74909112  0.24833403  1
  O2-  O190  1  0.16615301  0.74614308  0.50198843  1
  O2-  O191  1  0.16800864  0.74700202  0.75036636  1
  O2-  O192  1  0.66676092  0.08037591  0.00047822  1
  O2-  O193  1  0.66681805  0.08043354  0.25029549  1
  O2-  O194  1  0.66769045  0.08155890  0.50072805  1
  O2-  O195  1  0.66645197  0.08050965  0.75063261  1
  O2-  O196  1  0.66313827  0.41196275  0.00093011  1
  O2-  O197  1  0.66721041  0.41443451  0.24937342  1
  O2-  O198  1  0.66696632  0.41377635  0.50018129  1
  O2-  O199  1  0.66703706  0.41551171  0.75097029  1
  O2-  O200  1  0.66904210  0.74744449  0.00148549  1
  O2-  O201  1  0.66580627  0.74593039  0.24948993  1
  O2-  O202  1  0.66630568  0.74822048  0.49965535  1
  O2-  O203  1  0.66533675  0.74508514  0.74924146  1
  O2-  O204  1  0.33267793  0.25341778  -0.00009451  1
  O2-  O205  1  0.33302714  0.25322593  0.25007150  1
  O2-  O206  1  0.33458353  0.24970391  0.50027833  1
  O2-  O207  1  0.33393610  0.25359386  0.75028046  1
  O2-  O208  1  0.33479588  0.58924057  0.00141288  1
  O2-  O209  1  0.33526784  0.58449715  0.24701807  1
  O2-  O210  1  0.33065215  0.58574631  0.50206278  1
  O2-  O211  1  0.33201950  0.58761774  0.75085125  1
  O2-  O212  1  0.33122948  0.91854090  0.00022499  1
  O2-  O213  1  0.33029863  0.91865303  0.25109619  1
  O2-  O214  1  0.33396081  0.91987570  0.50015796  1
  O2-  O215  1  0.33493359  0.91730558  0.75017853  1
  O2-  O216  1  0.83358483  0.25225386  -0.00011830  1
  O2-  O217  1  0.83383921  0.25358625  0.24982503  1
  O2-  O218  1  0.83055238  0.25263675  0.50078664  1
  O2-  O219  1  0.83488616  0.25516192  0.75282820  1
  O2-  O220  1  0.83323127  0.58690853  0.00002958  1
  O2-  O221  1  0.83262437  0.58477119  0.24933692  1
  O2-  O222  1  0.83411999  0.58508667  0.49967584  1
  O2-  O223  1  0.83248209  0.58505684  0.75107337  1
  O2-  O224  1  0.83105010  0.92011709  0.00028657  1
  O2-  O225  1  0.83310179  0.92089708  0.24844036  1
  O2-  O226  1  0.83531912  0.91990681  0.50184921  1
  O2-  O227  1  0.83522678  0.92108104  0.75013332  1
  O2-  O228  1  0.16729039  0.25391513  -0.00022334  1
  O2-  O229  1  0.16856036  0.25342443  0.25013988  1
  O2-  O230  1  0.16442694  0.24869335  0.49955628  1
  O2-  O231  1  0.16727742  0.25247451  0.75057811  1
  O2-  O232  1  0.16568115  0.58929260  0.00040852  1
  O2-  O233  1  0.16659655  0.58358097  0.24904679  1
  O2-  O234  1  0.16854425  0.58679066  0.50253368  1
  O2-  O235  1  0.16775460  0.58732839  0.75066525  1
  O2-  O236  1  0.16740549  0.91837241  -0.00026593  1
  O2-  O237  1  0.16930754  0.91741397  0.25215504  1
  O2-  O238  1  0.16621037  0.92156789  0.49993379  1
  O2-  O239  1  0.16489035  0.91732773  0.74979644  1
  O2-  O240  1  0.66663446  0.25276418  0.00121234  1
  O2-  O241  1  0.66745956  0.25388310  0.24881337  1
  O2-  O242  1  0.66792531  0.25080910  0.50007485  1
  O2-  O243  1  0.66400672  0.25442873  0.75309904  1
  O2-  O244  1  0.66812856  0.58670932  -0.00015607  1
  O2-  O245  1  0.66634823  0.58567036  0.24976628  1
  O2-  O246  1  0.66704485  0.58553678  0.50015412  1
  O2-  O247  1  0.66536073  0.58525055  0.74929778  1
  O2-  O248  1  0.66769009  0.91957807  0.00033630  1
  O2-  O249  1  0.66730579  0.92220049  0.24866869  1
  O2-  O250  1  0.66546832  0.91997358  0.50084574  1
  O2-  O251  1  0.66621680  0.92106150  0.75003341  1
  O2-  O252  1  0.33335314  0.08078129  -0.00012510  1
  O2-  O253  1  0.33304869  0.08002278  0.25083983  1
  O2-  O254  1  0.33271373  0.08149343  0.50054622  1
  O2-  O255  1  0.33516594  0.08016043  0.75015934  1
  O2-  O256  1  0.33345585  0.41128509  -0.00008289  1
  O2-  O257  1  0.33233057  0.41423852  0.24894857  1
  O2-  O258  1  0.33442705  0.41418167  0.50120691  1
  O2-  O259  1  0.33509291  0.41463840  0.75044166  1
  O2-  O260  1  0.33351962  0.74705168  0.00185579  1
  O2-  O261  1  0.33271480  0.74846688  0.24657921  1
  O2-  O262  1  0.33227752  0.74603179  0.50248920  1
  O2-  O263  1  0.33145055  0.74595947  0.75100937  1
  O2-  O264  1  0.83291841  0.08047886  0.00048863  1
  O2-  O265  1  0.83256716  0.07978872  0.25013938  1
  O2-  O266  1  0.83385570  0.08254816  0.50180077  1
  O2-  O267  1  0.83414521  0.07954070  0.74994462  1
  O2-  O268  1  0.83679695  0.41206373  0.00062402  1
  O2-  O269  1  0.83291521  0.41482527  0.24966335  1
  O2-  O270  1  0.83142854  0.41315025  0.49950838  1
  O2-  O271  1  0.83502709  0.41579107  0.75134966  1
  O2-  O272  1  0.83168469  0.74792576  0.00026744  1
  O2-  O273  1  0.83390638  0.74600538  0.24905427  1
  O2-  O274  1  0.83524972  0.74857467  0.50028306  1
  O2-  O275  1  0.83323464  0.74575832  0.75108779  1
  O2-  O276  1  0.95291356  0.09335704  0.23723543  1
  O2-  O277  1  0.53865230  0.22137847  0.77886094  1
  O2-  O278  1  0.45289987  0.56902335  0.01764955  1
  O2-  O279  1  0.55027152  0.24063348  0.20805097  1
  O2-  O280  1  0.54877741  0.23661510  0.99733465  1
  O2-  O281  1  0.45185676  0.90175771  0.98812755  1
  O2-  O282  1  0.04689702  0.42865075  0.51884836  1
  O2-  O283  1  0.54504360  0.43029235  0.01693391  1
  O2-  O284  1  0.45022302  0.23406820  0.23716191  1
  O2-  O285  1  0.94390255  0.24965975  0.72617302  1
  O2-  O286  1  0.04860858  0.23712268  0.00876710  1
  O2-  O287  1  0.54630267  0.08994310  0.51880498  1
  O2-  O288  1  0.54551533  0.09231183  0.98562458  1
  O2-  O289  1  0.95189712  0.90364009  0.73242500  1
  O2-  O290  1  0.04841197  0.90048738  0.73333680  1
  O2-  O291  1  0.54890349  0.76340148  0.73675818  1
  O2-  O292  1  0.44965208  0.23299106  0.01156588  1
  O2-  O293  1  0.44982516  0.23291249  0.48703049  1
  O2-  O294  1  0.45217260  0.90568545  0.48720466  1
  O2-  O295  1  0.96840833  0.55646336  0.25871081  1
  O2-  O296  1  0.03888843  0.22192443  0.74388375  1
  O2-  O297  1  0.95188225  0.76676395  0.26340547  1
  O2-  O298  1  0.03842282  0.56106979  0.52947224  1
  O2-  O299  1  0.95494317  0.56929323  0.98552159  1
  O2-  O300  1  0.54796868  0.56821453  0.23751719  1
  O2-  O301  1  0.53604588  0.78290215  0.03286889  1
  O2-  O302  1  0.54248938  0.56133201  0.96873339  1
  O2-  O303  1  0.54761707  0.09921007  0.48109592  1
  O2-  O304  1  0.95196149  0.23717051  0.23976404  1
  O2-  O305  1  0.45111095  0.42856451  0.47841150  1
  O2-  O306  1  0.04724990  0.76741782  0.23527987  1
  O2-  O307  1  0.95283756  0.09430613  0.01088211  1
  O2-  O308  1  0.04791055  0.09236888  0.76612685  1
  O2-  O309  1  0.54927695  0.43155221  0.51494993  1
  O2-  O310  1  0.54860208  0.90206023  0.51425834  1
  O2-  O311  1  0.45983761  0.78211424  0.78661755  1
  O2-  O312  1  0.45746639  0.56669331  0.50596592  1
  O2-  O313  1  0.45732133  0.56692135  0.50601562  1
  O2-  O314  1  0.96545074  0.21817387  0.49409208  1
  O2-  O315  1  0.04530474  0.90141915  0.48734438  1
  O2-  O316  1  0.95203006  0.23748573  0.98258362  1
  O2-  O317  1  0.95381027  0.42797148  0.01020129  1
  O2-  O318  1  0.46122913  0.77375111  0.53449317  1
  O2-  O319  1  0.96269753  0.55262210  0.77976465  1
  O2-  O320  1  0.54808352  0.23545599  0.00724645  1
  O2-  O321  1  0.95943237  0.43588243  0.27913462  1
  O2-  O322  1  0.45055791  0.42717831  0.51754751  1
  O2-  O323  1  0.53832598  0.22731508  0.50118908  1
  O2-  O324  1  0.43372046  0.40846382  0.20204039  1
  O2-  O325  1  0.92441579  0.27382102  0.46630688  1
  O2-  O326  1  0.07277193  0.28269504  0.70988504  1
  O2-  O327  1  0.42708268  0.72744324  0.44170548  1
  O2-  O328  1  0.57372536  0.28243151  0.54166790  1
  O2-  O329  1  0.57420734  0.60317258  0.04808259  1
  O2-  O330  1  0.93345441  0.92592032  0.94928939  1
  O2-  O331  1  0.93519342  0.92821612  0.27738573  1
  O2-  O332  1  0.94217355  0.25248628  0.72552306  1
  O2-  O333  1  0.56517500  0.92688717  0.27762250  1
  O2-  O334  1  0.06358137  0.06927277  0.78389205  1
  O2-  O335  1  0.06165613  0.40549630  0.53753670  1
  O2-  O336  1  0.42814186  0.71986773  0.69383581  1
  O2-  O337  1  0.93571595  0.40534658  0.53663565  1
  O2-  O338  1  0.43519961  0.40288133  0.96618858  1
  O2-  O339  1  0.56403374  0.73584860  0.53482394  1
  O2-  O340  1  0.43376464  0.40877401  0.29957333  1
  O2-  O341  1  0.56355370  0.59643541  0.46629629  1
  O2-  O342  1  0.92909958  0.60168783  0.70317256  1
  O2-  O343  1  0.56279842  0.40750328  0.28166510  1
  O2-  O344  1  0.93461000  0.92946286  0.05741178  1
  O2-  O345  1  0.42714922  0.60495350  0.45347054  1
  O2-  O346  1  0.43330973  0.07721150  0.29743151  1
  O2-  O347  1  0.06562133  0.40873396  0.22185156  1
  O2-  O348  1  0.43636625  0.92635646  0.97247323  1
  O2-  O349  1  0.06468647  0.06897714  0.46811487  1
  O2-  O350  1  0.56492917  0.40737181  0.77793710  1
  O2-  O351  1  0.56342236  0.07047979  0.71522443  1
  O2-  O352  1  0.06429381  0.92584153  0.22314683  1
  O2-  O353  1  0.06453904  0.74046175  0.02650106  1
  O2-  O354  1  0.57014472  0.27275345  0.69857263  1
  O2-  O355  1  0.93416335  0.74183845  0.72099313  1
  O2-  O356  1  0.43485645  0.92517479  0.27886961  1
  O2-  O357  1  0.93431153  0.74125191  0.02833289  1
  O2-  O358  1  0.07536178  0.60449386  0.45474539  1
  O2-  O359  1  0.57151873  0.72246790  0.94330951  1
  O2-  O360  1  0.91918389  0.61249879  0.28545684  1
  O2-  O361  1  0.57003692  0.27000741  0.32511057  1
  O2-  O362  1  0.43241010  0.07363834  0.20350870  1
  O2-  O363  1  0.06591214  0.07354515  0.22287492  1
  O2-  O364  1  0.06361712  0.73430435  0.78068455  1
  O2-  O365  1  0.55824501  0.25205488  0.20295769  1
  O2-  O366  1  0.06583461  0.25928854  0.27737958  1
  O2-  O367  1  0.06609859  0.59335298  0.22182361  1
  O2-  O368  1  0.92669597  0.39862344  0.21044538  1
  O2-  O369  1  0.56336782  0.92931338  0.78438175  1
  O2-  O370  1  0.43731965  0.06930454  0.71619348  1
  O2-  O371  1  0.56354975  0.59292582  0.22201999  1
  O2-  O372  1  0.75026069  0.66971436  0.42893297  1
  O2-  O373  1  0.24998580  0.32941800  0.39596744  1
  O2-  O374  1  0.74986851  0.67832300  0.92240358  1
  O2-  O375  1  0.75003753  0.33164795  0.64722728  1
  O2-  O376  1  0.25000284  -0.00003227  0.82687506  1
  O2-  O377  1  0.25028062  -0.00143487  0.14928022  1
  O2-  O378  1  0.24987809  0.33281874  0.84772666  1
  O2-  O379  1  0.75011494  0.66234065  0.33754629  1
  O2-  O380  1  0.75012055  0.66237815  0.14721318  1
  O2-  O381  1  0.75002627  0.33786956  0.07825015  1
  O2-  O382  1  0.24993504  0.00604550  0.39933860  1
  O2-  O383  1  0.24968704  0.67400461  0.34717712  1
  O2-  O384  1  0.75006773  0.67229733  0.57250199  1
  O2-  O385  1  0.24997979  0.67014711  0.89694297  1
  O2-  O386  1  0.75003115  0.33185578  0.34614156  1
  O2-  O387  1  0.75020408  0.33134414  0.90621020  1
  O2-  O388  1  0.25001105  0.00836658  0.58559236  1
  O2-  O389  1  0.74986128  0.64274504  0.65632659  1
  O2-  O390  1  0.74978839  0.64915912  0.83657426  1
  O2-  O391  1  0.24997714  0.00051544  0.67592313  1
  O2-  O392  1  0.24998803  0.33297813  0.60202086  1
  O2-  O393  1  0.75004980  0.32882133  0.17249517  1
  O2-  O394  1  0.24971389  -0.00437784  0.92057753  1
  O2-  O395  1  0.74992877  0.00390490  0.40661136  1
  O2-  O396  1  0.25022063  0.83768020  0.59490334  1
  O2-  O397  1  0.25005434  0.16699041  0.91207959  1
  O2-  O398  1  0.25007866  0.17436722  0.15820996  1
  O2-  O399  1  0.24994257  0.50492556  0.66511799  1
  O2-  O400  1  0.74999732  0.49914045  0.59087168  1
  O2-  O401  1  0.24993554  0.16691457  0.07097055  1
  O2-  O402  1  0.25013427  0.50171615  0.86705300  1
  O2-  O403  1  0.75000793  0.83188578  0.39966835  1
  O2-  O404  1  0.25012172  0.50196072  0.12702158  1
  O2-  O405  1  0.75011956  0.49989826  0.32901595  1
  O2-  O406  1  0.75001389  0.49753140  0.42246801  1
  O2-  O407  1  0.24998611  0.50040640  0.38934745  1
  O2-  O408  1  0.74995957  0.83379217  0.90922564  1
  O2-  O409  1  0.75009279  0.51284243  0.09922686  1
  O2-  O410  1  0.75016910  0.49648146  0.18410379  1
  O2-  O411  1  0.75003099  0.15878769  0.94312312  1
  O2-  O412  1  0.25005810  0.17070183  0.63573926  1
  O2-  O413  1  0.75004427  0.16780821  0.40896218  1
  O2-  O414  1  0.75003549  0.83109374  0.64847381  1
  O2-  O415  1  0.25012828  0.83651318  0.68486444  1
  O2-  O416  1  0.75001558  0.15656914  0.61212720  1
  O2-  O417  1  0.74994542  0.15733835  0.85547672  1
  O2-  O418  1  0.74998069  0.50938908  0.87187743  1
  O2-  O419  1  0.74995650  0.83392432  0.56578085  1
  O2-  O420  1  0.47693780  0.32994181  0.37891324  1
  O2-  O421  1  0.53248886  0.00193632  0.37522318  1
  O2-  O422  1  0.96538092  0.66350695  0.13045155  1
  O2-  O423  1  0.96253114  0.32738216  0.11859691  1
  O2-  O424  1  0.47118005  0.66542161  0.87693693  1
  O2-  O425  1  0.47074376  -0.00143584  0.38266090  1
  O2-  O426  1  0.97413250  0.00218079  0.37914456  1
  O2-  O427  1  0.52168615  0.67527486  0.12787933  1
  O2-  O428  1  0.03864343  0.33121493  0.12331833  1
  O2-  O429  1  0.97420451  0.00640793  0.86930466  1
  O2-  O430  1  0.97785843  0.66778799  0.61660552  1
  O2-  O431  1  0.54167975  -0.00021606  0.12580413  1
  O2-  O432  1  0.52494435  0.33395974  0.87788175  1
  O2-  O433  1  0.47263658  0.33218845  0.62787829  1
  O2-  O434  1  0.96996140  0.67081573  0.38256455  1
  O2-  O435  1  0.97084299  0.33646301  0.36951237  1
  O2-  O436  1  0.46316233  -0.00769292  0.11651796  1
  O2-  O437  1  0.02409280  -0.00030142  0.11697261  1
  O2-  O438  1  0.97367542  0.66935745  0.87537531  1
  O2-  O439  1  0.02989239  0.67292706  0.36917052  1
  O2-  O440  1  0.47397472  0.00378092  0.87147938  1
  O2-  O441  1  0.47547698  0.33223548  0.11983660  1
  O2-  O442  1  0.03022102  0.33581865  0.37624585  1
  O2-  O443  1  0.03079289  0.66534858  0.12425145  1
