# generated using pymatgen
data_La7(Ru4O11)2
_symmetry_space_group_name_H-M   'P 1'
_cell_length_a   23.99350558
_cell_length_b   16.83456209
_cell_length_c   15.43272697
_cell_angle_alpha   90.00075340
_cell_angle_beta   90.00156600
_cell_angle_gamma   90.00035630
_symmetry_Int_Tables_number   1
_chemical_formula_structural   La7(Ru4O11)2
_chemical_formula_sum   'La84 Ru96 O264'
_cell_volume   6233.58953768
_cell_formula_units_Z   12
loop_
 _symmetry_equiv_pos_site_id
 _symmetry_equiv_pos_as_xyz
  1  'x, y, z'
loop_
 _atom_type_symbol
 _atom_type_oxidation_number
  La3+  3.0
  Ru4+  4.0
  O2-  -2.0
loop_
 _atom_site_type_symbol
 _atom_site_label
 _atom_site_symmetry_multiplicity
 _atom_site_fract_x
 _atom_site_fract_y
 _atom_site_fract_z
 _atom_site_occupancy
  La3+  La0  1  0.13984525  -0.00596167  0.12640866  1
  La3+  La1  1  0.13173320  0.00119925  0.37268939  1
  La3+  La2  1  0.13735948  -0.00606877  0.62983084  1
  La3+  La3  1  0.13432488  -0.00200228  0.86966039  1
  La3+  La4  1  0.13849312  0.34183940  0.12890545  1
  La3+  La5  1  0.13495942  0.33662134  0.36995234  1
  La3+  La6  1  0.14171711  0.33349969  0.62571619  1
  La3+  La7  1  0.15291554  0.33337255  0.87694089  1
  La3+  La8  1  0.14609181  0.66247368  0.12600969  1
  La3+  La9  1  0.13500891  0.66255944  0.37074187  1
  La3+  La10  1  0.14383595  0.66436189  0.62602465  1
  La3+  La11  1  0.13743609  0.66745523  0.87468599  1
  La3+  La12  1  0.64524715  0.01195759  0.11801149  1
  La3+  La13  1  0.64011358  -0.00338477  0.37167124  1
  La3+  La14  1  0.63946533  -0.00156554  0.62636756  1
  La3+  La15  1  0.64324464  -0.00306682  0.87375506  1
  La3+  La16  1  0.64001531  0.33485658  0.11802172  1
  La3+  La17  1  0.64006068  0.33894805  0.37423139  1
  La3+  La18  1  0.63003218  0.33579949  0.63283992  1
  La3+  La19  1  0.63355956  0.33006201  0.87510626  1
  La3+  La20  1  0.64848184  0.66137334  0.13737923  1
  La3+  La21  1  0.63879766  0.66577791  0.37328428  1
  La3+  La22  1  0.64143360  0.66640482  0.61965976  1
  La3+  La23  1  0.64383206  0.67248367  0.87536731  1
  La3+  La24  1  0.36868616  0.00094565  0.12664020  1
  La3+  La25  1  0.36870057  -0.00073013  0.36917361  1
  La3+  La26  1  0.36368393  -0.00063898  0.62525115  1
  La3+  La27  1  0.36867370  -0.00377130  0.88059359  1
  La3+  La28  1  0.36739247  0.34101010  0.12623342  1
  La3+  La29  1  0.36674434  0.33802221  0.37222756  1
  La3+  La30  1  0.35759043  0.34289467  0.62733526  1
  La3+  La31  1  0.35779711  0.33744288  0.87310382  1
  La3+  La32  1  0.35656744  0.65771487  0.12683894  1
  La3+  La33  1  0.35689364  0.66078447  0.37492165  1
  La3+  La34  1  0.36239903  0.66361777  0.63357074  1
  La3+  La35  1  0.36480401  0.66241153  0.87091082  1
  La3+  La36  1  0.86053900  0.00574988  0.12188623  1
  La3+  La37  1  0.86765242  -0.00435421  0.38000567  1
  La3+  La38  1  0.86773643  -0.00685740  0.63187785  1
  La3+  La39  1  0.86263959  -0.00475211  0.87259971  1
  La3+  La40  1  0.85617159  0.33334334  0.11879564  1
  La3+  La41  1  0.85906857  0.33708860  0.37621641  1
  La3+  La42  1  0.86217562  0.33340833  0.62427772  1
  La3+  La43  1  0.85499429  0.33660038  0.88240315  1
  La3+  La44  1  0.85621148  0.66487768  0.13088102  1
  La3+  La45  1  0.86454845  0.66940095  0.37400123  1
  La3+  La46  1  0.85798097  0.67072482  0.62032171  1
  La3+  La47  1  0.86290419  0.66889147  0.88017487  1
  La3+  La48  1  0.49996716  0.15805219  0.35559839  1
  La3+  La49  1  -0.00468268  0.48900239  0.38037407  1
  La3+  La50  1  0.00193105  0.83685274  0.62502769  1
  La3+  La51  1  0.00555281  0.15421020  0.60616426  1
  La3+  La52  1  0.50460024  0.49518347  0.87918725  1
  La3+  La53  1  -0.00384424  0.50257115  0.60657532  1
  La3+  La54  1  0.50187497  0.84948514  0.11934913  1
  La3+  La55  1  0.50492138  0.83743500  0.10158308  1
  La3+  La56  1  0.50039069  0.83216905  0.60645415  1
  La3+  La57  1  0.00490602  0.50278801  0.13482322  1
  La3+  La58  1  -0.00700843  0.50498883  0.62212326  1
  La3+  La59  1  0.49935658  0.17798691  0.64086634  1
  La3+  La60  1  0.50330498  0.50346065  0.36226303  1
  La3+  La61  1  0.49019614  0.84922892  0.86510566  1
  La3+  La62  1  -0.00206202  0.16470158  0.86459575  1
  La3+  La63  1  0.50623465  0.16058971  0.89705490  1
  La3+  La64  1  0.00325018  0.16366161  0.12403113  1
  La3+  La65  1  0.50243146  0.16771983  0.37512139  1
  La3+  La66  1  0.00378153  0.49332027  0.89253864  1
  La3+  La67  1  0.50203430  0.83054447  0.62876045  1
  La3+  La68  1  0.00041776  0.49991096  0.87198864  1
  La3+  La69  1  -0.00223973  0.83605654  0.11757519  1
  La3+  La70  1  0.50049457  0.49249037  0.63594257  1
  La3+  La71  1  -0.01192376  0.17527413  0.35640594  1
  La3+  La72  1  0.24961431  0.76870033  0.05763791  1
  La3+  La73  1  0.74990840  0.49369123  0.80216051  1
  La3+  La74  1  0.25022469  0.86067614  0.44140357  1
  La3+  La75  1  0.25076106  0.12897605  0.48388749  1
  La3+  La76  1  0.75152994  0.83527380  0.71244040  1
  La3+  La77  1  0.74931244  0.20016151  0.80024981  1
  La3+  La78  1  0.74902202  0.49682941  0.45097641  1
  La3+  La79  1  0.75241926  0.18327964  0.26360552  1
  La3+  La80  1  0.75144493  0.11991525  0.52385620  1
  La3+  La81  1  0.25007340  0.85067147  0.76913598  1
  La3+  La82  1  0.25069954  0.22564077  0.05310102  1
  La3+  La83  1  0.24870636  0.45377451  0.50036489  1
  Ru4+  Ru84  1  -0.00673010  -0.01090314  -0.00268828  1
  Ru4+  Ru85  1  -0.00063521  -0.00280392  0.25281866  1
  Ru4+  Ru86  1  0.00465525  0.00679167  0.49992139  1
  Ru4+  Ru87  1  0.00747121  0.00021376  0.74696014  1
  Ru4+  Ru88  1  -0.00122614  0.32882408  0.01519080  1
  Ru4+  Ru89  1  0.00336535  0.33896447  0.24345826  1
  Ru4+  Ru90  1  0.00185624  0.32880881  0.50285708  1
  Ru4+  Ru91  1  0.00015214  0.32292502  0.74829891  1
  Ru4+  Ru92  1  0.00231269  0.67534476  0.00573359  1
  Ru4+  Ru93  1  -0.00130655  0.66925329  0.25309993  1
  Ru4+  Ru94  1  -0.00331849  0.67178829  0.49480111  1
  Ru4+  Ru95  1  0.00556105  0.68766587  0.74844039  1
  Ru4+  Ru96  1  0.50311557  0.01414630  -0.01066713  1
  Ru4+  Ru97  1  0.50072889  -0.01123378  0.25411871  1
  Ru4+  Ru98  1  0.50248945  -0.00230857  0.50015964  1
  Ru4+  Ru99  1  0.50245427  0.00872151  0.74710737  1
  Ru4+  Ru100  1  0.49731636  0.33978287  0.00335555  1
  Ru4+  Ru101  1  0.50565889  0.33937242  0.24342611  1
  Ru4+  Ru102  1  0.50755559  0.33180918  0.49973772  1
  Ru4+  Ru103  1  0.48839659  0.32832278  0.74802117  1
  Ru4+  Ru104  1  0.51216621  0.65012833  0.01647923  1
  Ru4+  Ru105  1  0.49756149  0.67222091  0.24083175  1
  Ru4+  Ru106  1  0.49869505  0.66720824  0.50345423  1
  Ru4+  Ru107  1  0.50216597  0.66852319  0.75128649  1
  Ru4+  Ru108  1  0.10936221  0.16419202  -0.00120245  1
  Ru4+  Ru109  1  0.11183721  0.16493435  0.24674042  1
  Ru4+  Ru110  1  0.10787281  0.16298146  0.50333874  1
  Ru4+  Ru111  1  0.11116511  0.16825219  0.75164874  1
  Ru4+  Ru112  1  0.11598346  0.49962869  -0.00170528  1
  Ru4+  Ru113  1  0.11541147  0.50503914  0.24809523  1
  Ru4+  Ru114  1  0.10371464  0.49809399  0.50742206  1
  Ru4+  Ru115  1  0.11385981  0.49390939  0.74907024  1
  Ru4+  Ru116  1  0.10802490  0.83508910  0.00161725  1
  Ru4+  Ru117  1  0.10639618  0.83387223  0.25544111  1
  Ru4+  Ru118  1  0.10908864  0.83055452  0.49492314  1
  Ru4+  Ru119  1  0.10585052  0.82447258  0.75054556  1
  Ru4+  Ru120  1  0.61677817  0.16489416  -0.00333805  1
  Ru4+  Ru121  1  0.61278542  0.16332081  0.24288810  1
  Ru4+  Ru122  1  0.61111161  0.17173674  0.50356967  1
  Ru4+  Ru123  1  0.61310622  0.16083537  0.74931310  1
  Ru4+  Ru124  1  0.60587491  0.50794783  0.00095767  1
  Ru4+  Ru125  1  0.61447765  0.50161692  0.24807113  1
  Ru4+  Ru126  1  0.61215326  0.50371306  0.49563716  1
  Ru4+  Ru127  1  0.61495738  0.50325079  0.74776605  1
  Ru4+  Ru128  1  0.61262023  0.82785581  -0.00400863  1
  Ru4+  Ru129  1  0.60730028  0.83638136  0.25164144  1
  Ru4+  Ru130  1  0.61507744  0.83141652  0.49992623  1
  Ru4+  Ru131  1  0.61306538  0.83713091  0.75301188  1
  Ru4+  Ru132  1  0.38901077  0.16944134  -0.00235551  1
  Ru4+  Ru133  1  0.38477681  0.17093276  0.24161768  1
  Ru4+  Ru134  1  0.38685385  0.16714360  0.50442546  1
  Ru4+  Ru135  1  0.38876509  0.17028882  0.74811657  1
  Ru4+  Ru136  1  0.38478638  0.49931846  -0.00013280  1
  Ru4+  Ru137  1  0.38572574  0.49920649  0.24848864  1
  Ru4+  Ru138  1  0.38869639  0.50944905  0.49513153  1
  Ru4+  Ru139  1  0.38181799  0.49277219  0.75323370  1
  Ru4+  Ru140  1  0.38251679  0.82739604  -0.00267741  1
  Ru4+  Ru141  1  0.38877611  0.82889189  0.26042828  1
  Ru4+  Ru142  1  0.39082782  0.83173407  0.50527639  1
  Ru4+  Ru143  1  0.38641959  0.82808690  0.75136730  1
  Ru4+  Ru144  1  0.88440420  0.16442425  -0.00245248  1
  Ru4+  Ru145  1  0.89002828  0.16562094  0.24589881  1
  Ru4+  Ru146  1  0.89103766  0.17053313  0.50048574  1
  Ru4+  Ru147  1  0.89376142  0.17183551  0.74954037  1
  Ru4+  Ru148  1  0.88305421  0.49459699  0.00366264  1
  Ru4+  Ru149  1  0.88251520  0.50184422  0.25043650  1
  Ru4+  Ru150  1  0.88388953  0.49873672  0.49848283  1
  Ru4+  Ru151  1  0.88664081  0.50184031  0.74874334  1
  Ru4+  Ru152  1  0.89480123  0.83986257  -0.00202291  1
  Ru4+  Ru153  1  0.88640101  0.82634705  0.24639145  1
  Ru4+  Ru154  1  0.88662992  0.82949954  0.50101884  1
  Ru4+  Ru155  1  0.88808457  0.82669868  0.75495121  1
  Ru4+  Ru156  1  0.24975958  0.27174464  0.48560999  1
  Ru4+  Ru157  1  0.74991877  0.91783237  0.01284674  1
  Ru4+  Ru158  1  0.25050503  0.10367713  0.25746864  1
  Ru4+  Ru159  1  0.24973854  0.58073022  0.74849832  1
  Ru4+  Ru160  1  0.75099443  0.06206213  0.74232003  1
  Ru4+  Ru161  1  0.24969109  0.25379083  0.74470505  1
  Ru4+  Ru162  1  0.74852153  0.27315967  0.49701876  1
  Ru4+  Ru163  1  0.25050258  0.92693562  0.01095603  1
  Ru4+  Ru164  1  0.75013020  0.56448362  0.02440725  1
  Ru4+  Ru165  1  0.75060741  0.90672592  0.49697538  1
  Ru4+  Ru166  1  0.75057949  0.89905039  0.24737522  1
  Ru4+  Ru167  1  0.25030968  0.08229370  0.72401705  1
  Ru4+  Ru168  1  0.25102289  0.71885970  0.52003105  1
  Ru4+  Ru169  1  0.24926266  0.08471006  -0.00913098  1
  Ru4+  Ru170  1  0.24794828  0.58900409  0.49793990  1
  Ru4+  Ru171  1  0.24976908  0.91783519  0.26065172  1
  Ru4+  Ru172  1  0.24919363  0.73605655  0.25030449  1
  Ru4+  Ru173  1  0.75174881  0.75423227  0.00581489  1
  Ru4+  Ru174  1  0.75119443  0.04226255  0.20857757  1
  Ru4+  Ru175  1  0.24918724  0.98057332  0.51472770  1
  Ru4+  Ru176  1  0.24983168  0.24606257  0.24513020  1
  Ru4+  Ru177  1  0.74819547  0.33215019  0.24123383  1
  Ru4+  Ru178  1  0.75031265  0.35627910  0.74735746  1
  Ru4+  Ru179  1  0.74991842  0.64398053  0.76039466  1
  O2-  O180  1  0.16355168  0.08076044  -0.00140714  1
  O2-  O181  1  0.16789598  0.08488755  0.25302572  1
  O2-  O182  1  0.16648858  0.07692528  0.49363523  1
  O2-  O183  1  0.16733836  0.08042952  0.74668925  1
  O2-  O184  1  0.16506101  0.41251617  0.00502231  1
  O2-  O185  1  0.16788225  0.41891371  0.25047743  1
  O2-  O186  1  0.16000599  0.40944574  0.49685056  1
  O2-  O187  1  0.17084189  0.41911441  0.74160928  1
  O2-  O188  1  0.16072541  0.74554902  -0.00862980  1
  O2-  O189  1  0.16334843  0.74718886  0.25148664  1
  O2-  O190  1  0.16748428  0.74487359  0.50072982  1
  O2-  O191  1  0.16723593  0.74769488  0.75736864  1
  O2-  O192  1  0.66412019  0.08124607  -0.00748574  1
  O2-  O193  1  0.67023422  0.07866914  0.25364580  1
  O2-  O194  1  0.65829668  0.07509505  0.50017896  1
  O2-  O195  1  0.66667942  0.07856607  0.74808913  1
  O2-  O196  1  0.65512643  0.41870126  -0.00131956  1
  O2-  O197  1  0.66565957  0.41014413  0.24970555  1
  O2-  O198  1  0.66154768  0.41368739  0.50460566  1
  O2-  O199  1  0.66722366  0.40971485  0.75102556  1
  O2-  O200  1  0.67221512  0.74677172  -0.00233888  1
  O2-  O201  1  0.66339998  0.75281266  0.25773077  1
  O2-  O202  1  0.66729032  0.74623324  0.49527991  1
  O2-  O203  1  0.66608123  0.74743111  0.74423215  1
  O2-  O204  1  0.33841819  0.25783319  0.00415235  1
  O2-  O205  1  0.33222786  0.25398537  0.24792537  1
  O2-  O206  1  0.33289682  0.25511765  0.49476784  1
  O2-  O207  1  0.33131112  0.25239136  0.75175991  1
  O2-  O208  1  0.33870275  0.58398049  -0.00375408  1
  O2-  O209  1  0.33512262  0.58192644  0.25099142  1
  O2-  O210  1  0.33116497  0.58288690  0.50607856  1
  O2-  O211  1  0.33329258  0.58565357  0.75222017  1
  O2-  O212  1  0.33463001  0.92237129  0.00302482  1
  O2-  O213  1  0.33374580  0.91766600  0.25040984  1
  O2-  O214  1  0.33174198  0.92537751  0.50002018  1
  O2-  O215  1  0.33883294  0.92074962  0.74520860  1
  O2-  O216  1  0.83201132  0.24765416  -0.00113885  1
  O2-  O217  1  0.83515943  0.25835775  0.24992422  1
  O2-  O218  1  0.82824821  0.25405375  0.50196942  1
  O2-  O219  1  0.82854142  0.25334867  0.74489194  1
  O2-  O220  1  0.83334856  0.58612429  0.00259075  1
  O2-  O221  1  0.83729004  0.58804098  0.25529883  1
  O2-  O222  1  0.83340898  0.58919230  0.49588519  1
  O2-  O223  1  0.83480001  0.59060321  0.75275215  1
  O2-  O224  1  0.83121703  0.92030940  -0.00214907  1
  O2-  O225  1  0.83591966  0.91560053  0.25058419  1
  O2-  O226  1  0.83443365  0.91536922  0.49899784  1
  O2-  O227  1  0.83514144  0.91561892  0.74764314  1
  O2-  O228  1  0.16366994  0.25564014  0.00637393  1
  O2-  O229  1  0.16569944  0.24943067  0.24558263  1
  O2-  O230  1  0.16756180  0.24909123  0.49674367  1
  O2-  O231  1  0.16423444  0.25148457  0.74694871  1
  O2-  O232  1  0.16217939  0.58667039  -0.00513770  1
  O2-  O233  1  0.16967734  0.58409588  0.25506916  1
  O2-  O234  1  0.16450977  0.58314924  0.49693889  1
  O2-  O235  1  0.16577454  0.58394549  0.75203865  1
  O2-  O236  1  0.16562311  0.92035191  -0.00455173  1
  O2-  O237  1  0.16547535  0.91742586  0.25503276  1
  O2-  O238  1  0.16532700  0.92199479  0.49913293  1
  O2-  O239  1  0.16320220  0.91230757  0.75581361  1
  O2-  O240  1  0.66352311  0.25204757  -0.00218560  1
  O2-  O241  1  0.66628056  0.25698242  0.25075302  1
  O2-  O242  1  0.66635051  0.25533798  0.50548980  1
  O2-  O243  1  0.66475443  0.25581922  0.74719661  1
  O2-  O244  1  0.66793077  0.58315397  0.00270927  1
  O2-  O245  1  0.66673778  0.58195859  0.26062862  1
  O2-  O246  1  0.66955760  0.58813135  0.49850270  1
  O2-  O247  1  0.66798304  0.58771257  0.75251762  1
  O2-  O248  1  0.66416815  0.91782644  -0.00090825  1
  O2-  O249  1  0.66908547  0.91329195  0.25242476  1
  O2-  O250  1  0.66517213  0.91938576  0.49850026  1
  O2-  O251  1  0.66896473  0.91777413  0.74556796  1
  O2-  O252  1  0.33374324  0.08043589  0.00209816  1
  O2-  O253  1  0.33466893  0.08313001  0.24957723  1
  O2-  O254  1  0.33760407  0.07547921  0.50276530  1
  O2-  O255  1  0.33803914  0.08209466  0.74576573  1
  O2-  O256  1  0.33661935  0.41009964  0.00576222  1
  O2-  O257  1  0.33250063  0.41053975  0.24965349  1
  O2-  O258  1  0.34003718  0.41330468  0.49283904  1
  O2-  O259  1  0.32947229  0.41642568  0.75228443  1
  O2-  O260  1  0.33636072  0.73843432  -0.00609873  1
  O2-  O261  1  0.33341250  0.74693522  0.24763911  1
  O2-  O262  1  0.33681799  0.74377172  0.50428774  1
  O2-  O263  1  0.33121311  0.74494942  0.75031127  1
  O2-  O264  1  0.83375365  0.08081134  -0.00386567  1
  O2-  O265  1  0.83606409  0.07745501  0.25385670  1
  O2-  O266  1  0.84584365  0.07677836  0.50142973  1
  O2-  O267  1  0.83404296  0.08271082  0.75242249  1
  O2-  O268  1  0.83022251  0.41792073  0.00463174  1
  O2-  O269  1  0.83563889  0.41211483  0.24886599  1
  O2-  O270  1  0.82987366  0.41510810  0.50041401  1
  O2-  O271  1  0.82819974  0.40822998  0.75120711  1
  O2-  O272  1  0.83885953  0.75010440  0.00182147  1
  O2-  O273  1  0.83152832  0.74927949  0.25647241  1
  O2-  O274  1  0.83565798  0.74614427  0.49533329  1
  O2-  O275  1  0.83257502  0.74648434  0.75168160  1
  O2-  O276  1  0.04968178  0.55965857  0.29626222  1
  O2-  O277  1  0.45535311  0.89968227  0.99106151  1
  O2-  O278  1  0.53836242  0.89622792  0.28993619  1
  O2-  O279  1  0.94627659  0.90524733  0.72707900  1
  O2-  O280  1  0.45642829  0.42642268  0.47894094  1
  O2-  O281  1  0.45245624  0.90418269  0.73785521  1
  O2-  O282  1  0.55021679  0.42540819  0.74718730  1
  O2-  O283  1  0.55130541  0.09235391  0.48994358  1
  O2-  O284  1  0.03659146  0.43355250  0.71587363  1
  O2-  O285  1  0.97413880  0.21100854  0.72268960  1
  O2-  O286  1  0.96527931  0.87761425  0.94959329  1
  O2-  O287  1  0.54639734  0.76375321  0.76037966  1
  O2-  O288  1  0.95104827  0.57615174  0.97757657  1
  O2-  O289  1  0.45288938  0.77873424  0.21127461  1
  O2-  O290  1  0.04946709  0.89978632  0.50539185  1
  O2-  O291  1  0.44823315  0.42647517  0.26454606  1
  O2-  O292  1  0.94975535  0.76421866  0.51142149  1
  O2-  O293  1  0.55210884  0.23552147  0.76862708  1
  O2-  O294  1  0.55132510  0.57403942  0.74344858  1
  O2-  O295  1  0.45925815  0.20530620  0.79387809  1
  O2-  O296  1  0.94601777  0.90822706  0.51772328  1
  O2-  O297  1  0.44858182  0.57658964  0.73371376  1
  O2-  O298  1  0.44825105  0.56520659  0.77115160  1
  O2-  O299  1  0.03070649  0.11508519  0.45817767  1
  O2-  O300  1  0.04565229  0.57639833  0.73914850  1
  O2-  O301  1  0.04528805  0.23715220  0.25037612  1
  O2-  O302  1  0.55291160  0.24093933  0.25629614  1
  O2-  O303  1  0.94480709  0.75385667  0.76699470  1
  O2-  O304  1  0.44936531  0.43364916  0.51614096  1
  O2-  O305  1  0.55207444  0.43191209  0.24138537  1
  O2-  O306  1  0.95758490  0.56543762  0.01371859  1
  O2-  O307  1  0.55701107  0.75127918  0.24195767  1
  O2-  O308  1  0.44943012  0.09734245  0.22893576  1
  O2-  O309  1  0.52974201  0.53462714  0.03840079  1
  O2-  O310  1  0.44973765  0.09392112  0.50394529  1
  O2-  O311  1  0.44763324  0.24684699  0.26439924  1
  O2-  O312  1  0.04595987  0.76341764  0.26374326  1
  O2-  O313  1  0.45154044  0.24210016  0.48813374  1
  O2-  O314  1  0.95395245  0.56721918  0.23751504  1
  O2-  O315  1  0.04371492  0.77996218  0.80874249  1
  O2-  O316  1  0.55418430  0.23965393  0.99057779  1
  O2-  O317  1  0.04474452  0.09155389  0.28582277  1
  O2-  O318  1  0.04267714  0.22456551  0.99425730  1
  O2-  O319  1  0.53330486  0.77150876  0.95518867  1
  O2-  O320  1  0.53740030  0.88786819  0.28476727  1
  O2-  O321  1  0.95128425  0.57071237  0.49823116  1
  O2-  O322  1  0.95264973  0.91372271  0.76385678  1
  O2-  O323  1  0.04596372  0.76625311  0.00285808  1
  O2-  O324  1  0.06685612  0.92446808  0.72560852  1
  O2-  O325  1  0.06201698  0.92884365  0.28162211  1
  O2-  O326  1  0.06044740  0.08307699  0.73031008  1
  O2-  O327  1  0.56048894  0.59058854  0.24702619  1
  O2-  O328  1  0.06352883  0.73350285  0.47008006  1
  O2-  O329  1  0.56020331  0.74706492  0.52471357  1
  O2-  O330  1  0.05363078  0.59367391  0.30713647  1
  O2-  O331  1  0.43008552  0.92933540  0.27096596  1
  O2-  O332  1  0.07883529  0.06162490  0.55448900  1
  O2-  O333  1  0.43809868  0.41604101  0.72036769  1
  O2-  O334  1  0.43721383  0.92204504  0.97855645  1
  O2-  O335  1  0.06155017  0.41765633  0.27169123  1
  O2-  O336  1  0.93768169  0.73742649  0.21312136  1
  O2-  O337  1  0.92898229  0.42772482  0.82454639  1
  O2-  O338  1  0.56163079  0.26852912  0.77311713  1
  O2-  O339  1  0.93844781  0.06957990  0.72421255  1
  O2-  O340  1  0.43800550  0.73524089  0.78707606  1
  O2-  O341  1  0.55971794  0.07774195  0.22775728  1
  O2-  O342  1  0.43906490  0.59944729  0.46744636  1
  O2-  O343  1  0.57640135  0.94093869  0.15870996  1
  O2-  O344  1  0.43809309  0.06526150  0.22581956  1
  O2-  O345  1  0.07127079  0.07554737  0.14861021  1
  O2-  O346  1  0.58808343  0.74103778  0.06296096  1
  O2-  O347  1  0.08581214  0.40618065  0.82005780  1
  O2-  O348  1  0.43844236  0.92720288  0.53730117  1
  O2-  O349  1  0.08188831  0.57381971  0.15847805  1
  O2-  O350  1  0.56695405  0.61111515  0.92828046  1
  O2-  O351  1  0.91511254  0.26352527  0.80924825  1
  O2-  O352  1  0.94010928  0.07627704  0.96021561  1
  O2-  O353  1  0.06974801  0.72754109  0.67808064  1
  O2-  O354  1  0.56110256  0.59224465  0.46129594  1
  O2-  O355  1  0.42050600  0.26407630  0.68567694  1
  O2-  O356  1  0.94032397  0.41281772  0.98358048  1
  O2-  O357  1  0.56139623  0.40276659  0.72195810  1
  O2-  O358  1  0.92713940  0.24776326  0.42794911  1
  O2-  O359  1  0.06573112  0.25847572  0.53720074  1
  O2-  O360  1  0.92821794  0.24188301  0.57485403  1
  O2-  O361  1  0.56410061  0.93041765  0.78527966  1
  O2-  O362  1  0.06079036  0.08408360  0.31491435  1
  O2-  O363  1  0.06205996  0.92989137  0.03796471  1
  O2-  O364  1  0.92354489  0.93120635  0.06001758  1
  O2-  O365  1  0.43676475  0.08039809  0.98118192  1
  O2-  O366  1  0.92676360  0.42637995  0.67614582  1
  O2-  O367  1  0.93637151  0.24750475  0.02684565  1
  O2-  O368  1  0.94079874  0.41120546  0.51423038  1
  O2-  O369  1  0.56087576  0.26515459  0.96456110  1
  O2-  O370  1  0.93596777  0.93955265  0.52894676  1
  O2-  O371  1  0.43540271  0.70566687  0.32216672  1
  O2-  O372  1  0.25080799  0.32248066  0.84663114  1
  O2-  O373  1  0.75119477  0.66557519  0.08023114  1
  O2-  O374  1  0.25046891  -0.00401520  0.91186933  1
  O2-  O375  1  0.25002611  0.00240942  0.35996339  1
  O2-  O376  1  0.25027261  0.34806348  0.67436104  1
  O2-  O377  1  0.74809595  0.33788652  0.39149413  1
  O2-  O378  1  0.75061073  0.00058888  0.09526882  1
  O2-  O379  1  0.75036490  0.67261936  0.64271505  1
  O2-  O380  1  0.75198902  0.67014074  0.17406734  1
  O2-  O381  1  0.25109376  0.01415944  0.08307551  1
  O2-  O382  1  0.74786992  0.32786340  0.11962810  1
  O2-  O383  1  0.24885863  0.67137428  0.39094275  1
  O2-  O384  1  0.25046238  0.00956132  0.20173507  1
  O2-  O385  1  0.25117167  -0.00825350  0.78256731  1
  O2-  O386  1  0.74684451  0.33194717  0.87487296  1
  O2-  O387  1  0.75120607  0.65965235  0.90245240  1
  O2-  O388  1  0.25044842  0.63733524  0.07598114  1
  O2-  O389  1  0.25031633  0.65507562  0.16826475  1
  O2-  O390  1  0.75020552  0.00508145  0.85085499  1
  O2-  O391  1  0.25079732  0.66327540  0.65380268  1
  O2-  O392  1  0.75089585  -0.01057071  0.31917457  1
  O2-  O393  1  0.75078201  -0.00716995  0.64109219  1
  O2-  O394  1  0.74937239  0.00469218  0.45249488  1
  O2-  O395  1  0.24968327  0.34404697  0.57656259  1
  O2-  O396  1  0.74981095  0.49950254  0.93540007  1
  O2-  O397  1  0.74930745  0.83015124  0.84514505  1
  O2-  O398  1  0.74848467  0.18308349  0.40113380  1
  O2-  O399  1  0.74952436  0.82928435  0.57260490  1
  O2-  O400  1  0.75049243  0.51344172  0.12165841  1
  O2-  O401  1  0.74957301  0.49976117  0.66834571  1
  O2-  O402  1  0.24826299  0.84153015  0.94188135  1
  O2-  O403  1  0.74926198  0.15541554  0.12398828  1
  O2-  O404  1  0.24949205  0.84231733  0.17000581  1
  O2-  O405  1  0.75012261  0.83960630  0.93242149  1
  O2-  O406  1  0.75016311  0.16498965  0.04021324  1
  O2-  O407  1  0.25004131  0.84305036  0.64341760  1
  O2-  O408  1  0.24957840  0.50008834  0.82777771  1
  O2-  O409  1  0.74897500  0.16489533  0.65865489  1
  O2-  O410  1  0.75108822  0.50312591  0.32830791  1
  O2-  O411  1  0.25026407  0.18195303  0.35124379  1
  O2-  O412  1  0.25002103  0.17418648  0.92746695  1
  O2-  O413  1  0.24821730  0.82139498  0.56292752  1
  O2-  O414  1  0.25021721  0.17006096  0.63470239  1
  O2-  O415  1  0.24974692  0.82011683  0.31874128  1
  O2-  O416  1  0.24979408  0.50736747  0.91323151  1
  O2-  O417  1  0.75085487  0.49918504  0.58439756  1
  O2-  O418  1  0.25064038  0.15925914  0.80270504  1
  O2-  O419  1  0.25328781  0.78395814  0.87839885  1
  O2-  O420  1  0.52310764  0.66142215  0.62518919  1
  O2-  O421  1  0.97514259  0.01240807  0.13767914  1
  O2-  O422  1  0.52172856  0.33261116  0.11753247  1
  O2-  O423  1  0.97406664  0.65495393  0.62783365  1
  O2-  O424  1  0.47462765  0.01256734  0.37914434  1
  O2-  O425  1  0.01824620  0.67676932  0.12723503  1
  O2-  O426  1  0.52939191  -0.00381408  0.62546743  1
  O2-  O427  1  0.97631476  0.32048128  0.88812910  1
  O2-  O428  1  0.44696198  0.66253985  0.10200646  1
  O2-  O429  1  0.04395233  0.32697801  0.39657636  1
  O2-  O430  1  0.04805081  0.33658925  0.12044944  1
  O2-  O431  1  0.52771955  0.33640602  0.37823104  1
  O2-  O432  1  0.02859795  0.00925490  0.87635714  1
  O2-  O433  1  0.97079485  0.66509608  0.37211593  1
  O2-  O434  1  0.00820643  -0.01062100  0.62210184  1
  O2-  O435  1  0.99488090  0.33507488  0.62612564  1
  O2-  O436  1  0.47029076  0.34596802  0.88101237  1
  O2-  O437  1  0.95406164  0.36132915  0.33922713  1
  O2-  O438  1  0.03337064  0.32273858  0.88699422  1
  O2-  O439  1  0.48947959  0.33378392  0.61589861  1
  O2-  O440  1  0.97058258  0.00127870  0.37429712  1
  O2-  O441  1  0.95453108  0.34382080  0.14397913  1
  O2-  O442  1  0.53452470  0.66316235  0.12987968  1
  O2-  O443  1  0.47886593  0.00982285  0.86514648  1
