# generated using pymatgen
data_La7(Ru4O11)2
_symmetry_space_group_name_H-M   'P 1'
_cell_length_a   23.99546348
_cell_length_b   16.83661816
_cell_length_c   15.43159041
_cell_angle_alpha   89.99842273
_cell_angle_beta   89.99675707
_cell_angle_gamma   89.99970253
_symmetry_Int_Tables_number   1
_chemical_formula_structural   La7(Ru4O11)2
_chemical_formula_sum   'La84 Ru96 O264'
_cell_volume   6234.40041581
_cell_formula_units_Z   12
loop_
 _symmetry_equiv_pos_site_id
 _symmetry_equiv_pos_as_xyz
  1  'x, y, z'
loop_
 _atom_type_symbol
 _atom_type_oxidation_number
  La3+  3.0
  Ru4+  4.0
  O2-  -2.0
loop_
 _atom_site_type_symbol
 _atom_site_label
 _atom_site_symmetry_multiplicity
 _atom_site_fract_x
 _atom_site_fract_y
 _atom_site_fract_z
 _atom_site_occupancy
  La3+  La0  1  0.12326562  0.00199740  0.12691307  1
  La3+  La1  1  0.15122686  0.00264412  0.38032959  1
  La3+  La2  1  0.14138665  0.00599370  0.62136220  1
  La3+  La3  1  0.14654214  0.00306093  0.87709887  1
  La3+  La4  1  0.13973108  0.33851350  0.12460126  1
  La3+  La5  1  0.13941878  0.33455322  0.37417064  1
  La3+  La6  1  0.14434781  0.33793449  0.62370992  1
  La3+  La7  1  0.13656618  0.33739452  0.87577307  1
  La3+  La8  1  0.14330073  0.65684409  0.12764508  1
  La3+  La9  1  0.13665247  0.66258498  0.37720297  1
  La3+  La10  1  0.13311735  0.66719955  0.62539345  1
  La3+  La11  1  0.13724360  0.66505899  0.87542807  1
  La3+  La12  1  0.63346525  0.00610797  0.12713847  1
  La3+  La13  1  0.65912504  0.00023101  0.37287849  1
  La3+  La14  1  0.64646032  0.00479612  0.62441617  1
  La3+  La15  1  0.64138060  0.00260076  0.87725940  1
  La3+  La16  1  0.64887490  0.33759539  0.11871447  1
  La3+  La17  1  0.64868220  0.33479766  0.37432556  1
  La3+  La18  1  0.64507792  0.33319906  0.62318334  1
  La3+  La19  1  0.64034209  0.33737118  0.87707800  1
  La3+  La20  1  0.64817552  0.66500533  0.12016177  1
  La3+  La21  1  0.64931620  0.66688328  0.37070921  1
  La3+  La22  1  0.64539228  0.66493195  0.62692135  1
  La3+  La23  1  0.63870095  0.66126332  0.87135392  1
  La3+  La24  1  0.37199645  0.00020621  0.12112279  1
  La3+  La25  1  0.34682554  -0.00188487  0.38251046  1
  La3+  La26  1  0.36242958  -0.00165474  0.62289158  1
  La3+  La27  1  0.34917780  0.00775808  0.87806830  1
  La3+  La28  1  0.36269316  0.33986428  0.12451639  1
  La3+  La29  1  0.35056512  0.33694064  0.36908126  1
  La3+  La30  1  0.35723005  0.33552693  0.62407160  1
  La3+  La31  1  0.36516679  0.33899270  0.87088093  1
  La3+  La32  1  0.36286080  0.66146102  0.12524986  1
  La3+  La33  1  0.36313026  0.65796991  0.37500352  1
  La3+  La34  1  0.36720244  0.66133765  0.62732546  1
  La3+  La35  1  0.36358649  0.66633413  0.87478768  1
  La3+  La36  1  0.84913513  0.00946580  0.12810303  1
  La3+  La37  1  0.85333891  0.00344216  0.36914412  1
  La3+  La38  1  0.85959161  0.01163572  0.62795136  1
  La3+  La39  1  0.85252132  0.01041128  0.87965417  1
  La3+  La40  1  0.86025825  0.34211311  0.12195880  1
  La3+  La41  1  0.85591299  0.33466059  0.37350634  1
  La3+  La42  1  0.85206928  0.32853944  0.62067183  1
  La3+  La43  1  0.85844539  0.34181572  0.88011648  1
  La3+  La44  1  0.86840620  0.66082929  0.12129460  1
  La3+  La45  1  0.86037125  0.66061450  0.37284494  1
  La3+  La46  1  0.85492007  0.66126476  0.61807477  1
  La3+  La47  1  0.86241528  0.66466072  0.87815820  1
  La3+  La48  1  0.50061780  0.16697863  0.35419596  1
  La3+  La49  1  -0.00616705  0.50564488  0.13117805  1
  La3+  La50  1  -0.00261303  0.83538629  0.12500744  1
  La3+  La51  1  -0.00062479  0.49665573  0.87697530  1
  La3+  La52  1  0.49990871  0.83815488  0.38549894  1
  La3+  La53  1  0.49652903  0.17502291  0.10283316  1
  La3+  La54  1  -0.00817203  0.49390835  0.61746324  1
  La3+  La55  1  0.00137149  0.15007319  0.86643834  1
  La3+  La56  1  0.50405769  0.16079728  0.37475340  1
  La3+  La57  1  0.49503776  0.50223001  0.37310933  1
  La3+  La58  1  0.00014457  0.50443886  0.60291743  1
  La3+  La59  1  0.50755362  0.15729127  0.62841654  1
  La3+  La60  1  -0.00957523  0.85535555  0.86671010  1
  La3+  La61  1  0.00458135  0.50102405  0.89745747  1
  La3+  La62  1  0.50871087  0.82878270  0.13244813  1
  La3+  La63  1  0.00811692  0.82689822  0.38983759  1
  La3+  La64  1  0.50476743  0.16371387  0.64912807  1
  La3+  La65  1  0.50323616  0.82732970  0.62478115  1
  La3+  La66  1  -0.00266256  0.15939038  0.88572843  1
  La3+  La67  1  0.50613797  0.82382218  0.37258581  1
  La3+  La68  1  0.00224581  0.16362194  0.60916398  1
  La3+  La69  1  0.00830215  0.82434886  0.37323722  1
  La3+  La70  1  0.01100028  0.82643957  0.61402043  1
  La3+  La71  1  0.50633004  0.82232287  0.11802192  1
  La3+  La72  1  0.25171389  0.12397479  0.23899199  1
  La3+  La73  1  0.75128174  0.17372346  0.25646624  1
  La3+  La74  1  0.75011296  0.50402207  0.48701206  1
  La3+  La75  1  0.24758533  0.76533230  0.25438853  1
  La3+  La76  1  0.24815384  0.23611460  0.75525121  1
  La3+  La77  1  0.75355641  0.90661716  0.50351696  1
  La3+  La78  1  0.24068984  0.87995269  0.02216627  1
  La3+  La79  1  0.75176087  0.83025241  0.00731944  1
  La3+  La80  1  0.24977864  0.16881694  0.00683254  1
  La3+  La81  1  0.75061299  0.78554018  0.74885206  1
  La3+  La82  1  0.74876522  0.54529856  0.76133073  1
  La3+  La83  1  0.25090036  0.79889779  0.78448773  1
  Ru4+  Ru84  1  -0.00118270  -0.00055263  0.00082741  1
  Ru4+  Ru85  1  -0.00110659  0.00773235  0.25297572  1
  Ru4+  Ru86  1  -0.00564015  0.00059102  0.50786272  1
  Ru4+  Ru87  1  -0.00650481  -0.00631590  0.73327344  1
  Ru4+  Ru88  1  0.00470072  0.32293259  0.00261668  1
  Ru4+  Ru89  1  -0.00599926  0.32797456  0.26313693  1
  Ru4+  Ru90  1  0.00715000  0.32395902  0.48831969  1
  Ru4+  Ru91  1  -0.00056942  0.31991704  0.75155436  1
  Ru4+  Ru92  1  0.00483883  0.67790518  0.00200009  1
  Ru4+  Ru93  1  -0.00023848  0.66058728  0.24552664  1
  Ru4+  Ru94  1  0.00676696  0.66774456  0.49715886  1
  Ru4+  Ru95  1  -0.00385940  0.66766615  0.75508418  1
  Ru4+  Ru96  1  0.49756261  -0.00343076  -0.00998610  1
  Ru4+  Ru97  1  0.51288565  0.00754911  0.24009677  1
  Ru4+  Ru98  1  0.49510049  0.00266712  0.52112826  1
  Ru4+  Ru99  1  0.48922192  -0.01832022  0.75808816  1
  Ru4+  Ru100  1  0.50298676  0.34045360  -0.01134207  1
  Ru4+  Ru101  1  0.49781482  0.33604315  0.23995053  1
  Ru4+  Ru102  1  0.49127082  0.34997640  0.50471375  1
  Ru4+  Ru103  1  0.50414259  0.35221080  0.75979092  1
  Ru4+  Ru104  1  0.49717593  0.65767706  -0.01603081  1
  Ru4+  Ru105  1  0.51262498  0.63999179  0.24256073  1
  Ru4+  Ru106  1  0.50010640  0.65834966  0.50888369  1
  Ru4+  Ru107  1  0.49992788  0.66339635  0.75110234  1
  Ru4+  Ru108  1  0.10644200  0.17366300  0.00331138  1
  Ru4+  Ru109  1  0.10730951  0.16471513  0.24811514  1
  Ru4+  Ru110  1  0.10314223  0.17814396  0.49819751  1
  Ru4+  Ru111  1  0.10607421  0.16932664  0.74829713  1
  Ru4+  Ru112  1  0.11504448  0.49667737  0.01220776  1
  Ru4+  Ru113  1  0.11044644  0.49680101  0.24972139  1
  Ru4+  Ru114  1  0.11385289  0.49971941  0.49153654  1
  Ru4+  Ru115  1  0.11809140  0.50035208  0.74883421  1
  Ru4+  Ru116  1  0.10292020  0.82297670  0.00769281  1
  Ru4+  Ru117  1  0.10649512  0.83767731  0.25365629  1
  Ru4+  Ru118  1  0.11512502  0.83716913  0.49717937  1
  Ru4+  Ru119  1  0.10970508  0.83669622  0.74800139  1
  Ru4+  Ru120  1  0.61076139  0.16590837  -0.00489378  1
  Ru4+  Ru121  1  0.61225278  0.16838276  0.25142029  1
  Ru4+  Ru122  1  0.61250646  0.16962026  0.50221987  1
  Ru4+  Ru123  1  0.61444841  0.16830948  0.75201343  1
  Ru4+  Ru124  1  0.61503701  0.49862447  -0.00384107  1
  Ru4+  Ru125  1  0.60554234  0.51794711  0.24830764  1
  Ru4+  Ru126  1  0.60693540  0.49850373  0.50228837  1
  Ru4+  Ru127  1  0.59916176  0.49542424  0.74435368  1
  Ru4+  Ru128  1  0.60923050  0.83268065  -0.00157313  1
  Ru4+  Ru129  1  0.61453196  0.83845001  0.24942866  1
  Ru4+  Ru130  1  0.60804120  0.82799850  0.49945224  1
  Ru4+  Ru131  1  0.60869375  0.83906293  0.75525667  1
  Ru4+  Ru132  1  0.39246456  0.16696862  0.00418389  1
  Ru4+  Ru133  1  0.38649031  0.16887062  0.24807695  1
  Ru4+  Ru134  1  0.38608243  0.16136945  0.49496319  1
  Ru4+  Ru135  1  0.39003991  0.16949949  0.75331912  1
  Ru4+  Ru136  1  0.39532901  0.49106796  -0.00579069  1
  Ru4+  Ru137  1  0.38929017  0.49511883  0.24997559  1
  Ru4+  Ru138  1  0.39934171  0.49175822  0.50245121  1
  Ru4+  Ru139  1  0.39025119  0.50702982  0.74490185  1
  Ru4+  Ru140  1  0.39338806  0.83998352  -0.01153821  1
  Ru4+  Ru141  1  0.38908224  0.83633731  0.25024252  1
  Ru4+  Ru142  1  0.38238516  0.83619784  0.50061551  1
  Ru4+  Ru143  1  0.39683389  0.83987405  0.75744420  1
  Ru4+  Ru144  1  0.88423167  0.16592571  0.00756450  1
  Ru4+  Ru145  1  0.89599691  0.16663315  0.24855398  1
  Ru4+  Ru146  1  0.88364047  0.16430282  0.49928013  1
  Ru4+  Ru147  1  0.88077115  0.16705375  0.74803608  1
  Ru4+  Ru148  1  0.87825972  0.50245258  -0.00033524  1
  Ru4+  Ru149  1  0.88817726  0.50084033  0.25215698  1
  Ru4+  Ru150  1  0.88887689  0.48713133  0.49030589  1
  Ru4+  Ru151  1  0.88712742  0.50748994  0.75101211  1
  Ru4+  Ru152  1  0.89304165  0.83451799  0.00459679  1
  Ru4+  Ru153  1  0.88976824  0.84340209  0.24051511  1
  Ru4+  Ru154  1  0.89145095  0.83610220  0.49731925  1
  Ru4+  Ru155  1  0.89024753  0.83648496  0.74862658  1
  Ru4+  Ru156  1  0.25134218  0.44809449  -0.01177896  1
  Ru4+  Ru157  1  0.25043341  0.56362640  0.23682517  1
  Ru4+  Ru158  1  0.24958797  0.08327039  0.73688564  1
  Ru4+  Ru159  1  0.24980974  0.23394035  0.48535598  1
  Ru4+  Ru160  1  0.25088138  0.42946029  0.75438658  1
  Ru4+  Ru161  1  0.24935125  0.93257463  0.24279016  1
  Ru4+  Ru162  1  0.24877051  0.65751887  0.73593477  1
  Ru4+  Ru163  1  0.75032447  0.73709688  0.48885883  1
  Ru4+  Ru164  1  0.25229361  0.72219046  0.00773094  1
  Ru4+  Ru165  1  0.24910518  0.03506469  0.05918539  1
  Ru4+  Ru166  1  0.74921615  0.94464356  0.75151045  1
  Ru4+  Ru167  1  0.24680057  0.26814720  0.24161193  1
  Ru4+  Ru168  1  0.25096018  0.58289671  0.01115479  1
  Ru4+  Ru169  1  0.74977745  0.66456113  -0.01044157  1
  Ru4+  Ru170  1  0.24812530  0.93690057  0.71575796  1
  Ru4+  Ru171  1  0.75040236  0.40068912  0.75704489  1
  Ru4+  Ru172  1  0.25121660  0.57026016  0.50788238  1
  Ru4+  Ru173  1  0.25122374  0.31320454  -0.01665736  1
  Ru4+  Ru174  1  0.25041233  0.75408318  0.50882458  1
  Ru4+  Ru175  1  0.74791537  0.98702373  0.00549150  1
  Ru4+  Ru176  1  0.75057507  0.24228846  -0.01578370  1
  Ru4+  Ru177  1  0.75225883  0.75007514  0.24598814  1
  Ru4+  Ru178  1  0.25096235  0.42718482  0.51480024  1
  Ru4+  Ru179  1  0.74710598  0.42265400  0.24874700  1
  O2-  O180  1  0.16414132  0.08090466  0.00779003  1
  O2-  O181  1  0.16410591  0.07835113  0.24693557  1
  O2-  O182  1  0.15237889  0.08930835  0.49855588  1
  O2-  O183  1  0.16666664  0.08443413  0.74895313  1
  O2-  O184  1  0.17194759  0.41650026  -0.00353011  1
  O2-  O185  1  0.15859667  0.41289727  0.24861931  1
  O2-  O186  1  0.16774605  0.41528894  0.49925194  1
  O2-  O187  1  0.16824276  0.41470483  0.75403276  1
  O2-  O188  1  0.16688281  0.74430852  -0.00012369  1
  O2-  O189  1  0.14996985  0.73993384  0.25183516  1
  O2-  O190  1  0.16816313  0.74448290  0.50301943  1
  O2-  O191  1  0.16447786  0.74043662  0.74830495  1
  O2-  O192  1  0.66506325  0.08067350  0.00502610  1
  O2-  O193  1  0.67579182  0.08306095  0.24284543  1
  O2-  O194  1  0.65983454  0.08351793  0.50041376  1
  O2-  O195  1  0.66137007  0.08020833  0.75394631  1
  O2-  O196  1  0.66653191  0.41660298  0.00257509  1
  O2-  O197  1  0.65761553  0.42119432  0.24805388  1
  O2-  O198  1  0.66537889  0.41596212  0.49515869  1
  O2-  O199  1  0.66660201  0.41532738  0.75051683  1
  O2-  O200  1  0.66885700  0.74638872  -0.00578275  1
  O2-  O201  1  0.66983340  0.74638733  0.24712266  1
  O2-  O202  1  0.66471067  0.74726260  0.49883213  1
  O2-  O203  1  0.66047672  0.74562930  0.75446780  1
  O2-  O204  1  0.33655993  0.25589750  -0.00381568  1
  O2-  O205  1  0.32946036  0.25251142  0.24231435  1
  O2-  O206  1  0.33542605  0.25063484  0.49793861  1
  O2-  O207  1  0.34177260  0.25986740  0.75181662  1
  O2-  O208  1  0.33507269  0.58161671  0.00290888  1
  O2-  O209  1  0.33245959  0.57954435  0.24389000  1
  O2-  O210  1  0.33451034  0.57813914  0.50160630  1
  O2-  O211  1  0.33212189  0.58652448  0.74924913  1
  O2-  O212  1  0.33454847  0.91375904  0.01285148  1
  O2-  O213  1  0.33476186  0.92008363  0.24505500  1
  O2-  O214  1  0.33189811  0.91705454  0.50405474  1
  O2-  O215  1  0.32683690  0.91305221  0.74446750  1
  O2-  O216  1  0.83371615  0.25345590  -0.00324500  1
  O2-  O217  1  0.83508058  0.24889675  0.24559467  1
  O2-  O218  1  0.83638548  0.25499006  0.49432422  1
  O2-  O219  1  0.83804022  0.25586997  0.75223862  1
  O2-  O220  1  0.82759099  0.58990743  0.00615248  1
  O2-  O221  1  0.83804556  0.58523619  0.24758164  1
  O2-  O222  1  0.83715026  0.57709219  0.49106803  1
  O2-  O223  1  0.83680540  0.59428592  0.74990457  1
  O2-  O224  1  0.83281058  0.92240609  0.00115071  1
  O2-  O225  1  0.83196417  0.91717054  0.25365940  1
  O2-  O226  1  0.84857166  0.92860073  0.50088679  1
  O2-  O227  1  0.82630073  0.91780154  0.73875251  1
  O2-  O228  1  0.16496935  0.25692134  -0.00313730  1
  O2-  O229  1  0.16225176  0.25282344  0.24538504  1
  O2-  O230  1  0.16784541  0.25027908  0.49504834  1
  O2-  O231  1  0.15200734  0.26148486  0.75504780  1
  O2-  O232  1  0.16705963  0.58411960  -0.00365143  1
  O2-  O233  1  0.16732664  0.58006463  0.25443611  1
  O2-  O234  1  0.16587153  0.58583179  0.50372092  1
  O2-  O235  1  0.17109576  0.59241371  0.74847679  1
  O2-  O236  1  0.14863120  0.91701330  0.00072800  1
  O2-  O237  1  0.16361981  0.92173090  0.24531768  1
  O2-  O238  1  0.16171648  0.92145627  0.50166020  1
  O2-  O239  1  0.16499639  0.91899617  0.74694269  1
  O2-  O240  1  0.66871984  0.24849203  -0.00393951  1
  O2-  O241  1  0.66703199  0.25195312  0.24768601  1
  O2-  O242  1  0.66425545  0.25573851  0.49501207  1
  O2-  O243  1  0.66112502  0.25456853  0.74755949  1
  O2-  O244  1  0.67638557  0.58533104  0.00197368  1
  O2-  O245  1  0.67152274  0.58087778  0.25386594  1
  O2-  O246  1  0.66491837  0.58238289  0.49569474  1
  O2-  O247  1  0.65944909  0.58244543  0.74609857  1
  O2-  O248  1  0.67002650  0.92562378  0.00585459  1
  O2-  O249  1  0.66269040  0.92228685  0.24371828  1
  O2-  O250  1  0.65797318  0.92104466  0.50044911  1
  O2-  O251  1  0.66875724  0.91792184  0.74927892  1
  O2-  O252  1  0.33083417  0.08222600  0.01139815  1
  O2-  O253  1  0.33933003  0.07445101  0.24705240  1
  O2-  O254  1  0.33376216  0.08097018  0.49927366  1
  O2-  O255  1  0.33359024  0.08600591  0.74495380  1
  O2-  O256  1  0.33006300  0.41731655  -0.00233172  1
  O2-  O257  1  0.33525179  0.41699942  0.24319988  1
  O2-  O258  1  0.33384549  0.41732324  0.50366628  1
  O2-  O259  1  0.33180373  0.42035185  0.75166184  1
  O2-  O260  1  0.33504966  0.74705481  0.00715106  1
  O2-  O261  1  0.34527004  0.73986888  0.25029317  1
  O2-  O262  1  0.33585573  0.74211584  0.50241787  1
  O2-  O263  1  0.33448208  0.74279092  0.74904226  1
  O2-  O264  1  0.82347830  0.08621390  0.00370324  1
  O2-  O265  1  0.82734503  0.08961698  0.25389231  1
  O2-  O266  1  0.83129160  0.08573584  0.49663248  1
  O2-  O267  1  0.82878014  0.08355472  0.75112691  1
  O2-  O268  1  0.83413648  0.41284310  0.00248718  1
  O2-  O269  1  0.83061477  0.41512799  0.25023999  1
  O2-  O270  1  0.82656221  0.41269493  0.48846511  1
  O2-  O271  1  0.83472086  0.41521106  0.74825859  1
  O2-  O272  1  0.83268970  0.74357280  0.00303629  1
  O2-  O273  1  0.83870286  0.75163836  0.24578366  1
  O2-  O274  1  0.83498339  0.74553325  0.49331499  1
  O2-  O275  1  0.84220267  0.74637834  0.74730178  1
  O2-  O276  1  0.94764963  0.41605074  0.22877597  1
  O2-  O277  1  0.55309308  0.10033833  0.20106021  1
  O2-  O278  1  0.94890108  0.75046521  0.27416220  1
  O2-  O279  1  0.45904285  0.23537234  0.50764147  1
  O2-  O280  1  0.04897564  0.76310392  0.74504969  1
  O2-  O281  1  0.54941829  0.44587348  0.81205496  1
  O2-  O282  1  0.44782206  0.57995925  0.74697584  1
  O2-  O283  1  0.95401263  0.23626952  0.01551482  1
  O2-  O284  1  0.47157196  0.44746868  0.55204031  1
  O2-  O285  1  0.04925452  0.56900204  0.74373473  1
  O2-  O286  1  0.56067877  0.92782656  0.76877945  1
  O2-  O287  1  0.54408713  0.76885139  0.78049229  1
  O2-  O288  1  0.96467931  0.89610059  0.27239674  1
  O2-  O289  1  0.94579265  0.57267679  0.99546942  1
  O2-  O290  1  0.45794930  0.91100855  0.24411798  1
  O2-  O291  1  0.44857813  0.09383713  0.23527534  1
  O2-  O292  1  0.95349530  0.24190989  0.23310097  1
  O2-  O293  1  0.95607336  0.44105472  0.44057596  1
  O2-  O294  1  0.46610029  0.44845739  0.74084760  1
  O2-  O295  1  0.94471166  0.42427317  0.98164595  1
  O2-  O296  1  0.95560335  0.43156212  0.01588254  1
  O2-  O297  1  0.53623149  0.55184791  0.99768914  1
  O2-  O298  1  0.44262911  0.57362819  0.98684503  1
  O2-  O299  1  0.94209161  0.57694125  0.49911377  1
  O2-  O300  1  0.52256193  0.50888387  0.23340111  1
  O2-  O301  1  0.47193474  0.85261840  0.99678910  1
  O2-  O302  1  0.95517298  0.76225212  0.49251210  1
  O2-  O303  1  0.05103716  0.57265179  0.48354886  1
  O2-  O304  1  0.47440396  0.86741874  0.75231904  1
  O2-  O305  1  0.95110304  0.42747942  0.75591455  1
  O2-  O306  1  0.04431922  0.90639742  0.01093954  1
  O2-  O307  1  0.94721267  0.57543182  0.27034547  1
  O2-  O308  1  0.95309162  0.10265272  0.73629853  1
  O2-  O309  1  0.55866437  0.91615337  0.97607075  1
  O2-  O310  1  0.45657235  0.76923342  0.49400467  1
  O2-  O311  1  0.02979521  0.20196246  0.45635090  1
  O2-  O312  1  0.05645443  0.41776202  0.52050295  1
  O2-  O313  1  0.05443914  0.57538320  0.23112377  1
  O2-  O314  1  0.45709257  0.76392593  0.25438875  1
  O2-  O315  1  0.54900938  0.09010374  0.00538171  1
  O2-  O316  1  0.43599801  0.74204783  0.76627018  1
  O2-  O317  1  0.04969584  0.57102687  0.02271946  1
  O2-  O318  1  0.03375720  0.77671021  0.95793570  1
  O2-  O319  1  0.04544318  0.10138240  0.01177700  1
  O2-  O320  1  0.96930239  0.87820479  0.71969755  1
  O2-  O321  1  0.96954539  0.89266895  0.26525573  1
  O2-  O322  1  0.96289273  0.10179797  0.29709141  1
  O2-  O323  1  0.54548145  0.56101655  0.50299871  1
  O2-  O324  1  0.90907740  0.92615392  0.81334298  1
  O2-  O325  1  0.92790404  0.07851353  0.18249228  1
  O2-  O326  1  0.07010892  0.72575077  0.07587279  1
  O2-  O327  1  0.05920841  0.08186453  0.72429780  1
  O2-  O328  1  0.42253026  0.39498407  0.70720357  1
  O2-  O329  1  0.43353239  0.41941008  0.06524927  1
  O2-  O330  1  0.44122693  0.40798519  0.28046524  1
  O2-  O331  1  0.06894364  0.74102413  0.51404420  1
  O2-  O332  1  0.93370809  0.59112611  0.67962503  1
  O2-  O333  1  0.07127375  0.27294864  0.56422324  1
  O2-  O334  1  0.56672272  0.60004412  0.33337054  1
  O2-  O335  1  0.56081948  0.75013459  0.23362693  1
  O2-  O336  1  0.41956753  0.95639412  0.96879784  1
  O2-  O337  1  0.44016631  0.07889984  0.03983855  1
  O2-  O338  1  0.56525608  0.41361630  0.98036413  1
  O2-  O339  1  0.43369537  0.72631932  0.97610544  1
  O2-  O340  1  0.44713207  0.25688294  0.71715095  1
  O2-  O341  1  0.06293230  0.40006195  0.03543767  1
  O2-  O342  1  0.55311445  0.91833693  0.51321222  1
  O2-  O343  1  0.57109674  0.74728917  0.70030791  1
  O2-  O344  1  0.93751097  0.58591947  0.82900638  1
  O2-  O345  1  0.42647271  0.38785420  0.43834228  1
  O2-  O346  1  0.43791949  0.40690883  0.92095126  1
  O2-  O347  1  0.55929752  0.09894493  0.19702293  1
  O2-  O348  1  0.57886342  0.61144517  0.98034454  1
  O2-  O349  1  0.56671714  0.38470913  0.68051811  1
  O2-  O350  1  0.44082318  0.06732581  0.41312819  1
  O2-  O351  1  0.56123108  0.05507609  0.36288517  1
  O2-  O352  1  0.93906772  0.74599132  0.79272843  1
  O2-  O353  1  0.93611942  0.08222496  0.99443299  1
  O2-  O354  1  0.42989938  0.59435446  0.51681039  1
  O2-  O355  1  0.94013194  0.08796277  0.52144664  1
  O2-  O356  1  0.06088019  0.07927046  0.23408775  1
  O2-  O357  1  0.43584930  0.25704796  0.23080486  1
  O2-  O358  1  0.93909499  0.60479460  0.98160095  1
  O2-  O359  1  0.56083920  0.25674982  0.98988917  1
  O2-  O360  1  0.43460333  0.09042505  0.56669611  1
  O2-  O361  1  0.94494352  0.08971012  0.72908031  1
  O2-  O362  1  0.91438800  0.92439709  0.14691149  1
  O2-  O363  1  0.43923092  0.91993207  0.50411322  1
  O2-  O364  1  0.41209401  0.95639573  0.78448098  1
  O2-  O365  1  0.43411313  0.59245684  0.27295428  1
  O2-  O366  1  0.56581943  0.59465504  0.77164344  1
  O2-  O367  1  0.57704739  0.60615830  0.17960560  1
  O2-  O368  1  0.91960995  0.40457601  0.56959820  1
  O2-  O369  1  0.93880723  0.40433973  0.22096209  1
  O2-  O370  1  0.44489990  0.08597663  0.73145735  1
  O2-  O371  1  0.93610933  0.59962702  0.52837688  1
  O2-  O372  1  0.25068581  0.33607549  0.44136946  1
  O2-  O373  1  0.75362063  0.67049001  0.36016617  1
  O2-  O374  1  0.24918020  0.32410954  0.11495199  1
  O2-  O375  1  0.25112394  0.34650403  0.64422072  1
  O2-  O376  1  0.75323060  0.00248303  0.39105210  1
  O2-  O377  1  0.25166213  0.65619076  0.88992773  1
  O2-  O378  1  0.24968721  0.33665710  0.85369937  1
  O2-  O379  1  0.24922179  -0.00636458  0.94641289  1
  O2-  O380  1  0.74935078  0.31151724  0.09142289  1
  O2-  O381  1  0.74658948  0.00718310  0.88537656  1
  O2-  O382  1  0.74889688  0.34124125  0.34420662  1
  O2-  O383  1  0.24954350  0.01683851  0.32949850  1
  O2-  O384  1  0.75014185  -0.00739521  0.63187210  1
  O2-  O385  1  0.24790827  0.35708033  0.30412519  1
  O2-  O386  1  0.74998400  0.65237859  0.57358794  1
  O2-  O387  1  0.25029003  0.01374154  0.62366813  1
  O2-  O388  1  0.24958949  0.64758666  0.30947029  1
  O2-  O389  1  0.24889218  -0.00158129  0.81799798  1
  O2-  O390  1  0.25195276  0.66993364  0.13176370  1
  O2-  O391  1  0.74982624  0.66313398  0.66708827  1
  O2-  O392  1  0.74995334  0.33143134  0.85027983  1
  O2-  O393  1  0.24741977  -0.00042592  0.42071813  1
  O2-  O394  1  0.75018004  0.67119259  0.86291259  1
  O2-  O395  1  0.25046606  0.66410744  0.44088034  1
  O2-  O396  1  0.74755622  0.81609926  0.39523636  1
  O2-  O397  1  0.75281225  0.48286882  0.88009875  1
  O2-  O398  1  0.74955022  0.86202173  0.86506841  1
  O2-  O399  1  0.24952491  0.83852343  0.44567534  1
  O2-  O400  1  0.75018723  0.47594101  0.62625998  1
  O2-  O401  1  0.24969933  0.49818581  0.40967539  1
  O2-  O402  1  0.75087873  0.16917939  0.58987412  1
  O2-  O403  1  0.74943264  0.82127871  0.15219203  1
  O2-  O404  1  0.24950496  0.19084902  0.36707125  1
  O2-  O405  1  0.74985759  0.49033318  0.16521222  1
  O2-  O406  1  0.24938893  0.48876366  0.85576062  1
  O2-  O407  1  0.24956900  0.15899724  0.63701420  1
  O2-  O408  1  0.75008641  0.18825805  0.88877168  1
  O2-  O409  1  0.24952000  0.14211917  0.54952064  1
  O2-  O410  1  0.74920953  0.84080172  0.31083623  1
  O2-  O411  1  0.24911478  0.50349242  0.61073137  1
  O2-  O412  1  0.25115164  0.86987256  0.33606611  1
  O2-  O413  1  0.24864744  0.83834809  0.65276516  1
  O2-  O414  1  0.24843064  0.50640289  0.13488491  1
  O2-  O415  1  0.25323845  0.80032687  0.91827235  1
  O2-  O416  1  0.24938453  0.85650580  0.56865486  1
  O2-  O417  1  0.25031242  0.14777732  0.86536932  1
  O2-  O418  1  0.25333532  0.85440154  0.15416119  1
  O2-  O419  1  0.74934427  0.81092561  0.60415759  1
  O2-  O420  1  0.02039722  0.66613044  0.62883054  1
  O2-  O421  1  0.03293519  0.33538555  0.36722487  1
  O2-  O422  1  0.98002721  0.30918858  0.63186180  1
  O2-  O423  1  0.54186236  0.65346682  0.61246868  1
  O2-  O424  1  0.52078290  -0.03305899  0.11534001  1
  O2-  O425  1  0.02261205  -0.01338670  0.13024280  1
  O2-  O426  1  0.03083370  0.65911896  0.87411599  1
  O2-  O427  1  0.46568756  -0.03092209  0.63708584  1
  O2-  O428  1  0.49156693  0.02107523  0.87207694  1
  O2-  O429  1  0.50796239  0.68328286  0.10910945  1
  O2-  O430  1  0.55276042  0.03598042  0.63202350  1
  O2-  O431  1  0.96970752  0.66375551  0.11911300  1
  O2-  O432  1  0.04984781  -0.01222568  0.59889449  1
  O2-  O433  1  0.97907307  -0.00556579  0.39021335  1
  O2-  O434  1  0.49347462  0.32344805  0.11863550  1
  O2-  O435  1  0.05529080  0.00238491  0.87101423  1
  O2-  O436  1  0.97534055  0.32036844  0.87388654  1
  O2-  O437  1  0.95445520  -0.02345344  0.61672774  1
  O2-  O438  1  0.02880957  0.68320556  0.36901195  1
  O2-  O439  1  0.96497218  0.00840270  0.88363044  1
  O2-  O440  1  0.51379692  0.67181470  0.87261643  1
  O2-  O441  1  0.51969824  0.31389222  0.86764109  1
  O2-  O442  1  0.48065469  0.67591353  0.38095831  1
  O2-  O443  1  0.46063463  0.68962368  0.63138006  1
