# generated using pymatgen
data_La7(Ru4O11)2
_symmetry_space_group_name_H-M   'P 1'
_cell_length_a   23.98943514
_cell_length_b   16.82928396
_cell_length_c   15.42624933
_cell_angle_alpha   90.00029257
_cell_angle_beta   90.00029655
_cell_angle_gamma   90.00009210
_symmetry_Int_Tables_number   1
_chemical_formula_structural   La7(Ru4O11)2
_chemical_formula_sum   'La84 Ru96 O264'
_cell_volume   6227.96275773
_cell_formula_units_Z   12
loop_
 _symmetry_equiv_pos_site_id
 _symmetry_equiv_pos_as_xyz
  1  'x, y, z'
loop_
 _atom_type_symbol
 _atom_type_oxidation_number
  La3+  3.0
  Ru4+  4.0
  O2-  -2.0
loop_
 _atom_site_type_symbol
 _atom_site_label
 _atom_site_symmetry_multiplicity
 _atom_site_fract_x
 _atom_site_fract_y
 _atom_site_fract_z
 _atom_site_occupancy
  La3+  La0  1  0.13903565  -0.00216659  0.12426475  1
  La3+  La1  1  0.13774690  0.00031481  0.37496924  1
  La3+  La2  1  0.13768916  -0.00017628  0.62675372  1
  La3+  La3  1  0.13843233  -0.00192245  0.87360395  1
  La3+  La4  1  0.13753553  0.33332100  0.12508420  1
  La3+  La5  1  0.13801323  0.33312568  0.37623015  1
  La3+  La6  1  0.13904329  0.33439581  0.62265369  1
  La3+  La7  1  0.13800776  0.33461527  0.87518372  1
  La3+  La8  1  0.13923620  0.66794536  0.12317782  1
  La3+  La9  1  0.13874445  0.66757018  0.37545850  1
  La3+  La10  1  0.13835321  0.66662265  0.62574767  1
  La3+  La11  1  0.13998503  0.66714756  0.87596426  1
  La3+  La12  1  0.63829218  -0.00056555  0.12365733  1
  La3+  La13  1  0.63958830  0.00039268  0.37555616  1
  La3+  La14  1  0.63954453  0.00029002  0.62414392  1
  La3+  La15  1  0.63944976  -0.00099064  0.87647438  1
  La3+  La16  1  0.63777501  0.33408809  0.12477156  1
  La3+  La17  1  0.63824108  0.33299378  0.37471799  1
  La3+  La18  1  0.63900748  0.33296251  0.62499228  1
  La3+  La19  1  0.63775458  0.33475725  0.87520050  1
  La3+  La20  1  0.63709445  0.66793676  0.12228650  1
  La3+  La21  1  0.63668373  0.66616291  0.37574018  1
  La3+  La22  1  0.63861588  0.66586841  0.62538779  1
  La3+  La23  1  0.63827972  0.66742815  0.87629452  1
  La3+  La24  1  0.36218992  -0.00280644  0.12598093  1
  La3+  La25  1  0.36145448  -0.00115792  0.37185709  1
  La3+  La26  1  0.36160218  -0.00047387  0.62732980  1
  La3+  La27  1  0.36101928  -0.00145226  0.87399548  1
  La3+  La28  1  0.36256462  0.33382344  0.12413010  1
  La3+  La29  1  0.36234140  0.33375772  0.37687296  1
  La3+  La30  1  0.36134428  0.33504052  0.62320806  1
  La3+  La31  1  0.36255542  0.33545145  0.87638815  1
  La3+  La32  1  0.36344537  0.66779241  0.12366219  1
  La3+  La33  1  0.36291398  0.66756234  0.37305593  1
  La3+  La34  1  0.36134859  0.66666660  0.62555183  1
  La3+  La35  1  0.36119497  0.66648146  0.87685528  1
  La3+  La36  1  0.86205694  0.00024838  0.12526219  1
  La3+  La37  1  0.86032855  0.00094375  0.37526983  1
  La3+  La38  1  0.86050837  0.00068008  0.62436565  1
  La3+  La39  1  0.86025320  -0.00076537  0.87595013  1
  La3+  La40  1  0.86181557  0.33312564  0.12597417  1
  La3+  La41  1  0.86255592  0.33363528  0.37543376  1
  La3+  La42  1  0.86166550  0.33282117  0.62444068  1
  La3+  La43  1  0.86134825  0.33353346  0.87403254  1
  La3+  La44  1  0.86225484  0.66718593  0.12318694  1
  La3+  La45  1  0.86217741  0.66608979  0.37618978  1
  La3+  La46  1  0.86021292  0.66649283  0.62730822  1
  La3+  La47  1  0.86201348  0.66697754  0.87461640  1
  La3+  La48  1  0.49956785  0.50049528  0.13557006  1
  La3+  La49  1  0.00054275  0.83347504  0.13192891  1
  La3+  La50  1  -0.00101878  0.83122505  0.63470639  1
  La3+  La51  1  0.50128908  0.16749068  0.63368467  1
  La3+  La52  1  0.50081106  0.16707561  0.61299529  1
  La3+  La53  1  -0.00076466  0.16732826  0.38528032  1
  La3+  La54  1  -0.00113770  0.49888451  0.36709135  1
  La3+  La55  1  -0.00088435  0.83602454  0.36557543  1
  La3+  La56  1  0.50023322  0.16675241  0.13382903  1
  La3+  La57  1  0.49887120  0.83531230  0.64047612  1
  La3+  La58  1  0.50228758  0.82985103  0.61922511  1
  La3+  La59  1  0.50096241  0.49825361  0.11337453  1
  La3+  La60  1  0.49925975  0.83352014  0.87148389  1
  La3+  La61  1  0.00035000  0.49865740  0.61872204  1
  La3+  La62  1  0.00024166  0.49926613  0.13350412  1
  La3+  La63  1  0.00107219  0.16761851  0.62800990  1
  La3+  La64  1  0.50046163  0.16873300  0.86921057  1
  La3+  La65  1  0.00011187  0.83296119  0.86875858  1
  La3+  La66  1  -0.00012939  0.16667825  0.36782158  1
  La3+  La67  1  0.00035651  0.83372874  0.38760265  1
  La3+  La68  1  0.49886741  0.83290766  0.36293794  1
  La3+  La69  1  0.49841116  0.16503108  0.38520087  1
  La3+  La70  1  0.49791098  0.16448461  0.36825780  1
  La3+  La71  1  0.49989540  0.83247933  0.13278714  1
  La3+  La72  1  0.75017449  0.53007649  0.47856049  1
  La3+  La73  1  0.75004345  0.13951693  -0.00233697  1
  La3+  La74  1  0.24994594  0.83270031  0.46902716  1
  La3+  La75  1  0.25030414  0.16294813  -0.01862823  1
  La3+  La76  1  0.74990932  0.87304134  0.26777015  1
  La3+  La77  1  0.75002272  0.87682032  0.48791292  1
  La3+  La78  1  0.75006797  0.16579562  0.25126575  1
  La3+  La79  1  0.75001605  0.83374380  0.78961769  1
  La3+  La80  1  0.75007939  0.45482837  0.24697773  1
  La3+  La81  1  0.25037423  0.50760235  0.20617203  1
  La3+  La82  1  0.24995650  0.19495322  0.22530765  1
  La3+  La83  1  0.24992996  0.12809192  0.75778770  1
  Ru4+  Ru84  1  0.00110030  -0.00136950  -0.00291979  1
  Ru4+  Ru85  1  -0.00185157  -0.00248150  0.24912736  1
  Ru4+  Ru86  1  -0.00257658  -0.00272750  0.50042230  1
  Ru4+  Ru87  1  0.00238828  -0.00144357  0.75271194  1
  Ru4+  Ru88  1  -0.00062281  0.33136247  0.00230056  1
  Ru4+  Ru89  1  -0.00049925  0.33189527  0.24750330  1
  Ru4+  Ru90  1  0.00111709  0.33085400  0.50196009  1
  Ru4+  Ru91  1  -0.00306785  0.33384454  0.74969514  1
  Ru4+  Ru92  1  -0.00022195  0.66637961  -0.00194944  1
  Ru4+  Ru93  1  -0.00110882  0.66773661  0.24865045  1
  Ru4+  Ru94  1  0.00316007  0.66565547  0.50016061  1
  Ru4+  Ru95  1  -0.00057448  0.66552866  0.75320362  1
  Ru4+  Ru96  1  0.49963677  0.00022124  -0.00104701  1
  Ru4+  Ru97  1  0.50196745  0.00326342  0.24795325  1
  Ru4+  Ru98  1  0.50355956  0.00299419  0.50245510  1
  Ru4+  Ru99  1  0.50047539  -0.00239478  0.75159928  1
  Ru4+  Ru100  1  0.49735200  0.33079300  -0.00045310  1
  Ru4+  Ru101  1  0.49839387  0.33607638  0.24959029  1
  Ru4+  Ru102  1  0.49908958  0.33535253  0.49948024  1
  Ru4+  Ru103  1  0.50153615  0.33683755  0.75312013  1
  Ru4+  Ru104  1  0.49910723  0.66656798  -0.00019549  1
  Ru4+  Ru105  1  0.50101884  0.66294475  0.25128933  1
  Ru4+  Ru106  1  0.49795138  0.66382625  0.49731345  1
  Ru4+  Ru107  1  0.50013306  0.66485560  0.75305539  1
  Ru4+  Ru108  1  0.11214825  0.16527690  0.00035063  1
  Ru4+  Ru109  1  0.11291102  0.16919675  0.24881573  1
  Ru4+  Ru110  1  0.11481791  0.17007180  0.50088186  1
  Ru4+  Ru111  1  0.11256301  0.16550608  0.74995064  1
  Ru4+  Ru112  1  0.11330079  0.50051189  -0.00008933  1
  Ru4+  Ru113  1  0.11286347  0.49934096  0.25005174  1
  Ru4+  Ru114  1  0.11313054  0.49928945  0.50017342  1
  Ru4+  Ru115  1  0.11368704  0.50156986  0.75001417  1
  Ru4+  Ru116  1  0.11354340  0.83442747  -0.00004713  1
  Ru4+  Ru117  1  0.11441574  0.83424495  0.24955923  1
  Ru4+  Ru118  1  0.11200175  0.83233087  0.50020216  1
  Ru4+  Ru119  1  0.11617567  0.83131847  0.74982375  1
  Ru4+  Ru120  1  0.61155607  0.16596030  0.00084908  1
  Ru4+  Ru121  1  0.61291704  0.16450408  0.24952214  1
  Ru4+  Ru122  1  0.61402886  0.16531266  0.49965055  1
  Ru4+  Ru123  1  0.61326060  0.16642666  0.75022144  1
  Ru4+  Ru124  1  0.61445024  0.50307609  -0.00013382  1
  Ru4+  Ru125  1  0.61110074  0.49914710  0.24989347  1
  Ru4+  Ru126  1  0.61233076  0.49881208  0.49997143  1
  Ru4+  Ru127  1  0.61282719  0.49938503  0.75036539  1
  Ru4+  Ru128  1  0.61530337  0.83605307  -0.00089254  1
  Ru4+  Ru129  1  0.61174362  0.83405773  0.25087918  1
  Ru4+  Ru130  1  0.61294272  0.83382018  0.49915990  1
  Ru4+  Ru131  1  0.61362109  0.83297628  0.75028464  1
  Ru4+  Ru132  1  0.38886304  0.16598854  -0.00078829  1
  Ru4+  Ru133  1  0.38892448  0.16724171  0.24989200  1
  Ru4+  Ru134  1  0.38682305  0.16795543  0.49982022  1
  Ru4+  Ru135  1  0.38401449  0.16761911  0.75077019  1
  Ru4+  Ru136  1  0.38497063  0.49712362  -0.00129214  1
  Ru4+  Ru137  1  0.38879392  0.50009333  0.24980308  1
  Ru4+  Ru138  1  0.38914056  0.49957917  0.49987179  1
  Ru4+  Ru139  1  0.38660275  0.49922789  0.74937109  1
  Ru4+  Ru140  1  0.38612874  0.83384761  -0.00043414  1
  Ru4+  Ru141  1  0.38254719  0.83376483  0.25071247  1
  Ru4+  Ru142  1  0.38559764  0.83117682  0.49919866  1
  Ru4+  Ru143  1  0.38517868  0.83426762  0.75040090  1
  Ru4+  Ru144  1  0.88943976  0.16745005  0.00040044  1
  Ru4+  Ru145  1  0.88776071  0.16698361  0.24921043  1
  Ru4+  Ru146  1  0.88652827  0.16681424  0.49955467  1
  Ru4+  Ru147  1  0.88379213  0.17198489  0.75173620  1
  Ru4+  Ru148  1  0.88648607  0.50155812  0.00011103  1
  Ru4+  Ru149  1  0.88804671  0.49799798  0.25030396  1
  Ru4+  Ru150  1  0.88531874  0.50188146  0.50104720  1
  Ru4+  Ru151  1  0.88778674  0.50008484  0.75002550  1
  Ru4+  Ru152  1  0.88649091  0.83323200  0.00036438  1
  Ru4+  Ru153  1  0.88807479  0.83518698  0.24968264  1
  Ru4+  Ru154  1  0.88737315  0.83589484  0.50033535  1
  Ru4+  Ru155  1  0.88739184  0.83336729  0.74996499  1
  Ru4+  Ru156  1  0.25021078  0.06154439  0.24888438  1
  Ru4+  Ru157  1  0.25007589  0.28760963  -0.01183355  1
  Ru4+  Ru158  1  0.24992204  0.58115841  0.50184096  1
  Ru4+  Ru159  1  0.24979951  0.41867521  0.75081167  1
  Ru4+  Ru160  1  0.74983749  0.59092699  0.24899150  1
  Ru4+  Ru161  1  0.75004226  0.08779525  0.74934258  1
  Ru4+  Ru162  1  0.25011404  0.39376652  0.25674009  1
  Ru4+  Ru163  1  0.75022279  0.58476542  0.75197899  1
  Ru4+  Ru164  1  0.75000839  0.74280033  0.24777091  1
  Ru4+  Ru165  1  0.75007756  0.24697663  0.74849529  1
  Ru4+  Ru166  1  0.25019880  0.62699856  0.25521948  1
  Ru4+  Ru167  1  0.24997898  0.08003631  0.49856660  1
  Ru4+  Ru168  1  0.24995174  0.27404079  0.74890139  1
  Ru4+  Ru169  1  0.25007203  0.03858831  -0.00423989  1
  Ru4+  Ru170  1  0.25021084  0.58137853  0.75144467  1
  Ru4+  Ru171  1  0.24997366  0.25514372  0.50154046  1
  Ru4+  Ru172  1  0.75001309  0.42098343  0.00020139  1
  Ru4+  Ru173  1  0.25012053  0.95426711  0.49705855  1
  Ru4+  Ru174  1  0.75009779  0.39460406  0.49892143  1
  Ru4+  Ru175  1  0.75023303  0.73262050  0.51010524  1
  Ru4+  Ru176  1  0.75004288  0.27397919  0.00138823  1
  Ru4+  Ru177  1  0.25000360  0.71213096  0.51180724  1
  Ru4+  Ru178  1  0.75003783  0.57762732  -0.00033568  1
  Ru4+  Ru179  1  0.75002864  0.41578398  0.75345300  1
  O2-  O180  1  0.16607743  0.08062380  -0.00025973  1
  O2-  O181  1  0.16744909  0.07981425  0.25021474  1
  O2-  O182  1  0.16755300  0.08058054  0.49989616  1
  O2-  O183  1  0.16580538  0.08009188  0.74896663  1
  O2-  O184  1  0.16765348  0.41400866  -0.00052684  1
  O2-  O185  1  0.16577553  0.41269858  0.25009151  1
  O2-  O186  1  0.16703821  0.41471387  0.49972019  1
  O2-  O187  1  0.16868455  0.41365073  0.75051255  1
  O2-  O188  1  0.16679435  0.74786790  0.00030189  1
  O2-  O189  1  0.16730392  0.74671434  0.24971595  1
  O2-  O190  1  0.16695243  0.74640493  0.50023063  1
  O2-  O191  1  0.16688744  0.74774097  0.74986173  1
  O2-  O192  1  0.66788215  0.08025099  0.00058400  1
  O2-  O193  1  0.66842316  0.08119686  0.24940316  1
  O2-  O194  1  0.66688688  0.08138713  0.49992367  1
  O2-  O195  1  0.66740924  0.08112928  0.74986963  1
  O2-  O196  1  0.66865314  0.41400549  -0.00000955  1
  O2-  O197  1  0.66580488  0.41136271  0.25037301  1
  O2-  O198  1  0.66677670  0.41368143  0.49944709  1
  O2-  O199  1  0.66824853  0.41408850  0.74965778  1
  O2-  O200  1  0.66698677  0.74766202  -0.00072213  1
  O2-  O201  1  0.66736733  0.74583154  0.24990388  1
  O2-  O202  1  0.66725521  0.74662220  0.50009272  1
  O2-  O203  1  0.66789452  0.74708228  0.75071948  1
  O2-  O204  1  0.33378622  0.25370614  0.00042632  1
  O2-  O205  1  0.33330557  0.25384567  0.24968549  1
  O2-  O206  1  0.33193566  0.25219944  0.50022417  1
  O2-  O207  1  0.33245330  0.25359031  0.74981966  1
  O2-  O208  1  0.33254673  0.58492835  0.00051617  1
  O2-  O209  1  0.33330630  0.58742237  0.25024872  1
  O2-  O210  1  0.33293310  0.58610229  0.49980465  1
  O2-  O211  1  0.33144429  0.58576877  0.75017019  1
  O2-  O212  1  0.33249089  0.91825343  0.00034895  1
  O2-  O213  1  0.33338815  0.91849370  0.24961030  1
  O2-  O214  1  0.33315105  0.92044889  0.49997182  1
  O2-  O215  1  0.33249669  0.91829606  0.74854306  1
  O2-  O216  1  0.83261921  0.25349605  0.00046847  1
  O2-  O217  1  0.83073561  0.25298087  0.25016539  1
  O2-  O218  1  0.83280246  0.25255062  0.49958246  1
  O2-  O219  1  0.83241509  0.25282299  0.74942741  1
  O2-  O220  1  0.83249219  0.58507170  -0.00026755  1
  O2-  O221  1  0.83318451  0.58736985  0.24973836  1
  O2-  O222  1  0.83210599  0.58682779  0.49989976  1
  O2-  O223  1  0.83189351  0.58521509  0.75081222  1
  O2-  O224  1  0.83322694  0.91912530  0.00054125  1
  O2-  O225  1  0.83378658  0.92049444  0.24921776  1
  O2-  O226  1  0.83461322  0.92014298  0.50027364  1
  O2-  O227  1  0.83207971  0.91903644  0.74985244  1
  O2-  O228  1  0.16709641  0.25408538  -0.00042301  1
  O2-  O229  1  0.16707114  0.25287406  0.25049420  1
  O2-  O230  1  0.16800370  0.25214207  0.49985809  1
  O2-  O231  1  0.16817513  0.25316107  0.75053928  1
  O2-  O232  1  0.16698489  0.58503538  0.00047686  1
  O2-  O233  1  0.16702165  0.58737125  0.24962679  1
  O2-  O234  1  0.16788818  0.58594937  0.49983346  1
  O2-  O235  1  0.16702900  0.58538511  0.75001094  1
  O2-  O236  1  0.16752161  0.91826856  0.00001884  1
  O2-  O237  1  0.16658188  0.91914450  0.24947241  1
  O2-  O238  1  0.16598313  0.92087525  0.50026478  1
  O2-  O239  1  0.16699621  0.91861835  0.74899774  1
  O2-  O240  1  0.66689723  0.25338721  -0.00013038  1
  O2-  O241  1  0.66988676  0.25345046  0.25062619  1
  O2-  O242  1  0.66747311  0.25308633  0.49930325  1
  O2-  O243  1  0.66750023  0.25288115  0.74931444  1
  O2-  O244  1  0.66757097  0.58499538  -0.00006152  1
  O2-  O245  1  0.66691613  0.58776878  0.25017065  1
  O2-  O246  1  0.66711896  0.58759188  0.50040741  1
  O2-  O247  1  0.66721744  0.58568947  0.75038581  1
  O2-  O248  1  0.66729200  0.91832930  0.00058836  1
  O2-  O249  1  0.66593975  0.92058842  0.24902491  1
  O2-  O250  1  0.66568276  0.92006297  0.50022617  1
  O2-  O251  1  0.66790772  0.91926389  0.74986967  1
  O2-  O252  1  0.33272469  0.08001609  0.00031886  1
  O2-  O253  1  0.33266154  0.07988805  0.24932137  1
  O2-  O254  1  0.33242882  0.08056287  0.50033551  1
  O2-  O255  1  0.33316906  0.08027796  0.74868940  1
  O2-  O256  1  0.33188656  0.41445844  0.00057680  1
  O2-  O257  1  0.33395706  0.41225114  0.24958385  1
  O2-  O258  1  0.33256010  0.41514129  0.50033092  1
  O2-  O259  1  0.33272452  0.41488875  0.75037683  1
  O2-  O260  1  0.33315470  0.74810322  0.00027623  1
  O2-  O261  1  0.33291115  0.74748597  0.25038340  1
  O2-  O262  1  0.33371864  0.74601385  0.49953548  1
  O2-  O263  1  0.33279692  0.74758814  0.74956643  1
  O2-  O264  1  0.83311136  0.08048412  0.00088221  1
  O2-  O265  1  0.83064880  0.08133637  0.24961340  1
  O2-  O266  1  0.83311649  0.08090492  0.49981535  1
  O2-  O267  1  0.83213604  0.08042703  0.74966645  1
  O2-  O268  1  0.83096666  0.41383511  0.00040743  1
  O2-  O269  1  0.83333886  0.41231792  0.24971756  1
  O2-  O270  1  0.83235960  0.41358032  0.49954647  1
  O2-  O271  1  0.83192264  0.41443892  0.74980848  1
  O2-  O272  1  0.83304726  0.74730383  -0.00054890  1
  O2-  O273  1  0.83283825  0.74556740  0.24998515  1
  O2-  O274  1  0.83208522  0.74619759  0.49984008  1
  O2-  O275  1  0.83197686  0.74758478  0.75105967  1
  O2-  O276  1  0.45193224  0.76442461  0.51147631  1
  O2-  O277  1  0.95311589  0.76548365  0.23486526  1
  O2-  O278  1  0.04144259  0.10828826  0.27604791  1
  O2-  O279  1  0.03554915  0.22529543  0.74694527  1
  O2-  O280  1  0.04695950  0.09471631  0.73992920  1
  O2-  O281  1  0.54669307  0.90358504  0.51072184  1
  O2-  O282  1  0.04687035  0.76528006  0.26325948  1
  O2-  O283  1  0.04480955  0.09817784  0.75846529  1
  O2-  O284  1  0.04630747  0.09767770  0.48424547  1
  O2-  O285  1  0.45413865  0.09752504  0.51181793  1
  O2-  O286  1  0.54902866  0.76434359  0.01640948  1
  O2-  O287  1  0.54649711  0.76195833  0.76526208  1
  O2-  O288  1  0.94466898  0.41663909  0.47571845  1
  O2-  O289  1  0.94490152  0.08438818  0.71797956  1
  O2-  O290  1  0.45352089  0.76794245  0.01480912  1
  O2-  O291  1  0.95447145  0.56746226  0.23569390  1
  O2-  O292  1  0.04268075  0.22726071  0.97442356  1
  O2-  O293  1  0.45122367  0.56678701  0.51453743  1
  O2-  O294  1  0.96487221  0.55350838  0.50279384  1
  O2-  O295  1  0.46035920  0.11085877  0.75988125  1
  O2-  O296  1  0.45256771  0.76576947  0.76422071  1
  O2-  O297  1  0.04498996  0.90089770  0.51597866  1
  O2-  O298  1  0.04541047  0.43250568  0.26328237  1
  O2-  O299  1  0.45304042  0.57043637  0.01468586  1
  O2-  O300  1  0.04731503  0.90205066  0.72933067  1
  O2-  O301  1  0.54597905  0.23720227  0.73727669  1
  O2-  O302  1  0.54028094  0.22658978  0.27685319  1
  O2-  O303  1  0.46485540  0.55273292  0.74276239  1
  O2-  O304  1  0.44379411  0.91916220  0.53911085  1
  O2-  O305  1  0.45295846  0.90386822  0.23472208  1
  O2-  O306  1  0.04647921  0.43246299  0.51435034  1
  O2-  O307  1  0.95220966  0.23388182  0.01544092  1
  O2-  O308  1  0.95162500  0.90352689  0.76412455  1
  O2-  O309  1  0.54580738  0.56590178  0.49995671  1
  O2-  O310  1  0.04490541  0.76546462  0.98580427  1
  O2-  O311  1  0.95462149  0.76414221  0.76358711  1
  O2-  O312  1  0.54591842  0.90379548  0.76544656  1
  O2-  O313  1  0.54737633  0.43091596  0.98347894  1
  O2-  O314  1  0.04513935  0.43250018  0.01466421  1
  O2-  O315  1  0.54785596  0.76253554  0.51057579  1
  O2-  O316  1  0.95518145  0.23562148  0.23604080  1
  O2-  O317  1  0.45256339  0.76385150  0.23544039  1
  O2-  O318  1  0.04713979  0.90217246  0.76856672  1
  O2-  O319  1  0.94698520  0.08310769  0.22696501  1
  O2-  O320  1  0.54640894  0.56868024  0.49884877  1
  O2-  O321  1  0.54803700  0.09613572  0.76577723  1
  O2-  O322  1  0.54525650  0.23555508  0.48538960  1
  O2-  O323  1  0.46093377  0.10945889  0.74129421  1
  O2-  O324  1  0.43479101  0.40397431  0.97149467  1
  O2-  O325  1  0.93392795  0.74222481  0.54896778  1
  O2-  O326  1  0.94490855  0.08422636  0.71830887  1
  O2-  O327  1  0.43807002  0.92845248  0.21751739  1
  O2-  O328  1  0.06667272  0.59379819  0.29686212  1
  O2-  O329  1  0.06807992  0.27082795  0.04285365  1
  O2-  O330  1  0.56155018  0.73620919  0.03168098  1
  O2-  O331  1  0.42827031  0.05602150  0.68752056  1
  O2-  O332  1  0.57165302  0.27122648  0.20566892  1
  O2-  O333  1  0.42835291  0.05731037  0.81081796  1
  O2-  O334  1  0.06462153  0.92959078  0.97158263  1
  O2-  O335  1  0.56388633  0.40137000  0.78085263  1
  O2-  O336  1  0.56333980  0.93067844  0.96731715  1
  O2-  O337  1  0.43661538  0.59406538  0.03004704  1
  O2-  O338  1  0.06439195  0.26525326  0.21753826  1
  O2-  O339  1  0.07326081  0.27706127  0.70951229  1
  O2-  O340  1  0.42703770  0.93382910  0.43928244  1
  O2-  O341  1  0.56258299  0.40416610  0.97085116  1
  O2-  O342  1  0.43677127  0.07116805  0.96832676  1
  O2-  O343  1  0.42520370  0.60945275  0.71478735  1
  O2-  O344  1  0.43647365  0.92933814  0.78264527  1
  O2-  O345  1  0.93495504  0.40406897  0.77946744  1
  O2-  O346  1  0.06969277  0.05972979  0.20334373  1
  O2-  O347  1  0.43679155  0.92987293  0.96786929  1
  O2-  O348  1  0.56318889  0.07001913  0.03337940  1
  O2-  O349  1  0.06304136  0.07461529  0.46922531  1
  O2-  O350  1  0.43652564  0.40274189  0.46809734  1
  O2-  O351  1  0.43570723  0.26248074  0.46653612  1
  O2-  O352  1  0.93403631  0.59477734  0.72085971  1
  O2-  O353  1  0.92417993  0.60926146  0.53707173  1
  O2-  O354  1  0.93399060  0.06473795  0.79734789  1
  O2-  O355  1  0.94419675  0.08093809  0.22601368  1
  O2-  O356  1  0.06449266  0.40566445  0.70098733  1
  O2-  O357  1  0.06649381  0.59384831  0.20279463  1
  O2-  O358  1  0.93556790  0.40293365  0.04959000  1
  O2-  O359  1  0.43536304  0.26626922  0.69693880  1
  O2-  O360  1  0.93443827  0.40540979  0.95528750  1
  O2-  O361  1  0.44884503  0.91010299  0.54108713  1
  O2-  O362  1  0.06602251  0.40559762  0.79444386  1
  O2-  O363  1  0.06559968  0.59522678  0.53055617  1
  O2-  O364  1  0.56425448  0.73579126  0.28319645  1
  O2-  O365  1  0.06518706  0.73881908  0.46996666  1
  O2-  O366  1  0.43611464  0.74003124  0.22090883  1
  O2-  O367  1  0.94429390  0.41883366  0.47642604  1
  O2-  O368  1  0.43396401  0.26115332  0.79866985  1
  O2-  O369  1  0.06440640  0.26397351  0.53255112  1
  O2-  O370  1  0.93317578  0.73870068  0.45144995  1
  O2-  O371  1  0.93483064  0.40407813  0.27937406  1
  O2-  O372  1  0.24990771  -0.00095672  0.34642876  1
  O2-  O373  1  0.24992832  0.66353376  0.40163141  1
  O2-  O374  1  0.24999889  0.32047845  0.16810754  1
  O2-  O375  1  0.74996178  0.33353441  0.84292083  1
  O2-  O376  1  0.75003362  -0.00197025  0.82947690  1
  O2-  O377  1  0.75007212  0.66611582  0.16018743  1
  O2-  O378  1  0.74987530  0.33152469  0.59624983  1
  O2-  O379  1  0.24997741  -0.00246050  0.09956974  1
  O2-  O380  1  0.74980011  0.66610725  0.65741586  1
  O2-  O381  1  0.24988230  0.31941856  0.33716394  1
  O2-  O382  1  0.74998892  -0.00016213  0.41987503  1
  O2-  O383  1  0.75004796  0.65919538  0.42429636  1
  O2-  O384  1  0.74989932  0.00086742  0.32919371  1
  O2-  O385  1  0.74998375  -0.00119862  0.67035255  1
  O2-  O386  1  0.25000347  0.00253276  0.84609016  1
  O2-  O387  1  0.75004695  0.00123461  0.92026858  1
  O2-  O388  1  0.24991174  0.34579450  0.08315707  1
  O2-  O389  1  0.75005137  -0.00014933  0.58019092  1
  O2-  O390  1  0.75015116  0.66795200  0.33619033  1
  O2-  O391  1  0.24986579  0.66595970  0.91876252  1
  O2-  O392  1  0.25000678  0.66741506  0.83017644  1
  O2-  O393  1  0.24993424  0.00384507  0.60055290  1
  O2-  O394  1  0.24986386  0.33642591  0.42457356  1
  O2-  O395  1  0.75018432  0.66765848  0.07018651  1
  O2-  O396  1  0.74996554  0.83452543  0.67194843  1
  O2-  O397  1  0.25002563  0.83140857  0.60840660  1
  O2-  O398  1  0.75006766  0.50636228  0.12801733  1
  O2-  O399  1  0.25007938  0.16728347  0.42835001  1
  O2-  O400  1  0.24982170  0.49943702  0.34573522  1
  O2-  O401  1  0.24999092  0.83323584  0.08506577  1
  O2-  O402  1  0.25000124  0.49641455  0.43083680  1
  O2-  O403  1  0.74999394  0.82266452  0.37808751  1
  O2-  O404  1  0.75006621  0.50462989  0.36199076  1
  O2-  O405  1  0.24990950  0.16556873  0.10718573  1
  O2-  O406  1  0.24997023  0.50010443  0.66943901  1
  O2-  O407  1  0.24997356  0.16363000  0.34591888  1
  O2-  O408  1  0.74999569  0.82343358  0.59355176  1
  O2-  O409  1  0.74995368  0.50013356  0.68040006  1
  O2-  O410  1  0.24998345  0.17342469  0.64594895  1
  O2-  O411  1  0.75004189  0.83337600  0.07130153  1
  O2-  O412  1  0.25000590  0.17390378  0.86562858  1
  O2-  O413  1  0.74994812  0.16655816  0.84173425  1
  O2-  O414  1  0.24992492  0.83321624  0.16502632  1
  O2-  O415  1  0.75011887  0.49678146  0.59544839  1
  O2-  O416  1  0.24989007  0.83298749  0.34329080  1
  O2-  O417  1  0.25003111  0.16667892  0.56677488  1
  O2-  O418  1  0.24993627  0.49766901  0.58015342  1
  O2-  O419  1  0.75004847  0.82997942  0.15318286  1
  O2-  O420  1  0.52876866  0.00089430  0.62481897  1
  O2-  O421  1  0.97184434  0.33258108  0.62607707  1
  O2-  O422  1  0.96698426  0.66683525  0.12402517  1
  O2-  O423  1  0.96972336  0.32811802  0.37534106  1
  O2-  O424  1  0.96881617  0.66276314  0.37037880  1
  O2-  O425  1  0.47151536  0.66983354  0.62284850  1
  O2-  O426  1  0.97329473  0.66864203  0.63011618  1
  O2-  O427  1  0.97227461  0.32806453  0.87305445  1
  O2-  O428  1  0.52607070  0.33620671  0.11949580  1
  O2-  O429  1  0.02603298  0.00145880  0.87674846  1
  O2-  O430  1  0.47556509  0.66473065  0.12692682  1
  O2-  O431  1  0.03316924  0.33237861  0.37632463  1
  O2-  O432  1  0.02918686  0.33052266  0.87744465  1
  O2-  O433  1  0.47254036  0.66762392  0.37420117  1
  O2-  O434  1  0.46778433  0.00568084  0.36912392  1
  O2-  O435  1  0.53603468  0.00025518  0.37404152  1
  O2-  O436  1  0.03078516  0.67040768  0.12030304  1
  O2-  O437  1  0.47270933  0.66670016  0.87486294  1
  O2-  O438  1  0.47527172  0.33289617  0.87665343  1
  O2-  O439  1  0.53139449  0.66631022  0.62627319  1
  O2-  O440  1  0.02702538  -0.00365926  0.37197111  1
  O2-  O441  1  0.03110149  0.66901069  0.62790887  1
  O2-  O442  1  0.97260566  0.66633501  0.87624045  1
  O2-  O443  1  0.02915782  0.66781201  0.37763632  1
