# generated using pymatgen
data_La7(Ru4O11)2
_symmetry_space_group_name_H-M   'P 1'
_cell_length_a   23.99198985
_cell_length_b   16.83205319
_cell_length_c   15.42905903
_cell_angle_alpha   90.00186705
_cell_angle_beta   90.00206435
_cell_angle_gamma   90.00399373
_symmetry_Int_Tables_number   1
_chemical_formula_structural   La7(Ru4O11)2
_chemical_formula_sum   'La84 Ru96 O264'
_cell_volume   6230.78553262
_cell_formula_units_Z   12
loop_
 _symmetry_equiv_pos_site_id
 _symmetry_equiv_pos_as_xyz
  1  'x, y, z'
loop_
 _atom_type_symbol
 _atom_type_oxidation_number
  La3+  3.0
  Ru4+  4.0
  O2-  -2.0
loop_
 _atom_site_type_symbol
 _atom_site_label
 _atom_site_symmetry_multiplicity
 _atom_site_fract_x
 _atom_site_fract_y
 _atom_site_fract_z
 _atom_site_occupancy
  La3+  La0  1  0.13940187  -0.00143073  0.12177640  1
  La3+  La1  1  0.14077302  0.00250754  0.37731559  1
  La3+  La2  1  0.13887863  0.00290050  0.62840607  1
  La3+  La3  1  0.14135715  0.00066288  0.87505769  1
  La3+  La4  1  0.13736537  0.33090876  0.12445055  1
  La3+  La5  1  0.13796784  0.33191079  0.37987862  1
  La3+  La6  1  0.14033691  0.32891020  0.62778912  1
  La3+  La7  1  0.13489983  0.33004839  0.87355697  1
  La3+  La8  1  0.14224049  0.67401860  0.11960298  1
  La3+  La9  1  0.13453439  0.66459654  0.37635798  1
  La3+  La10  1  0.13789471  0.66793713  0.62702318  1
  La3+  La11  1  0.13859618  0.67039395  0.87315469  1
  La3+  La12  1  0.63605295  -0.00365328  0.12077452  1
  La3+  La13  1  0.63576721  -0.00117680  0.37899060  1
  La3+  La14  1  0.64953569  -0.00430741  0.62551635  1
  La3+  La15  1  0.64901865  0.00037590  0.86747232  1
  La3+  La16  1  0.63841889  0.32690678  0.13456727  1
  La3+  La17  1  0.63920834  0.32523786  0.36813806  1
  La3+  La18  1  0.64173643  0.33062365  0.62207564  1
  La3+  La19  1  0.64112939  0.33109584  0.87234175  1
  La3+  La20  1  0.64303310  0.67710827  0.12200314  1
  La3+  La21  1  0.64478647  0.66742091  0.37393370  1
  La3+  La22  1  0.64406558  0.66753754  0.62361357  1
  La3+  La23  1  0.64276078  0.66854758  0.87327742  1
  La3+  La24  1  0.36068760  -0.00244265  0.12296432  1
  La3+  La25  1  0.35981751  0.00410415  0.37786908  1
  La3+  La26  1  0.35808070  0.00358833  0.62530414  1
  La3+  La27  1  0.35698984  0.00073053  0.87383914  1
  La3+  La28  1  0.36215342  0.32978312  0.12462833  1
  La3+  La29  1  0.35976659  0.32801272  0.37975671  1
  La3+  La30  1  0.36257232  0.32911176  0.62455231  1
  La3+  La31  1  0.36271614  0.32893282  0.87444472  1
  La3+  La32  1  0.36006291  0.67468577  0.12200985  1
  La3+  La33  1  0.36195314  0.67082577  0.37299009  1
  La3+  La34  1  0.36435297  0.66853340  0.62553049  1
  La3+  La35  1  0.36166427  0.67346767  0.87387883  1
  La3+  La36  1  0.85681853  0.00216112  0.12688783  1
  La3+  La37  1  0.86101359  -0.00153637  0.37956702  1
  La3+  La38  1  0.86025336  0.00097312  0.62672286  1
  La3+  La39  1  0.85697470  -0.00013200  0.86778104  1
  La3+  La40  1  0.85692554  0.33022978  0.12841550  1
  La3+  La41  1  0.85281749  0.33295574  0.37604387  1
  La3+  La42  1  0.86237467  0.33391369  0.62686787  1
  La3+  La43  1  0.86253350  0.33339203  0.87058925  1
  La3+  La44  1  0.86632500  0.66698595  0.12827772  1
  La3+  La45  1  0.85052135  0.67073479  0.38242385  1
  La3+  La46  1  0.87187215  0.67865835  0.63823999  1
  La3+  La47  1  0.86247224  0.67788471  0.86957291  1
  La3+  La48  1  0.00221476  0.49506791  0.12172518  1
  La3+  La49  1  0.00057854  0.82423493  0.86871584  1
  La3+  La50  1  -0.00021066  0.16493905  0.12627223  1
  La3+  La51  1  0.49697456  0.16785650  0.36872463  1
  La3+  La52  1  -0.00211276  0.49633405  0.88437810  1
  La3+  La53  1  -0.00091799  0.83744594  0.13172387  1
  La3+  La54  1  0.50248974  0.17006376  0.11766094  1
  La3+  La55  1  0.49985132  0.83567584  0.61953639  1
  La3+  La56  1  -0.00181555  0.82997950  0.62452643  1
  La3+  La57  1  0.50184269  0.50710475  0.12281560  1
  La3+  La58  1  0.50193805  0.17349992  0.38175308  1
  La3+  La59  1  0.49571285  0.83786387  0.88556422  1
  La3+  La60  1  0.49727394  0.49673131  0.87978212  1
  La3+  La61  1  0.50388308  0.17042288  0.86923114  1
  La3+  La62  1  0.49304550  0.50033738  0.13923565  1
  La3+  La63  1  0.49824277  0.49533206  0.38297131  1
  La3+  La64  1  0.00183303  0.50062963  0.86301013  1
  La3+  La65  1  0.49916720  0.16088728  0.13683852  1
  La3+  La66  1  0.50187296  0.50376244  0.86013704  1
  La3+  La67  1  -0.00224819  0.83207878  0.37287339  1
  La3+  La68  1  -0.00153279  0.16619942  0.36769039  1
  La3+  La69  1  0.00137463  0.82833150  0.85292764  1
  La3+  La70  1  0.00052898  0.16776808  0.38969443  1
  La3+  La71  1  0.50738552  0.49288888  0.62056068  1
  La3+  La72  1  0.25079075  0.49994681  0.48303763  1
  La3+  La73  1  0.75007011  0.78214990  0.01431138  1
  La3+  La74  1  0.25025233  0.52334441  -0.00440081  1
  La3+  La75  1  0.24961043  0.79648932  0.51307739  1
  La3+  La76  1  0.24988937  0.79872335  0.27945354  1
  La3+  La77  1  0.24993789  0.45384883  0.80496473  1
  La3+  La78  1  0.74982342  0.44364682  0.25808585  1
  La3+  La79  1  0.75060001  0.17108221  0.49594569  1
  La3+  La80  1  0.75041127  0.16802704  0.76687778  1
  La3+  La81  1  0.25061207  0.53119916  0.25100414  1
  La3+  La82  1  0.74991092  0.82796348  0.50199254  1
  La3+  La83  1  0.75089318  0.53582145  -0.01437771  1
  Ru4+  Ru84  1  0.00168015  -0.00298907  0.00108690  1
  Ru4+  Ru85  1  0.00114322  0.00452863  0.25411039  1
  Ru4+  Ru86  1  -0.00177246  0.00204588  0.49290110  1
  Ru4+  Ru87  1  -0.00019223  0.00210325  0.75146421  1
  Ru4+  Ru88  1  -0.00105527  0.32443123  -0.00202652  1
  Ru4+  Ru89  1  0.00368533  0.33125019  0.26019169  1
  Ru4+  Ru90  1  0.00356432  0.35119327  0.50178178  1
  Ru4+  Ru91  1  -0.00211374  0.32235493  0.73790139  1
  Ru4+  Ru92  1  -0.00077326  0.67108503  0.00380367  1
  Ru4+  Ru93  1  -0.00638311  0.65722454  0.25456121  1
  Ru4+  Ru94  1  0.00301553  0.66377346  0.49812306  1
  Ru4+  Ru95  1  -0.00330353  0.66626093  0.74157121  1
  Ru4+  Ru96  1  0.49957606  0.00221876  -0.00079880  1
  Ru4+  Ru97  1  0.50106118  -0.01078462  0.24705243  1
  Ru4+  Ru98  1  0.50176767  0.00831507  0.50353734  1
  Ru4+  Ru99  1  0.50429995  0.00025371  0.74231016  1
  Ru4+  Ru100  1  0.49894889  0.33185486  -0.00380206  1
  Ru4+  Ru101  1  0.50033555  0.32899622  0.25252289  1
  Ru4+  Ru102  1  0.50343431  0.32879447  0.50535460  1
  Ru4+  Ru103  1  0.49990850  0.32773871  0.74633795  1
  Ru4+  Ru104  1  0.50183192  0.67435967  0.00009659  1
  Ru4+  Ru105  1  0.49870707  0.66585915  0.25438664  1
  Ru4+  Ru106  1  0.49128976  0.66089580  0.48974815  1
  Ru4+  Ru107  1  0.50311906  0.67296527  0.75199584  1
  Ru4+  Ru108  1  0.11096935  0.16545239  0.00044672  1
  Ru4+  Ru109  1  0.11116890  0.16698587  0.24858942  1
  Ru4+  Ru110  1  0.11448888  0.16539509  0.49910122  1
  Ru4+  Ru111  1  0.11305751  0.15941131  0.74778361  1
  Ru4+  Ru112  1  0.11266653  0.49847010  0.00171461  1
  Ru4+  Ru113  1  0.10846729  0.49808495  0.25177064  1
  Ru4+  Ru114  1  0.10418154  0.49704656  0.50103118  1
  Ru4+  Ru115  1  0.11166620  0.49742598  0.74568954  1
  Ru4+  Ru116  1  0.11435647  0.83833233  0.00167668  1
  Ru4+  Ru117  1  0.10979030  0.82958534  0.25045387  1
  Ru4+  Ru118  1  0.11019953  0.83368531  0.49954945  1
  Ru4+  Ru119  1  0.11390224  0.82818223  0.74735286  1
  Ru4+  Ru120  1  0.61399319  0.17000296  0.00044375  1
  Ru4+  Ru121  1  0.61397892  0.16970830  0.25061865  1
  Ru4+  Ru122  1  0.61295910  0.16606135  0.50217139  1
  Ru4+  Ru123  1  0.60552091  0.15408013  0.74648076  1
  Ru4+  Ru124  1  0.61510133  0.49954467  -0.00052098  1
  Ru4+  Ru125  1  0.61384047  0.50500186  0.24910024  1
  Ru4+  Ru126  1  0.61558253  0.49936554  0.50026169  1
  Ru4+  Ru127  1  0.61266662  0.49857086  0.75020239  1
  Ru4+  Ru128  1  0.60884299  0.83557150  -0.00132088  1
  Ru4+  Ru129  1  0.61056943  0.83204311  0.25189647  1
  Ru4+  Ru130  1  0.61216833  0.83373643  0.50146203  1
  Ru4+  Ru131  1  0.61382069  0.82761250  0.74647039  1
  Ru4+  Ru132  1  0.38784638  0.16583244  -0.00288422  1
  Ru4+  Ru133  1  0.39043648  0.16688327  0.25066112  1
  Ru4+  Ru134  1  0.38519693  0.16632688  0.50071261  1
  Ru4+  Ru135  1  0.38552204  0.16719632  0.74732733  1
  Ru4+  Ru136  1  0.38886218  0.49447458  -0.00266294  1
  Ru4+  Ru137  1  0.38739225  0.50058389  0.25053663  1
  Ru4+  Ru138  1  0.39215335  0.50556707  0.50076860  1
  Ru4+  Ru139  1  0.38997035  0.50357798  0.75047268  1
  Ru4+  Ru140  1  0.38439959  0.83354907  0.00013600  1
  Ru4+  Ru141  1  0.39190542  0.83457659  0.24909851  1
  Ru4+  Ru142  1  0.39097148  0.83256851  0.49964925  1
  Ru4+  Ru143  1  0.38646923  0.83010645  0.75072902  1
  Ru4+  Ru144  1  0.88950138  0.16661705  -0.00011088  1
  Ru4+  Ru145  1  0.88961368  0.16939007  0.25007734  1
  Ru4+  Ru146  1  0.88990217  0.16502628  0.50048837  1
  Ru4+  Ru147  1  0.89491647  0.16673849  0.74890940  1
  Ru4+  Ru148  1  0.88635111  0.50124509  0.00191436  1
  Ru4+  Ru149  1  0.88546709  0.50652523  0.25551512  1
  Ru4+  Ru150  1  0.88583953  0.49623416  0.49907513  1
  Ru4+  Ru151  1  0.88555613  0.50907825  0.74672315  1
  Ru4+  Ru152  1  0.89040389  0.83551693  -0.00031778  1
  Ru4+  Ru153  1  0.88526651  0.83031562  0.24985350  1
  Ru4+  Ru154  1  0.88884686  0.83293123  0.50325196  1
  Ru4+  Ru155  1  0.88627540  0.83113379  0.74877455  1
  Ru4+  Ru156  1  0.25039865  0.65878826  0.00064357  1
  Ru4+  Ru157  1  0.74978963  0.89732693  0.25297600  1
  Ru4+  Ru158  1  0.74999694  0.59643461  0.24790552  1
  Ru4+  Ru159  1  0.25039013  0.38794039  -0.01631547  1
  Ru4+  Ru160  1  0.74978340  0.38351398  0.00542079  1
  Ru4+  Ru161  1  0.25022584  0.08636204  -0.00653114  1
  Ru4+  Ru162  1  0.75028487  0.93603776  -0.02585185  1
  Ru4+  Ru163  1  0.24962753  0.62868379  0.53746476  1
  Ru4+  Ru164  1  0.25021815  0.36624773  0.54266675  1
  Ru4+  Ru165  1  0.24990008  0.22936718  -0.01336441  1
  Ru4+  Ru166  1  0.74961002  0.41975215  0.74813497  1
  Ru4+  Ru167  1  0.25013790  0.61172460  0.75765114  1
  Ru4+  Ru168  1  0.25015426  0.93186706  0.50264910  1
  Ru4+  Ru169  1  0.24968362  0.23963712  0.75429313  1
  Ru4+  Ru170  1  0.75039757  0.08637613  -0.00647394  1
  Ru4+  Ru171  1  0.24993275  0.92726117  0.22966956  1
  Ru4+  Ru172  1  0.25030067  0.65283977  0.19483389  1
  Ru4+  Ru173  1  0.25031051  0.90802280  0.74838163  1
  Ru4+  Ru174  1  0.75040444  0.24767057  0.01034075  1
  Ru4+  Ru175  1  0.25032772  0.09135062  0.24410134  1
  Ru4+  Ru176  1  0.24982839  0.22528968  0.25071575  1
  Ru4+  Ru177  1  0.75042622  0.09970415  0.24881675  1
  Ru4+  Ru178  1  0.74987806  0.57289400  0.75586335  1
  Ru4+  Ru179  1  0.25042608  0.39757377  0.24407183  1
  O2-  O180  1  0.16648595  0.08213993  0.00015720  1
  O2-  O181  1  0.16493740  0.08163790  0.24910961  1
  O2-  O182  1  0.16316174  0.08170153  0.49999326  1
  O2-  O183  1  0.16725543  0.08343746  0.75130274  1
  O2-  O184  1  0.16789098  0.41066140  -0.00170705  1
  O2-  O185  1  0.16653061  0.40942785  0.24918149  1
  O2-  O186  1  0.16781924  0.41515395  0.50112174  1
  O2-  O187  1  0.16743203  0.41162477  0.75073043  1
  O2-  O188  1  0.16571889  0.74807182  -0.00209284  1
  O2-  O189  1  0.16248189  0.74629651  0.24948983  1
  O2-  O190  1  0.16300260  0.74609497  0.50060070  1
  O2-  O191  1  0.16774101  0.74731192  0.75090742  1
  O2-  O192  1  0.66721655  0.08334754  0.00126779  1
  O2-  O193  1  0.66532128  0.08025675  0.25220914  1
  O2-  O194  1  0.67042306  0.08265437  0.49476354  1
  O2-  O195  1  0.67090570  0.08515087  0.74582627  1
  O2-  O196  1  0.66842533  0.41236173  0.00004886  1
  O2-  O197  1  0.65783883  0.41044532  0.25071020  1
  O2-  O198  1  0.66305358  0.41397521  0.50069219  1
  O2-  O199  1  0.66641105  0.41547406  0.74903666  1
  O2-  O200  1  0.66052569  0.74724969  -0.00403026  1
  O2-  O201  1  0.66675691  0.74989807  0.24960018  1
  O2-  O202  1  0.66336583  0.74601100  0.50109821  1
  O2-  O203  1  0.66696088  0.74824100  0.75164798  1
  O2-  O204  1  0.33150568  0.25209635  -0.00057715  1
  O2-  O205  1  0.33390704  0.25227249  0.24909639  1
  O2-  O206  1  0.33383447  0.25253551  0.50282714  1
  O2-  O207  1  0.33388786  0.25356762  0.74904733  1
  O2-  O208  1  0.33386747  0.59145969  -0.00121132  1
  O2-  O209  1  0.33370245  0.59079860  0.24668154  1
  O2-  O210  1  0.33166600  0.59045495  0.50475402  1
  O2-  O211  1  0.33323770  0.58746068  0.75268972  1
  O2-  O212  1  0.33682331  0.91827764  0.00101347  1
  O2-  O213  1  0.33445217  0.92072918  0.25186596  1
  O2-  O214  1  0.33569266  0.91993712  0.49924524  1
  O2-  O215  1  0.33505068  0.91945727  0.75056287  1
  O2-  O216  1  0.83239939  0.25278745  0.00068884  1
  O2-  O217  1  0.83869310  0.25091322  0.24874127  1
  O2-  O218  1  0.83534765  0.25279667  0.50083810  1
  O2-  O219  1  0.83683068  0.25255213  0.75108553  1
  O2-  O220  1  0.83555886  0.58814151  0.00588448  1
  O2-  O221  1  0.82920978  0.58474029  0.24383148  1
  O2-  O222  1  0.83852385  0.58443836  0.50682500  1
  O2-  O223  1  0.82948142  0.58558255  0.74566571  1
  O2-  O224  1  0.83253852  0.91917038  -0.00270204  1
  O2-  O225  1  0.83356642  0.91847409  0.25122973  1
  O2-  O226  1  0.83132051  0.92146223  0.50027828  1
  O2-  O227  1  0.83919958  0.91950412  0.74796145  1
  O2-  O228  1  0.16703121  0.25126039  -0.00192266  1
  O2-  O229  1  0.16790872  0.25116732  0.24886261  1
  O2-  O230  1  0.16341550  0.25082242  0.50062216  1
  O2-  O231  1  0.16488895  0.25120772  0.75267407  1
  O2-  O232  1  0.16539751  0.58911616  0.00062542  1
  O2-  O233  1  0.16458950  0.58592956  0.25115051  1
  O2-  O234  1  0.16610857  0.58678766  0.50084434  1
  O2-  O235  1  0.16749006  0.58640217  0.75281972  1
  O2-  O236  1  0.16790488  0.91867485  0.00194623  1
  O2-  O237  1  0.16523937  0.92124289  0.25014766  1
  O2-  O238  1  0.16621947  0.91939955  0.50012996  1
  O2-  O239  1  0.16620832  0.91887936  0.75182020  1
  O2-  O240  1  0.66952741  0.25352276  0.00003837  1
  O2-  O241  1  0.66828566  0.24907911  0.25061784  1
  O2-  O242  1  0.66881500  0.25286880  0.49874827  1
  O2-  O243  1  0.66033372  0.24932763  0.75079386  1
  O2-  O244  1  0.66407302  0.58761583  0.00016228  1
  O2-  O245  1  0.67194925  0.58315660  0.25346134  1
  O2-  O246  1  0.66342174  0.58404469  0.50214710  1
  O2-  O247  1  0.67184528  0.58567525  0.74945358  1
  O2-  O248  1  0.67121244  0.91530777  0.00435719  1
  O2-  O249  1  0.66548981  0.91701628  0.25234077  1
  O2-  O250  1  0.66556655  0.91964801  0.49521291  1
  O2-  O251  1  0.66251031  0.91339252  0.74823791  1
  O2-  O252  1  0.33396969  0.08081565  0.00124909  1
  O2-  O253  1  0.33370417  0.07995474  0.24952165  1
  O2-  O254  1  0.33473151  0.08080502  0.49994336  1
  O2-  O255  1  0.33296759  0.08299775  0.75357772  1
  O2-  O256  1  0.33416662  0.40936806  -0.00053330  1
  O2-  O257  1  0.33478347  0.40905757  0.24841121  1
  O2-  O258  1  0.33771406  0.41429295  0.50050130  1
  O2-  O259  1  0.33397335  0.40946442  0.74851776  1
  O2-  O260  1  0.33139799  0.74643536  -0.00257296  1
  O2-  O261  1  0.33819353  0.74893410  0.24769307  1
  O2-  O262  1  0.33528838  0.74526442  0.50477865  1
  O2-  O263  1  0.33318538  0.74807548  0.75011523  1
  O2-  O264  1  0.83528831  0.08287065  -0.00051194  1
  O2-  O265  1  0.83368184  0.08049588  0.25296401  1
  O2-  O266  1  0.83039269  0.07922465  0.49845291  1
  O2-  O267  1  0.83325935  0.08273510  0.74978260  1
  O2-  O268  1  0.83066517  0.41218459  0.00072691  1
  O2-  O269  1  0.84280711  0.40926387  0.24722188  1
  O2-  O270  1  0.83389961  0.41472504  0.50303148  1
  O2-  O271  1  0.83342100  0.41859328  0.75009634  1
  O2-  O272  1  0.83898547  0.74605803  0.00458338  1
  O2-  O273  1  0.83263955  0.74890525  0.24521356  1
  O2-  O274  1  0.83720041  0.74774660  0.50802974  1
  O2-  O275  1  0.83052081  0.74724030  0.74544777  1
  O2-  O276  1  0.04831900  0.56389604  0.27841133  1
  O2-  O277  1  0.95252616  0.23265312  0.75023014  1
  O2-  O278  1  0.95012876  0.42028969  0.73369108  1
  O2-  O279  1  0.45517643  0.43222496  0.73482982  1
  O2-  O280  1  0.94555401  0.75644370  0.73233438  1
  O2-  O281  1  0.04781144  0.55763047  0.26703906  1
  O2-  O282  1  0.54850172  0.09145508  0.26410451  1
  O2-  O283  1  0.53952370  0.78680413  0.78219491  1
  O2-  O284  1  0.94559667  0.43192992  0.48533021  1
  O2-  O285  1  0.45030535  0.57435277  0.00425970  1
  O2-  O286  1  0.45488581  0.90278410  0.76197996  1
  O2-  O287  1  0.55064159  0.23896086  0.26756687  1
  O2-  O288  1  0.44711488  0.76091922  0.98844531  1
  O2-  O289  1  0.05469598  0.57902887  0.75941425  1
  O2-  O290  1  0.53965825  0.13522810  0.49822135  1
  O2-  O291  1  0.44752437  0.09381979  0.48822265  1
  O2-  O292  1  0.45241798  0.24096516  0.73620766  1
  O2-  O293  1  0.55002153  0.57219209  0.98479494  1
  O2-  O294  1  0.95415893  0.54095366  0.23399791  1
  O2-  O295  1  0.43666810  0.57844859  0.29497629  1
  O2-  O296  1  0.53814178  0.88464832  0.04067847  1
  O2-  O297  1  0.54937868  0.42224848  0.23992940  1
  O2-  O298  1  0.54068734  0.56295378  0.27834856  1
  O2-  O299  1  0.52676134  0.89251653  1.00730153  1
  O2-  O300  1  0.04367855  0.89717180  0.25919915  1
  O2-  O301  1  0.95478863  0.54952150  0.22555352  1
  O2-  O302  1  0.95977340  0.56258591  0.69794368  1
  O2-  O303  1  0.95022105  0.23343623  0.99160050  1
  O2-  O304  1  0.03334885  0.46662204  0.49773086  1
  O2-  O305  1  0.44734690  0.58452927  0.55955057  1
  O2-  O306  1  0.95491562  0.23710268  0.75304088  1
  O2-  O307  1  0.54920296  0.42579362  0.00693832  1
  O2-  O308  1  0.04558973  0.41977281  0.25669232  1
  O2-  O309  1  0.55308340  0.89939966  0.24062643  1
  O2-  O310  1  0.55500004  0.75542663  0.01074180  1
  O2-  O311  1  0.95479287  0.77299354  0.74865831  1
  O2-  O312  1  0.94597657  0.43122929  0.77051451  1
  O2-  O313  1  0.04991639  0.23493732  0.01534244  1
  O2-  O314  1  0.96287144  0.89027315  0.96860640  1
  O2-  O315  1  0.53204684  0.15186982  0.72313347  1
  O2-  O316  1  0.04958334  0.90940291  0.72881301  1
  O2-  O317  1  0.45031999  0.90134932  0.24031604  1
  O2-  O318  1  0.44884048  0.09659400  0.49751652  1
  O2-  O319  1  0.04750050  0.57089223  0.01613998  1
  O2-  O320  1  0.05126850  0.42521703  0.73477189  1
  O2-  O321  1  0.53791853  0.55317130  0.26266593  1
  O2-  O322  1  0.44763270  0.09578289  0.78840368  1
  O2-  O323  1  0.54165498  0.22887752  0.24600600  1
  O2-  O324  1  0.56886766  0.25032028  0.93074667  1
  O2-  O325  1  0.43134044  0.61166042  0.15741051  1
  O2-  O326  1  0.57720161  0.07786777  0.82613337  1
  O2-  O327  1  0.58915676  0.95031543  0.94569963  1
  O2-  O328  1  0.56440792  0.58946316  0.77436486  1
  O2-  O329  1  0.42263117  0.59117969  0.42754391  1
  O2-  O330  1  0.93759412  0.06577804  0.72020827  1
  O2-  O331  1  0.06657425  0.59641772  0.46970333  1
  O2-  O332  1  0.59322420  0.61135825  0.19215966  1
  O2-  O333  1  0.07565395  0.36588385  0.54737041  1
  O2-  O334  1  0.07434584  0.63844047  0.18158721  1
  O2-  O335  1  0.06128996  0.92843233  0.53217024  1
  O2-  O336  1  0.93850696  0.07164244  0.52989401  1
  O2-  O337  1  0.93824439  0.91825109  0.47524030  1
  O2-  O338  1  0.45420314  0.57484945  0.55309916  1
  O2-  O339  1  0.56792713  0.26456993  0.52409977  1
  O2-  O340  1  0.07099172  0.74836575  0.81515205  1
  O2-  O341  1  0.06349274  0.07429356  0.71613674  1
  O2-  O342  1  0.05363462  0.91521452  0.72317540  1
  O2-  O343  1  0.42964936  0.06495784  0.70690591  1
  O2-  O344  1  0.56150355  0.74585126  0.20646801  1
  O2-  O345  1  0.93434421  0.74021178  0.78952318  1
  O2-  O346  1  0.06500266  0.91577585  0.06848499  1
  O2-  O347  1  0.57176121  0.25367591  0.06642875  1
  O2-  O348  1  0.44423788  0.56759246  0.29050983  1
  O2-  O349  1  0.92742311  0.60159240  0.81271721  1
  O2-  O350  1  0.43710192  0.26212845  0.96618014  1
  O2-  O351  1  0.06947189  0.91767924  0.93034406  1
  O2-  O352  1  0.06149214  0.73575951  0.67317795  1
  O2-  O353  1  0.56508375  0.73834136  0.30023476  1
  O2-  O354  1  0.06324614  0.40514739  0.97760158  1
  O2-  O355  1  0.92842038  0.94906802  0.06651920  1
  O2-  O356  1  0.43793900  0.26692389  0.46458850  1
  O2-  O357  1  0.91274679  0.62326392  0.30499138  1
  O2-  O358  1  0.93793868  0.74141862  0.96652856  1
  O2-  O359  1  0.93599254  0.40602863  0.97742517  1
  O2-  O360  1  0.56895879  0.26345184  0.21852094  1
  O2-  O361  1  0.06144973  0.74541877  0.46640974  1
  O2-  O362  1  0.93662094  0.59131241  0.96893436  1
  O2-  O363  1  0.56955151  0.71984427  0.67926584  1
  O2-  O364  1  0.94132947  0.75192926  0.27535308  1
  O2-  O365  1  0.56373203  0.08297110  0.02705376  1
  O2-  O366  1  0.43637775  0.74613338  0.48122841  1
  O2-  O367  1  0.05955262  0.26659738  0.17604180  1
  O2-  O368  1  0.43634620  0.73277783  0.78210320  1
  O2-  O369  1  0.57213209  0.03817034  0.68709410  1
  O2-  O370  1  0.57601325  0.02730137  0.53563740  1
  O2-  O371  1  0.06784793  0.24281718  0.31603651  1
  O2-  O372  1  0.25045372  0.67214798  0.65073460  1
  O2-  O373  1  0.24977138  0.01163608  0.14324639  1
  O2-  O374  1  0.74914524  0.66046482  0.90026877  1
  O2-  O375  1  0.24982536  0.32060623  0.44131719  1
  O2-  O376  1  0.25010171  0.01789556  0.43313440  1
  O2-  O377  1  0.25034677  0.01361726  0.58808285  1
  O2-  O378  1  0.24941070  0.31467395  0.07063712  1
  O2-  O379  1  0.25050966  0.00578368  0.90781088  1
  O2-  O380  1  0.74965742  0.67866727  0.33197509  1
  O2-  O381  1  0.25012919  0.00235143  0.67731843  1
  O2-  O382  1  0.24965763  0.68097366  0.43465263  1
  O2-  O383  1  0.25024889  0.00349195  0.31826125  1
  O2-  O384  1  0.74959432  -0.00313899  0.19902976  1
  O2-  O385  1  0.75048087  0.00579450  0.07199427  1
  O2-  O386  1  0.24949828  0.66857212  0.31385199  1
  O2-  O387  1  0.25048722  0.30799993  0.17026694  1
  O2-  O388  1  0.75009136  0.34263930  0.65789386  1
  O2-  O389  1  0.74871682  0.66779744  0.42218163  1
  O2-  O390  1  0.75254616  0.00269525  0.86199878  1
  O2-  O391  1  0.74932863  0.33529210  0.35026782  1
  O2-  O392  1  0.75041942  0.34027525  0.84729499  1
  O2-  O393  1  0.24984247  0.31732566  0.87896506  1
  O2-  O394  1  0.25046707  0.31407796  0.32384650  1
  O2-  O395  1  0.75073792  0.33567552  0.13342796  1
  O2-  O396  1  0.75035886  0.84572132  0.35614623  1
  O2-  O397  1  0.75003206  0.84767097  0.89082437  1
  O2-  O398  1  0.24934407  0.49039143  0.61028353  1
  O2-  O399  1  0.74979139  0.51752017  0.12979562  1
  O2-  O400  1  0.74998523  0.16241609  0.63150230  1
  O2-  O401  1  0.25025352  0.51637527  0.69139828  1
  O2-  O402  1  0.24878233  0.47868612  0.36385867  1
  O2-  O403  1  0.75013135  0.15982994  0.15713861  1
  O2-  O404  1  0.25001688  0.83504600  0.91601118  1
  O2-  O405  1  0.74929554  0.83402488  0.62846677  1
  O2-  O406  1  0.75007266  0.17303539  0.91389131  1
  O2-  O407  1  0.75014655  0.84872098  0.14008034  1
  O2-  O408  1  0.74998574  0.83366695  0.80705773  1
  O2-  O409  1  0.25004071  0.84110005  0.14365789  1
  O2-  O410  1  0.24964165  0.17303124  0.58425921  1
  O2-  O411  1  0.24972762  0.48708056  0.12403369  1
  O2-  O412  1  0.75018202  0.15980137  0.34307596  1
  O2-  O413  1  0.25006531  0.16598099  0.09190998  1
  O2-  O414  1  0.24964069  0.16266165  0.66784215  1
  O2-  O415  1  0.24999953  0.17306042  0.84336937  1
  O2-  O416  1  0.24996360  0.82813908  0.83178971  1
  O2-  O417  1  0.25011801  0.83845905  0.65616156  1
  O2-  O418  1  0.24983638  0.16139945  0.34846652  1
  O2-  O419  1  0.75029668  0.51803007  0.36912703  1
  O2-  O420  1  0.04061995  0.33958221  0.39504837  1
  O2-  O421  1  0.51183599  0.34356826  0.12510386  1
  O2-  O422  1  0.02454459  0.65964793  0.88677401  1
  O2-  O423  1  0.95533887  0.01309937  0.36287187  1
  O2-  O424  1  0.51049620  -0.00204579  0.87740857  1
  O2-  O425  1  0.97230058  0.67240963  0.12606109  1
  O2-  O426  1  0.97927252  0.67230526  0.38912098  1
  O2-  O427  1  0.04613081  0.00583673  0.37839974  1
  O2-  O428  1  0.47610435  -0.01813950  0.62009930  1
  O2-  O429  1  0.48665561  0.68409595  0.37394638  1
  O2-  O430  1  0.02082055  0.00962716  0.86963938  1
  O2-  O431  1  0.52695578  0.00015971  0.37587163  1
  O2-  O432  1  0.52244298  0.66745010  0.87958593  1
  O2-  O433  1  0.95237979  0.32430646  0.36421890  1
  O2-  O434  1  0.52580638  0.33636878  0.37780399  1
  O2-  O435  1  0.97101716  0.33171313  0.86700883  1
  O2-  O436  1  0.51989497  0.34628533  0.86571475  1
  O2-  O437  1  0.51833720  0.66029667  0.11682037  1
  O2-  O438  1  0.97360476  0.33006468  0.62011116  1
  O2-  O439  1  0.52385991  0.34338782  0.62789480  1
  O2-  O440  1  0.45400444  0.00782542  0.11645900  1
  O2-  O441  1  0.54167162  0.00469320  0.13971099  1
  O2-  O442  1  0.02125126  0.01466919  0.13500155  1
  O2-  O443  1  0.03070324  0.32560327  0.86317763  1
