# generated using pymatgen
data_La7(Ru4O11)2
_symmetry_space_group_name_H-M   'P 1'
_cell_length_a   23.99387454
_cell_length_b   16.83362525
_cell_length_c   15.43052196
_cell_angle_alpha   89.99870551
_cell_angle_beta   89.99618889
_cell_angle_gamma   90.00096556
_symmetry_Int_Tables_number   1
_chemical_formula_structural   La7(Ru4O11)2
_chemical_formula_sum   'La84 Ru96 O264'
_cell_volume   6232.44786149
_cell_formula_units_Z   12
loop_
 _symmetry_equiv_pos_site_id
 _symmetry_equiv_pos_as_xyz
  1  'x, y, z'
loop_
 _atom_type_symbol
 _atom_type_oxidation_number
  La3+  3.0
  Ru4+  4.0
  O2-  -2.0
loop_
 _atom_site_type_symbol
 _atom_site_label
 _atom_site_symmetry_multiplicity
 _atom_site_fract_x
 _atom_site_fract_y
 _atom_site_fract_z
 _atom_site_occupancy
  La3+  La0  1  0.14314672  -0.00102389  0.12170637  1
  La3+  La1  1  0.13924388  -0.00086677  0.36874904  1
  La3+  La2  1  0.13811512  -0.00556844  0.62917648  1
  La3+  La3  1  0.14591608  -0.00120769  0.87233982  1
  La3+  La4  1  0.14738990  0.33279220  0.12587282  1
  La3+  La5  1  0.13760975  0.33216840  0.38072267  1
  La3+  La6  1  0.13467497  0.33700702  0.62048020  1
  La3+  La7  1  0.13541681  0.33160276  0.87854120  1
  La3+  La8  1  0.13578888  0.67512061  0.13376418  1
  La3+  La9  1  0.14518332  0.67119047  0.38014379  1
  La3+  La10  1  0.14346255  0.67644485  0.62860892  1
  La3+  La11  1  0.13568700  0.67465771  0.87679174  1
  La3+  La12  1  0.64631469  -0.00557239  0.12350903  1
  La3+  La13  1  0.63962522  0.00108670  0.37474440  1
  La3+  La14  1  0.64035759  0.00192907  0.62401210  1
  La3+  La15  1  0.63815439  -0.00621350  0.88046514  1
  La3+  La16  1  0.64193947  0.33592488  0.12148343  1
  La3+  La17  1  0.64119671  0.33081855  0.37526106  1
  La3+  La18  1  0.64690091  0.33012354  0.62180909  1
  La3+  La19  1  0.64264200  0.34081737  0.87984784  1
  La3+  La20  1  0.65114263  0.67008056  0.11922114  1
  La3+  La21  1  0.62975039  0.67246493  0.37821883  1
  La3+  La22  1  0.63723677  0.66477153  0.62414403  1
  La3+  La23  1  0.63863407  0.66436355  0.87952243  1
  La3+  La24  1  0.35557414  0.00250474  0.12438327  1
  La3+  La25  1  0.35583606  0.00449822  0.37189262  1
  La3+  La26  1  0.36222444  -0.00383119  0.62542373  1
  La3+  La27  1  0.35564811  0.00080180  0.87327483  1
  La3+  La28  1  0.35612310  0.33124887  0.12747076  1
  La3+  La29  1  0.35621119  0.32279159  0.37421742  1
  La3+  La30  1  0.36381473  0.33099518  0.62123209  1
  La3+  La31  1  0.36151258  0.32907179  0.87758990  1
  La3+  La32  1  0.35963075  0.66513300  0.13274083  1
  La3+  La33  1  0.36494331  0.67684265  0.36984337  1
  La3+  La34  1  0.36679162  0.67022720  0.62719544  1
  La3+  La35  1  0.36070811  0.67440445  0.87845184  1
  La3+  La36  1  0.84776813  -0.00191071  0.11991412  1
  La3+  La37  1  0.86480761  -0.00892140  0.37137129  1
  La3+  La38  1  0.86246511  -0.00211701  0.62038494  1
  La3+  La39  1  0.85606464  0.00218719  0.87865292  1
  La3+  La40  1  0.85930025  0.34143903  0.11662741  1
  La3+  La41  1  0.85126813  0.33497626  0.37532738  1
  La3+  La42  1  0.85489123  0.33227780  0.62250548  1
  La3+  La43  1  0.86028266  0.34311151  0.88080332  1
  La3+  La44  1  0.85320710  0.67202587  0.12554857  1
  La3+  La45  1  0.85845493  0.66749211  0.36889185  1
  La3+  La46  1  0.86544688  0.66742329  0.62503670  1
  La3+  La47  1  0.86135638  0.66128910  0.87881222  1
  La3+  La48  1  0.00211034  0.16116685  0.10226572  1
  La3+  La49  1  -0.00117196  0.49354274  0.10336357  1
  La3+  La50  1  0.49730660  0.16495204  0.62850681  1
  La3+  La51  1  0.00052009  0.50125400  0.62583335  1
  La3+  La52  1  0.01350716  0.84111763  0.60684802  1
  La3+  La53  1  -0.00968051  0.49487766  0.38418836  1
  La3+  La54  1  -0.00367518  0.49416508  0.36377816  1
  La3+  La55  1  -0.00317041  0.49705273  0.11953220  1
  La3+  La56  1  0.50087567  0.50275440  0.13500092  1
  La3+  La57  1  0.01124063  0.16367995  0.11969397  1
  La3+  La58  1  0.49687734  0.83622372  0.38087357  1
  La3+  La59  1  0.49315431  0.82929007  0.13160491  1
  La3+  La60  1  -0.00074715  0.17014215  0.61376328  1
  La3+  La61  1  -0.00204301  0.16511094  0.36381047  1
  La3+  La62  1  -0.00948293  0.15050062  0.86919925  1
  La3+  La63  1  0.49683560  0.83179516  0.10988239  1
  La3+  La64  1  0.49684272  0.50389678  0.87594868  1
  La3+  La65  1  0.49704647  0.16199525  0.60660625  1
  La3+  La66  1  0.50076664  0.16839067  0.87277034  1
  La3+  La67  1  -0.00017270  0.16749599  0.63561910  1
  La3+  La68  1  0.51961787  0.50399247  0.62406633  1
  La3+  La69  1  0.49635377  0.49678599  0.38297842  1
  La3+  La70  1  0.51298353  0.81896274  0.63449488  1
  La3+  La71  1  -0.01076080  0.50585482  0.86266928  1
  La3+  La72  1  0.74969071  0.83215008  0.82007927  1
  La3+  La73  1  0.25126035  0.83399428  0.22081318  1
  La3+  La74  1  0.75104353  0.45998329  0.50508320  1
  La3+  La75  1  0.75030868  0.21232703  -0.03422631  1
  La3+  La76  1  0.25263762  0.11187324  0.73333513  1
  La3+  La77  1  0.25092670  0.83855690  0.75056410  1
  La3+  La78  1  0.25295503  0.46070046  -0.02206093  1
  La3+  La79  1  0.24902312  0.55534910  0.78882570  1
  La3+  La80  1  0.25031166  0.16560414  0.23520553  1
  La3+  La81  1  0.74906286  0.22107633  0.21714755  1
  La3+  La82  1  0.25225308  0.50690017  0.52695730  1
  La3+  La83  1  0.25003123  0.49085893  0.16792952  1
  Ru4+  Ru84  1  0.00462796  -0.01412146  -0.00220572  1
  Ru4+  Ru85  1  -0.01112271  -0.00856567  0.24485926  1
  Ru4+  Ru86  1  -0.00150605  -0.00279410  0.48917942  1
  Ru4+  Ru87  1  -0.00826457  -0.01798942  0.76839941  1
  Ru4+  Ru88  1  0.00324893  0.33161740  -0.01349667  1
  Ru4+  Ru89  1  -0.00795699  0.33093313  0.24845045  1
  Ru4+  Ru90  1  -0.00985130  0.32623100  0.50678950  1
  Ru4+  Ru91  1  0.00284585  0.33161891  0.74992831  1
  Ru4+  Ru92  1  0.00250848  0.68239755  -0.00073784  1
  Ru4+  Ru93  1  -0.00113938  0.68453974  0.24813125  1
  Ru4+  Ru94  1  -0.00551208  0.67217174  0.50722194  1
  Ru4+  Ru95  1  -0.00098902  0.67042295  0.74441881  1
  Ru4+  Ru96  1  0.50120547  0.00403040  -0.01091935  1
  Ru4+  Ru97  1  0.49086457  0.01423128  0.26082013  1
  Ru4+  Ru98  1  0.49417677  -0.00432612  0.50448590  1
  Ru4+  Ru99  1  0.49799980  -0.00421532  0.74212821  1
  Ru4+  Ru100  1  0.50289865  0.33369568  -0.00109198  1
  Ru4+  Ru101  1  0.50504879  0.33023936  0.23925909  1
  Ru4+  Ru102  1  0.50564801  0.34334034  0.49117697  1
  Ru4+  Ru103  1  0.49796092  0.32518402  0.75050319  1
  Ru4+  Ru104  1  0.50126911  0.66846229  -0.00575576  1
  Ru4+  Ru105  1  0.50229332  0.65891381  0.25531394  1
  Ru4+  Ru106  1  0.49685328  0.66144986  0.49800682  1
  Ru4+  Ru107  1  0.49534427  0.66767365  0.74409740  1
  Ru4+  Ru108  1  0.11470742  0.16841661  -0.00646023  1
  Ru4+  Ru109  1  0.11223148  0.16293693  0.25451991  1
  Ru4+  Ru110  1  0.11264304  0.16377410  0.49712632  1
  Ru4+  Ru111  1  0.10745940  0.16449181  0.74712519  1
  Ru4+  Ru112  1  0.10897650  0.49873141  -0.00074243  1
  Ru4+  Ru113  1  0.11373611  0.50510856  0.24668979  1
  Ru4+  Ru114  1  0.11144401  0.51256270  0.50915450  1
  Ru4+  Ru115  1  0.11027702  0.49873474  0.74778780  1
  Ru4+  Ru116  1  0.10448685  0.83162016  -0.00167057  1
  Ru4+  Ru117  1  0.11420128  0.83328037  0.25286417  1
  Ru4+  Ru118  1  0.11441458  0.83249744  0.50240668  1
  Ru4+  Ru119  1  0.10811388  0.83480266  0.75152628  1
  Ru4+  Ru120  1  0.60762663  0.16729879  -0.00259584  1
  Ru4+  Ru121  1  0.60703040  0.16864366  0.24803489  1
  Ru4+  Ru122  1  0.61435462  0.16647883  0.50008034  1
  Ru4+  Ru123  1  0.61087005  0.17230625  0.75033196  1
  Ru4+  Ru124  1  0.61387308  0.49897106  -0.00116864  1
  Ru4+  Ru125  1  0.61529797  0.49847235  0.24996620  1
  Ru4+  Ru126  1  0.60934801  0.49494293  0.50248027  1
  Ru4+  Ru127  1  0.61329246  0.50509771  0.75132193  1
  Ru4+  Ru128  1  0.61258480  0.82925647  -0.00821928  1
  Ru4+  Ru129  1  0.61981206  0.83150033  0.25139898  1
  Ru4+  Ru130  1  0.61701430  0.83937386  0.49895390  1
  Ru4+  Ru131  1  0.60987028  0.83251437  0.74854195  1
  Ru4+  Ru132  1  0.38829824  0.16020815  -0.00063958  1
  Ru4+  Ru133  1  0.39618555  0.15276856  0.24811372  1
  Ru4+  Ru134  1  0.38995220  0.16669187  0.49874367  1
  Ru4+  Ru135  1  0.39761529  0.16978290  0.74990027  1
  Ru4+  Ru136  1  0.39225322  0.50036984  -0.00065767  1
  Ru4+  Ru137  1  0.38849372  0.49981023  0.25000962  1
  Ru4+  Ru138  1  0.39203366  0.49363713  0.49886817  1
  Ru4+  Ru139  1  0.39139736  0.50603425  0.75370728  1
  Ru4+  Ru140  1  0.39157720  0.82990971  -0.00665099  1
  Ru4+  Ru141  1  0.38465207  0.84213980  0.25263562  1
  Ru4+  Ru142  1  0.38926838  0.83893147  0.49687386  1
  Ru4+  Ru143  1  0.39350894  0.83258806  0.75125315  1
  Ru4+  Ru144  1  0.88664882  0.16533117  -0.00352668  1
  Ru4+  Ru145  1  0.88949051  0.17204904  0.25688721  1
  Ru4+  Ru146  1  0.88426060  0.16699376  0.50076068  1
  Ru4+  Ru147  1  0.88776374  0.16218273  0.74944887  1
  Ru4+  Ru148  1  0.87974627  0.50932410  -0.00479264  1
  Ru4+  Ru149  1  0.88184140  0.50102720  0.24618022  1
  Ru4+  Ru150  1  0.89199517  0.50197259  0.50419273  1
  Ru4+  Ru151  1  0.88398649  0.50206843  0.75192643  1
  Ru4+  Ru152  1  0.88793740  0.82876899  -0.00349042  1
  Ru4+  Ru153  1  0.89028405  0.83924005  0.24889227  1
  Ru4+  Ru154  1  0.89305451  0.82458772  0.49090505  1
  Ru4+  Ru155  1  0.89572732  0.84619110  0.75857063  1
  Ru4+  Ru156  1  0.75051321  0.24050375  0.75080483  1
  Ru4+  Ru157  1  0.24983918  0.61265176  0.26062857  1
  Ru4+  Ru158  1  0.74927758  0.74767629  0.49682491  1
  Ru4+  Ru159  1  0.24971574  0.09988256  0.48779068  1
  Ru4+  Ru160  1  0.74898658  0.94869122  0.72252131  1
  Ru4+  Ru161  1  0.25095157  0.40798553  0.73573901  1
  Ru4+  Ru162  1  0.24954882  0.25322834  0.75236467  1
  Ru4+  Ru163  1  0.74949670  0.43040748  0.74684225  1
  Ru4+  Ru164  1  0.74795910  0.06700366  -0.00211744  1
  Ru4+  Ru165  1  0.24821841  0.61537221  0.01411161  1
  Ru4+  Ru166  1  0.24982719  0.37401610  0.26669379  1
  Ru4+  Ru167  1  0.24919008  0.75283127  -0.01152140  1
  Ru4+  Ru168  1  0.25210326  0.64889017  0.49011470  1
  Ru4+  Ru169  1  0.75080922  0.60610171  0.48862779  1
  Ru4+  Ru170  1  0.24916397  0.91241081  0.50866078  1
  Ru4+  Ru171  1  0.25138260  0.23669878  -0.00811049  1
  Ru4+  Ru172  1  0.75021685  0.92597083  0.49117323  1
  Ru4+  Ru173  1  0.74931655  0.08962267  0.76112662  1
  Ru4+  Ru174  1  0.74838119  0.57033895  0.24659311  1
  Ru4+  Ru175  1  0.24923828  0.35337412  0.50671129  1
  Ru4+  Ru176  1  0.74952664  0.42407650  0.24417734  1
  Ru4+  Ru177  1  0.25045421  0.91946614  -0.00195169  1
  Ru4+  Ru178  1  0.75012379  0.06890634  0.26613497  1
  Ru4+  Ru179  1  0.75029048  0.70105887  0.73639037  1
  O2-  O180  1  0.16400723  0.08398644  0.00210797  1
  O2-  O181  1  0.17141777  0.07859364  0.25126147  1
  O2-  O182  1  0.16624749  0.07967293  0.49673974  1
  O2-  O183  1  0.16399322  0.07612044  0.74175113  1
  O2-  O184  1  0.16602368  0.41542636  -0.00677016  1
  O2-  O185  1  0.16889573  0.41056250  0.25445809  1
  O2-  O186  1  0.16618909  0.41464939  0.50137354  1
  O2-  O187  1  0.16655364  0.41434280  0.75150295  1
  O2-  O188  1  0.16580183  0.75053330  -0.00215135  1
  O2-  O189  1  0.17171465  0.75141323  0.24791733  1
  O2-  O190  1  0.16533314  0.74895225  0.50295637  1
  O2-  O191  1  0.16677196  0.74895878  0.75599874  1
  O2-  O192  1  0.66397810  0.07883671  -0.00162662  1
  O2-  O193  1  0.66310931  0.08203659  0.25051042  1
  O2-  O194  1  0.66280282  0.07772954  0.49928278  1
  O2-  O195  1  0.66678862  0.08063734  0.75407608  1
  O2-  O196  1  0.66553145  0.41763624  0.00263064  1
  O2-  O197  1  0.67098073  0.41648870  0.24960049  1
  O2-  O198  1  0.66503901  0.41087517  0.49648437  1
  O2-  O199  1  0.66449391  0.41529931  0.74955946  1
  O2-  O200  1  0.67112078  0.75183258  -0.00505724  1
  O2-  O201  1  0.66382029  0.74374867  0.25429761  1
  O2-  O202  1  0.66705341  0.74733848  0.49784780  1
  O2-  O203  1  0.67073713  0.74478080  0.75289117  1
  O2-  O204  1  0.33298782  0.24681444  -0.00166169  1
  O2-  O205  1  0.33592353  0.24577655  0.24560052  1
  O2-  O206  1  0.33779651  0.25263684  0.50504419  1
  O2-  O207  1  0.33539559  0.25434715  0.74824124  1
  O2-  O208  1  0.32876003  0.58625404  0.00268891  1
  O2-  O209  1  0.33109056  0.58714927  0.25397209  1
  O2-  O210  1  0.33583033  0.58967952  0.50052198  1
  O2-  O211  1  0.33091695  0.58924560  0.73864387  1
  O2-  O212  1  0.33697518  0.91597452  -0.00254665  1
  O2-  O213  1  0.33069953  0.92232302  0.24722395  1
  O2-  O214  1  0.33103585  0.91948160  0.50391952  1
  O2-  O215  1  0.33635489  0.91785494  0.74804397  1
  O2-  O216  1  0.83753372  0.25693327  -0.00063939  1
  O2-  O217  1  0.83572634  0.25664853  0.24451928  1
  O2-  O218  1  0.83766452  0.25268307  0.50008122  1
  O2-  O219  1  0.83425177  0.25396460  0.75248621  1
  O2-  O220  1  0.82915588  0.58916532  -0.00161993  1
  O2-  O221  1  0.82864006  0.58327342  0.24751973  1
  O2-  O222  1  0.83309623  0.58736877  0.50051838  1
  O2-  O223  1  0.83141916  0.58802494  0.75186842  1
  O2-  O224  1  0.83841478  0.91482635  -0.00455792  1
  O2-  O225  1  0.83181148  0.90893629  0.25757126  1
  O2-  O226  1  0.83273553  0.91928433  0.49930951  1
  O2-  O227  1  0.82958619  0.92273172  0.74980963  1
  O2-  O228  1  0.17160189  0.25002414  -0.00558112  1
  O2-  O229  1  0.16569912  0.25131567  0.25626375  1
  O2-  O230  1  0.16372875  0.25657906  0.50052529  1
  O2-  O231  1  0.16272039  0.25374641  0.74838022  1
  O2-  O232  1  0.16495190  0.58608624  0.00091391  1
  O2-  O233  1  0.16784443  0.58789759  0.24888959  1
  O2-  O234  1  0.17160440  0.58983337  0.50254997  1
  O2-  O235  1  0.16086752  0.59053904  0.75310129  1
  O2-  O236  1  0.16929334  0.91284210  0.00213160  1
  O2-  O237  1  0.16578219  0.92020561  0.25117204  1
  O2-  O238  1  0.16557433  0.92265683  0.49743054  1
  O2-  O239  1  0.16883971  0.91692337  0.74404469  1
  O2-  O240  1  0.66364881  0.25326675  0.00314660  1
  O2-  O241  1  0.66193255  0.25702203  0.25165032  1
  O2-  O242  1  0.66172538  0.25119808  0.49699073  1
  O2-  O243  1  0.66621091  0.25138644  0.75331775  1
  O2-  O244  1  0.66437727  0.58501407  -0.00079867  1
  O2-  O245  1  0.66701879  0.58476656  0.25620329  1
  O2-  O246  1  0.66709677  0.58642757  0.49551821  1
  O2-  O247  1  0.66772898  0.58566083  0.74979290  1
  O2-  O248  1  0.66574377  0.91540031  -0.00365821  1
  O2-  O249  1  0.66045639  0.92214762  0.25051969  1
  O2-  O250  1  0.66772390  0.92154241  0.50023574  1
  O2-  O251  1  0.66804152  0.92178235  0.75348690  1
  O2-  O252  1  0.33576834  0.08256285  -0.00151785  1
  O2-  O253  1  0.32894540  0.08283493  0.24426115  1
  O2-  O254  1  0.32928239  0.07940399  0.49985703  1
  O2-  O255  1  0.34276456  0.07564227  0.74801672  1
  O2-  O256  1  0.34100647  0.41194825  -0.00007073  1
  O2-  O257  1  0.33130414  0.41104507  0.24968311  1
  O2-  O258  1  0.32716270  0.40932528  0.50771035  1
  O2-  O259  1  0.33792907  0.41589451  0.75028418  1
  O2-  O260  1  0.32859096  0.74996471  -0.00047333  1
  O2-  O261  1  0.33249148  0.74855988  0.25058326  1
  O2-  O262  1  0.33976276  0.74947147  0.50030387  1
  O2-  O263  1  0.33366599  0.74822556  0.74701868  1
  O2-  O264  1  0.82997732  0.08361318  -0.00289218  1
  O2-  O265  1  0.83458571  0.08409428  0.25302532  1
  O2-  O266  1  0.83890759  0.07712896  0.49867101  1
  O2-  O267  1  0.83258046  0.08188978  0.74861754  1
  O2-  O268  1  0.83365324  0.41898196  -0.00098041  1
  O2-  O269  1  0.82894019  0.41534864  0.24824470  1
  O2-  O270  1  0.83954722  0.41186041  0.50151772  1
  O2-  O271  1  0.83250814  0.41388688  0.74950896  1
  O2-  O272  1  0.83294761  0.74801170  -0.00567197  1
  O2-  O273  1  0.83809664  0.75055252  0.24958398  1
  O2-  O274  1  0.83150980  0.74567213  0.50251474  1
  O2-  O275  1  0.83300351  0.74797949  0.75374903  1
  O2-  O276  1  0.95873640  0.10512577  0.49383887  1
  O2-  O277  1  0.96567959  0.22361087  0.22236408  1
  O2-  O278  1  0.02130715  0.88249179  1.00592010  1
  O2-  O279  1  0.45407024  0.08925301  0.99005765  1
  O2-  O280  1  0.54245209  0.10385925  0.49292464  1
  O2-  O281  1  0.04744391  0.75838497  0.73792486  1
  O2-  O282  1  0.54553670  0.43060358  0.76557585  1
  O2-  O283  1  0.94820900  0.76582532  0.98583392  1
  O2-  O284  1  0.04807361  0.42311687  0.47886037  1
  O2-  O285  1  0.96414451  0.87160205  0.25213957  1
  O2-  O286  1  0.04457137  0.43861705  0.24001583  1
  O2-  O287  1  0.95348622  0.23613647  0.76130507  1
  O2-  O288  1  0.94876647  0.76169026  0.55087985  1
  O2-  O289  1  0.94723021  0.24149159  0.98166021  1
  O2-  O290  1  0.04117038  0.44264922  0.95136522  1
  O2-  O291  1  0.44964073  0.57405178  0.50246231  1
  O2-  O292  1  0.54391765  0.75968655  0.49207517  1
  O2-  O293  1  0.45107139  0.76912436  0.26399105  1
  O2-  O294  1  0.93616544  0.74356384  0.23214685  1
  O2-  O295  1  0.96990847  0.88995631  0.28393176  1
  O2-  O296  1  0.04421391  0.23157299  0.48616024  1
  O2-  O297  1  0.94985578  0.91009395  0.48683463  1
  O2-  O298  1  0.04481251  0.57787866  0.99425947  1
  O2-  O299  1  0.94604128  0.90942273  0.69056714  1
  O2-  O300  1  0.04701027  0.75876563  0.93614925  1
  O2-  O301  1  0.45647531  0.22593635  0.00277014  1
  O2-  O302  1  0.04068550  0.77582787  0.21095313  1
  O2-  O303  1  0.54322162  0.10037751  0.74517295  1
  O2-  O304  1  0.46330120  0.54374752  0.71892997  1
  O2-  O305  1  0.54449193  0.56621453  0.99389207  1
  O2-  O306  1  0.04861987  0.09031429  0.99587827  1
  O2-  O307  1  0.46590633  0.79825934  0.95861017  1
  O2-  O308  1  0.54657783  0.56098353  0.25967159  1
  O2-  O309  1  0.46549893  0.87797938  0.53683536  1
  O2-  O310  1  0.55155201  0.91133350  0.98613880  1
  O2-  O311  1  0.04119213  0.56987735  0.46357577  1
  O2-  O312  1  0.55051183  0.20795681  0.05148119  1
  O2-  O313  1  0.04883703  0.42974683  0.51736577  1
  O2-  O314  1  0.95361892  0.09490455  0.24180046  1
  O2-  O315  1  0.04622628  0.56933618  0.74211227  1
  O2-  O316  1  0.04505834  0.79389854  0.24373273  1
  O2-  O317  1  0.45508416  0.90352334  0.73216684  1
  O2-  O318  1  0.94935576  0.43898670  0.00363515  1
  O2-  O319  1  0.04405688  0.22479209  0.94817955  1
  O2-  O320  1  0.54828324  0.76803970  0.24566147  1
  O2-  O321  1  0.45540116  0.43044172  0.25970649  1
  O2-  O322  1  0.45388936  0.76150696  0.76245227  1
  O2-  O323  1  0.46168453  0.43111609  0.54742929  1
  O2-  O324  1  0.94076320  0.75080822  0.55590587  1
  O2-  O325  1  0.42724405  0.93579955  0.42406753  1
  O2-  O326  1  0.42798504  0.29281962  0.03734910  1
  O2-  O327  1  0.93612553  0.41451956  0.02350927  1
  O2-  O328  1  0.94834351  0.91786804  0.68842795  1
  O2-  O329  1  0.08621051  0.25355482  0.06516959  1
  O2-  O330  1  0.06386381  0.92429240  0.77140061  1
  O2-  O331  1  0.56855855  0.42391810  0.42854113  1
  O2-  O332  1  0.55629729  0.40892699  0.96503913  1
  O2-  O333  1  0.07114132  0.67841352  0.30513153  1
  O2-  O334  1  0.41595155  0.60113365  0.80854041  1
  O2-  O335  1  0.93964806  0.58334163  0.22499935  1
  O2-  O336  1  0.57267703  0.75176497  0.92829814  1
  O2-  O337  1  0.56487528  0.39122107  0.57789468  1
  O2-  O338  1  0.93636142  0.58930534  0.73524434  1
  O2-  O339  1  0.06247230  0.06382170  0.22517938  1
  O2-  O340  1  0.08555590  0.95189469  0.97298619  1
  O2-  O341  1  0.43498808  0.59071840  0.22990721  1
  O2-  O342  1  0.56626687  0.59579456  0.52982299  1
  O2-  O343  1  0.91918029  0.75150475  0.40761687  1
  O2-  O344  1  0.43996404  0.06884627  0.17390238  1
  O2-  O345  1  0.57095889  0.75479594  0.07463960  1
  O2-  O346  1  0.56454194  0.60356208  0.71852608  1
  O2-  O347  1  0.56005632  0.24988252  0.22437880  1
  O2-  O348  1  0.55466230  0.91935913  0.97865210  1
  O2-  O349  1  0.43755046  0.08338125  0.47547007  1
  O2-  O350  1  0.06116371  0.40688614  0.71233753  1
  O2-  O351  1  0.93663515  0.40724241  0.78386790  1
  O2-  O352  1  0.07021903  0.72718053  0.06209260  1
  O2-  O353  1  0.56694030  0.74760364  0.48227951  1
  O2-  O354  1  0.43699124  0.07507354  0.31991118  1
  O2-  O355  1  0.43476202  0.59128539  0.97852922  1
  O2-  O356  1  0.56466262  0.27101729  0.92954854  1
  O2-  O357  1  0.91929243  0.26155688  0.32649209  1
  O2-  O358  1  0.07202739  0.09256190  0.81798793  1
  O2-  O359  1  0.93980603  0.92194135  0.48543423  1
  O2-  O360  1  0.41510421  0.40498987  0.43234943  1
  O2-  O361  1  0.07511474  0.61434446  0.57345906  1
  O2-  O362  1  0.07804323  0.41576489  0.07420360  1
  O2-  O363  1  0.41710516  0.74145820  0.06280004  1
  O2-  O364  1  0.93402137  0.06832726  0.01546694  1
  O2-  O365  1  0.93768951  0.59820197  0.95857854  1
  O2-  O366  1  0.56766389  0.41053389  0.22303627  1
  O2-  O367  1  0.43746731  0.74013887  0.27375965  1
  O2-  O368  1  0.05979978  0.06944800  0.66338602  1
  O2-  O369  1  0.91259837  0.96701854  0.20686346  1
  O2-  O370  1  0.93002737  0.93095058  0.83994748  1
  O2-  O371  1  0.93329805  0.41297699  0.27627399  1
  O2-  O372  1  0.74994029  0.33514223  0.67511475  1
  O2-  O373  1  0.24861580  0.66666716  0.88813042  1
  O2-  O374  1  0.74940086  0.66720392  0.17674993  1
  O2-  O375  1  0.25220604  0.67536181  0.36813862  1
  O2-  O376  1  0.24986977  0.32990013  0.63436396  1
  O2-  O377  1  0.25053703  -0.00520514  0.82755317  1
  O2-  O378  1  0.75043707  0.66100409  0.08642188  1
  O2-  O379  1  0.74849086  -0.00936321  0.18861885  1
  O2-  O380  1  0.75026490  -0.00583644  0.36339332  1
  O2-  O381  1  0.25072997  0.34054801  0.83014448  1
  O2-  O382  1  0.75065473  0.33678739  0.57683574  1
  O2-  O383  1  0.74803997  -0.00250031  0.88510726  1
  O2-  O384  1  0.74891140  0.34260969  0.34531916  1
  O2-  O385  1  0.74858175  -0.02081384  0.06263433  1
  O2-  O386  1  0.24937034  0.66735754  0.14042299  1
  O2-  O387  1  0.74971127  0.67476798  0.60731043  1
  O2-  O388  1  0.25221899  0.33589817  0.95586056  1
  O2-  O389  1  0.74926938  0.33880276  0.92125182  1
  O2-  O390  1  0.24930873  -0.00701638  0.09849308  1
  O2-  O391  1  0.25085716  0.00542195  0.91925226  1
  O2-  O392  1  0.24847785  0.33044970  0.38514294  1
  O2-  O393  1  0.74817189  0.33161882  0.11910702  1
  O2-  O394  1  0.75017791  0.33474473  0.82770425  1
  O2-  O395  1  0.25233684  0.33602237  0.11000089  1
  O2-  O396  1  0.24931760  0.84410811  0.60766680  1
  O2-  O397  1  0.74858890  0.83151565  0.33324152  1
  O2-  O398  1  0.74888548  0.83307650  0.15514349  1
  O2-  O399  1  0.24890701  0.49622220  0.66223940  1
  O2-  O400  1  0.24962819  0.82285079  0.44506105  1
  O2-  O401  1  0.74967624  0.49699261  0.91576469  1
  O2-  O402  1  0.74982636  0.15733977  0.34906914  1
  O2-  O403  1  0.75034959  0.83870262  0.66067565  1
  O2-  O404  1  0.25007014  0.50122609  0.30660152  1
  O2-  O405  1  0.24906636  0.15837114  0.58464479  1
  O2-  O406  1  0.25030707  0.18696036  0.86969947  1
  O2-  O407  1  0.74980595  0.50831035  0.83256997  1
  O2-  O408  1  0.74936721  0.14335510  0.09888809  1
  O2-  O409  1  0.74969395  0.49742491  0.65150087  1
  O2-  O410  1  0.25032815  0.14868372  0.37945428  1
  O2-  O411  1  0.25023263  0.83403122  0.89810280  1
  O2-  O412  1  0.74997952  0.16578644  0.43379268  1
  O2-  O413  1  0.74968004  0.16068874  0.58190345  1
  O2-  O414  1  0.75011274  0.16137291  0.66819969  1
  O2-  O415  1  0.74890990  0.83315624  0.41907488  1
  O2-  O416  1  0.25010722  0.50149967  0.39404384  1
  O2-  O417  1  0.74888318  0.83825267  0.57162258  1
  O2-  O418  1  0.25009585  0.83112113  0.07820231  1
  O2-  O419  1  0.24983452  0.84336048  0.36142046  1
  O2-  O420  1  0.00979404  0.00750810  0.87870912  1
  O2-  O421  1  0.53418049  0.64498262  0.13581192  1
  O2-  O422  1  0.98197598  0.02290546  0.36730557  1
  O2-  O423  1  0.47300668  0.00249949  0.86094624  1
  O2-  O424  1  0.97722881  0.65595594  0.11499562  1
  O2-  O425  1  0.95437955  0.33386563  0.13337209  1
  O2-  O426  1  0.97903934  0.64723510  0.36776283  1
  O2-  O427  1  0.53251840  0.64808109  0.85829766  1
  O2-  O428  1  0.97039291  0.32876659  0.62722383  1
  O2-  O429  1  0.51759788  0.34288362  0.12273871  1
  O2-  O430  1  0.98264901  0.64895029  0.62683898  1
  O2-  O431  1  0.03048664  0.33316265  0.86338019  1
  O2-  O432  1  0.47235041  0.31293645  0.36618156  1
  O2-  O433  1  0.99278500  -0.00052049  0.12056928  1
  O2-  O434  1  0.47800357  0.67440472  0.87792149  1
  O2-  O435  1  0.53003185  0.31990027  0.36629035  1
  O2-  O436  1  0.45391725  0.02208754  0.62540842  1
  O2-  O437  1  0.47073049  0.67972932  0.62197563  1
  O2-  O438  1  0.52375741  0.66068673  0.37734355  1
  O2-  O439  1  0.98787076  0.33912236  0.38523970  1
  O2-  O440  1  0.04418578  0.31669125  0.16593068  1
  O2-  O441  1  0.47609319  0.66514637  0.12414339  1
  O2-  O442  1  0.53001324  -0.01470409  0.37262036  1
  O2-  O443  1  0.54661138  -0.00747105  0.62103961  1
