# generated using pymatgen
data_La7(Ru4O11)2
_symmetry_space_group_name_H-M   'P 1'
_cell_length_a   23.99155421
_cell_length_b   16.83172268
_cell_length_c   15.42795596
_cell_angle_alpha   89.99843896
_cell_angle_beta   90.00105122
_cell_angle_gamma   89.99987436
_symmetry_Int_Tables_number   1
_chemical_formula_structural   La7(Ru4O11)2
_chemical_formula_sum   'La84 Ru96 O264'
_cell_volume   6230.10463023
_cell_formula_units_Z   12
loop_
 _symmetry_equiv_pos_site_id
 _symmetry_equiv_pos_as_xyz
  1  'x, y, z'
loop_
 _atom_type_symbol
 _atom_type_oxidation_number
  La3+  3.0
  Ru4+  4.0
  O2-  -2.0
loop_
 _atom_site_type_symbol
 _atom_site_label
 _atom_site_symmetry_multiplicity
 _atom_site_fract_x
 _atom_site_fract_y
 _atom_site_fract_z
 _atom_site_occupancy
  La3+  La0  1  0.13670429  -0.00284984  0.12412924  1
  La3+  La1  1  0.14447842  -0.00113737  0.37999918  1
  La3+  La2  1  0.14363512  0.00058499  0.62046664  1
  La3+  La3  1  0.13999195  -0.00610703  0.86784742  1
  La3+  La4  1  0.13913481  0.33816624  0.12186914  1
  La3+  La5  1  0.14241508  0.33329765  0.38183010  1
  La3+  La6  1  0.13923142  0.33574503  0.62644167  1
  La3+  La7  1  0.13525135  0.33842195  0.87110892  1
  La3+  La8  1  0.14178725  0.66440339  0.12436520  1
  La3+  La9  1  0.14419118  0.66695609  0.37549058  1
  La3+  La10  1  0.13387895  0.66402115  0.62673327  1
  La3+  La11  1  0.14651591  0.66556388  0.87851894  1
  La3+  La12  1  0.63072397  -0.00662685  0.12859832  1
  La3+  La13  1  0.62743136  -0.00737231  0.36414922  1
  La3+  La14  1  0.63686941  -0.00340740  0.63047141  1
  La3+  La15  1  0.64342448  -0.00124131  0.87087913  1
  La3+  La16  1  0.64206697  0.33209855  0.12638449  1
  La3+  La17  1  0.63498689  0.33125470  0.36870254  1
  La3+  La18  1  0.63130520  0.33353285  0.62214158  1
  La3+  La19  1  0.63924151  0.33618320  0.88202162  1
  La3+  La20  1  0.65007429  0.66702366  0.12161059  1
  La3+  La21  1  0.63057269  0.67035366  0.37931480  1
  La3+  La22  1  0.62888222  0.67394627  0.61856985  1
  La3+  La23  1  0.63803525  0.66237170  0.87930696  1
  La3+  La24  1  0.36219920  -0.00425425  0.12375220  1
  La3+  La25  1  0.35795732  -0.00200780  0.37848434  1
  La3+  La26  1  0.35850021  0.00106110  0.61991792  1
  La3+  La27  1  0.36504288  -0.00141030  0.87497592  1
  La3+  La28  1  0.36482197  0.33561368  0.12635713  1
  La3+  La29  1  0.35833523  0.33590893  0.37832518  1
  La3+  La30  1  0.35812935  0.33601816  0.62152152  1
  La3+  La31  1  0.36395560  0.33893713  0.87568742  1
  La3+  La32  1  0.35895375  0.65997657  0.12167956  1
  La3+  La33  1  0.35432628  0.66647822  0.37474252  1
  La3+  La34  1  0.36274421  0.66360577  0.62738211  1
  La3+  La35  1  0.36288812  0.66221017  0.87760303  1
  La3+  La36  1  0.86147236  0.00132316  0.12590832  1
  La3+  La37  1  0.86557575  0.00292217  0.37704374  1
  La3+  La38  1  0.86282987  -0.00062307  0.62397024  1
  La3+  La39  1  0.86033035  0.00087637  0.87357910  1
  La3+  La40  1  0.85962686  0.33657699  0.12515122  1
  La3+  La41  1  0.85867761  0.33246108  0.37060231  1
  La3+  La42  1  0.86891818  0.33206213  0.62477184  1
  La3+  La43  1  0.86332944  0.33434243  0.87809193  1
  La3+  La44  1  0.85325987  0.66472624  0.12122924  1
  La3+  La45  1  0.86201222  0.66587806  0.37328481  1
  La3+  La46  1  0.86314270  0.66692127  0.62593626  1
  La3+  La47  1  0.85795145  0.66784730  0.87884849  1
  La3+  La48  1  0.49874448  0.17381870  0.37042902  1
  La3+  La49  1  0.49926778  0.17484257  0.14042056  1
  La3+  La50  1  0.00007084  0.83194526  0.86294560  1
  La3+  La51  1  0.50890533  0.83147653  0.37642294  1
  La3+  La52  1  0.49711324  0.17811592  0.61171909  1
  La3+  La53  1  0.49805749  0.83334289  0.12661123  1
  La3+  La54  1  0.51088211  0.82998887  0.64141194  1
  La3+  La55  1  -0.00151808  0.49919090  0.36560228  1
  La3+  La56  1  -0.00354368  0.17401638  0.14012649  1
  La3+  La57  1  0.50482270  0.83028461  0.14633121  1
  La3+  La58  1  0.00414114  0.49509429  0.38579650  1
  La3+  La59  1  -0.00318923  0.83344768  0.35583410  1
  La3+  La60  1  0.50309929  0.50085328  0.10723882  1
  La3+  La61  1  -0.00508565  0.82489981  0.37619200  1
  La3+  La62  1  0.50143405  0.16181547  0.87691803  1
  La3+  La63  1  0.49401702  0.50628026  0.38705972  1
  La3+  La64  1  0.50523730  0.83549529  0.62814748  1
  La3+  La65  1  0.00171416  0.16792199  0.63681233  1
  La3+  La66  1  0.50045800  0.17475332  0.12315531  1
  La3+  La67  1  0.51079963  0.82972291  0.39298293  1
  La3+  La68  1  0.50613454  0.48777202  0.62647231  1
  La3+  La69  1  -0.00152568  0.50145298  0.11667937  1
  La3+  La70  1  -0.00275435  0.49765561  0.86060552  1
  La3+  La71  1  0.49549697  0.49693092  0.86470150  1
  La3+  La72  1  0.25014363  0.17866871  0.77297733  1
  La3+  La73  1  0.24993901  0.50259546  0.25013665  1
  La3+  La74  1  0.75003310  0.78719446  0.21379114  1
  La3+  La75  1  0.75007491  0.53368439  0.47579550  1
  La3+  La76  1  0.25003858  0.50200084  -0.02398084  1
  La3+  La77  1  0.75009869  0.50867913  0.01700528  1
  La3+  La78  1  0.25180702  0.77462945  0.03410780  1
  La3+  La79  1  0.25080413  0.17346588  0.05739765  1
  La3+  La80  1  0.24834273  0.14714148  0.26911760  1
  La3+  La81  1  0.75017522  0.86890347  0.49035318  1
  La3+  La82  1  0.74946085  0.43441779  0.72594201  1
  La3+  La83  1  0.24819100  0.75726669  0.72652323  1
  Ru4+  Ru84  1  0.00874454  0.00770221  -0.01055057  1
  Ru4+  Ru85  1  0.00302332  -0.00478262  0.25197432  1
  Ru4+  Ru86  1  -0.00186137  -0.00227770  0.50734272  1
  Ru4+  Ru87  1  -0.00031322  -0.00561758  0.74635720  1
  Ru4+  Ru88  1  0.00264916  0.32940847  -0.00023995  1
  Ru4+  Ru89  1  -0.00295298  0.33051567  0.24826646  1
  Ru4+  Ru90  1  -0.00575247  0.33017277  0.50319820  1
  Ru4+  Ru91  1  -0.00268131  0.33432289  0.74738544  1
  Ru4+  Ru92  1  0.00102265  0.67035658  -0.00333691  1
  Ru4+  Ru93  1  -0.00105919  0.66402323  0.24928717  1
  Ru4+  Ru94  1  0.00241530  0.66856123  0.50863677  1
  Ru4+  Ru95  1  0.00394811  0.65987924  0.74832414  1
  Ru4+  Ru96  1  0.50093490  0.00095063  -0.00719933  1
  Ru4+  Ru97  1  0.50129535  0.00211464  0.25462183  1
  Ru4+  Ru98  1  0.49846453  0.00340917  0.50084502  1
  Ru4+  Ru99  1  0.49732726  0.00343510  0.74978895  1
  Ru4+  Ru100  1  0.49553678  0.33163544  0.00835678  1
  Ru4+  Ru101  1  0.50037606  0.34900114  0.25405778  1
  Ru4+  Ru102  1  0.49818805  0.32641397  0.50020632  1
  Ru4+  Ru103  1  0.49899345  0.32942133  0.74926605  1
  Ru4+  Ru104  1  0.50164578  0.67174948  0.00823977  1
  Ru4+  Ru105  1  0.49945998  0.66125631  0.24622656  1
  Ru4+  Ru106  1  0.50029653  0.66865048  0.50628937  1
  Ru4+  Ru107  1  0.49657758  0.67508283  0.75141639  1
  Ru4+  Ru108  1  0.10745905  0.16673573  -0.00000866  1
  Ru4+  Ru109  1  0.10729267  0.16579292  0.25043069  1
  Ru4+  Ru110  1  0.11410021  0.16834236  0.49831422  1
  Ru4+  Ru111  1  0.10928412  0.16834320  0.74807329  1
  Ru4+  Ru112  1  0.11254558  0.50185322  0.00084825  1
  Ru4+  Ru113  1  0.11069983  0.49800613  0.25071358  1
  Ru4+  Ru114  1  0.11349906  0.49804853  0.50039448  1
  Ru4+  Ru115  1  0.11046078  0.50269604  0.74727571  1
  Ru4+  Ru116  1  0.10840366  0.83366993  0.00335639  1
  Ru4+  Ru117  1  0.11273500  0.84022287  0.24793370  1
  Ru4+  Ru118  1  0.11503341  0.83503962  0.50641107  1
  Ru4+  Ru119  1  0.10798688  0.83664211  0.74716628  1
  Ru4+  Ru120  1  0.61022193  0.16535763  0.00010161  1
  Ru4+  Ru121  1  0.61923530  0.16467382  0.25180080  1
  Ru4+  Ru122  1  0.61140118  0.16498624  0.50067954  1
  Ru4+  Ru123  1  0.61022045  0.16476955  0.75027090  1
  Ru4+  Ru124  1  0.61428990  0.50395256  0.00291085  1
  Ru4+  Ru125  1  0.61548423  0.49672180  0.25018210  1
  Ru4+  Ru126  1  0.61437103  0.50750311  0.50060141  1
  Ru4+  Ru127  1  0.61421799  0.49568347  0.74720130  1
  Ru4+  Ru128  1  0.61485990  0.83617941  -0.01154042  1
  Ru4+  Ru129  1  0.61480377  0.83536628  0.26053361  1
  Ru4+  Ru130  1  0.61278173  0.83277321  0.50426564  1
  Ru4+  Ru131  1  0.61424434  0.83205614  0.74743311  1
  Ru4+  Ru132  1  0.38857234  0.16556308  -0.00135966  1
  Ru4+  Ru133  1  0.38292071  0.16248878  0.24943604  1
  Ru4+  Ru134  1  0.38480712  0.16760780  0.49924798  1
  Ru4+  Ru135  1  0.39309937  0.16147582  0.75052521  1
  Ru4+  Ru136  1  0.38391063  0.49274114  -0.00201800  1
  Ru4+  Ru137  1  0.38859658  0.50006637  0.24962544  1
  Ru4+  Ru138  1  0.38589741  0.49633472  0.50203588  1
  Ru4+  Ru139  1  0.38315190  0.50322674  0.74920586  1
  Ru4+  Ru140  1  0.38966469  0.83446078  -0.00098576  1
  Ru4+  Ru141  1  0.38249891  0.83423708  0.25394510  1
  Ru4+  Ru142  1  0.38424545  0.83414484  0.49955047  1
  Ru4+  Ru143  1  0.39079291  0.83319290  0.75057923  1
  Ru4+  Ru144  1  0.88736164  0.16653657  0.00053003  1
  Ru4+  Ru145  1  0.88707401  0.16704974  0.24820838  1
  Ru4+  Ru146  1  0.88785538  0.16394303  0.49870493  1
  Ru4+  Ru147  1  0.88879875  0.16884993  0.75086586  1
  Ru4+  Ru148  1  0.88504634  0.50762609  0.00191047  1
  Ru4+  Ru149  1  0.88532540  0.49957791  0.25070024  1
  Ru4+  Ru150  1  0.88967678  0.49673053  0.50169050  1
  Ru4+  Ru151  1  0.88900488  0.49685785  0.74912443  1
  Ru4+  Ru152  1  0.88732957  0.83174846  -0.00154481  1
  Ru4+  Ru153  1  0.88972690  0.83530901  0.24671579  1
  Ru4+  Ru154  1  0.88978696  0.83204232  0.50532374  1
  Ru4+  Ru155  1  0.88995547  0.83439084  0.74812037  1
  Ru4+  Ru156  1  0.24897743  0.31786957  0.75456064  1
  Ru4+  Ru157  1  0.74953827  0.23842096  0.75430975  1
  Ru4+  Ru158  1  0.75004365  0.75801515  0.74774498  1
  Ru4+  Ru159  1  0.24950296  0.05661764  -0.03039129  1
  Ru4+  Ru160  1  0.24949418  0.28247661  0.25525182  1
  Ru4+  Ru161  1  0.25035330  0.05565785  0.71597459  1
  Ru4+  Ru162  1  0.74911428  0.09782924  -0.00058620  1
  Ru4+  Ru163  1  0.25058216  0.92106316  0.73637444  1
  Ru4+  Ru164  1  0.74975132  0.24583631  0.49878560  1
  Ru4+  Ru165  1  0.24906501  0.92443187  0.00816801  1
  Ru4+  Ru166  1  0.75050821  0.72515702  0.50569928  1
  Ru4+  Ru167  1  0.74868724  0.08967605  0.49695103  1
  Ru4+  Ru168  1  0.25018236  0.57585252  0.49719893  1
  Ru4+  Ru169  1  0.25014441  0.00730763  0.23670445  1
  Ru4+  Ru170  1  0.24960078  0.75917579  0.24457876  1
  Ru4+  Ru171  1  0.74940291  0.61529936  0.75667021  1
  Ru4+  Ru172  1  0.74989488  0.39324445  0.51100036  1
  Ru4+  Ru173  1  0.75048567  0.09333237  0.25942689  1
  Ru4+  Ru174  1  0.24941534  0.28745729  -0.03745078  1
  Ru4+  Ru175  1  0.75109600  0.93206667  0.27503025  1
  Ru4+  Ru176  1  0.75058988  0.09833954  0.74814956  1
  Ru4+  Ru177  1  0.75102960  0.90290550  0.74417362  1
  Ru4+  Ru178  1  0.74972441  0.25186830  0.00068979  1
  Ru4+  Ru179  1  0.75053653  0.90359342  -0.00373771  1
  O2-  O180  1  0.16975640  0.08223318  0.00424949  1
  O2-  O181  1  0.16473218  0.07968855  0.24635728  1
  O2-  O182  1  0.16372091  0.08440046  0.49784020  1
  O2-  O183  1  0.16515173  0.08028991  0.75157077  1
  O2-  O184  1  0.16454495  0.41278296  -0.00335784  1
  O2-  O185  1  0.16298359  0.41378127  0.25034440  1
  O2-  O186  1  0.16392387  0.41522913  0.50058430  1
  O2-  O187  1  0.16601375  0.41289283  0.75347115  1
  O2-  O188  1  0.16351155  0.74499130  -0.00144145  1
  O2-  O189  1  0.16735210  0.75110404  0.24730469  1
  O2-  O190  1  0.16580255  0.75020397  0.50058115  1
  O2-  O191  1  0.15785990  0.74459041  0.75150918  1
  O2-  O192  1  0.66551172  0.08124516  0.00218060  1
  O2-  O193  1  0.66748716  0.08006320  0.25147284  1
  O2-  O194  1  0.66406369  0.08005907  0.49706151  1
  O2-  O195  1  0.67099493  0.08482448  0.74415915  1
  O2-  O196  1  0.66384906  0.41732170  0.00058446  1
  O2-  O197  1  0.66898144  0.41532350  0.25549875  1
  O2-  O198  1  0.66607540  0.41490433  0.50038935  1
  O2-  O199  1  0.65949322  0.40557712  0.75081076  1
  O2-  O200  1  0.66239636  0.75031535  -0.00342201  1
  O2-  O201  1  0.66347287  0.74335902  0.25682920  1
  O2-  O202  1  0.66908098  0.74527602  0.49916825  1
  O2-  O203  1  0.66473561  0.74875360  0.74960715  1
  O2-  O204  1  0.33240755  0.25507986  -0.00103539  1
  O2-  O205  1  0.33315807  0.25451951  0.25056913  1
  O2-  O206  1  0.33622016  0.25202049  0.49989926  1
  O2-  O207  1  0.33680423  0.25393314  0.75221959  1
  O2-  O208  1  0.33357164  0.58388566  -0.00018086  1
  O2-  O209  1  0.33488407  0.58638913  0.25095300  1
  O2-  O210  1  0.33592231  0.58719724  0.50156994  1
  O2-  O211  1  0.33097962  0.58654396  0.74494330  1
  O2-  O212  1  0.33269491  0.92042391  0.00132220  1
  O2-  O213  1  0.33279397  0.92148205  0.24906548  1
  O2-  O214  1  0.33591929  0.91959669  0.49664189  1
  O2-  O215  1  0.33609904  0.91901308  0.74861322  1
  O2-  O216  1  0.83522221  0.25229620  -0.00009811  1
  O2-  O217  1  0.83593717  0.25165781  0.25003907  1
  O2-  O218  1  0.83192803  0.25176487  0.50138101  1
  O2-  O219  1  0.82798383  0.25299318  0.74982878  1
  O2-  O220  1  0.83222524  0.58682756  -0.00170233  1
  O2-  O221  1  0.83640431  0.58685328  0.25463350  1
  O2-  O222  1  0.83633194  0.58949705  0.49862770  1
  O2-  O223  1  0.83221756  0.58786619  0.74826861  1
  O2-  O224  1  0.83524420  0.91959824  -0.00147956  1
  O2-  O225  1  0.83428442  0.92064568  0.25157150  1
  O2-  O226  1  0.83886800  0.92364231  0.49682278  1
  O2-  O227  1  0.83195284  0.91647526  0.75142411  1
  O2-  O228  1  0.16670304  0.25183491  -0.00232643  1
  O2-  O229  1  0.16559404  0.25545975  0.24968437  1
  O2-  O230  1  0.16716544  0.25152750  0.49983978  1
  O2-  O231  1  0.16811032  0.25713373  0.75463418  1
  O2-  O232  1  0.16521937  0.58597006  -0.00001316  1
  O2-  O233  1  0.16771709  0.58740379  0.24900519  1
  O2-  O234  1  0.16519399  0.58721843  0.50248457  1
  O2-  O235  1  0.16674712  0.58355471  0.74595733  1
  O2-  O236  1  0.16376386  0.91807619  0.00134231  1
  O2-  O237  1  0.16761170  0.91955527  0.24539717  1
  O2-  O238  1  0.16739219  0.91565200  0.49558232  1
  O2-  O239  1  0.16772646  0.91725506  0.74685430  1
  O2-  O240  1  0.66540438  0.25189843  -0.00212495  1
  O2-  O241  1  0.66831894  0.25034168  0.25116748  1
  O2-  O242  1  0.66516766  0.25399046  0.50106717  1
  O2-  O243  1  0.66644383  0.25002522  0.74921689  1
  O2-  O244  1  0.66837023  0.58414483  -0.00326068  1
  O2-  O245  1  0.66280975  0.58447309  0.25540341  1
  O2-  O246  1  0.66476607  0.59183837  0.50066517  1
  O2-  O247  1  0.66634218  0.58927321  0.74747854  1
  O2-  O248  1  0.66925347  0.91747207  0.00388633  1
  O2-  O249  1  0.66945292  0.92036173  0.25023520  1
  O2-  O250  1  0.66031010  0.92431928  0.49717737  1
  O2-  O251  1  0.66995119  0.91598817  0.74712848  1
  O2-  O252  1  0.33227423  0.07829239  -0.00039865  1
  O2-  O253  1  0.33233027  0.07600081  0.25023586  1
  O2-  O254  1  0.33523352  0.08155432  0.49664324  1
  O2-  O255  1  0.33137607  0.07686300  0.75255480  1
  O2-  O256  1  0.33179942  0.41301346  -0.00145065  1
  O2-  O257  1  0.33499428  0.41467612  0.25202003  1
  O2-  O258  1  0.33365152  0.41568038  0.49964541  1
  O2-  O259  1  0.33722956  0.41275211  0.75132861  1
  O2-  O260  1  0.34160557  0.74472392  -0.00374710  1
  O2-  O261  1  0.33224891  0.74784886  0.25052537  1
  O2-  O262  1  0.33601697  0.74552792  0.50174674  1
  O2-  O263  1  0.33771465  0.74228316  0.74968199  1
  O2-  O264  1  0.83493971  0.08076302  -0.00047077  1
  O2-  O265  1  0.83137098  0.08268121  0.25236288  1
  O2-  O266  1  0.83226820  0.08245917  0.49730010  1
  O2-  O267  1  0.83458877  0.08281782  0.75005545  1
  O2-  O268  1  0.83616865  0.41587944  -0.00033711  1
  O2-  O269  1  0.83216772  0.41380919  0.25154835  1
  O2-  O270  1  0.83054978  0.41335457  0.50112012  1
  O2-  O271  1  0.83686487  0.40852412  0.75420084  1
  O2-  O272  1  0.83780942  0.74959201  -0.00057062  1
  O2-  O273  1  0.83575687  0.74254612  0.25415931  1
  O2-  O274  1  0.82989986  0.74697349  0.49776024  1
  O2-  O275  1  0.83356193  0.74912068  0.75080143  1
  O2-  O276  1  0.45521674  0.10225892  0.50410711  1
  O2-  O277  1  0.04646187  0.76316388  0.21390786  1
  O2-  O278  1  0.55154608  0.43250798  0.48067958  1
  O2-  O279  1  0.54875898  0.42313239  0.51855651  1
  O2-  O280  1  0.03108644  0.89858207  0.20058566  1
  O2-  O281  1  0.45765413  0.55163109  0.71077086  1
  O2-  O282  1  0.45416451  0.76878225  0.51851610  1
  O2-  O283  1  0.55157821  0.75778257  0.26960308  1
  O2-  O284  1  0.55058420  0.09668026  0.26777843  1
  O2-  O285  1  0.04949708  0.23567239  0.49031613  1
  O2-  O286  1  0.94922330  0.55815092  0.71358877  1
  O2-  O287  1  0.54818797  0.23671143  0.25669972  1
  O2-  O288  1  0.45685386  0.56828722  0.23837199  1
  O2-  O289  1  0.55136351  0.43145323  0.98488478  1
  O2-  O290  1  0.44736929  0.56228722  0.98467027  1
  O2-  O291  1  0.54209445  0.45590906  0.29122938  1
  O2-  O292  1  0.04430328  0.43007582  0.51021376  1
  O2-  O293  1  0.95726836  0.76677334  0.74284754  1
  O2-  O294  1  0.04195806  0.54969586  0.72823763  1
  O2-  O295  1  0.54543635  0.90844748  0.50902439  1
  O2-  O296  1  0.45150587  0.76341849  0.26941385  1
  O2-  O297  1  0.54689661  0.76628919  0.51328258  1
  O2-  O298  1  0.95187443  0.22542281  0.53265056  1
  O2-  O299  1  0.54982587  0.57033309  0.76294980  1
  O2-  O300  1  0.44825733  0.91101189  0.23627493  1
  O2-  O301  1  0.54740372  0.90319096  0.03420083  1
  O2-  O302  1  0.03018469  0.11142526  0.02997644  1
  O2-  O303  1  0.54834749  0.90147592  0.26620712  1
  O2-  O304  1  0.04535922  0.23718329  0.26227433  1
  O2-  O305  1  0.03917309  0.54678162  0.74548999  1
  O2-  O306  1  0.95365745  0.57135957  0.48425230  1
  O2-  O307  1  0.94820545  0.43614866  0.97965216  1
  O2-  O308  1  0.45402987  0.23615514  0.23893313  1
  O2-  O309  1  0.04900689  0.43128996  0.01434567  1
  O2-  O310  1  0.95023988  0.42062630  0.01507293  1
  O2-  O311  1  0.53498862  0.11675867  0.71039466  1
  O2-  O312  1  0.54459674  0.57318773  0.51696553  1
  O2-  O313  1  0.94900864  0.76016993  0.23435294  1
  O2-  O314  1  0.54597935  0.88809589  0.72440190  1
  O2-  O315  1  0.53509586  0.89512303  0.74597850  1
  O2-  O316  1  0.54087498  0.56962034  0.95545956  1
  O2-  O317  1  0.04543763  0.89098843  0.46090988  1
  O2-  O318  1  0.45030147  0.09617179  0.25848693  1
  O2-  O319  1  0.95009225  0.90052528  0.51412076  1
  O2-  O320  1  0.04989759  0.23576416  0.51112015  1
  O2-  O321  1  0.03163052  0.11619817  1.01123404  1
  O2-  O322  1  0.44706328  0.42762603  0.26851573  1
  O2-  O323  1  0.05663161  0.74346029  0.02512325  1
  O2-  O324  1  0.07143746  0.94864974  0.31321539  1
  O2-  O325  1  0.56377884  0.59744829  0.77686297  1
  O2-  O326  1  0.07363399  0.73675691  0.29473669  1
  O2-  O327  1  0.55822861  0.75013625  0.52677003  1
  O2-  O328  1  0.93347808  0.92697787  0.73088735  1
  O2-  O329  1  0.92576359  0.59906223  0.79808278  1
  O2-  O330  1  0.57665927  0.39759995  0.19432750  1
  O2-  O331  1  0.58106415  0.92062605  0.91341188  1
  O2-  O332  1  0.93863030  0.41209429  0.22370797  1
  O2-  O333  1  0.43527323  0.92923315  0.03627744  1
  O2-  O334  1  0.56706906  0.93996525  0.71479126  1
  O2-  O335  1  0.43775727  0.59502926  0.97956075  1
  O2-  O336  1  0.93410319  0.40802892  0.52395450  1
  O2-  O337  1  0.43838116  0.25247287  0.02482708  1
  O2-  O338  1  0.06169826  0.25553049  0.72044944  1
  O2-  O339  1  0.42361810  0.59886709  0.80831826  1
  O2-  O340  1  0.04797548  0.75606866  0.01837725  1
  O2-  O341  1  0.93511453  0.40718903  0.72723551  1
  O2-  O342  1  0.93309481  0.73758412  0.52100597  1
  O2-  O343  1  0.43805095  0.40282239  0.53635611  1
  O2-  O344  1  0.55970733  0.40089533  0.96850721  1
  O2-  O345  1  0.06450991  0.26650355  0.03185684  1
  O2-  O346  1  0.93540428  0.25432662  0.77427355  1
  O2-  O347  1  0.93362736  0.07292917  0.52342945  1
  O2-  O348  1  0.93828483  0.06822673  0.21544311  1
  O2-  O349  1  0.43792393  0.07266122  0.81896776  1
  O2-  O350  1  0.43771934  0.07607619  0.97321620  1
  O2-  O351  1  0.07077878  0.95312356  0.56102549  1
  O2-  O352  1  0.56762545  0.93034089  0.22054414  1
  O2-  O353  1  0.55997701  0.91689182  0.28038783  1
  O2-  O354  1  0.08461917  0.03788289  0.95140881  1
  O2-  O355  1  0.43132483  0.08393765  0.68212541  1
  O2-  O356  1  0.06073811  0.58725064  0.27485029  1
  O2-  O357  1  0.58194722  0.07284467  0.80874890  1
  O2-  O358  1  0.43894299  0.74646599  0.76806368  1
  O2-  O359  1  0.56324954  0.57443042  0.93935420  1
  O2-  O360  1  0.06420782  0.92737935  0.72265478  1
  O2-  O361  1  0.07476140  0.64557986  0.81365049  1
  O2-  O362  1  0.43608841  0.25538005  0.22147492  1
  O2-  O363  1  0.43778834  0.40531570  0.95808164  1
  O2-  O364  1  0.06375882  0.39934952  0.72083245  1
  O2-  O365  1  0.56407254  0.26089506  0.27168428  1
  O2-  O366  1  0.93920002  0.59793865  0.03699047  1
  O2-  O367  1  0.06529836  0.74290371  0.52395449  1
  O2-  O368  1  0.92537507  0.26758336  0.45374004  1
  O2-  O369  1  0.56683872  0.73927248  0.46577373  1
  O2-  O370  1  0.56153721  0.91668597  0.06309472  1
  O2-  O371  1  0.58112339  0.58190980  0.08672307  1
  O2-  O372  1  0.25064833  0.32756381  0.42608793  1
  O2-  O373  1  0.24999819  0.36319623  0.34445706  1
  O2-  O374  1  0.24983000  0.66267435  0.17410056  1
  O2-  O375  1  0.75033720  -0.00054049  0.06465447  1
  O2-  O376  1  0.75088820  0.00002830  0.93090586  1
  O2-  O377  1  0.25039251  0.33879022  0.64087035  1
  O2-  O378  1  0.75076695  0.33001560  0.09036965  1
  O2-  O379  1  0.74945182  0.32713421  0.90115162  1
  O2-  O380  1  0.24927721  0.65385604  0.08206682  1
  O2-  O381  1  0.25061045  -0.00190868  0.61060199  1
  O2-  O382  1  0.74957347  -0.00356872  0.55662975  1
  O2-  O383  1  0.74960156  0.00761230  0.18484570  1
  O2-  O384  1  0.24936804  0.34337087  0.06120275  1
  O2-  O385  1  0.74934032  0.33077933  0.39824994  1
  O2-  O386  1  0.25037795  0.00018255  0.35896420  1
  O2-  O387  1  0.74975197  0.67298627  0.64636287  1
  O2-  O388  1  0.25050586  0.66987969  0.42162654  1
  O2-  O389  1  0.75064861  -0.00094469  0.81297321  1
  O2-  O390  1  0.75166094  0.66487056  0.10623400  1
  O2-  O391  1  0.24979482  0.36164424  0.17650350  1
  O2-  O392  1  0.25005285  0.66401766  0.32835040  1
  O2-  O393  1  0.74984392  0.66652823  0.87926910  1
  O2-  O394  1  0.74990592  0.00231415  0.67970802  1
  O2-  O395  1  0.24972947  0.00419583  0.10628378  1
  O2-  O396  1  0.75022693  0.16825824  0.90188901  1
  O2-  O397  1  0.74971644  0.49769233  0.14186850  1
  O2-  O398  1  0.25027518  0.84182867  0.15298070  1
  O2-  O399  1  0.25095043  0.49961996  0.84731527  1
  O2-  O400  1  0.74961009  0.50111470  0.22316685  1
  O2-  O401  1  0.75030861  0.82603946  0.63429180  1
  O2-  O402  1  0.25033201  0.15939342  0.63620995  1
  O2-  O403  1  0.74991214  0.16758518  0.59510946  1
  O2-  O404  1  0.75056753  0.83674430  0.08538343  1
  O2-  O405  1  0.25056456  0.85286254  0.63305055  1
  O2-  O406  1  0.75087645  0.52951013  0.82603101  1
  O2-  O407  1  0.25042473  0.49687561  0.58184088  1
  O2-  O408  1  0.75041977  0.16681329  0.09598944  1
  O2-  O409  1  0.75010624  0.16442909  0.40245462  1
  O2-  O410  1  0.24978828  0.50123246  0.11488831  1
  O2-  O411  1  0.25003108  0.50563782  0.41024195  1
  O2-  O412  1  0.25141445  0.85183023  0.82996171  1
  O2-  O413  1  0.75036636  0.51110006  0.61332158  1
  O2-  O414  1  0.25020066  0.82851006  0.54857021  1
  O2-  O415  1  0.25022514  0.16731502  0.91217327  1
  O2-  O416  1  0.74982167  0.47496340  0.89221267  1
  O2-  O417  1  0.25052417  0.50490214  0.66576839  1
  O2-  O418  1  0.24904961  0.84663791  0.92022296  1
  O2-  O419  1  0.75029769  0.83865817  0.35117751  1
  O2-  O420  1  0.01648044  -0.01302657  0.86601340  1
  O2-  O421  1  0.02056619  0.66433255  0.38715446  1
  O2-  O422  1  0.47269791  -0.00447223  0.37744518  1
  O2-  O423  1  0.51843046  0.02365509  0.12493031  1
  O2-  O424  1  0.52261168  0.32864183  0.38290931  1
  O2-  O425  1  0.96607703  0.66185536  0.62771567  1
  O2-  O426  1  0.47507166  0.67667118  0.88707333  1
  O2-  O427  1  0.45236752  0.67073428  0.11638400  1
  O2-  O428  1  0.97809116  0.32164083  0.62873559  1
  O2-  O429  1  0.97126063  -0.00132336  0.37622797  1
  O2-  O430  1  0.97728081  0.32266136  0.12196707  1
  O2-  O431  1  0.97916548  0.34563956  0.37011662  1
  O2-  O432  1  0.52410699  0.65578726  0.36855733  1
  O2-  O433  1  0.97618038  0.67354083  0.88125038  1
  O2-  O434  1  0.03517087  0.66716665  0.63049267  1
  O2-  O435  1  0.53991937  0.68698614  0.13535986  1
  O2-  O436  1  0.97977356  0.00902734  0.62921637  1
  O2-  O437  1  0.54482345  0.30735217  0.10103737  1
  O2-  O438  1  0.47709549  -0.01665790  0.62098264  1
  O2-  O439  1  0.98109449  0.33986965  0.87800700  1
  O2-  O440  1  0.53204095  0.69040526  0.87569843  1
  O2-  O441  1  0.52626045  0.32782335  0.62655770  1
  O2-  O442  1  0.51284713  0.00334634  0.87469181  1
  O2-  O443  1  0.45999723  0.35685060  0.12594235  1
