# generated using pymatgen
data_La7(Ru4O11)2
_symmetry_space_group_name_H-M   'P 1'
_cell_length_a   23.98974694
_cell_length_b   16.82915535
_cell_length_c   15.42666148
_cell_angle_alpha   89.99887583
_cell_angle_beta   90.00062729
_cell_angle_gamma   89.99912772
_symmetry_Int_Tables_number   1
_chemical_formula_structural   La7(Ru4O11)2
_chemical_formula_sum   'La84 Ru96 O264'
_cell_volume   6228.16250543
_cell_formula_units_Z   12
loop_
 _symmetry_equiv_pos_site_id
 _symmetry_equiv_pos_as_xyz
  1  'x, y, z'
loop_
 _atom_type_symbol
 _atom_type_oxidation_number
  La3+  3.0
  Ru4+  4.0
  O2-  -2.0
loop_
 _atom_site_type_symbol
 _atom_site_label
 _atom_site_symmetry_multiplicity
 _atom_site_fract_x
 _atom_site_fract_y
 _atom_site_fract_z
 _atom_site_occupancy
  La3+  La0  1  0.14071862  0.00219211  0.12265674  1
  La3+  La1  1  0.13834676  0.00221152  0.37411289  1
  La3+  La2  1  0.14030069  0.00082491  0.62645310  1
  La3+  La3  1  0.14334565  -0.00056217  0.87693623  1
  La3+  La4  1  0.13847661  0.33295885  0.12744507  1
  La3+  La5  1  0.14481600  0.33527001  0.37586134  1
  La3+  La6  1  0.14081991  0.33310264  0.62338156  1
  La3+  La7  1  0.13608580  0.33234603  0.87453630  1
  La3+  La8  1  0.13710125  0.66632529  0.12488971  1
  La3+  La9  1  0.13853266  0.66547326  0.37684567  1
  La3+  La10  1  0.13845286  0.66370749  0.62187449  1
  La3+  La11  1  0.13500650  0.66941313  0.87538008  1
  La3+  La12  1  0.64013938  -0.00061526  0.12458173  1
  La3+  La13  1  0.64017429  0.00122469  0.37555178  1
  La3+  La14  1  0.63816256  0.00026612  0.62552656  1
  La3+  La15  1  0.64021031  -0.00141393  0.87440803  1
  La3+  La16  1  0.63863708  0.33394481  0.12520930  1
  La3+  La17  1  0.63796570  0.33396046  0.37559795  1
  La3+  La18  1  0.63921464  0.33268697  0.62814841  1
  La3+  La19  1  0.63777939  0.33447453  0.87130458  1
  La3+  La20  1  0.63992450  0.66584694  0.12195082  1
  La3+  La21  1  0.63686502  0.66552553  0.37592091  1
  La3+  La22  1  0.64071680  0.66561334  0.62500528  1
  La3+  La23  1  0.64062457  0.66631906  0.87581346  1
  La3+  La24  1  0.36098356  -0.00066703  0.12123647  1
  La3+  La25  1  0.36207591  0.00066027  0.37410803  1
  La3+  La26  1  0.35968453  0.00104639  0.62753124  1
  La3+  La27  1  0.35885600  -0.00047858  0.87704631  1
  La3+  La28  1  0.35999272  0.33263472  0.12723392  1
  La3+  La29  1  0.35759715  0.33458423  0.37493504  1
  La3+  La30  1  0.35992911  0.33256981  0.62325136  1
  La3+  La31  1  0.35987914  0.33060715  0.87470272  1
  La3+  La32  1  0.36320956  0.66652181  0.12586311  1
  La3+  La33  1  0.36265173  0.66668254  0.37557321  1
  La3+  La34  1  0.36348897  0.66582320  0.62262420  1
  La3+  La35  1  0.36403777  0.66740345  0.87534237  1
  La3+  La36  1  0.86069504  -0.00092476  0.12608341  1
  La3+  La37  1  0.85925493  0.00352665  0.37619122  1
  La3+  La38  1  0.86057097  -0.00032739  0.62626128  1
  La3+  La39  1  0.86182560  -0.00169542  0.87379901  1
  La3+  La40  1  0.86108161  0.33351712  0.12699175  1
  La3+  La41  1  0.86202190  0.33328340  0.37373132  1
  La3+  La42  1  0.85946251  0.33201778  0.62704531  1
  La3+  La43  1  0.86117451  0.33249739  0.87259008  1
  La3+  La44  1  0.86268930  0.66689282  0.12362967  1
  La3+  La45  1  0.86445109  0.66850503  0.37182976  1
  La3+  La46  1  0.86140090  0.66634512  0.62533418  1
  La3+  La47  1  0.85808506  0.66616507  0.87821331  1
  La3+  La48  1  0.00330457  0.82819083  0.12845098  1
  La3+  La49  1  0.50550613  0.49942603  0.62425438  1
  La3+  La50  1  0.50450881  0.50481968  0.12254996  1
  La3+  La51  1  0.00061639  0.49876259  0.88294643  1
  La3+  La52  1  0.49849916  0.16544038  0.88050420  1
  La3+  La53  1  0.50128069  0.16838246  0.38433843  1
  La3+  La54  1  -0.00026961  0.83483650  0.64174743  1
  La3+  La55  1  0.50207688  0.16309864  0.13527607  1
  La3+  La56  1  0.49896979  0.16762978  0.11407672  1
  La3+  La57  1  0.50161467  0.50012182  0.86812273  1
  La3+  La58  1  0.00292397  0.16263253  0.62108605  1
  La3+  La59  1  0.49736112  0.83714066  0.87013227  1
  La3+  La60  1  0.50024908  0.50310763  0.14223903  1
  La3+  La61  1  0.50131058  0.82932901  0.36695129  1
  La3+  La62  1  -0.00288869  0.83297069  0.37029036  1
  La3+  La63  1  -0.00277604  0.82995542  0.38663314  1
  La3+  La64  1  0.50162199  0.83048021  0.13478392  1
  La3+  La65  1  0.00235338  0.50456444  0.38436880  1
  La3+  La66  1  0.50125540  0.83292773  0.61404332  1
  La3+  La67  1  0.00275860  0.83041003  0.61997193  1
  La3+  La68  1  0.00129951  0.49945167  0.63784820  1
  La3+  La69  1  0.00339121  0.50181630  0.11388189  1
  La3+  La70  1  -0.00031741  0.50218044  0.61553219  1
  La3+  La71  1  0.00039406  0.16642407  0.11942784  1
  La3+  La72  1  0.24940532  0.80138436  0.50081840  1
  La3+  La73  1  0.24970243  0.16996109  0.28181514  1
  La3+  La74  1  0.24918074  0.49224435  0.71053314  1
  La3+  La75  1  0.25012855  0.16462424  0.77029842  1
  La3+  La76  1  0.24991873  0.16732767  0.50324896  1
  La3+  La77  1  0.75018396  0.83259202  -0.00952061  1
  La3+  La78  1  0.74992264  0.13353503  -0.00023366  1
  La3+  La79  1  0.75033094  0.87958431  0.29535573  1
  La3+  La80  1  0.74998469  0.46137340  0.74958354  1
  La3+  La81  1  0.24968001  0.54286743  -0.02993577  1
  La3+  La82  1  0.24966970  0.79999213  0.24623243  1
  La3+  La83  1  0.24995502  0.49491554  0.28750043  1
  Ru4+  Ru84  1  -0.00033875  0.00355062  -0.00597037  1
  Ru4+  Ru85  1  -0.00175942  0.00186960  0.25027600  1
  Ru4+  Ru86  1  0.00356429  0.00190285  0.49707044  1
  Ru4+  Ru87  1  -0.00234091  -0.00137299  0.75451348  1
  Ru4+  Ru88  1  -0.00022706  0.33447354  -0.00343193  1
  Ru4+  Ru89  1  0.00149947  0.32732889  0.25574632  1
  Ru4+  Ru90  1  0.00194396  0.33587224  0.49512141  1
  Ru4+  Ru91  1  -0.00050237  0.33532649  0.75329155  1
  Ru4+  Ru92  1  0.00256570  0.66875584  -0.00330419  1
  Ru4+  Ru93  1  0.00009385  0.66470469  0.25203146  1
  Ru4+  Ru94  1  -0.00269390  0.67150950  0.49756784  1
  Ru4+  Ru95  1  -0.00110536  0.66883108  0.75551417  1
  Ru4+  Ru96  1  0.50145741  0.00373224  -0.00229152  1
  Ru4+  Ru97  1  0.50273351  0.00354569  0.25015041  1
  Ru4+  Ru98  1  0.49995919  0.00092447  0.50103508  1
  Ru4+  Ru99  1  0.49970053  0.00141802  0.75147096  1
  Ru4+  Ru100  1  0.49961740  0.33105298  -0.00045172  1
  Ru4+  Ru101  1  0.50154623  0.33807865  0.25340307  1
  Ru4+  Ru102  1  0.50096918  0.33615991  0.49943565  1
  Ru4+  Ru103  1  0.49879982  0.32752352  0.74927310  1
  Ru4+  Ru104  1  0.49768546  0.66727571  0.00002698  1
  Ru4+  Ru105  1  0.50191305  0.66422178  0.25185889  1
  Ru4+  Ru106  1  0.50104477  0.67204472  0.49685050  1
  Ru4+  Ru107  1  0.50448743  0.67207509  0.75095964  1
  Ru4+  Ru108  1  0.11329487  0.16358566  0.00006787  1
  Ru4+  Ru109  1  0.11338573  0.16834096  0.25153806  1
  Ru4+  Ru110  1  0.11118629  0.16583654  0.49880272  1
  Ru4+  Ru111  1  0.11250101  0.16477243  0.74982066  1
  Ru4+  Ru112  1  0.11157589  0.49931745  -0.00030341  1
  Ru4+  Ru113  1  0.11230346  0.49926910  0.24979970  1
  Ru4+  Ru114  1  0.11631156  0.49491880  0.49940630  1
  Ru4+  Ru115  1  0.11102093  0.49926091  0.75077356  1
  Ru4+  Ru116  1  0.11306223  0.83378056  0.00008418  1
  Ru4+  Ru117  1  0.11265297  0.83426071  0.24849053  1
  Ru4+  Ru118  1  0.10918111  0.83354803  0.49968291  1
  Ru4+  Ru119  1  0.11332434  0.83487326  0.75101913  1
  Ru4+  Ru120  1  0.61082472  0.16675280  0.00048982  1
  Ru4+  Ru121  1  0.61289983  0.16779494  0.24960355  1
  Ru4+  Ru122  1  0.61377150  0.16480702  0.49943853  1
  Ru4+  Ru123  1  0.61416256  0.16797834  0.75001230  1
  Ru4+  Ru124  1  0.61388728  0.50329598  -0.00002504  1
  Ru4+  Ru125  1  0.61193885  0.49964470  0.24992454  1
  Ru4+  Ru126  1  0.61237181  0.49683212  0.49916160  1
  Ru4+  Ru127  1  0.61418586  0.50485096  0.75077445  1
  Ru4+  Ru128  1  0.61211149  0.83351123  0.00056266  1
  Ru4+  Ru129  1  0.61123237  0.83461696  0.24931475  1
  Ru4+  Ru130  1  0.61253631  0.83306176  0.49976227  1
  Ru4+  Ru131  1  0.61401507  0.83559064  0.75054957  1
  Ru4+  Ru132  1  0.38654188  0.16437763  -0.00028979  1
  Ru4+  Ru133  1  0.38584923  0.16291969  0.25003170  1
  Ru4+  Ru134  1  0.38914755  0.16696656  0.49959078  1
  Ru4+  Ru135  1  0.38798026  0.16427396  0.75074372  1
  Ru4+  Ru136  1  0.38802878  0.50127685  -0.00069503  1
  Ru4+  Ru137  1  0.38808977  0.49926693  0.24869802  1
  Ru4+  Ru138  1  0.38557496  0.49320922  0.50019332  1
  Ru4+  Ru139  1  0.38490363  0.49629371  0.75235385  1
  Ru4+  Ru140  1  0.38283459  0.83127775  -0.00029923  1
  Ru4+  Ru141  1  0.38352722  0.83137861  0.24884717  1
  Ru4+  Ru142  1  0.38923520  0.83314301  0.50017169  1
  Ru4+  Ru143  1  0.38708221  0.83560369  0.74904271  1
  Ru4+  Ru144  1  0.88970396  0.16654190  0.00045204  1
  Ru4+  Ru145  1  0.88788567  0.16798344  0.25037957  1
  Ru4+  Ru146  1  0.88517642  0.16589411  0.49975806  1
  Ru4+  Ru147  1  0.88600456  0.16836614  0.74925623  1
  Ru4+  Ru148  1  0.88593475  0.50003062  0.00004650  1
  Ru4+  Ru149  1  0.88416496  0.50316779  0.25225001  1
  Ru4+  Ru150  1  0.88689372  0.50135706  0.49925584  1
  Ru4+  Ru151  1  0.88861978  0.49928664  0.74965636  1
  Ru4+  Ru152  1  0.88929484  0.83239178  0.00134893  1
  Ru4+  Ru153  1  0.88740141  0.83606718  0.24817685  1
  Ru4+  Ru154  1  0.88564443  0.83214431  0.49849111  1
  Ru4+  Ru155  1  0.88764288  0.83654747  0.75186012  1
  Ru4+  Ru156  1  0.75014881  0.75262025  0.50353047  1
  Ru4+  Ru157  1  0.74957247  0.41538081  0.24819345  1
  Ru4+  Ru158  1  0.75010469  0.08633445  0.75820110  1
  Ru4+  Ru159  1  0.74980706  0.24125993  0.50507848  1
  Ru4+  Ru160  1  0.24959073  0.57850085  0.49716298  1
  Ru4+  Ru161  1  0.75022999  0.60775492  0.75741154  1
  Ru4+  Ru162  1  0.74992350  0.74449597  0.74774180  1
  Ru4+  Ru163  1  0.75011338  0.42052584  0.50223053  1
  Ru4+  Ru164  1  0.25005895  0.39912134  0.00265362  1
  Ru4+  Ru165  1  0.24983611  0.75957588  0.75241080  1
  Ru4+  Ru166  1  0.24976614  0.61823958  0.75566386  1
  Ru4+  Ru167  1  0.74993806  0.09109129  0.24804218  1
  Ru4+  Ru168  1  0.75008192  0.42143864  -0.00475219  1
  Ru4+  Ru169  1  0.74998327  0.24422273  0.25074093  1
  Ru4+  Ru170  1  0.24981456  0.94231401  0.49678863  1
  Ru4+  Ru171  1  0.75011178  0.91971980  0.50023726  1
  Ru4+  Ru172  1  0.74933336  0.57721858  0.24292959  1
  Ru4+  Ru173  1  0.24998998  0.36791379  0.76592977  1
  Ru4+  Ru174  1  0.24967106  0.93507019  0.25317910  1
  Ru4+  Ru175  1  0.74947607  0.73342974  0.24510259  1
  Ru4+  Ru176  1  0.25007530  0.24737687  -0.00398847  1
  Ru4+  Ru177  1  0.24975290  0.76251547  -0.00252452  1
  Ru4+  Ru178  1  0.75002152  0.57589248  0.50925036  1
  Ru4+  Ru179  1  0.74985303  0.27480691  -0.00678600  1
  O2-  O180  1  0.16488549  0.08292241  -0.00066055  1
  O2-  O181  1  0.16738602  0.08231500  0.25109093  1
  O2-  O182  1  0.16693943  0.08089397  0.49859235  1
  O2-  O183  1  0.16614425  0.08058738  0.75024608  1
  O2-  O184  1  0.16735663  0.41307991  0.00032103  1
  O2-  O185  1  0.16613743  0.41526126  0.24839612  1
  O2-  O186  1  0.16602416  0.41446651  0.50016765  1
  O2-  O187  1  0.16731795  0.41225943  0.75129216  1
  O2-  O188  1  0.16883861  0.74601898  0.00081002  1
  O2-  O189  1  0.16626556  0.74555664  0.25035454  1
  O2-  O190  1  0.16658726  0.74564166  0.49998354  1
  O2-  O191  1  0.16863291  0.74783776  0.75055545  1
  O2-  O192  1  0.66677155  0.07916779  -0.00159472  1
  O2-  O193  1  0.66904533  0.08053048  0.25126513  1
  O2-  O194  1  0.66507376  0.08109296  0.50013678  1
  O2-  O195  1  0.66624335  0.08168569  0.74841241  1
  O2-  O196  1  0.66726851  0.41505198  0.00000098  1
  O2-  O197  1  0.66812147  0.41278854  0.24928038  1
  O2-  O198  1  0.66649785  0.41443867  0.49934347  1
  O2-  O199  1  0.66332968  0.41220019  0.75043723  1
  O2-  O200  1  0.66632057  0.74742927  0.00191087  1
  O2-  O201  1  0.66558660  0.74609465  0.25100939  1
  O2-  O202  1  0.66611212  0.74798842  0.49921014  1
  O2-  O203  1  0.66779711  0.74778600  0.74978008  1
  O2-  O204  1  0.33406479  0.25305787  0.00157907  1
  O2-  O205  1  0.33276443  0.25355184  0.24879812  1
  O2-  O206  1  0.33222089  0.25263206  0.50065502  1
  O2-  O207  1  0.33275058  0.25237327  0.74865136  1
  O2-  O208  1  0.33389609  0.58844324  0.00064386  1
  O2-  O209  1  0.33257515  0.58784719  0.24961143  1
  O2-  O210  1  0.33318210  0.58601418  0.50092546  1
  O2-  O211  1  0.33484643  0.58800679  0.74955749  1
  O2-  O212  1  0.33450504  0.91768209  0.00059575  1
  O2-  O213  1  0.33369181  0.92126127  0.25016603  1
  O2-  O214  1  0.33393404  0.92027071  0.49982261  1
  O2-  O215  1  0.33377500  0.91865377  0.74811249  1
  O2-  O216  1  0.83371718  0.25330767  -0.00075933  1
  O2-  O217  1  0.83033323  0.25172132  0.24940002  1
  O2-  O218  1  0.83205406  0.25149281  0.49960019  1
  O2-  O219  1  0.83476375  0.25144498  0.75081044  1
  O2-  O220  1  0.83486887  0.58402607  0.00066107  1
  O2-  O221  1  0.83206823  0.58625263  0.24899318  1
  O2-  O222  1  0.83347847  0.58633098  0.50030308  1
  O2-  O223  1  0.83150227  0.58795132  0.75043230  1
  O2-  O224  1  0.83404385  0.91934183  -0.00129839  1
  O2-  O225  1  0.83344070  0.92004290  0.24845167  1
  O2-  O226  1  0.83308138  0.91936143  0.50133557  1
  O2-  O227  1  0.83189304  0.91932890  0.74919738  1
  O2-  O228  1  0.16576517  0.25321030  0.00038295  1
  O2-  O229  1  0.16780467  0.25046697  0.24860019  1
  O2-  O230  1  0.16959024  0.25209291  0.50010594  1
  O2-  O231  1  0.16809363  0.25318729  0.75170852  1
  O2-  O232  1  0.16508397  0.58935615  0.00176611  1
  O2-  O233  1  0.16789899  0.58788634  0.24991948  1
  O2-  O234  1  0.16757164  0.58609513  0.49929285  1
  O2-  O235  1  0.16653552  0.58775514  0.75022887  1
  O2-  O236  1  0.16347130  0.91677196  -0.00031197  1
  O2-  O237  1  0.16728743  0.91976741  0.25116993  1
  O2-  O238  1  0.16725710  0.92097434  0.49877609  1
  O2-  O239  1  0.16573552  0.91801415  0.74898738  1
  O2-  O240  1  0.66635046  0.25421427  -0.00079399  1
  O2-  O241  1  0.66814963  0.25275300  0.25031317  1
  O2-  O242  1  0.66726793  0.25335069  0.49847122  1
  O2-  O243  1  0.66739724  0.25149522  0.75119510  1
  O2-  O244  1  0.66729712  0.58446173  0.00190468  1
  O2-  O245  1  0.66704698  0.58672076  0.24989645  1
  O2-  O246  1  0.66701159  0.58508931  0.49881026  1
  O2-  O247  1  0.66842640  0.58579778  0.74942943  1
  O2-  O248  1  0.66611641  0.91941079  -0.00145882  1
  O2-  O249  1  0.66616745  0.92096835  0.25032444  1
  O2-  O250  1  0.66650032  0.91938214  0.50077084  1
  O2-  O251  1  0.66632783  0.91794023  0.74847654  1
  O2-  O252  1  0.33366924  0.08232295  0.00141498  1
  O2-  O253  1  0.33291728  0.08040759  0.25083899  1
  O2-  O254  1  0.33320141  0.08087536  0.49861296  1
  O2-  O255  1  0.33266052  0.08157273  0.74890691  1
  O2-  O256  1  0.33283910  0.41345324  0.00074967  1
  O2-  O257  1  0.33401749  0.41379061  0.24864250  1
  O2-  O258  1  0.33441998  0.41487619  0.50048495  1
  O2-  O259  1  0.33245685  0.41269998  0.74905883  1
  O2-  O260  1  0.33302140  0.74612373  -0.00026841  1
  O2-  O261  1  0.33200562  0.74514664  0.24986554  1
  O2-  O262  1  0.33261429  0.74568633  0.50241670  1
  O2-  O263  1  0.33306190  0.74664475  0.74957272  1
  O2-  O264  1  0.83414077  0.07918578  -0.00124056  1
  O2-  O265  1  0.83141218  0.08243627  0.24999767  1
  O2-  O266  1  0.83290023  0.08303764  0.50051486  1
  O2-  O267  1  0.83264892  0.08087764  0.74905177  1
  O2-  O268  1  0.83086610  0.41449326  -0.00093789  1
  O2-  O269  1  0.83078181  0.41423524  0.24742729  1
  O2-  O270  1  0.83277564  0.41356847  0.50078142  1
  O2-  O271  1  0.83718807  0.41143054  0.75185480  1
  O2-  O272  1  0.83371506  0.74717287  0.00105588  1
  O2-  O273  1  0.83222041  0.74632000  0.25157245  1
  O2-  O274  1  0.83283098  0.74741886  0.49987452  1
  O2-  O275  1  0.83357452  0.74689798  0.74985600  1
  O2-  O276  1  0.04809893  0.56715162  0.98760467  1
  O2-  O277  1  0.45213242  0.57174159  0.52198135  1
  O2-  O278  1  0.95383109  0.43217263  0.48766167  1
  O2-  O279  1  0.96128908  0.77755609  0.25715146  1
  O2-  O280  1  0.94775279  0.91156549  0.76847567  1
  O2-  O281  1  0.54549243  0.56133811  0.47395881  1
  O2-  O282  1  0.45092893  0.42930228  0.51737430  1
  O2-  O283  1  0.04098474  0.89653563  0.28498509  1
  O2-  O284  1  0.04006679  0.22290708  0.77427396  1
  O2-  O285  1  0.95674959  0.76900075  0.27226564  1
  O2-  O286  1  0.44667718  0.75288373  0.27379661  1
  O2-  O287  1  0.94459528  0.90956827  0.19955489  1
  O2-  O288  1  0.46055316  0.22542931  0.71847105  1
  O2-  O289  1  0.45086938  0.90063272  0.23180506  1
  O2-  O290  1  0.04492778  0.56618983  0.23654423  1
  O2-  O291  1  0.95467719  0.90186824  0.51260970  1
  O2-  O292  1  0.95133588  0.56817218  0.01169234  1
  O2-  O293  1  0.45130935  0.56938875  0.76698870  1
  O2-  O294  1  0.03428631  0.21908635  0.25779141  1
  O2-  O295  1  0.54869996  0.42946295  0.48671925  1
  O2-  O296  1  0.45559008  0.57508113  0.72874863  1
  O2-  O297  1  0.45445701  0.90016857  0.02041228  1
  O2-  O298  1  0.45595726  0.23478304  0.25119742  1
  O2-  O299  1  0.45594923  0.23258764  0.24989052  1
  O2-  O300  1  0.95802666  0.22869452  0.52660526  1
  O2-  O301  1  0.45119988  0.57000014  0.48296760  1
  O2-  O302  1  0.05143897  0.76065847  0.26183119  1
  O2-  O303  1  0.04858165  0.09658515  0.01381586  1
  O2-  O304  1  0.05482990  0.75777553  0.79332615  1
  O2-  O305  1  0.45492862  0.09335293  0.48615444  1
  O2-  O306  1  0.54450150  0.90501514  0.48645348  1
  O2-  O307  1  0.95039183  0.09767173  0.01480760  1
  O2-  O308  1  0.05703502  0.08884399  0.22369337  1
  O2-  O309  1  0.04783900  0.56951397  0.51395598  1
  O2-  O310  1  0.95660018  0.10630338  0.47281580  1
  O2-  O311  1  0.54493947  0.76337172  0.48921030  1
  O2-  O312  1  0.45366050  0.89937661  0.98095031  1
  O2-  O313  1  0.95345668  0.76641765  0.01263859  1
  O2-  O314  1  0.45934883  0.43553244  0.71874181  1
  O2-  O315  1  0.54522772  0.76551845  0.01339497  1
  O2-  O316  1  0.45459284  0.23670123  0.48821596  1
  O2-  O317  1  0.95979271  0.43959746  0.24027142  1
  O2-  O318  1  0.95981057  0.43953929  0.24074207  1
  O2-  O319  1  0.55098939  0.43350807  0.76467097  1
  O2-  O320  1  0.45405216  0.90521815  0.27067092  1
  O2-  O321  1  0.54886707  0.76058775  0.79278956  1
  O2-  O322  1  0.46113321  0.44166462  0.03074277  1
  O2-  O323  1  0.04860301  0.09837740  0.48589829  1
  O2-  O324  1  0.06363606  0.59252667  0.71813670  1
  O2-  O325  1  0.92219033  0.39451699  0.29181074  1
  O2-  O326  1  0.56286695  0.26003707  0.80993013  1
  O2-  O327  1  0.56305139  0.93115298  0.78229150  1
  O2-  O328  1  0.92821227  0.06657510  0.53885564  1
  O2-  O329  1  0.07428016  0.28095543  0.28885370  1
  O2-  O330  1  0.05291259  0.08093468  0.22383606  1
  O2-  O331  1  0.56289415  0.06964813  0.03156302  1
  O2-  O332  1  0.44544888  0.75002409  0.27466517  1
  O2-  O333  1  0.43443962  0.59374747  0.02787267  1
  O2-  O334  1  0.93585149  0.40299893  0.93641701  1
  O2-  O335  1  0.56310377  0.59576409  0.93701880  1
  O2-  O336  1  0.06219498  0.59352821  0.53288647  1
  O2-  O337  1  0.56020065  0.40343772  0.78090479  1
  O2-  O338  1  0.56522140  0.26119272  0.69913648  1
  O2-  O339  1  0.93572319  0.59490711  0.28559945  1
  O2-  O340  1  0.56767292  0.60555280  0.54538946  1
  O2-  O341  1  0.56314925  0.07311862  0.21847603  1
  O2-  O342  1  0.93587961  0.40181183  0.06395505  1
  O2-  O343  1  0.06671859  0.25687627  0.54516882  1
  O2-  O344  1  0.92489415  0.93163473  0.32538899  1
  O2-  O345  1  0.06655745  0.74028851  0.97384514  1
  O2-  O346  1  0.43084899  0.39633430  0.79924165  1
  O2-  O347  1  0.07270250  0.94099772  0.19295831  1
  O2-  O348  1  0.56478715  0.59334007  0.78331667  1
  O2-  O349  1  0.93562214  0.07232793  0.21663355  1
  O2-  O350  1  0.07064105  0.73018095  0.66799061  1
  O2-  O351  1  0.92708084  0.26834360  0.45934224  1
  O2-  O352  1  0.06607193  0.40705414  0.97299684  1
  O2-  O353  1  0.04795125  0.76406921  0.78993398  1
  O2-  O354  1  0.93578442  0.73576801  0.46628767  1
  O2-  O355  1  0.43149057  0.26585710  0.79879813  1
  O2-  O356  1  0.91643794  0.71887136  0.20041967  1
  O2-  O357  1  0.56353749  0.92653996  0.21638836  1
  O2-  O358  1  0.07028743  0.26316519  0.70996810  1
  O2-  O359  1  0.93546234  0.59353565  0.72313872  1
  O2-  O360  1  0.43540101  0.07440680  0.97208086  1
  O2-  O361  1  0.43660780  0.73660360  0.46837326  1
  O2-  O362  1  0.55402379  0.75334648  0.79794635  1
  O2-  O363  1  0.06474783  0.26248550  0.44822919  1
  O2-  O364  1  0.42830520  0.38616580  0.94326199  1
  O2-  O365  1  0.56790546  0.72456245  0.66867029  1
  O2-  O366  1  0.43563088  0.07265016  0.77565317  1
  O2-  O367  1  0.56448831  0.59797742  0.06476195  1
  O2-  O368  1  0.94288027  0.91487229  0.77282290  1
  O2-  O369  1  0.06555228  0.40865813  0.77875706  1
  O2-  O370  1  0.94990324  0.91656514  0.20007465  1
  O2-  O371  1  0.93219861  0.25650246  0.27603399  1
  O2-  O372  1  0.25026636  0.00076398  0.59707438  1
  O2-  O373  1  0.75005282  0.00224777  0.08075797  1
  O2-  O374  1  0.75005178  0.33316705  0.57884401  1
  O2-  O375  1  0.25032235  0.00983338  0.16556131  1
  O2-  O376  1  0.75047469  0.66953808  0.89391654  1
  O2-  O377  1  0.25005301  0.33078968  0.89918213  1
  O2-  O378  1  0.25016813  0.66777385  0.40722596  1
  O2-  O379  1  0.25027626  0.33043369  0.34456118  1
  O2-  O380  1  0.75016085  0.66644300  0.59560289  1
  O2-  O381  1  0.25014627  0.67514277  0.86180981  1
  O2-  O382  1  0.75013583  0.66140707  0.14729695  1
  O2-  O383  1  0.75005806  -0.00121620  0.17210990  1
  O2-  O384  1  0.25002769  0.00554141  0.35205152  1
  O2-  O385  1  0.25026039  0.32850924  0.10112983  1
  O2-  O386  1  0.25053278  0.67407156  0.64308890  1
  O2-  O387  1  0.74992514  0.00279151  0.84171632  1
  O2-  O388  1  0.75029757  0.33299666  0.67210262  1
  O2-  O389  1  0.75020705  0.33875022  0.10019453  1
  O2-  O390  1  0.24979714  0.00134570  0.90278991  1
  O2-  O391  1  0.75003646  0.66490988  0.43202689  1
  O2-  O392  1  0.74941345  -0.00173877  0.40488438  1
  O2-  O393  1  0.25042781  0.33197838  0.64988806  1
  O2-  O394  1  0.74996880  0.65749195  0.32757330  1
  O2-  O395  1  0.25009769  -0.00120316  0.07828801  1
  O2-  O396  1  0.74991877  0.16985260  0.58658791  1
  O2-  O397  1  0.75006997  0.49780186  0.32331533  1
  O2-  O398  1  0.75023598  0.82660197  0.18319888  1
  O2-  O399  1  0.75006118  0.83511227  0.58165655  1
  O2-  O400  1  0.75007830  0.16505946  0.83970754  1
  O2-  O401  1  0.75004862  0.50128542  0.88049867  1
  O2-  O402  1  0.25006992  0.48977518  0.08232082  1
  O2-  O403  1  0.24993387  0.50197596  0.16507486  1
  O2-  O404  1  0.25008562  0.50339827  0.58028383  1
  O2-  O405  1  0.74982462  0.83727018  0.10589415  1
  O2-  O406  1  0.74983220  0.83187992  0.87489014  1
  O2-  O407  1  0.25023202  0.49482930  0.85011170  1
  O2-  O408  1  0.75007684  0.84408388  0.79715051  1
  O2-  O409  1  0.25000187  0.82796217  0.09217299  1
  O2-  O410  1  0.24997475  0.16879907  0.91346286  1
  O2-  O411  1  0.74998904  0.83561406  0.66941068  1
  O2-  O412  1  0.25001025  0.82690664  0.90922096  1
  O2-  O413  1  0.25007014  0.50234567  0.41848916  1
  O2-  O414  1  0.25006273  0.16844826  0.15314426  1
  O2-  O415  1  0.74989779  0.82956394  0.41636801  1
  O2-  O416  1  0.25013191  0.16032360  0.06753486  1
  O2-  O417  1  0.74990701  0.50021643  0.42342945  1
  O2-  O418  1  0.75006172  0.50815758  0.61942453  1
  O2-  O419  1  0.24996041  0.16614182  0.63498762  1
  O2-  O420  1  0.95714950  0.33383345  0.62965838  1
  O2-  O421  1  0.03870865  0.66913653  0.12125159  1
  O2-  O422  1  0.98111318  0.33746846  0.37657492  1
  O2-  O423  1  0.47465222  0.66992002  0.12896042  1
  O2-  O424  1  0.47862210  -0.00600827  0.87415267  1
  O2-  O425  1  0.03454450  0.34887821  0.62431293  1
  O2-  O426  1  0.04284014  0.00001499  0.62474696  1
  O2-  O427  1  0.02257070  0.32662319  0.87695352  1
  O2-  O428  1  0.52932898  0.66712333  0.36836294  1
  O2-  O429  1  0.97453381  0.00321200  0.87926086  1
  O2-  O430  1  0.02851917  0.33270347  0.12618095  1
  O2-  O431  1  0.46142300  0.33590292  0.37425817  1
  O2-  O432  1  0.52717182  -0.00056745  0.62668822  1
  O2-  O433  1  0.97777138  0.00533645  0.38216357  1
  O2-  O434  1  0.02804256  0.66566457  0.37682192  1
  O2-  O435  1  0.96623643  0.65955432  0.12254426  1
  O2-  O436  1  0.97332128  0.67229417  0.62107332  1
  O2-  O437  1  0.52532564  0.33818504  0.61628820  1
  O2-  O438  1  0.02131678  0.65376393  0.87641957  1
  O2-  O439  1  0.47248804  0.00332968  0.12467075  1
  O2-  O440  1  0.52868753  0.33211208  0.12612705  1
  O2-  O441  1  0.96166154  -0.00417186  0.63438803  1
  O2-  O442  1  0.53883546  0.32956101  0.37226128  1
  O2-  O443  1  0.47012966  0.66792618  0.87714125  1
