# generated using pymatgen
data_La7(Ru4O11)2
_symmetry_space_group_name_H-M   'P 1'
_cell_length_a   23.99380635
_cell_length_b   16.83472597
_cell_length_c   15.43193725
_cell_angle_alpha   89.99695321
_cell_angle_beta   89.99968984
_cell_angle_gamma   89.99690271
_symmetry_Int_Tables_number   1
_chemical_formula_structural   La7(Ru4O11)2
_chemical_formula_sum   'La84 Ru96 O264'
_cell_volume   6233.40935369
_cell_formula_units_Z   12
loop_
 _symmetry_equiv_pos_site_id
 _symmetry_equiv_pos_as_xyz
  1  'x, y, z'
loop_
 _atom_type_symbol
 _atom_type_oxidation_number
  La3+  3.0
  Ru4+  4.0
  O2-  -2.0
loop_
 _atom_site_type_symbol
 _atom_site_label
 _atom_site_symmetry_multiplicity
 _atom_site_fract_x
 _atom_site_fract_y
 _atom_site_fract_z
 _atom_site_occupancy
  La3+  La0  1  0.15259066  0.00837582  0.13385545  1
  La3+  La1  1  0.14869752  0.00256792  0.37999820  1
  La3+  La2  1  0.14568028  0.00448631  0.61985513  1
  La3+  La3  1  0.13734712  0.00411991  0.88133058  1
  La3+  La4  1  0.14691573  0.32676208  0.13073084  1
  La3+  La5  1  0.14383377  0.33006804  0.36726579  1
  La3+  La6  1  0.14053976  0.32782377  0.62729804  1
  La3+  La7  1  0.14034358  0.32440371  0.88070192  1
  La3+  La8  1  0.14853225  0.66724294  0.13039635  1
  La3+  La9  1  0.14425631  0.67269136  0.37129286  1
  La3+  La10  1  0.13637691  0.67153606  0.63138506  1
  La3+  La11  1  0.13888566  0.66478994  0.87645579  1
  La3+  La12  1  0.64315960  -0.00585898  0.12655507  1
  La3+  La13  1  0.64179483  -0.00420101  0.37188252  1
  La3+  La14  1  0.63353452  -0.00144500  0.62783458  1
  La3+  La15  1  0.63998917  0.00707974  0.87226563  1
  La3+  La16  1  0.64702192  0.33723114  0.12696079  1
  La3+  La17  1  0.63617602  0.32797385  0.37486187  1
  La3+  La18  1  0.63945434  0.33607059  0.63229119  1
  La3+  La19  1  0.63872766  0.32544294  0.88123597  1
  La3+  La20  1  0.63412606  0.67455105  0.12858695  1
  La3+  La21  1  0.63308611  0.67430325  0.37141327  1
  La3+  La22  1  0.63562672  0.66768753  0.62995636  1
  La3+  La23  1  0.62970861  0.66411325  0.87091016  1
  La3+  La24  1  0.35107141  -0.00184079  0.12758898  1
  La3+  La25  1  0.34578260  -0.00076600  0.37773368  1
  La3+  La26  1  0.35785551  0.00079029  0.62350745  1
  La3+  La27  1  0.35571761  0.01501919  0.87717816  1
  La3+  La28  1  0.36360650  0.33129949  0.12608863  1
  La3+  La29  1  0.36256662  0.33173131  0.36860947  1
  La3+  La30  1  0.35776639  0.33267352  0.62723135  1
  La3+  La31  1  0.37608241  0.32047235  0.89344273  1
  La3+  La32  1  0.35724254  0.66843434  0.13041281  1
  La3+  La33  1  0.35662720  0.67164491  0.37027058  1
  La3+  La34  1  0.36482952  0.67460508  0.63453968  1
  La3+  La35  1  0.35600024  0.66598831  0.87670617  1
  La3+  La36  1  0.85687851  -0.00364757  0.12149314  1
  La3+  La37  1  0.85969309  -0.00177163  0.37205906  1
  La3+  La38  1  0.86426792  -0.00050836  0.62837795  1
  La3+  La39  1  0.86189630  0.00025907  0.87715874  1
  La3+  La40  1  0.85729383  0.32485049  0.12106671  1
  La3+  La41  1  0.86574529  0.32635255  0.37412157  1
  La3+  La42  1  0.86141822  0.33677410  0.62738467  1
  La3+  La43  1  0.86897330  0.32924891  0.87350840  1
  La3+  La44  1  0.86901588  0.66625651  0.13042342  1
  La3+  La45  1  0.86679256  0.66837537  0.37033952  1
  La3+  La46  1  0.86776445  0.66626374  0.62505748  1
  La3+  La47  1  0.85856463  0.66405034  0.87668799  1
  La3+  La48  1  0.00012945  0.83660948  0.38505583  1
  La3+  La49  1  0.00125975  0.84153474  0.13377463  1
  La3+  La50  1  0.49849227  0.83798893  0.86062925  1
  La3+  La51  1  0.49864946  0.49766653  0.36038419  1
  La3+  La52  1  -0.01268650  0.82786208  0.85799368  1
  La3+  La53  1  -0.00612706  0.83095651  0.11818951  1
  La3+  La54  1  -0.00585222  0.49524715  0.13364955  1
  La3+  La55  1  0.49636541  0.50061117  0.61870137  1
  La3+  La56  1  0.00125591  0.49836985  0.85711681  1
  La3+  La57  1  -0.00233041  0.17096381  0.87814931  1
  La3+  La58  1  -0.00047787  0.51195457  0.38947738  1
  La3+  La59  1  0.50893745  0.15132333  0.37658074  1
  La3+  La60  1  -0.00275383  0.17486395  0.38156660  1
  La3+  La61  1  0.49880421  0.83605180  0.88346556  1
  La3+  La62  1  0.00081072  0.16435911  0.11566562  1
  La3+  La63  1  -0.00027378  0.16414431  0.63965921  1
  La3+  La64  1  0.00129696  0.50181440  0.87918783  1
  La3+  La65  1  0.00927026  0.83863038  0.60346595  1
  La3+  La66  1  0.49700909  0.18085199  0.11330285  1
  La3+  La67  1  0.49389764  0.17706413  0.09752341  1
  La3+  La68  1  -0.00627694  0.82879894  0.87158096  1
  La3+  La69  1  0.00032863  0.17548487  0.13480945  1
  La3+  La70  1  0.50522449  0.17994904  0.64106178  1
  La3+  La71  1  0.49917227  0.49890002  0.12612028  1
  La3+  La72  1  0.24971221  0.42564339  0.03127718  1
  La3+  La73  1  0.75002608  0.51079804  0.77232929  1
  La3+  La74  1  0.74950188  0.57301999  -0.01089051  1
  La3+  La75  1  0.75255732  0.52276983  0.44557925  1
  La3+  La76  1  0.24939074  0.51948143  0.70052828  1
  La3+  La77  1  0.25092342  0.52844212  0.43371747  1
  La3+  La78  1  0.74946355  0.87269503  -0.01885272  1
  La3+  La79  1  0.75044132  0.52477554  0.20194537  1
  La3+  La80  1  0.25235389  0.80048332  -0.02656489  1
  La3+  La81  1  0.74888218  0.20512023  0.54172814  1
  La3+  La82  1  0.24971183  0.48732193  0.25635936  1
  La3+  La83  1  0.74979825  0.87701747  0.78711682  1
  Ru4+  Ru84  1  0.00889962  -0.00597405  0.00187725  1
  Ru4+  Ru85  1  -0.00057989  -0.00397694  0.26190840  1
  Ru4+  Ru86  1  -0.00449587  -0.00098541  0.50602937  1
  Ru4+  Ru87  1  0.00124266  -0.00664839  0.74906567  1
  Ru4+  Ru88  1  0.00523516  0.34281006  0.00347021  1
  Ru4+  Ru89  1  -0.00400634  0.34592659  0.26272446  1
  Ru4+  Ru90  1  0.00007286  0.34094250  0.48386598  1
  Ru4+  Ru91  1  -0.00000626  0.33483122  0.75463096  1
  Ru4+  Ru92  1  0.00420087  0.66429278  0.01029504  1
  Ru4+  Ru93  1  0.00541564  0.67040330  0.25153120  1
  Ru4+  Ru94  1  0.00063625  0.66257777  0.51226434  1
  Ru4+  Ru95  1  -0.00171537  0.66983562  0.75171464  1
  Ru4+  Ru96  1  0.48488438  -0.00022586  0.00279806  1
  Ru4+  Ru97  1  0.50290836  -0.00397276  0.26347484  1
  Ru4+  Ru98  1  0.50151697  0.00393819  0.49834624  1
  Ru4+  Ru99  1  0.49603708  -0.00189040  0.74432267  1
  Ru4+  Ru100  1  0.50832995  0.32935646  -0.01147980  1
  Ru4+  Ru101  1  0.50321523  0.32596109  0.25385567  1
  Ru4+  Ru102  1  0.49321624  0.32503175  0.50771388  1
  Ru4+  Ru103  1  0.50119024  0.34855581  0.74656263  1
  Ru4+  Ru104  1  0.50969150  0.65575191  0.00416660  1
  Ru4+  Ru105  1  0.49997116  0.67371914  0.24898095  1
  Ru4+  Ru106  1  0.50084534  0.66519394  0.49180042  1
  Ru4+  Ru107  1  0.50107399  0.66989791  0.74593801  1
  Ru4+  Ru108  1  0.11916967  0.16675540  -0.00489720  1
  Ru4+  Ru109  1  0.11548576  0.16404176  0.25686631  1
  Ru4+  Ru110  1  0.11503848  0.17180166  0.50070179  1
  Ru4+  Ru111  1  0.11670945  0.16429886  0.74944459  1
  Ru4+  Ru112  1  0.10349889  0.50131970  -0.00291299  1
  Ru4+  Ru113  1  0.10988599  0.50464752  0.25109677  1
  Ru4+  Ru114  1  0.10894168  0.49988232  0.50301196  1
  Ru4+  Ru115  1  0.10888400  0.49550974  0.75457535  1
  Ru4+  Ru116  1  0.11327798  0.82947175  0.00060003  1
  Ru4+  Ru117  1  0.11379701  0.83163123  0.25098938  1
  Ru4+  Ru118  1  0.11321975  0.83547090  0.49508237  1
  Ru4+  Ru119  1  0.11418044  0.83182402  0.74600327  1
  Ru4+  Ru120  1  0.60652937  0.17351209  0.00014558  1
  Ru4+  Ru121  1  0.61086452  0.16821777  0.25205441  1
  Ru4+  Ru122  1  0.60885153  0.16236634  0.50000426  1
  Ru4+  Ru123  1  0.61390498  0.15815803  0.75113534  1
  Ru4+  Ru124  1  0.60470247  0.50734836  -0.00050750  1
  Ru4+  Ru125  1  0.61159115  0.49703096  0.25498690  1
  Ru4+  Ru126  1  0.60966897  0.50247326  0.49926626  1
  Ru4+  Ru127  1  0.60552181  0.49255185  0.75502146  1
  Ru4+  Ru128  1  0.60936668  0.83477604  0.00281655  1
  Ru4+  Ru129  1  0.61268605  0.83356879  0.24564424  1
  Ru4+  Ru130  1  0.60895589  0.83799920  0.50335211  1
  Ru4+  Ru131  1  0.60890028  0.83418011  0.74442460  1
  Ru4+  Ru132  1  0.38594318  0.16790456  -0.00429834  1
  Ru4+  Ru133  1  0.38688548  0.16487577  0.24595701  1
  Ru4+  Ru134  1  0.39453591  0.16131469  0.49824088  1
  Ru4+  Ru135  1  0.38822633  0.17108455  0.75468150  1
  Ru4+  Ru136  1  0.38790201  0.50485474  0.00001494  1
  Ru4+  Ru137  1  0.38455702  0.50582793  0.25054710  1
  Ru4+  Ru138  1  0.39031958  0.49944423  0.50008187  1
  Ru4+  Ru139  1  0.38987292  0.49836996  0.75798316  1
  Ru4+  Ru140  1  0.39584005  0.84391862  0.01255785  1
  Ru4+  Ru141  1  0.39044318  0.82841790  0.24873692  1
  Ru4+  Ru142  1  0.38689597  0.83498450  0.49994201  1
  Ru4+  Ru143  1  0.39325682  0.83521751  0.74406492  1
  Ru4+  Ru144  1  0.88221160  0.15712466  -0.00155077  1
  Ru4+  Ru145  1  0.88336712  0.16979587  0.25374126  1
  Ru4+  Ru146  1  0.89013112  0.16461201  0.50031524  1
  Ru4+  Ru147  1  0.88542436  0.16402204  0.75003504  1
  Ru4+  Ru148  1  0.89008734  0.49653435  0.00007871  1
  Ru4+  Ru149  1  0.88852685  0.49041732  0.24780404  1
  Ru4+  Ru150  1  0.89107828  0.49820709  0.50650241  1
  Ru4+  Ru151  1  0.89049690  0.50095217  0.75285453  1
  Ru4+  Ru152  1  0.88058070  0.82468557  -0.00385455  1
  Ru4+  Ru153  1  0.88818265  0.83371071  0.25084780  1
  Ru4+  Ru154  1  0.88653758  0.83361520  0.50175558  1
  Ru4+  Ru155  1  0.89056986  0.82941060  0.75132794  1
  Ru4+  Ru156  1  0.74704811  0.09003779  0.00425421  1
  Ru4+  Ru157  1  0.25101013  0.22387498  0.49167311  1
  Ru4+  Ru158  1  0.25032656  0.77296660  0.50067448  1
  Ru4+  Ru159  1  0.24928500  0.60188899  0.02117777  1
  Ru4+  Ru160  1  0.75022118  0.91751219  0.50258836  1
  Ru4+  Ru161  1  0.74912465  0.24547728  0.75523009  1
  Ru4+  Ru162  1  0.24949051  0.91623494  0.71949589  1
  Ru4+  Ru163  1  0.74942193  0.75526472  0.47908308  1
  Ru4+  Ru164  1  0.75219831  0.37208300  0.28376646  1
  Ru4+  Ru165  1  0.74707327  0.72828828  0.01362405  1
  Ru4+  Ru166  1  0.25001792  0.63449490  0.54047300  1
  Ru4+  Ru167  1  0.74912913  0.63070796  0.53370924  1
  Ru4+  Ru168  1  0.75091012  0.23324311  -0.00891005  1
  Ru4+  Ru169  1  0.25141322  0.38597044  0.78243687  1
  Ru4+  Ru170  1  0.24970021  0.94094111  0.02731398  1
  Ru4+  Ru171  1  0.75016341  0.72969278  0.74436064  1
  Ru4+  Ru172  1  0.75047268  0.06435818  0.51420121  1
  Ru4+  Ru173  1  0.74948696  0.39751531  -0.01625440  1
  Ru4+  Ru174  1  0.74945086  0.37606968  0.50760438  1
  Ru4+  Ru175  1  0.24945047  0.39407098  0.49811475  1
  Ru4+  Ru176  1  0.25024712  0.65092052  0.77725893  1
  Ru4+  Ru177  1  0.74937950  0.08814513  0.23569944  1
  Ru4+  Ru178  1  0.24967987  0.91973039  0.24736519  1
  Ru4+  Ru179  1  0.74907084  0.65755960  0.25733651  1
  O2-  O180  1  0.16915380  0.08089759  -0.00404086  1
  O2-  O181  1  0.16952645  0.08514241  0.25607421  1
  O2-  O182  1  0.16639452  0.08255629  0.50057724  1
  O2-  O183  1  0.16273416  0.07594754  0.75381321  1
  O2-  O184  1  0.15615880  0.41060796  -0.00431605  1
  O2-  O185  1  0.16393708  0.41590112  0.24931698  1
  O2-  O186  1  0.16502386  0.41172279  0.49807637  1
  O2-  O187  1  0.16445328  0.40998095  0.74995607  1
  O2-  O188  1  0.16763210  0.74494381  0.00177910  1
  O2-  O189  1  0.16718901  0.75134098  0.25356256  1
  O2-  O190  1  0.16834175  0.75107455  0.50458228  1
  O2-  O191  1  0.16857317  0.74809074  0.75499337  1
  O2-  O192  1  0.66091768  0.08420253  0.00001019  1
  O2-  O193  1  0.66418526  0.08093841  0.24617279  1
  O2-  O194  1  0.66510827  0.07914093  0.50441803  1
  O2-  O195  1  0.66976299  0.08350777  0.74340236  1
  O2-  O196  1  0.66354249  0.41733752  -0.00466110  1
  O2-  O197  1  0.66873778  0.41348254  0.25468011  1
  O2-  O198  1  0.66268736  0.41148260  0.49790723  1
  O2-  O199  1  0.66910988  0.41970700  0.74875580  1
  O2-  O200  1  0.66551212  0.74650230  -0.00008289  1
  O2-  O201  1  0.67032088  0.74792803  0.25153140  1
  O2-  O202  1  0.66265905  0.75040071  0.49772298  1
  O2-  O203  1  0.67022379  0.74766411  0.75618187  1
  O2-  O204  1  0.32891596  0.24790997  0.00000390  1
  O2-  O205  1  0.33889990  0.25180876  0.25014222  1
  O2-  O206  1  0.33237835  0.24502415  0.49144078  1
  O2-  O207  1  0.33988860  0.25041290  0.75563780  1
  O2-  O208  1  0.33452824  0.58512956  0.00684041  1
  O2-  O209  1  0.33355429  0.58681269  0.25438509  1
  O2-  O210  1  0.33518918  0.59028092  0.49866519  1
  O2-  O211  1  0.33032529  0.58808061  0.74610446  1
  O2-  O212  1  0.32741988  0.91707020  -0.00179692  1
  O2-  O213  1  0.33267104  0.91262690  0.25153473  1
  O2-  O214  1  0.33641734  0.91566416  0.50233398  1
  O2-  O215  1  0.32906786  0.91691635  0.74791498  1
  O2-  O216  1  0.83569149  0.24946474  -0.00969258  1
  O2-  O217  1  0.83297521  0.25031454  0.25151428  1
  O2-  O218  1  0.83385159  0.25514806  0.50334002  1
  O2-  O219  1  0.82993308  0.25169085  0.74890897  1
  O2-  O220  1  0.84160519  0.58968318  0.00525083  1
  O2-  O221  1  0.83604141  0.58686738  0.25131528  1
  O2-  O222  1  0.83533182  0.59133381  0.49936670  1
  O2-  O223  1  0.83743108  0.58774479  0.74911560  1
  O2-  O224  1  0.83758961  0.92084488  0.00035928  1
  O2-  O225  1  0.84037295  0.91950651  0.25027631  1
  O2-  O226  1  0.83421205  0.92036819  0.50053299  1
  O2-  O227  1  0.83858047  0.92034673  0.74812387  1
  O2-  O228  1  0.17022918  0.25361431  0.00153857  1
  O2-  O229  1  0.16732404  0.24816410  0.25046575  1
  O2-  O230  1  0.16678759  0.25122718  0.49968211  1
  O2-  O231  1  0.16142644  0.25241438  0.74972213  1
  O2-  O232  1  0.16442179  0.58693550  0.00389881  1
  O2-  O233  1  0.16297259  0.58450921  0.25375226  1
  O2-  O234  1  0.16582117  0.58830642  0.49890825  1
  O2-  O235  1  0.16868977  0.59076862  0.74837828  1
  O2-  O236  1  0.17276051  0.91276485  -0.01200846  1
  O2-  O237  1  0.16782952  0.91768337  0.25488495  1
  O2-  O238  1  0.16600319  0.91687978  0.50432517  1
  O2-  O239  1  0.16627542  0.91987245  0.75446136  1
  O2-  O240  1  0.66850660  0.24901265  0.00285715  1
  O2-  O241  1  0.65989654  0.25043953  0.25345551  1
  O2-  O242  1  0.66306495  0.25487397  0.50053356  1
  O2-  O243  1  0.66844515  0.24914368  0.74872940  1
  O2-  O244  1  0.65944356  0.59308302  0.00431149  1
  O2-  O245  1  0.66632111  0.59079780  0.24899076  1
  O2-  O246  1  0.66930584  0.59434227  0.49896780  1
  O2-  O247  1  0.66482799  0.58401203  0.75341853  1
  O2-  O248  1  0.66342898  0.92103981  -0.00027753  1
  O2-  O249  1  0.66352747  0.91546758  0.25042837  1
  O2-  O250  1  0.66786329  0.91961769  0.50216247  1
  O2-  O251  1  0.66237165  0.92201286  0.74870172  1
  O2-  O252  1  0.33296822  0.08577497  0.00243972  1
  O2-  O253  1  0.33600142  0.08371216  0.24989417  1
  O2-  O254  1  0.33092803  0.08709186  0.50824995  1
  O2-  O255  1  0.33856205  0.08170438  0.74640829  1
  O2-  O256  1  0.34122015  0.40872792  -0.00596625  1
  O2-  O257  1  0.33329504  0.41816151  0.25357248  1
  O2-  O258  1  0.33275056  0.41206423  0.49374664  1
  O2-  O259  1  0.33305321  0.41323865  0.75637012  1
  O2-  O260  1  0.34211836  0.75061831  0.00460820  1
  O2-  O261  1  0.33595126  0.75104649  0.25107565  1
  O2-  O262  1  0.33414603  0.75060115  0.50078180  1
  O2-  O263  1  0.33244622  0.74946637  0.74898685  1
  O2-  O264  1  0.82952316  0.07709585  -0.00275360  1
  O2-  O265  1  0.83418954  0.07945504  0.24581223  1
  O2-  O266  1  0.83640370  0.07877335  0.50560567  1
  O2-  O267  1  0.83588630  0.08118147  0.74609603  1
  O2-  O268  1  0.83440894  0.40995897  -0.00951278  1
  O2-  O269  1  0.83215715  0.41204258  0.25092809  1
  O2-  O270  1  0.83507524  0.41035624  0.49894784  1
  O2-  O271  1  0.83147214  0.41101191  0.75060451  1
  O2-  O272  1  0.82852632  0.74095510  0.00478864  1
  O2-  O273  1  0.83538003  0.74213528  0.25303598  1
  O2-  O274  1  0.83314609  0.74684467  0.49447886  1
  O2-  O275  1  0.83127678  0.74654789  0.74963471  1
  O2-  O276  1  0.05133911  0.24330875  0.99698893  1
  O2-  O277  1  0.05152156  0.24098563  -0.00457791  1
  O2-  O278  1  0.04320860  0.09511908  0.51565510  1
  O2-  O279  1  0.45210840  0.22887631  0.44059646  1
  O2-  O280  1  0.03552098  0.87780885  -0.00751455  1
  O2-  O281  1  0.46158526  0.10994515  -0.02337176  1
  O2-  O282  1  0.55235104  0.42445594  0.99183183  1
  O2-  O283  1  0.55488244  0.25044842  0.94047132  1
  O2-  O284  1  0.43848654  0.41497570  0.77871432  1
  O2-  O285  1  0.04831004  0.09201688  0.98265018  1
  O2-  O286  1  0.04896948  0.23655056  0.76096355  1
  O2-  O287  1  0.96478385  0.79844794  0.71295937  1
  O2-  O288  1  0.94571812  0.57923755  0.50553005  1
  O2-  O289  1  0.45874782  0.23380558  0.76819924  1
  O2-  O290  1  0.94541650  0.24400117  0.02585960  1
  O2-  O291  1  0.56219815  0.58615694  0.75884339  1
  O2-  O292  1  0.05488824  0.58092497  0.51691695  1
  O2-  O293  1  0.94501393  0.23717113  0.98723007  1
  O2-  O294  1  0.46632621  0.55600237  0.75357924  1
  O2-  O295  1  0.45384666  0.56759482  0.47992914  1
  O2-  O296  1  0.44697771  0.23540283  0.01645005  1
  O2-  O297  1  0.46001413  0.10508447  0.25085265  1
  O2-  O298  1  0.53235091  0.45506793  0.73949018  1
  O2-  O299  1  0.04920693  0.43600706  0.25745187  1
  O2-  O300  1  0.44817630  0.42446712  0.01942204  1
  O2-  O301  1  0.03923248  0.88641564  0.97574006  1
  O2-  O302  1  0.46716459  0.76867191  0.71142031  1
  O2-  O303  1  0.45464932  0.42291956  0.23775600  1
  O2-  O304  1  0.94552161  0.57827800  0.25670476  1
  O2-  O305  1  0.44883855  0.90982580  0.70491296  1
  O2-  O306  1  0.94239797  0.90069727  0.98721226  1
  O2-  O307  1  0.54877263  0.76188368  0.01689583  1
  O2-  O308  1  0.45251257  0.76362670  0.24431511  1
  O2-  O309  1  0.46762356  0.10422021  0.97206768  1
  O2-  O310  1  0.55038802  0.57139579  0.24248458  1
  O2-  O311  1  0.45251985  0.24865789  0.99381795  1
  O2-  O312  1  0.05358581  0.42153925  0.49339057  1
  O2-  O313  1  0.95443752  0.44846798  0.29320261  1
  O2-  O314  1  0.54989237  0.23636174  0.50513589  1
  O2-  O315  1  0.95536620  0.09123519  0.75954289  1
  O2-  O316  1  0.47107786  0.11694231  0.53288198  1
  O2-  O317  1  0.05147651  0.10089093  0.47896608  1
  O2-  O318  1  0.95373329  0.10210292  0.26010040  1
  O2-  O319  1  0.94540471  0.24215688  0.75472366  1
  O2-  O320  1  0.94726067  0.41966063  0.52679951  1
  O2-  O321  1  0.46967175  0.87335395  0.05146466  1
  O2-  O322  1  0.45245238  0.41571797  0.98199276  1
  O2-  O323  1  0.44896179  0.57567148  0.24545737  1
  O2-  O324  1  0.57330415  0.57265751  0.57492278  1
  O2-  O325  1  0.06281666  0.74017999  0.07017639  1
  O2-  O326  1  0.94398208  0.58484657  0.02090334  1
  O2-  O327  1  0.42262346  0.27694499  0.03250306  1
  O2-  O328  1  0.41994694  0.25468084  0.56563303  1
  O2-  O329  1  0.45216362  0.90541900  0.69465339  1
  O2-  O330  1  0.56336098  0.59107719  0.07928604  1
  O2-  O331  1  0.06996915  0.75596311  0.91988202  1
  O2-  O332  1  0.56357235  0.40176678  0.28564160  1
  O2-  O333  1  0.05767457  0.74285883  0.46564798  1
  O2-  O334  1  0.42490367  0.60733432  0.78961123  1
  O2-  O335  1  0.08853110  0.97260880  0.05123187  1
  O2-  O336  1  0.94056375  0.74785464  0.51849684  1
  O2-  O337  1  0.93997051  0.59863112  0.28799052  1
  O2-  O338  1  0.56275029  0.07060640  0.77526555  1
  O2-  O339  1  0.56289233  0.58248025  0.93380954  1
  O2-  O340  1  0.93945691  0.92133976  0.95557381  1
  O2-  O341  1  0.93855178  0.92379820  0.53592842  1
  O2-  O342  1  0.57071642  0.26726495  0.10212902  1
  O2-  O343  1  0.55369719  0.24132798  0.94323609  1
  O2-  O344  1  0.94295392  0.25178310  0.27250077  1
  O2-  O345  1  0.41766870  0.06494645  0.43821176  1
  O2-  O346  1  0.93912134  0.74264904  0.97054001  1
  O2-  O347  1  0.56513915  0.74259446  0.26483281  1
  O2-  O348  1  0.42034103  0.94229159  0.95884879  1
  O2-  O349  1  0.56192407  0.92266036  0.51868416  1
  O2-  O350  1  0.06132386  0.74138099  0.22918846  1
  O2-  O351  1  0.06431897  0.73928879  0.71178034  1
  O2-  O352  1  0.06044863  0.25203497  0.22582904  1
  O2-  O353  1  0.92982582  0.38885702  0.18028504  1
  O2-  O354  1  0.05893572  0.92277665  0.46214757  1
  O2-  O355  1  0.56171319  0.93350460  0.96325802  1
  O2-  O356  1  0.94090904  0.25208114  0.48461001  1
  O2-  O357  1  0.92854227  0.71422177  0.80688626  1
  O2-  O358  1  0.93944036  0.41156688  0.77002302  1
  O2-  O359  1  0.56751645  0.73918276  0.72929960  1
  O2-  O360  1  0.06221544  0.07300004  0.28863667  1
  O2-  O361  1  0.05995133  0.58676671  0.76720352  1
  O2-  O362  1  0.93782299  0.07088342  0.03233926  1
  O2-  O363  1  0.94120154  0.41206297  0.02400645  1
  O2-  O364  1  0.43162219  0.41425571  0.22420360  1
  O2-  O365  1  0.55875193  0.93112931  0.21777056  1
  O2-  O366  1  0.43423656  0.03589457  0.09475408  1
  O2-  O367  1  0.56993499  0.57593825  0.42472594  1
  O2-  O368  1  0.43922012  0.41308786  0.51938667  1
  O2-  O369  1  0.57404140  0.35253726  0.79437194  1
  O2-  O370  1  0.41114573  0.91014061  0.83420561  1
  O2-  O371  1  0.42209049  0.74932744  0.83353169  1
  O2-  O372  1  0.24933823  0.32146226  0.87823560  1
  O2-  O373  1  0.24950029  0.64419418  0.31427307  1
  O2-  O374  1  0.24975559  0.66746102  0.65614569  1
  O2-  O375  1  0.75179520  0.32199141  0.62998922  1
  O2-  O376  1  0.25041438  0.31483583  0.69958172  1
  O2-  O377  1  0.75033767  -0.00107782  0.41658990  1
  O2-  O378  1  0.24993856  -0.01019086  0.62670831  1
  O2-  O379  1  0.25047054  0.00013462  0.15360459  1
  O2-  O380  1  0.75047654  -0.00412062  0.28529352  1
  O2-  O381  1  0.75053624  0.00471697  0.82925779  1
  O2-  O382  1  0.25055167  0.66877327  0.12099451  1
  O2-  O383  1  0.24807501  -0.01617701  0.36526963  1
  O2-  O384  1  0.25085420  0.31421974  0.40851679  1
  O2-  O385  1  0.24855260  0.30700108  0.57506247  1
  O2-  O386  1  0.74944030  0.00020693  0.92259255  1
  O2-  O387  1  0.74890802  0.32200412  0.39639821  1
  O2-  O388  1  0.24996787  0.34619238  0.32230719  1
  O2-  O389  1  0.74968396  0.00564981  0.10033121  1
  O2-  O390  1  0.74899254  0.31171911  0.19360472  1
  O2-  O391  1  0.25089345  0.68305073  0.42759771  1
  O2-  O392  1  0.75061187  0.65855572  0.65127116  1
  O2-  O393  1  0.24979257  0.67251954  0.90335625  1
  O2-  O394  1  0.24789193  0.34242808  0.13998961  1
  O2-  O395  1  0.75018932  0.32069815  0.06778300  1
  O2-  O396  1  0.24974073  0.15515882  0.58329414  1
  O2-  O397  1  0.24879339  0.48427267  0.83331760  1
  O2-  O398  1  0.74967125  0.47010090  0.56981281  1
  O2-  O399  1  0.25054504  0.16459358  0.83395856  1
  O2-  O400  1  0.24950904  0.85519150  0.11949412  1
  O2-  O401  1  0.25113196  0.52891677  0.93991091  1
  O2-  O402  1  0.75059878  0.81584850  0.10540573  1
  O2-  O403  1  0.74945108  0.16752803  0.89204196  1
  O2-  O404  1  0.74991823  0.15744303  0.40369756  1
  O2-  O405  1  0.24971393  0.48705719  0.56914516  1
  O2-  O406  1  0.74947316  0.50934231  0.64547223  1
  O2-  O407  1  0.24990075  0.17188200  0.66526384  1
  O2-  O408  1  0.74951981  0.17012568  0.31289384  1
  O2-  O409  1  0.75017044  0.82024502  0.66170402  1
  O2-  O410  1  0.75100345  0.83025152  0.18762827  1
  O2-  O411  1  0.75005464  0.16403861  0.09961080  1
  O2-  O412  1  0.75046153  0.46979302  0.07910756  1
  O2-  O413  1  0.75011611  0.83761785  0.39748778  1
  O2-  O414  1  0.24933864  0.16584550  0.91397162  1
  O2-  O415  1  0.74922428  0.47453106  0.32710623  1
  O2-  O416  1  0.24912773  0.52483172  0.12647688  1
  O2-  O417  1  0.24862799  0.83099373  0.65548581  1
  O2-  O418  1  0.74984300  0.82675304  0.57357606  1
  O2-  O419  1  0.74981322  0.47245327  0.89788566  1
  O2-  O420  1  0.47184494  0.01578217  0.61795709  1
  O2-  O421  1  0.45835265  0.34104151  0.64944627  1
  O2-  O422  1  0.46126084  -0.02775946  0.35697667  1
  O2-  O423  1  0.47996651  0.32423100  0.13758662  1
  O2-  O424  1  0.96888038  -0.00842309  0.38143561  1
  O2-  O425  1  0.97435403  0.65789357  0.63500438  1
  O2-  O426  1  0.50974271  0.67678938  0.37531367  1
  O2-  O427  1  0.47197960  0.66595628  0.11471614  1
  O2-  O428  1  0.02819029  -0.00424877  0.62647061  1
  O2-  O429  1  0.54954555  0.01610013  0.37975823  1
  O2-  O430  1  0.47691559  0.34282281  0.37225916  1
  O2-  O431  1  0.97873631  0.33651113  0.88186334  1
  O2-  O432  1  0.97083402  0.67537253  0.13286085  1
  O2-  O433  1  0.52090609  0.68936167  0.87079538  1
  O2-  O434  1  0.53156622  0.01219653  0.62506687  1
  O2-  O435  1  0.04811075  0.31016939  0.37559083  1
  O2-  O436  1  0.48855963  0.00454440  0.86202409  1
  O2-  O437  1  0.52147254  0.67450228  0.62038614  1
  O2-  O438  1  0.95945197  0.34944708  0.37934509  1
  O2-  O439  1  0.02618494  0.34920939  0.12592998  1
  O2-  O440  1  0.54830353  0.33712376  0.62063686  1
  O2-  O441  1  0.46339758  0.65429342  0.61273833  1
  O2-  O442  1  0.01650084  0.00817640  0.14138120  1
  O2-  O443  1  0.01472902  0.64778921  0.88110677  1
