# generated using pymatgen
data_La7(Ru4O11)2
_symmetry_space_group_name_H-M   'P 1'
_cell_length_a   23.99020531
_cell_length_b   16.83017255
_cell_length_c   15.42744214
_cell_angle_alpha   90.00105731
_cell_angle_beta   90.00014923
_cell_angle_gamma   89.99996389
_symmetry_Int_Tables_number   1
_chemical_formula_structural   La7(Ru4O11)2
_chemical_formula_sum   'La84 Ru96 O264'
_cell_volume   6228.97315765
_cell_formula_units_Z   12
loop_
 _symmetry_equiv_pos_site_id
 _symmetry_equiv_pos_as_xyz
  1  'x, y, z'
loop_
 _atom_type_symbol
 _atom_type_oxidation_number
  La3+  3.0
  Ru4+  4.0
  O2-  -2.0
loop_
 _atom_site_type_symbol
 _atom_site_label
 _atom_site_symmetry_multiplicity
 _atom_site_fract_x
 _atom_site_fract_y
 _atom_site_fract_z
 _atom_site_occupancy
  La3+  La0  1  0.14098169  0.00394398  0.12751058  1
  La3+  La1  1  0.13856658  0.00354364  0.36966183  1
  La3+  La2  1  0.13953459  0.00162919  0.62928890  1
  La3+  La3  1  0.14501132  0.00275876  0.87193386  1
  La3+  La4  1  0.14222804  0.33094880  0.12134744  1
  La3+  La5  1  0.13991892  0.33309960  0.37375755  1
  La3+  La6  1  0.13977440  0.33254661  0.62758115  1
  La3+  La7  1  0.14138523  0.33137160  0.87847713  1
  La3+  La8  1  0.14120984  0.66624339  0.12687782  1
  La3+  La9  1  0.14132610  0.66737171  0.37248216  1
  La3+  La10  1  0.13740805  0.66608394  0.62344766  1
  La3+  La11  1  0.13729970  0.66488713  0.87723752  1
  La3+  La12  1  0.63932203  0.00024299  0.12288774  1
  La3+  La13  1  0.63808095  -0.00154448  0.37816909  1
  La3+  La14  1  0.63480270  -0.00340383  0.61986910  1
  La3+  La15  1  0.64242332  -0.00023983  0.87622392  1
  La3+  La16  1  0.63567105  0.33355992  0.12697106  1
  La3+  La17  1  0.63726490  0.33341485  0.37642458  1
  La3+  La18  1  0.64055295  0.33165757  0.62005465  1
  La3+  La19  1  0.63745616  0.33141507  0.87481006  1
  La3+  La20  1  0.64077502  0.66985768  0.12891122  1
  La3+  La21  1  0.64212380  0.66745152  0.37313610  1
  La3+  La22  1  0.63908256  0.66556329  0.62152347  1
  La3+  La23  1  0.63633708  0.66874046  0.87856481  1
  La3+  La24  1  0.35937697  0.00169099  0.12556919  1
  La3+  La25  1  0.36066491  0.00121603  0.37228033  1
  La3+  La26  1  0.36006856  0.00112650  0.63024847  1
  La3+  La27  1  0.35410777  0.00213536  0.87220790  1
  La3+  La28  1  0.35807330  0.33435970  0.12038965  1
  La3+  La29  1  0.36166368  0.33291963  0.37623782  1
  La3+  La30  1  0.35760615  0.32958476  0.62848847  1
  La3+  La31  1  0.35761973  0.33381452  0.87842168  1
  La3+  La32  1  0.35872850  0.66664954  0.12620135  1
  La3+  La33  1  0.35655006  0.66803836  0.37145056  1
  La3+  La34  1  0.36202483  0.66652659  0.62631685  1
  La3+  La35  1  0.36279220  0.66447673  0.87688729  1
  La3+  La36  1  0.86314146  0.00209774  0.12047573  1
  La3+  La37  1  0.86125008  0.00084515  0.37481572  1
  La3+  La38  1  0.86103371  0.00169412  0.62519507  1
  La3+  La39  1  0.85849292  0.00076169  0.87972563  1
  La3+  La40  1  0.86372548  0.33267908  0.12554282  1
  La3+  La41  1  0.86125782  0.33444136  0.37968129  1
  La3+  La42  1  0.85983668  0.33442136  0.61914750  1
  La3+  La43  1  0.86429342  0.33235527  0.87455694  1
  La3+  La44  1  0.86028373  0.66874002  0.12423213  1
  La3+  La45  1  0.85661253  0.66713349  0.37375921  1
  La3+  La46  1  0.86036106  0.66428872  0.62333237  1
  La3+  La47  1  0.86345521  0.66752097  0.87887317  1
  La3+  La48  1  0.00169208  0.50007161  0.37012160  1
  La3+  La49  1  0.00044224  0.83767271  0.36179468  1
  La3+  La50  1  -0.00004327  0.16594765  0.37177586  1
  La3+  La51  1  0.49830947  0.16966947  0.88612618  1
  La3+  La52  1  0.50220243  0.84036869  0.63156208  1
  La3+  La53  1  0.49925974  0.50645752  0.12180613  1
  La3+  La54  1  0.50021760  0.83114570  0.13647126  1
  La3+  La55  1  0.49885350  0.16665632  0.61844008  1
  La3+  La56  1  0.49662200  0.83125462  0.86915293  1
  La3+  La57  1  0.00407735  0.83015139  0.88938771  1
  La3+  La58  1  -0.00223250  0.50692482  0.11023230  1
  La3+  La59  1  0.00039296  0.15905473  0.13790090  1
  La3+  La60  1  -0.00471315  0.50707041  0.12708934  1
  La3+  La61  1  0.50097911  0.83585923  0.37962864  1
  La3+  La62  1  0.00170597  0.16657919  0.87866090  1
  La3+  La63  1  0.50440086  0.50016324  0.38067245  1
  La3+  La64  1  -0.00331059  0.17053001  0.11973556  1
  La3+  La65  1  0.50582636  0.50167735  0.36407631  1
  La3+  La66  1  0.00204500  0.83211040  0.61011429  1
  La3+  La67  1  0.49771312  0.83221899  0.61198354  1
  La3+  La68  1  -0.00422265  0.82761920  0.87160078  1
  La3+  La69  1  0.50107747  0.16735645  0.12065161  1
  La3+  La70  1  -0.00410088  0.83600536  0.63022973  1
  La3+  La71  1  -0.00127854  0.83302020  0.13522212  1
  La3+  La72  1  0.74995560  0.87690327  0.72226660  1
  La3+  La73  1  0.25040363  0.43305449  0.74830803  1
  La3+  La74  1  0.25021191  0.49336631  0.02222198  1
  La3+  La75  1  0.25005066  0.87377747  0.00046528  1
  La3+  La76  1  0.74973670  0.50487605  -0.01280899  1
  La3+  La77  1  0.24997880  0.16497181  0.79671060  1
  La3+  La78  1  0.74995345  0.12900433  0.24923050  1
  La3+  La79  1  0.25006240  0.50241880  0.24922234  1
  La3+  La80  1  0.75013733  0.49678638  0.54631128  1
  La3+  La81  1  0.75102203  0.56175459  0.23885441  1
  La3+  La82  1  0.75017875  0.49264275  0.75494220  1
  La3+  La83  1  0.24937552  0.21735507  0.48223612  1
  Ru4+  Ru84  1  0.00334198  -0.00414760  0.00113176  1
  Ru4+  Ru85  1  -0.00248373  -0.00551657  0.25024736  1
  Ru4+  Ru86  1  0.00177475  0.00385574  0.50045866  1
  Ru4+  Ru87  1  -0.00408992  -0.00009233  0.74867626  1
  Ru4+  Ru88  1  -0.00230869  0.33907757  -0.00181350  1
  Ru4+  Ru89  1  -0.00153436  0.33100744  0.25097535  1
  Ru4+  Ru90  1  0.00290262  0.32814419  0.49729547  1
  Ru4+  Ru91  1  0.00264888  0.33769970  0.75265156  1
  Ru4+  Ru92  1  0.00323273  0.67184122  -0.00083638  1
  Ru4+  Ru93  1  -0.00089067  0.66552992  0.25163233  1
  Ru4+  Ru94  1  0.00267238  0.66427950  0.49253769  1
  Ru4+  Ru95  1  -0.00130177  0.65757900  0.75095215  1
  Ru4+  Ru96  1  0.49806555  -0.00271267  0.00185572  1
  Ru4+  Ru97  1  0.49954538  0.00003717  0.25014226  1
  Ru4+  Ru98  1  0.50084460  0.00133795  0.49928729  1
  Ru4+  Ru99  1  0.49833734  0.00166371  0.74985488  1
  Ru4+  Ru100  1  0.50210704  0.32911504  0.00045726  1
  Ru4+  Ru101  1  0.49870492  0.32288174  0.24487104  1
  Ru4+  Ru102  1  0.49905284  0.33080793  0.50654966  1
  Ru4+  Ru103  1  0.49810870  0.33544125  0.74611495  1
  Ru4+  Ru104  1  0.49536015  0.66305526  -0.00860905  1
  Ru4+  Ru105  1  0.50179051  0.67017567  0.25239759  1
  Ru4+  Ru106  1  0.49839407  0.66461112  0.49593852  1
  Ru4+  Ru107  1  0.49787948  0.65842115  0.74648062  1
  Ru4+  Ru108  1  0.11939681  0.16398744  -0.00018980  1
  Ru4+  Ru109  1  0.11805087  0.16805613  0.25163681  1
  Ru4+  Ru110  1  0.10973567  0.16748873  0.50012427  1
  Ru4+  Ru111  1  0.11382194  0.17203090  0.74872364  1
  Ru4+  Ru112  1  0.11211782  0.50037618  0.00056846  1
  Ru4+  Ru113  1  0.11332579  0.49996519  0.25157584  1
  Ru4+  Ru114  1  0.11037443  0.49968850  0.50091007  1
  Ru4+  Ru115  1  0.10973338  0.49690303  0.75077969  1
  Ru4+  Ru116  1  0.11333989  0.83292737  0.00145871  1
  Ru4+  Ru117  1  0.11395467  0.83179731  0.25019591  1
  Ru4+  Ru118  1  0.11345079  0.83566875  0.49916019  1
  Ru4+  Ru119  1  0.11736837  0.83585838  0.74964424  1
  Ru4+  Ru120  1  0.61259877  0.16451989  -0.00107854  1
  Ru4+  Ru121  1  0.60948939  0.16729542  0.25072701  1
  Ru4+  Ru122  1  0.61281135  0.16953265  0.49876910  1
  Ru4+  Ru123  1  0.61207500  0.16599693  0.75004698  1
  Ru4+  Ru124  1  0.61117454  0.50133315  -0.00316958  1
  Ru4+  Ru125  1  0.61450343  0.50385901  0.24777516  1
  Ru4+  Ru126  1  0.61224026  0.50039829  0.50016940  1
  Ru4+  Ru127  1  0.60754784  0.50103045  0.74889433  1
  Ru4+  Ru128  1  0.61689142  0.83626569  0.00009814  1
  Ru4+  Ru129  1  0.61456941  0.83368573  0.25301162  1
  Ru4+  Ru130  1  0.61421959  0.83311821  0.49708866  1
  Ru4+  Ru131  1  0.61323640  0.83446443  0.75014009  1
  Ru4+  Ru132  1  0.38414314  0.16626965  0.00073478  1
  Ru4+  Ru133  1  0.38555902  0.16436722  0.24918686  1
  Ru4+  Ru134  1  0.38971276  0.16951162  0.49809814  1
  Ru4+  Ru135  1  0.38701325  0.16841701  0.74913411  1
  Ru4+  Ru136  1  0.38633437  0.50565803  -0.00162000  1
  Ru4+  Ru137  1  0.38680677  0.49836905  0.25093250  1
  Ru4+  Ru138  1  0.38705436  0.49930963  0.50169119  1
  Ru4+  Ru139  1  0.39035743  0.50114010  0.75117086  1
  Ru4+  Ru140  1  0.38925910  0.83489895  -0.00106742  1
  Ru4+  Ru141  1  0.38626246  0.83242937  0.24932956  1
  Ru4+  Ru142  1  0.38743977  0.83134540  0.49776903  1
  Ru4+  Ru143  1  0.38517444  0.83700477  0.75166125  1
  Ru4+  Ru144  1  0.88187975  0.16836872  -0.00114688  1
  Ru4+  Ru145  1  0.89054572  0.16668667  0.25171629  1
  Ru4+  Ru146  1  0.88642709  0.16692900  0.49868448  1
  Ru4+  Ru147  1  0.88554175  0.16433593  0.74917551  1
  Ru4+  Ru148  1  0.88583340  0.49543905  -0.00106535  1
  Ru4+  Ru149  1  0.88926367  0.50068839  0.24921119  1
  Ru4+  Ru150  1  0.88528006  0.50565725  0.49994153  1
  Ru4+  Ru151  1  0.89457465  0.49954690  0.74937259  1
  Ru4+  Ru152  1  0.88383833  0.83134552  0.00221438  1
  Ru4+  Ru153  1  0.88630925  0.83228055  0.24945257  1
  Ru4+  Ru154  1  0.88620194  0.83191436  0.49851285  1
  Ru4+  Ru155  1  0.88717885  0.83101831  0.74986927  1
  Ru4+  Ru156  1  0.24995102  0.90779165  0.50352616  1
  Ru4+  Ru157  1  0.24996744  0.60353485  0.73555953  1
  Ru4+  Ru158  1  0.74990247  0.08905235  0.50599414  1
  Ru4+  Ru159  1  0.74936206  0.23728111  0.00128162  1
  Ru4+  Ru160  1  0.75033416  0.74690929  0.76225388  1
  Ru4+  Ru161  1  0.75026690  0.26560541  0.23618109  1
  Ru4+  Ru162  1  0.25036848  0.75746141  0.74171380  1
  Ru4+  Ru163  1  0.74968641  0.36312978  0.74472813  1
  Ru4+  Ru164  1  0.25023192  0.40315925  0.50959553  1
  Ru4+  Ru165  1  0.74994655  0.63962747  0.00632311  1
  Ru4+  Ru166  1  0.25016627  0.73711451  0.00419330  1
  Ru4+  Ru167  1  0.25008568  0.60336131  0.49307149  1
  Ru4+  Ru168  1  0.75003545  0.90714317  0.24380368  1
  Ru4+  Ru169  1  0.25023730  0.91270534  0.24124976  1
  Ru4+  Ru170  1  0.75008348  0.23398763  0.74701663  1
  Ru4+  Ru171  1  0.75024282  0.91455817  0.50124494  1
  Ru4+  Ru172  1  0.74968796  0.62023194  0.74947376  1
  Ru4+  Ru173  1  0.74990211  0.36821223  0.00090611  1
  Ru4+  Ru174  1  0.75005228  0.40634205  0.23963907  1
  Ru4+  Ru175  1  0.74937367  0.08493317  0.74882499  1
  Ru4+  Ru176  1  0.25038040  0.24359117  0.24053742  1
  Ru4+  Ru177  1  0.75025988  0.74924606  0.49685971  1
  Ru4+  Ru178  1  0.24996771  0.74994223  0.49668660  1
  Ru4+  Ru179  1  0.25003123  0.07066031  0.50220636  1
  O2-  O180  1  0.16618145  0.07984642  0.00039857  1
  O2-  O181  1  0.16507102  0.08187232  0.24994242  1
  O2-  O182  1  0.16559312  0.07898292  0.49983054  1
  O2-  O183  1  0.16583610  0.08202366  0.74827419  1
  O2-  O184  1  0.16405014  0.41570156  -0.00070262  1
  O2-  O185  1  0.16871633  0.41457811  0.24833580  1
  O2-  O186  1  0.16634859  0.41371610  0.50122786  1
  O2-  O187  1  0.16200617  0.41251310  0.75045563  1
  O2-  O188  1  0.16728067  0.74661075  -0.00024161  1
  O2-  O189  1  0.16432455  0.74955077  0.25000244  1
  O2-  O190  1  0.16787452  0.74582250  0.50157486  1
  O2-  O191  1  0.16756828  0.74629241  0.74976870  1
  O2-  O192  1  0.66502399  0.08128772  -0.00019789  1
  O2-  O193  1  0.66484710  0.07880289  0.24902268  1
  O2-  O194  1  0.66661583  0.08054470  0.50071537  1
  O2-  O195  1  0.66935624  0.08157889  0.75037221  1
  O2-  O196  1  0.66666156  0.41217955  0.00144732  1
  O2-  O197  1  0.66604346  0.41360464  0.24817982  1
  O2-  O198  1  0.66503556  0.41572370  0.50201457  1
  O2-  O199  1  0.66449920  0.41285659  0.75031456  1
  O2-  O200  1  0.66977632  0.74656771  -0.00224696  1
  O2-  O201  1  0.66568807  0.75031925  0.25030905  1
  O2-  O202  1  0.66591720  0.74870944  0.50122231  1
  O2-  O203  1  0.66595420  0.74593297  0.74919208  1
  O2-  O204  1  0.33683959  0.24998781  0.00079683  1
  O2-  O205  1  0.33370958  0.25283156  0.24990595  1
  O2-  O206  1  0.33664607  0.25471962  0.50078015  1
  O2-  O207  1  0.33269298  0.24978632  0.75436462  1
  O2-  O208  1  0.33209667  0.58382786  0.00102947  1
  O2-  O209  1  0.33507857  0.58576814  0.24906195  1
  O2-  O210  1  0.33379829  0.58493346  0.50045934  1
  O2-  O211  1  0.33334120  0.58486005  0.74888018  1
  O2-  O212  1  0.33363188  0.92103577  0.00216375  1
  O2-  O213  1  0.33196042  0.91885109  0.25155689  1
  O2-  O214  1  0.33400213  0.91832560  0.49991749  1
  O2-  O215  1  0.33318658  0.91691999  0.74925336  1
  O2-  O216  1  0.83111158  0.25285948  -0.00250345  1
  O2-  O217  1  0.83340249  0.25433409  0.24967562  1
  O2-  O218  1  0.83650931  0.24977571  0.49938841  1
  O2-  O219  1  0.82984250  0.25219547  0.75127683  1
  O2-  O220  1  0.83336256  0.58752704  -0.00136373  1
  O2-  O221  1  0.84089155  0.58818505  0.25119509  1
  O2-  O222  1  0.83273247  0.58465782  0.50050467  1
  O2-  O223  1  0.83553574  0.58622447  0.75162145  1
  O2-  O224  1  0.83369821  0.91960433  -0.00006425  1
  O2-  O225  1  0.83207072  0.92084992  0.24987499  1
  O2-  O226  1  0.83363072  0.91888766  0.50099393  1
  O2-  O227  1  0.83679225  0.92296976  0.75029605  1
  O2-  O228  1  0.16588387  0.24935035  -0.00028158  1
  O2-  O229  1  0.16870091  0.25237519  0.25014168  1
  O2-  O230  1  0.16126017  0.25485017  0.50219730  1
  O2-  O231  1  0.16649553  0.25104062  0.75066984  1
  O2-  O232  1  0.16743009  0.58592982  -0.00080296  1
  O2-  O233  1  0.16436781  0.58532836  0.24940431  1
  O2-  O234  1  0.16855118  0.58710478  0.50067066  1
  O2-  O235  1  0.16551738  0.58695848  0.74863242  1
  O2-  O236  1  0.16462338  0.92273197  0.00113272  1
  O2-  O237  1  0.16605872  0.91913345  0.25048780  1
  O2-  O238  1  0.16684359  0.91918984  0.50066634  1
  O2-  O239  1  0.16559849  0.91865296  0.74902234  1
  O2-  O240  1  0.66822318  0.25334825  -0.00001560  1
  O2-  O241  1  0.66753962  0.25350288  0.24814325  1
  O2-  O242  1  0.66558665  0.24888161  0.50007879  1
  O2-  O243  1  0.66691855  0.25019028  0.74993065  1
  O2-  O244  1  0.66662649  0.58742807  -0.00082993  1
  O2-  O245  1  0.66314480  0.58852605  0.25202698  1
  O2-  O246  1  0.66855322  0.58553712  0.50220126  1
  O2-  O247  1  0.66491710  0.58801955  0.74984376  1
  O2-  O248  1  0.66610278  0.91936965  0.00022804  1
  O2-  O249  1  0.66826713  0.92088774  0.25077285  1
  O2-  O250  1  0.66835082  0.91835586  0.50108625  1
  O2-  O251  1  0.66333320  0.92142374  0.75056665  1
  O2-  O252  1  0.33456978  0.08173620  0.00166450  1
  O2-  O253  1  0.33618430  0.08228543  0.25054512  1
  O2-  O254  1  0.33489768  0.08006830  0.49971035  1
  O2-  O255  1  0.33241121  0.08292695  0.74930600  1
  O2-  O256  1  0.33499592  0.41586168  0.00098777  1
  O2-  O257  1  0.33440898  0.41357905  0.24902677  1
  O2-  O258  1  0.33241851  0.41366099  0.49881768  1
  O2-  O259  1  0.33856083  0.41300007  0.75235560  1
  O2-  O260  1  0.33316670  0.74799795  0.00105487  1
  O2-  O261  1  0.33651258  0.74960196  0.25026782  1
  O2-  O262  1  0.33148098  0.74628024  0.50142203  1
  O2-  O263  1  0.33267643  0.74861638  0.74992956  1
  O2-  O264  1  0.83327600  0.08102989  -0.00149468  1
  O2-  O265  1  0.83394704  0.07607166  0.24978690  1
  O2-  O266  1  0.83158967  0.08009196  0.49976593  1
  O2-  O267  1  0.83341830  0.08225913  0.74991634  1
  O2-  O268  1  0.83372155  0.41138408  -0.00164241  1
  O2-  O269  1  0.83195938  0.41289289  0.24976591  1
  O2-  O270  1  0.83335278  0.41686630  0.50102146  1
  O2-  O271  1  0.83480900  0.41215861  0.75102572  1
  O2-  O272  1  0.83142183  0.74694246  -0.00157835  1
  O2-  O273  1  0.83704688  0.74932728  0.25013255  1
  O2-  O274  1  0.83088846  0.74854478  0.49971342  1
  O2-  O275  1  0.83399230  0.74568759  0.75030235  1
  O2-  O276  1  0.04741563  0.76017690  0.74270173  1
  O2-  O277  1  0.95198165  0.43038663  0.73733318  1
  O2-  O278  1  0.45444411  0.56774189  0.26290020  1
  O2-  O279  1  0.04844017  0.90283093  0.01921919  1
  O2-  O280  1  0.45200015  0.43020120  0.97992228  1
  O2-  O281  1  0.54697763  0.90431431  0.76654769  1
  O2-  O282  1  0.04549634  0.09820800  0.51252820  1
  O2-  O283  1  0.04972684  0.76590192  0.48710318  1
  O2-  O284  1  0.46391384  0.88631259  0.03216346  1
  O2-  O285  1  0.53981800  0.11426776  0.79107103  1
  O2-  O286  1  0.45554775  0.10288214  0.01069555  1
  O2-  O287  1  0.04598106  0.09719431  0.72985536  1
  O2-  O288  1  0.53792879  0.88926367  0.50474781  1
  O2-  O289  1  0.55224670  0.75746486  0.23350657  1
  O2-  O290  1  0.54578335  0.10043207  0.51004631  1
  O2-  O291  1  0.54612124  0.43670021  0.03287288  1
  O2-  O292  1  0.04945717  0.90698660  0.76448258  1
  O2-  O293  1  0.04703888  0.09587055  0.26550763  1
  O2-  O294  1  0.04578430  0.76639360  0.25804237  1
  O2-  O295  1  0.95033765  0.90431814  0.98867324  1
  O2-  O296  1  0.45021270  0.42677459  0.45557211  1
  O2-  O297  1  0.54721919  0.43219000  0.26361262  1
  O2-  O298  1  0.44963768  0.42613992  0.01857247  1
  O2-  O299  1  0.05013068  0.23671937  0.76448300  1
  O2-  O300  1  0.95932505  0.77463355  0.45883311  1
  O2-  O301  1  0.54689948  0.76091346  0.48565724  1
  O2-  O302  1  0.95339578  0.57156330  0.73998914  1
  O2-  O303  1  0.04510651  0.76391926  0.75335488  1
  O2-  O304  1  0.95458036  0.90725768  0.48516528  1
  O2-  O305  1  0.95045940  0.57090695  0.01359444  1
  O2-  O306  1  0.04898354  0.09412008  0.01123429  1
  O2-  O307  1  0.54708448  0.75890249  0.73783680  1
  O2-  O308  1  0.95492364  0.22444098  0.77418358  1
  O2-  O309  1  0.04695762  0.23963297  0.00859947  1
  O2-  O310  1  0.95363295  0.57219875  0.48275071  1
  O2-  O311  1  0.95117430  0.43247624  0.51912812  1
  O2-  O312  1  0.03930373  0.44838846  0.22021679  1
  O2-  O313  1  0.05088786  0.43554016  0.51199721  1
  O2-  O314  1  0.95039909  0.90762189  0.76180179  1
  O2-  O315  1  0.04807486  0.09303373  0.76875108  1
  O2-  O316  1  0.54772254  0.56893713  0.73513904  1
  O2-  O317  1  0.95220020  0.42867707  0.48045567  1
  O2-  O318  1  0.54770773  0.56864595  0.98786900  1
  O2-  O319  1  0.94936251  0.09652223  0.01248698  1
  O2-  O320  1  0.54287393  0.89781172  0.51918759  1
  O2-  O321  1  0.95311011  0.43124188  0.01063395  1
  O2-  O322  1  0.44676022  0.09083675  0.72667229  1
  O2-  O323  1  0.55332359  0.75593604  0.96881751  1
  O2-  O324  1  0.55358724  0.75566792  0.96893929  1
  O2-  O325  1  0.06187617  0.07095466  0.28192710  1
  O2-  O326  1  0.43582433  0.73213455  0.56559395  1
  O2-  O327  1  0.56282365  0.26086668  0.27978738  1
  O2-  O328  1  0.93867525  0.07162086  0.03542163  1
  O2-  O329  1  0.44590455  0.41826500  0.44787416  1
  O2-  O330  1  0.06663768  0.25521128  0.02652271  1
  O2-  O331  1  0.07651903  0.39948385  0.29956936  1
  O2-  O332  1  0.06513703  0.25723766  0.22352338  1
  O2-  O333  1  0.57861065  0.95342322  0.44617914  1
  O2-  O334  1  0.43335190  0.74301842  0.97165264  1
  O2-  O335  1  0.43721723  0.26076314  0.46658248  1
  O2-  O336  1  0.43673218  0.73909612  0.71818142  1
  O2-  O337  1  0.93783317  0.73935142  0.03285334  1
  O2-  O338  1  0.93343992  0.40840547  0.22515885  1
  O2-  O339  1  0.92693008  0.26881402  0.70967596  1
  O2-  O340  1  0.93519021  0.07080974  0.46474679  1
  O2-  O341  1  0.06340660  0.59537722  0.03416623  1
  O2-  O342  1  0.55927526  0.40923595  0.28749060  1
  O2-  O343  1  0.43715837  0.93155936  0.81283736  1
  O2-  O344  1  0.56171178  0.26648030  0.46950807  1
  O2-  O345  1  0.94078939  0.59229559  0.04161057  1
  O2-  O346  1  0.42957570  0.94567331  0.94661295  1
  O2-  O347  1  0.56777836  0.92165405  0.19453860  1
  O2-  O348  1  0.43376455  0.92384017  0.22438160  1
  O2-  O349  1  0.43386329  0.59084219  0.77574761  1
  O2-  O350  1  0.55728268  0.75012439  0.22619919  1
  O2-  O351  1  0.06546000  0.74050025  0.97328656  1
  O2-  O352  1  0.43764609  0.40291878  0.80970446  1
  O2-  O353  1  0.43583442  0.73766608  0.43136755  1
  O2-  O354  1  0.44221885  0.08212169  0.71997359  1
  O2-  O355  1  0.43623158  0.92737803  0.68249588  1
  O2-  O356  1  0.93644063  0.92818592  0.21627902  1
  O2-  O357  1  0.56563211  0.59029735  0.22200077  1
  O2-  O358  1  0.06667426  0.59456691  0.47199216  1
  O2-  O359  1  0.56981478  0.39605998  0.94841795  1
  O2-  O360  1  0.92140756  0.72752259  0.55007512  1
  O2-  O361  1  0.56382915  0.92966682  0.31243105  1
  O2-  O362  1  0.56393112  0.59285663  0.47413242  1
  O2-  O363  1  0.43710786  0.25988888  0.71769391  1
  O2-  O364  1  0.06598603  0.40732048  0.77562943  1
  O2-  O365  1  0.43349860  0.59334087  0.97445756  1
  O2-  O366  1  0.56156696  0.25778264  0.96791536  1
  O2-  O367  1  0.93165659  0.25920667  0.02588626  1
  O2-  O368  1  0.43705748  0.40720518  0.69378444  1
  O2-  O369  1  0.57585570  0.05979626  0.70051298  1
  O2-  O370  1  0.57345282  0.74111989  0.05465386  1
  O2-  O371  1  0.42998645  0.39276711  0.57894128  1
  O2-  O372  1  0.75000080  0.00213040  0.65395303  1
  O2-  O373  1  0.25011582  0.33339967  0.10628866  1
  O2-  O374  1  0.75050163  0.66685472  0.35366138  1
  O2-  O375  1  0.25008864  0.65218860  0.92163157  1
  O2-  O376  1  0.24954151  -0.00540413  0.60035740  1
  O2-  O377  1  0.25020963  0.33596230  0.89770523  1
  O2-  O378  1  0.24999835  0.00126847  0.31975867  1
  O2-  O379  1  0.75049481  0.33337217  0.33697607  1
  O2-  O380  1  0.25021825  0.65293297  0.08430647  1
  O2-  O381  1  0.74987678  0.00303868  0.40571937  1
  O2-  O382  1  0.24979961  -0.00453018  0.15652240  1
  O2-  O383  1  0.75012048  0.00498632  0.84108710  1
  O2-  O384  1  0.24905674  0.00068023  0.84940042  1
  O2-  O385  1  0.24971812  0.33191218  0.41780572  1
  O2-  O386  1  0.74983074  0.66656131  0.59483036  1
  O2-  O387  1  0.75029076  0.33995174  0.60607872  1
  O2-  O388  1  0.24888425  0.33579984  0.64479494  1
  O2-  O389  1  0.75026699  0.33398364  0.42805827  1
  O2-  O390  1  0.24988168  0.67522800  0.82973871  1
  O2-  O391  1  0.25006459  0.66377712  0.35966063  1
  O2-  O392  1  0.25015308  0.66543510  0.17336848  1
  O2-  O393  1  0.25003795  0.33550885  0.32307901  1
  O2-  O394  1  0.24994734  -0.00909836  0.42033230  1
  O2-  O395  1  0.75038725  0.66408393  0.14360918  1
  O2-  O396  1  0.24995396  0.50223001  0.13630485  1
  O2-  O397  1  0.75018918  0.50485119  0.42192392  1
  O2-  O398  1  0.24993986  0.52284447  0.64903397  1
  O2-  O399  1  0.25013109  0.15641644  0.36465226  1
  O2-  O400  1  0.25012292  0.49053289  0.90563896  1
  O2-  O401  1  0.25014407  0.17066835  0.16448550  1
  O2-  O402  1  0.74985998  0.83340849  0.32488527  1
  O2-  O403  1  0.75005782  0.48198975  0.12523744  1
  O2-  O404  1  0.25007427  0.16951146  0.67174605  1
  O2-  O405  1  0.74958462  0.48112685  0.33680706  1
  O2-  O406  1  0.24985350  0.52832029  0.83336432  1
  O2-  O407  1  0.24986226  0.83604595  0.15840815  1
  O2-  O408  1  0.74999876  0.82393019  0.85689325  1
  O2-  O409  1  0.24996637  0.49864123  0.44268395  1
  O2-  O410  1  0.24998142  0.83310249  0.40748023  1
  O2-  O411  1  0.24996944  0.82863010  0.65900859  1
  O2-  O412  1  0.25000780  0.16656128  0.91712332  1
  O2-  O413  1  0.75006469  0.16970656  0.09543557  1
  O2-  O414  1  0.74996719  0.16007250  0.59085395  1
  O2-  O415  1  0.74999379  0.83329888  0.42781570  1
  O2-  O416  1  0.25007886  0.50448436  0.56544546  1
  O2-  O417  1  0.25020811  0.15005032  0.58966561  1
  O2-  O418  1  0.24985423  0.49776791  0.36486563  1
  O2-  O419  1  0.75008460  0.84050312  0.16104555  1
  O2-  O420  1  0.46097268  0.00713583  0.12612883  1
  O2-  O421  1  0.53908729  0.01065528  0.11444488  1
  O2-  O422  1  0.52345516  -0.00467355  0.61906022  1
  O2-  O423  1  0.97365596  0.33535364  0.61787622  1
  O2-  O424  1  0.97024902  -0.00135071  0.62423260  1
  O2-  O425  1  0.02557039  0.66041675  0.87006461  1
  O2-  O426  1  0.47135538  0.33055644  0.12799268  1
  O2-  O427  1  0.52524643  0.66727298  0.36999058  1
  O2-  O428  1  0.46432243  0.66831726  0.12404947  1
  O2-  O429  1  0.53172923  0.65996000  0.86402970  1
  O2-  O430  1  0.47271409  0.67251220  0.87327687  1
  O2-  O431  1  0.47184648  -0.00005678  0.37614664  1
  O2-  O432  1  0.96138506  0.33345963  0.87505554  1
  O2-  O433  1  0.96474890  0.33029448  0.12725578  1
  O2-  O434  1  0.97098874  0.66411803  0.63207863  1
  O2-  O435  1  0.02372978  0.66621758  0.37159660  1
  O2-  O436  1  0.03562948  0.34420821  0.12186040  1
  O2-  O437  1  0.52380318  0.65535348  0.12244413  1
  O2-  O438  1  0.95763983  0.33033996  0.37309438  1
  O2-  O439  1  0.03470560  0.66572081  0.62419931  1
  O2-  O440  1  0.52998150  0.33117928  0.62559868  1
  O2-  O441  1  0.03812089  0.32241366  0.38675831  1
  O2-  O442  1  0.03198792  0.33118129  0.62461870  1
  O2-  O443  1  0.03516056  0.33119177  0.88262860  1
