# generated using pymatgen
data_La7(Ru4O11)2
_symmetry_space_group_name_H-M   'P 1'
_cell_length_a   23.99235443
_cell_length_b   16.83352686
_cell_length_c   15.43047084
_cell_angle_alpha   90.00077645
_cell_angle_beta   90.00017529
_cell_angle_gamma   90.00202238
_symmetry_Int_Tables_number   1
_chemical_formula_structural   La7(Ru4O11)2
_chemical_formula_sum   'La84 Ru96 O264'
_cell_volume   6231.99595386
_cell_formula_units_Z   12
loop_
 _symmetry_equiv_pos_site_id
 _symmetry_equiv_pos_as_xyz
  1  'x, y, z'
loop_
 _atom_type_symbol
 _atom_type_oxidation_number
  La3+  3.0
  Ru4+  4.0
  O2-  -2.0
loop_
 _atom_site_type_symbol
 _atom_site_label
 _atom_site_symmetry_multiplicity
 _atom_site_fract_x
 _atom_site_fract_y
 _atom_site_fract_z
 _atom_site_occupancy
  La3+  La0  1  0.14262881  -0.00187453  0.12785112  1
  La3+  La1  1  0.14866278  -0.00447716  0.37378902  1
  La3+  La2  1  0.13525820  -0.00666325  0.62123013  1
  La3+  La3  1  0.14127148  -0.00257411  0.87247738  1
  La3+  La4  1  0.13340284  0.33063066  0.12840990  1
  La3+  La5  1  0.13858161  0.33242869  0.37132125  1
  La3+  La6  1  0.13401567  0.33273248  0.62415767  1
  La3+  La7  1  0.13440895  0.33502006  0.87439802  1
  La3+  La8  1  0.13760836  0.66966813  0.13110803  1
  La3+  La9  1  0.13850340  0.66594602  0.37030159  1
  La3+  La10  1  0.13469063  0.67420707  0.62806218  1
  La3+  La11  1  0.13985739  0.67532352  0.87171283  1
  La3+  La12  1  0.63363724  0.00158430  0.13409029  1
  La3+  La13  1  0.62496000  -0.01220713  0.38673594  1
  La3+  La14  1  0.63769028  -0.00975903  0.61697849  1
  La3+  La15  1  0.64108902  0.00059087  0.86940138  1
  La3+  La16  1  0.64293423  0.33172257  0.13246186  1
  La3+  La17  1  0.63749780  0.33129411  0.37190416  1
  La3+  La18  1  0.64133146  0.33709627  0.62539761  1
  La3+  La19  1  0.63783692  0.34019798  0.86939306  1
  La3+  La20  1  0.63594434  0.66116105  0.12575501  1
  La3+  La21  1  0.64282883  0.66558627  0.38147970  1
  La3+  La22  1  0.64193585  0.66983155  0.62112813  1
  La3+  La23  1  0.64282834  0.66169486  0.87952560  1
  La3+  La24  1  0.36304367  -0.00195867  0.13608996  1
  La3+  La25  1  0.35242117  0.00047380  0.37195733  1
  La3+  La26  1  0.36293846  -0.00515894  0.62184839  1
  La3+  La27  1  0.36142481  -0.00006802  0.87538657  1
  La3+  La28  1  0.36583324  0.33281682  0.13319977  1
  La3+  La29  1  0.36215951  0.32983028  0.37306003  1
  La3+  La30  1  0.36256197  0.32691279  0.62414042  1
  La3+  La31  1  0.35615580  0.32965510  0.87799356  1
  La3+  La32  1  0.36626047  0.66502068  0.13036856  1
  La3+  La33  1  0.36195808  0.66453508  0.37538519  1
  La3+  La34  1  0.36938775  0.67259302  0.62822927  1
  La3+  La35  1  0.36736723  0.66540307  0.87175310  1
  La3+  La36  1  0.87545541  0.01574450  0.11123686  1
  La3+  La37  1  0.85770918  0.00232662  0.37623105  1
  La3+  La38  1  0.85598049  -0.00212595  0.62369102  1
  La3+  La39  1  0.86859647  0.00772829  0.87987792  1
  La3+  La40  1  0.85211768  0.33342451  0.13145132  1
  La3+  La41  1  0.85955083  0.33457671  0.37206342  1
  La3+  La42  1  0.85867470  0.34245473  0.62566806  1
  La3+  La43  1  0.86113981  0.34135906  0.86783459  1
  La3+  La44  1  0.86137490  0.66327309  0.13406825  1
  La3+  La45  1  0.85892403  0.66164688  0.37221932  1
  La3+  La46  1  0.85074409  0.66737057  0.62232651  1
  La3+  La47  1  0.85886552  0.66768793  0.87115347  1
  La3+  La48  1  -0.00286966  0.16994972  0.62908389  1
  La3+  La49  1  0.49854195  0.83260195  0.86000464  1
  La3+  La50  1  0.00043847  0.16885386  0.11103283  1
  La3+  La51  1  0.50368789  0.82772808  0.12516583  1
  La3+  La52  1  0.00020203  0.16869864  0.37242408  1
  La3+  La53  1  0.00245160  0.50602787  0.85618574  1
  La3+  La54  1  0.50290189  0.84081162  0.38540901  1
  La3+  La55  1  -0.00020356  0.83508912  0.38684527  1
  La3+  La56  1  0.50057022  0.83532298  0.88207749  1
  La3+  La57  1  0.50328528  0.83099265  0.62440385  1
  La3+  La58  1  -0.00122584  0.82638539  0.11796784  1
  La3+  La59  1  0.50238641  0.82799982  0.60759937  1
  La3+  La60  1  0.00008324  0.51067070  0.12201106  1
  La3+  La61  1  0.00303068  0.49809094  0.62245933  1
  La3+  La62  1  0.50056152  0.17181457  0.62717452  1
  La3+  La63  1  0.50202775  0.16438986  0.87094832  1
  La3+  La64  1  0.50231457  0.49656227  0.37019023  1
  La3+  La65  1  -0.00011827  0.49856434  0.14050344  1
  La3+  La66  1  0.49743473  0.50529915  0.62071438  1
  La3+  La67  1  0.00518271  0.49594270  0.87509578  1
  La3+  La68  1  0.00081332  0.15139279  0.88332072  1
  La3+  La69  1  0.00025005  0.50069365  0.37426203  1
  La3+  La70  1  0.00142124  0.16527366  0.12765761  1
  La3+  La71  1  0.49809854  0.49634527  0.11557259  1
  La3+  La72  1  0.25000269  0.43970107  0.52084853  1
  La3+  La73  1  0.75126708  0.79041965  -0.04266458  1
  La3+  La74  1  0.25141237  0.49403179  0.29492538  1
  La3+  La75  1  0.24985399  0.49208125  -0.03837054  1
  La3+  La76  1  0.75027588  0.49864655  -0.01117882  1
  La3+  La77  1  0.75022226  0.18339917  -0.07840905  1
  La3+  La78  1  0.25141330  0.88871548  -0.01232066  1
  La3+  La79  1  0.74963718  0.82396194  0.72032857  1
  La3+  La80  1  0.24935042  0.15125974  0.83920935  1
  La3+  La81  1  0.75092455  0.82942648  0.45696760  1
  La3+  La82  1  0.24972790  0.09379392  0.48720672  1
  La3+  La83  1  0.25049815  0.57732597  0.74721235  1
  Ru4+  Ru84  1  -0.00089188  -0.00003057  -0.00071447  1
  Ru4+  Ru85  1  -0.00142227  -0.00259128  0.24573205  1
  Ru4+  Ru86  1  -0.00304872  0.00135298  0.49831329  1
  Ru4+  Ru87  1  0.00635354  -0.01602839  0.75385428  1
  Ru4+  Ru88  1  -0.00207004  0.32955012  0.00898053  1
  Ru4+  Ru89  1  -0.00459643  0.33951324  0.24155943  1
  Ru4+  Ru90  1  0.00272144  0.33011893  0.50049087  1
  Ru4+  Ru91  1  -0.00091149  0.31995655  0.75120409  1
  Ru4+  Ru92  1  0.00295966  0.67109069  0.00671984  1
  Ru4+  Ru93  1  -0.00175104  0.67119617  0.26369338  1
  Ru4+  Ru94  1  0.00224135  0.66514063  0.50440128  1
  Ru4+  Ru95  1  -0.00350525  0.68498708  0.75368972  1
  Ru4+  Ru96  1  0.50552594  0.00551324  0.00822470  1
  Ru4+  Ru97  1  0.49598350  0.00581754  0.24509587  1
  Ru4+  Ru98  1  0.49890439  0.00214916  0.49598589  1
  Ru4+  Ru99  1  0.50032078  0.00276550  0.74340858  1
  Ru4+  Ru100  1  0.49982321  0.32608060  0.00928629  1
  Ru4+  Ru101  1  0.50194769  0.32210467  0.24620380  1
  Ru4+  Ru102  1  0.49925686  0.32522643  0.50781121  1
  Ru4+  Ru103  1  0.49453845  0.34657148  0.74733517  1
  Ru4+  Ru104  1  0.50216519  0.67376144  -0.00956458  1
  Ru4+  Ru105  1  0.49391681  0.66062961  0.25473545  1
  Ru4+  Ru106  1  0.50078732  0.66658532  0.49894630  1
  Ru4+  Ru107  1  0.50379146  0.65756442  0.74600889  1
  Ru4+  Ru108  1  0.11517712  0.16729149  -0.00255178  1
  Ru4+  Ru109  1  0.11803783  0.15985075  0.25113559  1
  Ru4+  Ru110  1  0.10541727  0.16854267  0.50015003  1
  Ru4+  Ru111  1  0.11114528  0.15988378  0.74887180  1
  Ru4+  Ru112  1  0.11099304  0.50554842  0.00072666  1
  Ru4+  Ru113  1  0.11308447  0.49880244  0.25446651  1
  Ru4+  Ru114  1  0.10783508  0.49676478  0.50109795  1
  Ru4+  Ru115  1  0.10856176  0.50044728  0.74747318  1
  Ru4+  Ru116  1  0.10933977  0.83059118  -0.00470109  1
  Ru4+  Ru117  1  0.11605251  0.84383367  0.25299773  1
  Ru4+  Ru118  1  0.11158661  0.83431139  0.50090432  1
  Ru4+  Ru119  1  0.10707006  0.83682913  0.75063302  1
  Ru4+  Ru120  1  0.60977772  0.16762978  -0.00257608  1
  Ru4+  Ru121  1  0.60778929  0.16429377  0.25306616  1
  Ru4+  Ru122  1  0.61102323  0.16460151  0.50012271  1
  Ru4+  Ru123  1  0.61454916  0.16568900  0.75081591  1
  Ru4+  Ru124  1  0.61441866  0.49167714  -0.00121973  1
  Ru4+  Ru125  1  0.61347564  0.49974505  0.25263737  1
  Ru4+  Ru126  1  0.61535637  0.50226737  0.49862358  1
  Ru4+  Ru127  1  0.61266610  0.49854565  0.75294425  1
  Ru4+  Ru128  1  0.60957534  0.82988454  -0.00014349  1
  Ru4+  Ru129  1  0.61361226  0.82574822  0.25859036  1
  Ru4+  Ru130  1  0.61784499  0.84035873  0.50177242  1
  Ru4+  Ru131  1  0.61075872  0.83565071  0.74204577  1
  Ru4+  Ru132  1  0.39087130  0.16604018  -0.00040903  1
  Ru4+  Ru133  1  0.38940446  0.16302134  0.24886565  1
  Ru4+  Ru134  1  0.39223330  0.17266229  0.49602264  1
  Ru4+  Ru135  1  0.38803545  0.16230061  0.74997894  1
  Ru4+  Ru136  1  0.38470577  0.49236533  0.00054333  1
  Ru4+  Ru137  1  0.38982284  0.50330476  0.25028256  1
  Ru4+  Ru138  1  0.38632569  0.49570824  0.49967545  1
  Ru4+  Ru139  1  0.39802918  0.49216862  0.75271559  1
  Ru4+  Ru140  1  0.38829145  0.83619511  0.00135149  1
  Ru4+  Ru141  1  0.39065510  0.84300723  0.25218084  1
  Ru4+  Ru142  1  0.38274081  0.83863748  0.49664046  1
  Ru4+  Ru143  1  0.38190848  0.83788355  0.74665752  1
  Ru4+  Ru144  1  0.88932702  0.17018426  -0.00233137  1
  Ru4+  Ru145  1  0.88604724  0.16404930  0.24603084  1
  Ru4+  Ru146  1  0.88818679  0.16696014  0.50194819  1
  Ru4+  Ru147  1  0.88720202  0.16727279  0.75247528  1
  Ru4+  Ru148  1  0.88731325  0.50429786  0.00060124  1
  Ru4+  Ru149  1  0.88125927  0.49355100  0.25394173  1
  Ru4+  Ru150  1  0.88507257  0.50012560  0.50138500  1
  Ru4+  Ru151  1  0.88206937  0.50347989  0.74771594  1
  Ru4+  Ru152  1  0.89048651  0.83169299  0.00141801  1
  Ru4+  Ru153  1  0.88649174  0.83456752  0.25005531  1
  Ru4+  Ru154  1  0.89105309  0.83956509  0.50420318  1
  Ru4+  Ru155  1  0.89536176  0.83449551  0.74670026  1
  Ru4+  Ru156  1  0.24872166  0.26480217  0.49362670  1
  Ru4+  Ru157  1  0.25133899  0.74790049  0.00590505  1
  Ru4+  Ru158  1  0.74976779  0.24996937  0.75217906  1
  Ru4+  Ru159  1  0.24917472  0.05441228  0.71246904  1
  Ru4+  Ru160  1  0.74993812  0.92778283  -0.00182454  1
  Ru4+  Ru161  1  0.25018482  0.25458308  0.24826444  1
  Ru4+  Ru162  1  0.24960422  0.75550076  0.50451768  1
  Ru4+  Ru163  1  0.24880524  0.26583886  0.74010689  1
  Ru4+  Ru164  1  0.25091865  0.08727513  0.01435312  1
  Ru4+  Ru165  1  0.75114825  0.66754606  0.03087572  1
  Ru4+  Ru166  1  0.25060958  0.74683153  0.25416555  1
  Ru4+  Ru167  1  0.74911276  0.30188486  0.00748582  1
  Ru4+  Ru168  1  0.24920313  0.61077432  0.50844336  1
  Ru4+  Ru169  1  0.24816288  0.89225136  0.75057317  1
  Ru4+  Ru170  1  0.74979691  0.23900105  0.50230867  1
  Ru4+  Ru171  1  0.74949204  0.73963761  0.26394466  1
  Ru4+  Ru172  1  0.25107438  0.23711623  -0.01157565  1
  Ru4+  Ru173  1  0.24937546  0.61864247  0.04447234  1
  Ru4+  Ru174  1  0.74915657  0.08826986  0.50797214  1
  Ru4+  Ru175  1  0.25019258  0.36552003  0.02810650  1
  Ru4+  Ru176  1  0.74923366  0.57067879  0.74137758  1
  Ru4+  Ru177  1  0.75013767  0.91572595  0.26352403  1
  Ru4+  Ru178  1  0.24946599  0.40774149  0.74018455  1
  Ru4+  Ru179  1  0.74882597  0.07434881  0.01248318  1
  O2-  O180  1  0.16629996  0.08105201  0.00001212  1
  O2-  O181  1  0.16673932  0.07972305  0.25077741  1
  O2-  O182  1  0.15443163  0.07872533  0.50406097  1
  O2-  O183  1  0.16710595  0.07803841  0.74495572  1
  O2-  O184  1  0.16928028  0.40630459  -0.00019089  1
  O2-  O185  1  0.16816688  0.41204253  0.25020076  1
  O2-  O186  1  0.15700485  0.40927703  0.50051628  1
  O2-  O187  1  0.16621352  0.41200266  0.74812750  1
  O2-  O188  1  0.16724533  0.75053446  0.00260681  1
  O2-  O189  1  0.16577860  0.74800804  0.25283782  1
  O2-  O190  1  0.16475660  0.75001026  0.50045390  1
  O2-  O191  1  0.16422501  0.75334132  0.74295185  1
  O2-  O192  1  0.66634951  0.07865884  0.00166850  1
  O2-  O193  1  0.65927953  0.08163663  0.25138487  1
  O2-  O194  1  0.66480598  0.08014290  0.49773628  1
  O2-  O195  1  0.66578162  0.08316034  0.75019486  1
  O2-  O196  1  0.66793505  0.41228051  -0.00053877  1
  O2-  O197  1  0.66253862  0.41431239  0.25375642  1
  O2-  O198  1  0.66386013  0.41250207  0.49910446  1
  O2-  O199  1  0.66554449  0.41435397  0.74861878  1
  O2-  O200  1  0.66685531  0.74099086  0.00430273  1
  O2-  O201  1  0.66817693  0.74705195  0.25202692  1
  O2-  O202  1  0.66739274  0.74942502  0.49782732  1
  O2-  O203  1  0.66227565  0.74700422  0.75192413  1
  O2-  O204  1  0.33484975  0.25020203  0.00386941  1
  O2-  O205  1  0.33261432  0.25328281  0.24919995  1
  O2-  O206  1  0.33183949  0.25239699  0.49640419  1
  O2-  O207  1  0.33351064  0.25147566  0.75118043  1
  O2-  O208  1  0.33396955  0.58888620  0.00019484  1
  O2-  O209  1  0.33205184  0.58570858  0.25654149  1
  O2-  O210  1  0.33329279  0.58602503  0.50402552  1
  O2-  O211  1  0.34465265  0.58680279  0.74767374  1
  O2-  O212  1  0.34337149  0.92637900  0.00334341  1
  O2-  O213  1  0.33099640  0.91900448  0.24806376  1
  O2-  O214  1  0.33024224  0.91666012  0.49910178  1
  O2-  O215  1  0.32808381  0.91884898  0.74883024  1
  O2-  O216  1  0.83601177  0.25660183  -0.00324611  1
  O2-  O217  1  0.83898058  0.25227559  0.25379106  1
  O2-  O218  1  0.83359866  0.25148229  0.49938013  1
  O2-  O219  1  0.82918162  0.25249913  0.75247698  1
  O2-  O220  1  0.83145682  0.58763473  0.00226778  1
  O2-  O221  1  0.83379528  0.58311514  0.24986520  1
  O2-  O222  1  0.83488808  0.58309250  0.49875190  1
  O2-  O223  1  0.83200999  0.58873621  0.75291353  1
  O2-  O224  1  0.83600690  0.92424448  -0.00080233  1
  O2-  O225  1  0.83668324  0.91976368  0.24810485  1
  O2-  O226  1  0.83156984  0.91770557  0.49687250  1
  O2-  O227  1  0.83781677  0.91741442  0.75059268  1
  O2-  O228  1  0.16811791  0.25293186  -0.00283464  1
  O2-  O229  1  0.16652003  0.25313445  0.25033908  1
  O2-  O230  1  0.16374087  0.25591073  0.50177543  1
  O2-  O231  1  0.16509192  0.25587458  0.75019829  1
  O2-  O232  1  0.16533118  0.59109417  0.00097942  1
  O2-  O233  1  0.16770618  0.58547497  0.25304463  1
  O2-  O234  1  0.16577709  0.59011754  0.50399916  1
  O2-  O235  1  0.15428204  0.59294511  0.74440309  1
  O2-  O236  1  0.16056795  0.92187666  0.00523384  1
  O2-  O237  1  0.16989515  0.91787332  0.24809157  1
  O2-  O238  1  0.16581599  0.91622286  0.50471246  1
  O2-  O239  1  0.16674052  0.91538354  0.74639852  1
  O2-  O240  1  0.66361138  0.25582561  -0.00175043  1
  O2-  O241  1  0.66143510  0.25181646  0.25197417  1
  O2-  O242  1  0.66725981  0.24995661  0.49998395  1
  O2-  O243  1  0.66977553  0.25237695  0.75226218  1
  O2-  O244  1  0.67027945  0.58415306  0.00532385  1
  O2-  O245  1  0.66291387  0.58543023  0.25266751  1
  O2-  O246  1  0.66758323  0.58237940  0.50224633  1
  O2-  O247  1  0.66845738  0.58317866  0.74834716  1
  O2-  O248  1  0.66222085  0.91993862  0.00109816  1
  O2-  O249  1  0.66406772  0.91783235  0.25325614  1
  O2-  O250  1  0.67180514  0.92042542  0.49257910  1
  O2-  O251  1  0.66441447  0.92106174  0.74726121  1
  O2-  O252  1  0.33605217  0.08410729  0.00234708  1
  O2-  O253  1  0.33415929  0.08669199  0.25035314  1
  O2-  O254  1  0.34529493  0.07962407  0.50506212  1
  O2-  O255  1  0.32873542  0.07742767  0.74964503  1
  O2-  O256  1  0.33303913  0.40877554  0.00545864  1
  O2-  O257  1  0.33330776  0.41454354  0.25047123  1
  O2-  O258  1  0.34053462  0.40822673  0.49904166  1
  O2-  O259  1  0.33215939  0.41484642  0.75040433  1
  O2-  O260  1  0.33547441  0.74574391  -0.00113581  1
  O2-  O261  1  0.33329328  0.75006400  0.25511356  1
  O2-  O262  1  0.33253188  0.74653979  0.49972279  1
  O2-  O263  1  0.33624086  0.74839919  0.74878501  1
  O2-  O264  1  0.83244584  0.07837035  -0.00235204  1
  O2-  O265  1  0.84062174  0.07940890  0.24501014  1
  O2-  O266  1  0.83267842  0.08229780  0.49997295  1
  O2-  O267  1  0.83722344  0.08291276  0.75452346  1
  O2-  O268  1  0.83259144  0.41286241  -0.00296947  1
  O2-  O269  1  0.82925970  0.41450383  0.25357826  1
  O2-  O270  1  0.83402477  0.41308249  0.49590356  1
  O2-  O271  1  0.83380767  0.41222131  0.75028976  1
  O2-  O272  1  0.83933480  0.74336592  0.00173468  1
  O2-  O273  1  0.83112169  0.74608573  0.25268876  1
  O2-  O274  1  0.83842025  0.74880692  0.49828038  1
  O2-  O275  1  0.83473154  0.75336323  0.75709249  1
  O2-  O276  1  0.44356763  0.91061619  0.19600037  1
  O2-  O277  1  0.44992127  0.23568165  0.74560750  1
  O2-  O278  1  0.45336976  0.76696388  0.00594979  1
  O2-  O279  1  0.54789358  0.08615777  0.26875894  1
  O2-  O280  1  0.04726578  0.76148999  0.26997254  1
  O2-  O281  1  0.55166141  0.89746596  0.23883184  1
  O2-  O282  1  0.05205140  0.23378294  0.75274193  1
  O2-  O283  1  0.54992251  0.56328757  0.98015114  1
  O2-  O284  1  0.55177568  0.24756528  0.76903225  1
  O2-  O285  1  0.05408999  0.09066642  0.98794648  1
  O2-  O286  1  0.95296671  0.22028169  0.79506966  1
  O2-  O287  1  0.54799525  0.75830086  0.50642386  1
  O2-  O288  1  0.94356456  0.08977312  0.02636534  1
  O2-  O289  1  0.44852081  0.76308352  0.50467337  1
  O2-  O290  1  0.05047001  0.57125710  0.48628494  1
  O2-  O291  1  0.04134863  0.90040298  0.52707026  1
  O2-  O292  1  0.95615428  0.43159658  0.99707213  1
  O2-  O293  1  0.55123502  0.90413079  0.48252087  1
  O2-  O294  1  0.95382172  0.10404552  1.00902723  1
  O2-  O295  1  0.46363088  0.76706773  0.73440302  1
  O2-  O296  1  0.54622272  0.10203443  0.74407826  1
  O2-  O297  1  0.95498243  0.43475943  0.73518333  1
  O2-  O298  1  0.56083988  0.41192951  0.76955322  1
  O2-  O299  1  0.97266383  0.78830849  0.75634124  1
  O2-  O300  1  0.54596517  0.91474356  0.27227895  1
  O2-  O301  1  0.04512004  0.75721865  0.51055612  1
  O2-  O302  1  0.03727008  0.88412640  0.99057763  1
  O2-  O303  1  0.47514244  0.46351790  0.76828925  1
  O2-  O304  1  0.44926746  0.57690147  0.01727777  1
  O2-  O305  1  0.94978387  0.42731717  0.77272720  1
  O2-  O306  1  0.55048865  0.23950997  0.26138117  1
  O2-  O307  1  0.95185461  0.56731838  0.51928102  1
  O2-  O308  1  0.95223159  0.43151554  0.00554589  1
  O2-  O309  1  0.05328667  0.76799789  0.23227519  1
  O2-  O310  1  0.54956636  0.57833274  0.01550097  1
  O2-  O311  1  0.44741916  0.56943931  0.48193307  1
  O2-  O312  1  0.54465310  0.89755279  0.50797289  1
  O2-  O313  1  0.54534271  0.09799368  0.50568774  1
  O2-  O314  1  0.43997015  0.58775224  0.76312585  1
  O2-  O315  1  0.04614925  0.09828875  0.26330156  1
  O2-  O316  1  0.45703558  0.43065304  0.50060319  1
  O2-  O317  1  0.45021714  0.56507743  0.98060116  1
  O2-  O318  1  0.53312734  0.54779158  0.75518903  1
  O2-  O319  1  0.95193669  0.55996973  0.25603097  1
  O2-  O320  1  0.03890681  0.23553727  0.23463640  1
  O2-  O321  1  0.94887050  0.91540064  0.73786502  1
  O2-  O322  1  0.94643097  0.90975953  0.01884089  1
  O2-  O323  1  0.45382591  0.23793270  0.98684923  1
  O2-  O324  1  0.06595482  0.73727825  0.97389622  1
  O2-  O325  1  0.43443982  0.26171346  0.28002485  1
  O2-  O326  1  0.06033087  0.40588873  0.29179718  1
  O2-  O327  1  0.42064086  0.41835493  0.66829355  1
  O2-  O328  1  0.43921635  0.92037381  0.51696449  1
  O2-  O329  1  0.93415717  0.92027347  0.57446799  1
  O2-  O330  1  0.05948991  0.23830726  0.21190991  1
  O2-  O331  1  0.43554529  0.74527539  0.22634700  1
  O2-  O332  1  0.44333974  0.41143763  0.21654119  1
  O2-  O333  1  0.43682426  0.60171834  0.47558043  1
  O2-  O334  1  0.43705857  0.26247585  0.46339441  1
  O2-  O335  1  0.93363310  0.91992171  0.43702254  1
  O2-  O336  1  0.43381052  0.36590791  0.82864547  1
  O2-  O337  1  0.93386953  0.28157691  0.67604905  1
  O2-  O338  1  0.44257734  0.59525846  0.32468313  1
  O2-  O339  1  0.42821259  0.91281593  0.81873272  1
  O2-  O340  1  0.93761458  0.40676764  0.28902031  1
  O2-  O341  1  0.06260341  0.92860869  0.28600893  1
  O2-  O342  1  0.06232705  0.40348062  0.76890237  1
  O2-  O343  1  0.56532020  0.75301616  0.53442310  1
  O2-  O344  1  0.42588576  0.09236604  0.67612816  1
  O2-  O345  1  0.43495608  0.57518679  0.18045144  1
  O2-  O346  1  0.44592414  0.92004026  0.19601742  1
  O2-  O347  1  0.06004862  0.92953891  0.81973858  1
  O2-  O348  1  0.92460640  0.69742305  0.69972923  1
  O2-  O349  1  0.57092612  0.93438324  0.52815530  1
  O2-  O350  1  0.06793283  0.73709977  0.77375528  1
  O2-  O351  1  0.06534269  0.41618514  0.01975912  1
  O2-  O352  1  0.05980897  0.25082319  0.02755970  1
  O2-  O353  1  0.06485225  0.93871733  0.45327378  1
  O2-  O354  1  0.93380592  0.06856340  0.96930016  1
  O2-  O355  1  0.07014511  0.95088232  0.96722725  1
  O2-  O356  1  0.06243095  0.92865957  0.67681524  1
  O2-  O357  1  0.41992975  0.90853002  0.34565495  1
  O2-  O358  1  0.06065675  0.59347980  0.28571170  1
  O2-  O359  1  0.44355349  0.76329446  0.71070693  1
  O2-  O360  1  0.56455813  0.73857660  0.91991565  1
  O2-  O361  1  0.93457350  0.74464071  0.27324239  1
  O2-  O362  1  0.57162952  0.75117264  0.06834819  1
  O2-  O363  1  0.56273358  0.08092534  0.97703627  1
  O2-  O364  1  0.43794945  0.07753363  0.21837441  1
  O2-  O365  1  0.43059527  0.08846293  0.82169973  1
  O2-  O366  1  0.55928475  0.73461250  0.28870861  1
  O2-  O367  1  0.43118782  0.90753323  0.67792958  1
  O2-  O368  1  0.94200501  0.07901729  0.53525097  1
  O2-  O369  1  0.57825076  0.62051048  0.79607145  1
  O2-  O370  1  0.55978074  0.59130657  0.45890984  1
  O2-  O371  1  0.94123442  0.59050881  0.26831795  1
  O2-  O372  1  0.24895048  0.67796553  0.39386469  1
  O2-  O373  1  0.74950293  -0.00536300  0.42892141  1
  O2-  O374  1  0.75150401  0.66408800  0.89806357  1
  O2-  O375  1  0.74905867  0.37414194  0.10457107  1
  O2-  O376  1  0.75144330  -0.00709197  0.09568950  1
  O2-  O377  1  0.24904024  0.34227132  0.39331425  1
  O2-  O378  1  0.75053699  0.00726424  0.33956114  1
  O2-  O379  1  0.74868607  0.66953710  0.15540222  1
  O2-  O380  1  0.75027950  0.00923297  0.59550497  1
  O2-  O381  1  0.75084530  0.00840889  0.20958345  1
  O2-  O382  1  0.75020507  0.68275937  0.38094154  1
  O2-  O383  1  0.24975836  0.00017405  0.10061155  1
  O2-  O384  1  0.24931553  0.68122979  0.82521975  1
  O2-  O385  1  0.24771825  -0.00131155  0.39618668  1
  O2-  O386  1  0.75162414  0.00522354  0.89658440  1
  O2-  O387  1  0.74970408  0.32561293  0.17867739  1
  O2-  O388  1  0.75078316  0.66387278  0.66254655  1
  O2-  O389  1  0.75000218  0.33352816  0.88071776  1
  O2-  O390  1  0.25042363  0.00943398  0.93418592  1
  O2-  O391  1  0.24819115  0.33807932  0.63059893  1
  O2-  O392  1  0.25131485  0.66530852  0.15963835  1
  O2-  O393  1  0.25088834  0.66432542  0.91721756  1
  O2-  O394  1  0.24862565  0.32832848  0.85492845  1
  O2-  O395  1  0.24787526  -0.00945755  0.81115008  1
  O2-  O396  1  0.24975579  0.17593822  0.08711903  1
  O2-  O397  1  0.24906445  0.15729664  0.30926386  1
  O2-  O398  1  0.75091293  0.17125177  0.33054848  1
  O2-  O399  1  0.75064372  0.83436147  0.58792163  1
  O2-  O400  1  0.74986853  0.82749387  0.19691669  1
  O2-  O401  1  0.25005370  0.16229961  0.69308138  1
  O2-  O402  1  0.74926836  0.85895671  0.84900497  1
  O2-  O403  1  0.75029455  0.84310182  0.08103167  1
  O2-  O404  1  0.24923752  0.47614120  0.83330418  1
  O2-  O405  1  0.24880052  0.48886530  0.16944296  1
  O2-  O406  1  0.25010148  0.82375773  0.59122588  1
  O2-  O407  1  0.75035808  0.16353142  0.08982808  1
  O2-  O408  1  0.24990173  0.81665473  0.10864967  1
  O2-  O409  1  0.24952537  0.83344556  0.84919947  1
  O2-  O410  1  0.24936240  0.49199300  0.64629296  1
  O2-  O411  1  0.75090701  0.50197790  0.65993832  1
  O2-  O412  1  0.75036476  0.51032915  0.84356015  1
  O2-  O413  1  0.24884294  0.53019401  0.42113857  1
  O2-  O414  1  0.24985018  0.83938241  0.19239057  1
  O2-  O415  1  0.75092363  0.16523772  0.41692469  1
  O2-  O416  1  0.25011071  0.51418444  0.08990082  1
  O2-  O417  1  0.24902839  0.16213845  0.17587498  1
  O2-  O418  1  0.24939861  0.19567414  0.57890900  1
  O2-  O419  1  0.24938472  0.19464224  0.39304873  1
  O2-  O420  1  0.95222689  0.66445426  0.10832600  1
  O2-  O421  1  0.52934876  -0.00187263  0.12655045  1
  O2-  O422  1  0.52661159  0.33958842  0.12475650  1
  O2-  O423  1  0.97381290  0.66731291  0.38746776  1
  O2-  O424  1  0.04542627  0.65895154  0.12112411  1
  O2-  O425  1  0.45710245  0.64977384  0.61374600  1
  O2-  O426  1  0.02975343  -0.00379228  0.12452918  1
  O2-  O427  1  0.45905402  0.30739722  0.61095335  1
  O2-  O428  1  0.54999725  0.33954617  0.61532803  1
  O2-  O429  1  0.54523498  -0.02029375  0.85127993  1
  O2-  O430  1  0.53206823  0.64731621  0.14837601  1
  O2-  O431  1  0.47953963  0.01534934  0.37920445  1
  O2-  O432  1  0.47026145  0.01430693  0.60418323  1
  O2-  O433  1  0.52626735  0.34639855  0.37824935  1
  O2-  O434  1  0.94890953  0.31658133  0.13078753  1
  O2-  O435  1  0.45732076  0.00009270  0.92197188  1
  O2-  O436  1  0.47178157  0.67812514  0.87053408  1
  O2-  O437  1  0.47762033  0.67618299  0.10770500  1
  O2-  O438  1  0.03676968  0.35573350  0.13497336  1
  O2-  O439  1  0.97419188  0.01581229  0.36307995  1
  O2-  O440  1  0.54734849  0.66246317  0.64291460  1
  O2-  O441  1  0.02005625  0.64866788  0.87675983  1
  O2-  O442  1  0.55014820  -0.00234865  0.65265961  1
  O2-  O443  1  0.02559752  0.33129330  0.88634730  1
