# generated using pymatgen
data_La7(Ru4O11)2
_symmetry_space_group_name_H-M   'P 1'
_cell_length_a   23.98961453
_cell_length_b   16.82951161
_cell_length_c   15.42648214
_cell_angle_alpha   89.99954944
_cell_angle_beta   90.00024347
_cell_angle_gamma   89.99926711
_symmetry_Int_Tables_number   1
_chemical_formula_structural   La7(Ru4O11)2
_chemical_formula_sum   'La84 Ru96 O264'
_cell_volume   6228.18756974
_cell_formula_units_Z   12
loop_
 _symmetry_equiv_pos_site_id
 _symmetry_equiv_pos_as_xyz
  1  'x, y, z'
loop_
 _atom_type_symbol
 _atom_type_oxidation_number
  La3+  3.0
  Ru4+  4.0
  O2-  -2.0
loop_
 _atom_site_type_symbol
 _atom_site_label
 _atom_site_symmetry_multiplicity
 _atom_site_fract_x
 _atom_site_fract_y
 _atom_site_fract_z
 _atom_site_occupancy
  La3+  La0  1  0.13841946  -0.00163935  0.12286491  1
  La3+  La1  1  0.13839269  -0.00234977  0.37685220  1
  La3+  La2  1  0.13768855  -0.00058583  0.62499979  1
  La3+  La3  1  0.13993332  -0.00048854  0.87783748  1
  La3+  La4  1  0.14041828  0.33307604  0.12751994  1
  La3+  La5  1  0.14076536  0.33471554  0.37505201  1
  La3+  La6  1  0.14005376  0.33278946  0.62265808  1
  La3+  La7  1  0.13803879  0.33131973  0.87510856  1
  La3+  La8  1  0.14035236  0.66783346  0.12386155  1
  La3+  La9  1  0.13894090  0.66687461  0.37406269  1
  La3+  La10  1  0.14035026  0.66961628  0.62347635  1
  La3+  La11  1  0.13996399  0.66936977  0.87666014  1
  La3+  La12  1  0.63928594  -0.00019233  0.12205755  1
  La3+  La13  1  0.63858186  0.00104103  0.37784723  1
  La3+  La14  1  0.64115908  0.00080060  0.62203867  1
  La3+  La15  1  0.64069705  -0.00095851  0.87705225  1
  La3+  La16  1  0.63867364  0.33303028  0.12630819  1
  La3+  La17  1  0.63946246  0.33115898  0.37490779  1
  La3+  La18  1  0.63844338  0.33220489  0.62433295  1
  La3+  La19  1  0.63818819  0.33460760  0.87422828  1
  La3+  La20  1  0.63922907  0.66580947  0.12338157  1
  La3+  La21  1  0.63872004  0.66799622  0.37636006  1
  La3+  La22  1  0.63853348  0.66826082  0.62499812  1
  La3+  La23  1  0.63798176  0.66670418  0.87563866  1
  La3+  La24  1  0.36116090  -0.00034725  0.12384427  1
  La3+  La25  1  0.36147003  -0.00176853  0.37624715  1
  La3+  La26  1  0.36518970  0.00148471  0.62832147  1
  La3+  La27  1  0.36292741  0.00322265  0.87247420  1
  La3+  La28  1  0.35865665  0.33390596  0.12657235  1
  La3+  La29  1  0.35898467  0.33516676  0.37600881  1
  La3+  La30  1  0.36034043  0.33345191  0.62412246  1
  La3+  La31  1  0.36257825  0.33256129  0.87493985  1
  La3+  La32  1  0.35884323  0.66773819  0.12367116  1
  La3+  La33  1  0.36056934  0.66632115  0.37389293  1
  La3+  La34  1  0.36073671  0.66698763  0.62485702  1
  La3+  La35  1  0.36064666  0.66799151  0.87629396  1
  La3+  La36  1  0.86200631  0.00033663  0.12325877  1
  La3+  La37  1  0.86046944  0.00078460  0.37757551  1
  La3+  La38  1  0.85801115  0.00023042  0.62259501  1
  La3+  La39  1  0.85963239  -0.00097443  0.87693767  1
  La3+  La40  1  0.86374778  0.33312046  0.12779565  1
  La3+  La41  1  0.86181665  0.33009561  0.37472780  1
  La3+  La42  1  0.86250236  0.33147008  0.62370825  1
  La3+  La43  1  0.86306451  0.33348012  0.87433198  1
  La3+  La44  1  0.86166503  0.66582079  0.12351046  1
  La3+  La45  1  0.86260057  0.66752201  0.37689530  1
  La3+  La46  1  0.85996312  0.66927880  0.62494507  1
  La3+  La47  1  0.86218441  0.66602060  0.87476883  1
  La3+  La48  1  0.50041343  0.16563250  0.11298737  1
  La3+  La49  1  0.50089130  0.83542115  0.36551356  1
  La3+  La50  1  0.00027065  0.83456232  0.61140432  1
  La3+  La51  1  -0.00060359  0.50068260  0.87398384  1
  La3+  La52  1  0.49682836  0.82946778  0.38591893  1
  La3+  La53  1  0.49983586  0.83514460  0.63701135  1
  La3+  La54  1  0.00009505  0.82933504  0.63320911  1
  La3+  La55  1  0.49964865  0.16574784  0.13536109  1
  La3+  La56  1  0.49963727  0.83322701  0.11420696  1
  La3+  La57  1  0.49903034  0.16635949  0.86400450  1
  La3+  La58  1  0.49801202  0.49682186  0.62180275  1
  La3+  La59  1  -0.00478117  0.16807689  0.36432787  1
  La3+  La60  1  0.00005955  0.49579066  0.37643244  1
  La3+  La61  1  0.49902591  0.16600415  0.63547179  1
  La3+  La62  1  0.50124979  0.83023489  0.61520092  1
  La3+  La63  1  0.49935483  0.49964055  0.38472632  1
  La3+  La64  1  -0.00103381  0.17142971  0.61380416  1
  La3+  La65  1  0.00057083  0.16963749  0.63030225  1
  La3+  La66  1  0.49720483  0.50325374  0.11142571  1
  La3+  La67  1  0.00019536  0.50002421  0.13320147  1
  La3+  La68  1  0.00290570  0.16804398  0.38352390  1
  La3+  La69  1  0.50116944  0.16341179  0.36737108  1
  La3+  La70  1  0.50113112  0.83682225  0.87188391  1
  La3+  La71  1  0.50103142  0.49873843  0.13237712  1
  La3+  La72  1  0.74991728  0.80047730  0.74929465  1
  La3+  La73  1  0.24988242  0.83214277  0.24941570  1
  La3+  La74  1  0.24954748  0.20650142  0.49388005  1
  La3+  La75  1  0.74984377  0.13852501  0.74346377  1
  La3+  La76  1  0.25026770  0.20578007  0.26497718  1
  La3+  La77  1  0.75007297  0.13262472  -0.03199487  1
  La3+  La78  1  0.74995055  0.47250176  0.75761050  1
  La3+  La79  1  0.74977858  0.83130890  0.28110988  1
  La3+  La80  1  0.25065144  0.50327032  0.77373921  1
  La3+  La81  1  0.75001156  0.49579277  0.51245310  1
  La3+  La82  1  0.25012787  0.16644468  0.02127475  1
  La3+  La83  1  0.25016953  0.54039621  -0.00223432  1
  Ru4+  Ru84  1  -0.00037626  0.00175360  -0.00069019  1
  Ru4+  Ru85  1  -0.00066645  -0.00223163  0.24600876  1
  Ru4+  Ru86  1  0.00022173  -0.00365137  0.49995757  1
  Ru4+  Ru87  1  -0.00059401  -0.00231489  0.75377049  1
  Ru4+  Ru88  1  -0.00234428  0.33127034  0.00107291  1
  Ru4+  Ru89  1  -0.00274194  0.33510059  0.24437864  1
  Ru4+  Ru90  1  0.00219509  0.33884027  0.50163164  1
  Ru4+  Ru91  1  -0.00233370  0.33190938  0.75303734  1
  Ru4+  Ru92  1  0.00035472  0.66521386  0.00227443  1
  Ru4+  Ru93  1  0.00073018  0.66736517  0.24716751  1
  Ru4+  Ru94  1  0.00243720  0.67242788  0.50311760  1
  Ru4+  Ru95  1  0.00031141  0.66730766  0.74855864  1
  Ru4+  Ru96  1  0.49990502  0.00051051  0.00034344  1
  Ru4+  Ru97  1  0.50002117  0.00166919  0.24976494  1
  Ru4+  Ru98  1  0.50133882  0.00555523  0.50130528  1
  Ru4+  Ru99  1  0.49996538  0.00287563  0.75072175  1
  Ru4+  Ru100  1  0.49858474  0.33611716  -0.00655626  1
  Ru4+  Ru101  1  0.50042915  0.33395161  0.25298631  1
  Ru4+  Ru102  1  0.50164239  0.33662680  0.49539983  1
  Ru4+  Ru103  1  0.49885767  0.33550483  0.75202090  1
  Ru4+  Ru104  1  0.49700727  0.66357058  -0.00227045  1
  Ru4+  Ru105  1  0.49992383  0.66668769  0.25163815  1
  Ru4+  Ru106  1  0.49845189  0.66636930  0.49714200  1
  Ru4+  Ru107  1  0.50182372  0.66290901  0.75095934  1
  Ru4+  Ru108  1  0.11267798  0.16811692  -0.00048123  1
  Ru4+  Ru109  1  0.11385211  0.16642366  0.24877864  1
  Ru4+  Ru110  1  0.11215276  0.16750372  0.50062700  1
  Ru4+  Ru111  1  0.11394753  0.16881076  0.75096004  1
  Ru4+  Ru112  1  0.11160666  0.50042608  0.00041989  1
  Ru4+  Ru113  1  0.11387762  0.49947549  0.25028296  1
  Ru4+  Ru114  1  0.11465012  0.49719886  0.50043587  1
  Ru4+  Ru115  1  0.11203085  0.50229250  0.74855798  1
  Ru4+  Ru116  1  0.11491618  0.82972291  -0.00004880  1
  Ru4+  Ru117  1  0.11311284  0.83281297  0.25069620  1
  Ru4+  Ru118  1  0.11366590  0.83479580  0.49888631  1
  Ru4+  Ru119  1  0.11441774  0.83135706  0.75085878  1
  Ru4+  Ru120  1  0.61175276  0.16409001  0.00012694  1
  Ru4+  Ru121  1  0.61400807  0.16668326  0.25018822  1
  Ru4+  Ru122  1  0.61450898  0.16613813  0.50019053  1
  Ru4+  Ru123  1  0.61192267  0.16496476  0.75016798  1
  Ru4+  Ru124  1  0.61342816  0.50245685  -0.00013769  1
  Ru4+  Ru125  1  0.61255177  0.49776985  0.25029156  1
  Ru4+  Ru126  1  0.61141299  0.49841596  0.49982762  1
  Ru4+  Ru127  1  0.61058334  0.49918620  0.75002282  1
  Ru4+  Ru128  1  0.61578334  0.83798842  -0.00006449  1
  Ru4+  Ru129  1  0.61212409  0.83329393  0.24926352  1
  Ru4+  Ru130  1  0.61640429  0.83221763  0.50026836  1
  Ru4+  Ru131  1  0.61286648  0.83142727  0.75040090  1
  Ru4+  Ru132  1  0.38677518  0.16440117  -0.00082620  1
  Ru4+  Ru133  1  0.38819410  0.16603641  0.25052044  1
  Ru4+  Ru134  1  0.38746453  0.16508253  0.50102932  1
  Ru4+  Ru135  1  0.38864138  0.16605098  0.75001755  1
  Ru4+  Ru136  1  0.38847626  0.49981529  -0.00074140  1
  Ru4+  Ru137  1  0.38521680  0.49964881  0.25107985  1
  Ru4+  Ru138  1  0.38660307  0.49800975  0.49990724  1
  Ru4+  Ru139  1  0.38898528  0.50023079  0.74944261  1
  Ru4+  Ru140  1  0.38624281  0.83206372  -0.00028084  1
  Ru4+  Ru141  1  0.38640271  0.83362443  0.24954749  1
  Ru4+  Ru142  1  0.38486099  0.83216856  0.49987925  1
  Ru4+  Ru143  1  0.38451422  0.83434970  0.75009486  1
  Ru4+  Ru144  1  0.88998175  0.16718730  0.00056887  1
  Ru4+  Ru145  1  0.88634895  0.16937571  0.24862510  1
  Ru4+  Ru146  1  0.88213781  0.16439267  0.50182239  1
  Ru4+  Ru147  1  0.88773498  0.16802848  0.75173895  1
  Ru4+  Ru148  1  0.88726538  0.50167750  0.00028581  1
  Ru4+  Ru149  1  0.88822179  0.49851869  0.24951094  1
  Ru4+  Ru150  1  0.88687725  0.49678143  0.50116887  1
  Ru4+  Ru151  1  0.88886160  0.49904036  0.74993095  1
  Ru4+  Ru152  1  0.88446577  0.83355983  0.00068803  1
  Ru4+  Ru153  1  0.88933986  0.83395104  0.25096608  1
  Ru4+  Ru154  1  0.88519465  0.83387032  0.49983754  1
  Ru4+  Ru155  1  0.88772128  0.83216733  0.75000791  1
  Ru4+  Ru156  1  0.75009334  0.09073027  0.25462570  1
  Ru4+  Ru157  1  0.75002241  0.75542501  -0.00148438  1
  Ru4+  Ru158  1  0.25030344  0.37604764  0.76008033  1
  Ru4+  Ru159  1  0.25002550  0.57769835  0.49372341  1
  Ru4+  Ru160  1  0.25016799  0.39320055  0.00517810  1
  Ru4+  Ru161  1  0.25011678  0.06421132  0.25731536  1
  Ru4+  Ru162  1  0.24996153  0.62396757  0.73018656  1
  Ru4+  Ru163  1  0.75014621  0.70905771  0.26506010  1
  Ru4+  Ru164  1  0.75004137  0.41096573  0.24610341  1
  Ru4+  Ru165  1  0.75025343  0.94995854  0.25211169  1
  Ru4+  Ru166  1  0.75004478  0.94062994  0.74749704  1
  Ru4+  Ru167  1  0.24993031  0.58433103  0.25057879  1
  Ru4+  Ru168  1  0.75002824  0.41912897  0.00118408  1
  Ru4+  Ru169  1  0.74984712  0.27329641  0.74668743  1
  Ru4+  Ru170  1  0.74984989  0.60824529  0.75092872  1
  Ru4+  Ru171  1  0.74986168  0.57944296  0.24431279  1
  Ru4+  Ru172  1  0.25001603  0.06151532  0.50015820  1
  Ru4+  Ru173  1  0.24964697  0.07716664  0.75167796  1
  Ru4+  Ru174  1  0.74984820  0.37102535  0.49638639  1
  Ru4+  Ru175  1  0.74966771  0.62181567  0.49877085  1
  Ru4+  Ru176  1  0.74999865  0.27082425  0.00761534  1
  Ru4+  Ru177  1  0.24977772  0.91839644  0.75132997  1
  Ru4+  Ru178  1  0.24988320  0.75714362  0.49824536  1
  Ru4+  Ru179  1  0.25017114  0.91111701  0.00094176  1
  O2-  O180  1  0.16794305  0.08071540  0.00179924  1
  O2-  O181  1  0.16740692  0.08014152  0.24969059  1
  O2-  O182  1  0.16861202  0.07915562  0.50036172  1
  O2-  O183  1  0.16827802  0.07992164  0.74906219  1
  O2-  O184  1  0.16739159  0.41300778  -0.00055962  1
  O2-  O185  1  0.16569221  0.41538180  0.25009714  1
  O2-  O186  1  0.16493129  0.41625767  0.50051868  1
  O2-  O187  1  0.16672701  0.41263057  0.75116690  1
  O2-  O188  1  0.16493325  0.74983461  -0.00026737  1
  O2-  O189  1  0.16744879  0.74755903  0.24989759  1
  O2-  O190  1  0.16795466  0.74823967  0.49963163  1
  O2-  O191  1  0.16696671  0.74909097  0.74994694  1
  O2-  O192  1  0.66552885  0.08087733  0.00087048  1
  O2-  O193  1  0.66781352  0.08055115  0.24977598  1
  O2-  O194  1  0.66660321  0.08224958  0.49842062  1
  O2-  O195  1  0.66599222  0.08000412  0.75032944  1
  O2-  O196  1  0.66839866  0.41401527  0.00037712  1
  O2-  O197  1  0.66766755  0.41466177  0.24952324  1
  O2-  O198  1  0.66631197  0.41289598  0.49996157  1
  O2-  O199  1  0.66739857  0.41327946  0.74982198  1
  O2-  O200  1  0.66845580  0.74747983  -0.00050629  1
  O2-  O201  1  0.66595366  0.74567205  0.24981492  1
  O2-  O202  1  0.66709475  0.74807226  0.49961523  1
  O2-  O203  1  0.66529146  0.74530686  0.75026132  1
  O2-  O204  1  0.33169615  0.25330034  -0.00061816  1
  O2-  O205  1  0.33476417  0.25391106  0.25005648  1
  O2-  O206  1  0.33437480  0.25344641  0.49981185  1
  O2-  O207  1  0.33450591  0.25167854  0.75009486  1
  O2-  O208  1  0.33608094  0.58655885  0.00001231  1
  O2-  O209  1  0.33224132  0.58586703  0.25003503  1
  O2-  O210  1  0.33357932  0.58616206  0.50007433  1
  O2-  O211  1  0.33364248  0.58756282  0.74988577  1
  O2-  O212  1  0.33294018  0.91884171  0.00001052  1
  O2-  O213  1  0.33203691  0.91960442  0.25086708  1
  O2-  O214  1  0.33194579  0.92045165  0.49991341  1
  O2-  O215  1  0.33144174  0.91875245  0.74991899  1
  O2-  O216  1  0.83303109  0.25355876  -0.00009368  1
  O2-  O217  1  0.83251114  0.25142838  0.25020081  1
  O2-  O218  1  0.83244863  0.25298301  0.49991678  1
  O2-  O219  1  0.83223803  0.25306301  0.74946694  1
  O2-  O220  1  0.83339357  0.58528262  -0.00072104  1
  O2-  O221  1  0.83293779  0.58603032  0.25025989  1
  O2-  O222  1  0.83300303  0.58725466  0.49960747  1
  O2-  O223  1  0.83157750  0.58644414  0.75086163  1
  O2-  O224  1  0.83307652  0.91705927  -0.00000388  1
  O2-  O225  1  0.83300771  0.92050014  0.24923904  1
  O2-  O226  1  0.83448121  0.91826196  0.50011099  1
  O2-  O227  1  0.83238600  0.92071240  0.74990977  1
  O2-  O228  1  0.16678695  0.25285843  -0.00045766  1
  O2-  O229  1  0.16502046  0.25346524  0.24990416  1
  O2-  O230  1  0.16410970  0.25332849  0.50054765  1
  O2-  O231  1  0.16620009  0.25196141  0.75129603  1
  O2-  O232  1  0.16433008  0.58643975  -0.00009261  1
  O2-  O233  1  0.16802138  0.58583558  0.24988212  1
  O2-  O234  1  0.16758549  0.58633446  0.49948477  1
  O2-  O235  1  0.16770906  0.58645569  0.75042548  1
  O2-  O236  1  0.16820027  0.91924145  0.00095360  1
  O2-  O237  1  0.16772676  0.91964468  0.24987710  1
  O2-  O238  1  0.16754706  0.91890120  0.50094552  1
  O2-  O239  1  0.16971377  0.91835014  0.74874507  1
  O2-  O240  1  0.66725646  0.25428991  0.00032456  1
  O2-  O241  1  0.66652491  0.25257033  0.24924457  1
  O2-  O242  1  0.66747454  0.25257610  0.49974184  1
  O2-  O243  1  0.66832621  0.25432634  0.75023685  1
  O2-  O244  1  0.66703016  0.58510365  -0.00076385  1
  O2-  O245  1  0.66761186  0.58640244  0.25030160  1
  O2-  O246  1  0.66694598  0.58769499  0.50026482  1
  O2-  O247  1  0.66814437  0.58641348  0.75041284  1
  O2-  O248  1  0.66660021  0.91767893  0.00114020  1
  O2-  O249  1  0.66590435  0.92112366  0.24996194  1
  O2-  O250  1  0.66583860  0.91872524  0.49927005  1
  O2-  O251  1  0.66737312  0.92083599  0.75019562  1
  O2-  O252  1  0.33271172  0.08099968  0.00001383  1
  O2-  O253  1  0.33293829  0.07951381  0.25057577  1
  O2-  O254  1  0.33293268  0.08019802  0.49958874  1
  O2-  O255  1  0.33146124  0.07964831  0.74971727  1
  O2-  O256  1  0.33101723  0.41288313  0.00001674  1
  O2-  O257  1  0.33413006  0.41536263  0.25031637  1
  O2-  O258  1  0.33327696  0.41580081  0.50078487  1
  O2-  O259  1  0.33341248  0.41277184  0.75029650  1
  O2-  O260  1  0.33411776  0.74873983  -0.00054027  1
  O2-  O261  1  0.33223993  0.74736730  0.25004942  1
  O2-  O262  1  0.33276533  0.74768829  0.49973774  1
  O2-  O263  1  0.33184177  0.74798194  0.75065411  1
  O2-  O264  1  0.83473064  0.08147161  0.00032199  1
  O2-  O265  1  0.83232429  0.08080482  0.25016027  1
  O2-  O266  1  0.83379209  0.08120337  0.49946516  1
  O2-  O267  1  0.83282509  0.07995377  0.74948655  1
  O2-  O268  1  0.83179887  0.41434184  -0.00004970  1
  O2-  O269  1  0.83151197  0.41441469  0.24987141  1
  O2-  O270  1  0.83332247  0.41176735  0.50067780  1
  O2-  O271  1  0.83361663  0.41294716  0.74902064  1
  O2-  O272  1  0.83302398  0.74863296  -0.00071483  1
  O2-  O273  1  0.83480401  0.74634472  0.24977446  1
  O2-  O274  1  0.83427127  0.74775835  0.49954425  1
  O2-  O275  1  0.83472808  0.74575661  0.75110309  1
  O2-  O276  1  0.45418034  0.43186208  0.23878515  1
  O2-  O277  1  0.04832339  0.43095734  0.23622166  1
  O2-  O278  1  0.95368719  0.23291914  0.01341099  1
  O2-  O279  1  0.95431871  0.43386919  0.01291042  1
  O2-  O280  1  0.54484633  0.23442434  0.98512642  1
  O2-  O281  1  0.02965239  0.54418741  0.72673588  1
  O2-  O282  1  0.54688668  0.76298139  0.23251234  1
  O2-  O283  1  0.04537787  0.56794002  0.01241812  1
  O2-  O284  1  0.44599657  0.91406274  0.52004597  1
  O2-  O285  1  0.04674214  0.23742332  0.25982759  1
  O2-  O286  1  0.45230462  0.76201528  0.26344931  1
  O2-  O287  1  0.46036615  0.77454252  0.77857237  1
  O2-  O288  1  0.94684478  0.58084074  0.46840809  1
  O2-  O289  1  0.95488606  0.42992253  0.48610111  1
  O2-  O290  1  0.04010373  0.10541094  0.02676295  1
  O2-  O291  1  0.95333612  0.23651049  0.48619659  1
  O2-  O292  1  0.94106554  0.41609918  0.22651670  1
  O2-  O293  1  0.54806518  0.90147706  0.48693584  1
  O2-  O294  1  0.04553813  0.23632861  0.23897894  1
  O2-  O295  1  0.55448937  0.75340009  0.96862966  1
  O2-  O296  1  0.95400615  0.09671351  0.51558882  1
  O2-  O297  1  0.04484902  0.76085974  0.76479148  1
  O2-  O298  1  0.45328606  0.90273114  0.23462413  1
  O2-  O299  1  0.04413600  0.55922961  0.47577083  1
  O2-  O300  1  0.03611056  0.88735113  0.75829065  1
  O2-  O301  1  0.95117790  0.43015653  0.76228752  1
  O2-  O302  1  0.95433468  0.57020960  0.23603532  1
  O2-  O303  1  0.54703594  0.43061555  0.01189366  1
  O2-  O304  1  0.04847942  0.89902305  0.98143753  1
  O2-  O305  1  0.04041562  0.10127036  0.22148015  1
  O2-  O306  1  0.45151631  0.09290000  0.73943975  1
  O2-  O307  1  0.54620027  0.56987350  0.23836896  1
  O2-  O308  1  0.54851459  0.90379865  0.26127067  1
  O2-  O309  1  0.95041200  0.90254829  0.73595952  1
  O2-  O310  1  0.95881644  0.10863168  0.71958588  1
  O2-  O311  1  0.54569876  0.90381071  0.76487072  1
  O2-  O312  1  0.05717942  0.08355408  0.71146126  1
  O2-  O313  1  0.45250961  0.23347198  0.26310968  1
  O2-  O314  1  0.53894898  0.55596129  0.52999044  1
  O2-  O315  1  0.45940361  0.22417204  0.47534368  1
  O2-  O316  1  0.04676049  0.90292172  0.02013574  1
  O2-  O317  1  0.45267493  0.76716038  0.98701728  1
  O2-  O318  1  0.45760028  0.10938993  0.75957628  1
  O2-  O319  1  0.04450810  0.43185274  0.77589857  1
  O2-  O320  1  0.95621091  0.89398054  0.97289444  1
  O2-  O321  1  0.94117399  0.58763534  0.79317871  1
  O2-  O322  1  0.96718055  0.88241757  0.25510629  1
  O2-  O323  1  0.54681475  0.23574194  0.26427984  1
  O2-  O324  1  0.06822149  0.39314993  0.70439248  1
  O2-  O325  1  0.93409048  0.26026024  0.22258161  1
  O2-  O326  1  0.56432906  0.26128577  0.80439803  1
  O2-  O327  1  0.06796548  0.06029964  0.29431075  1
  O2-  O328  1  0.07736675  0.94231974  0.78511471  1
  O2-  O329  1  0.44325714  0.92084169  0.52624672  1
  O2-  O330  1  0.93529943  0.26221751  0.77688723  1
  O2-  O331  1  0.56285328  0.93141818  0.96724679  1
  O2-  O332  1  0.93860580  0.26006818  0.46718193  1
  O2-  O333  1  0.43561934  0.40614104  0.47130941  1
  O2-  O334  1  0.06613934  0.59523716  0.27928817  1
  O2-  O335  1  0.56457201  0.07301720  0.52901093  1
  O2-  O336  1  0.06488432  0.07095494  0.46738099  1
  O2-  O337  1  0.95043231  0.57543723  0.79387369  1
  O2-  O338  1  0.07298577  0.06756485  0.81648024  1
  O2-  O339  1  0.57081199  0.60945457  0.44623397  1
  O2-  O340  1  0.55429624  0.75363462  0.96858906  1
  O2-  O341  1  0.43330415  0.25848443  0.04940920  1
  O2-  O342  1  0.06911323  0.06587374  0.96175353  1
  O2-  O343  1  0.93153517  0.60382635  0.56287854  1
  O2-  O344  1  0.42929608  0.26664711  0.54225497  1
  O2-  O345  1  0.93037556  0.60674024  0.68074029  1
  O2-  O346  1  0.56891487  0.73268721  0.05483246  1
  O2-  O347  1  0.43256132  0.06635360  0.78344611  1
  O2-  O348  1  0.07091255  0.60025727  0.54167168  1
  O2-  O349  1  0.43533548  0.07194811  0.02846013  1
  O2-  O350  1  0.94348333  0.57894591  0.45731497  1
  O2-  O351  1  0.93146780  0.93596703  0.03818814  1
  O2-  O352  1  0.56615847  0.25885216  0.70126838  1
  O2-  O353  1  0.07707955  0.60993680  0.69253173  1
  O2-  O354  1  0.92894779  0.05793691  0.79990659  1
  O2-  O355  1  0.43457919  0.40677357  0.97252514  1
  O2-  O356  1  0.92586842  0.94508457  0.29164258  1
  O2-  O357  1  0.43487869  0.92925923  0.71608519  1
  O2-  O358  1  0.06309895  0.92919147  0.46790234  1
  O2-  O359  1  0.42639977  0.72858497  0.70596730  1
  O2-  O360  1  0.94575013  0.42035727  0.23158850  1
  O2-  O361  1  0.56489690  0.07156645  0.27798469  1
  O2-  O362  1  0.56583979  0.73924615  0.52914883  1
  O2-  O363  1  0.56557955  0.59315044  0.72167793  1
  O2-  O364  1  0.06508762  0.74011816  0.52877681  1
  O2-  O365  1  0.05075048  0.09754440  0.70809875  1
  O2-  O366  1  0.56455349  0.40482024  0.78185172  1
  O2-  O367  1  0.93525232  0.07365366  0.28382442  1
  O2-  O368  1  0.43601425  0.59708873  0.28342839  1
  O2-  O369  1  0.06969057  0.60692461  0.81899495  1
  O2-  O370  1  0.43467325  0.25834376  0.94862575  1
  O2-  O371  1  0.56405269  0.26426606  0.46728364  1
  O2-  O372  1  0.74993791  0.66955051  0.60153739  1
  O2-  O373  1  0.75005507  0.33503496  0.34337324  1
  O2-  O374  1  0.25025416  0.66684304  0.59342739  1
  O2-  O375  1  0.74997012  0.00065686  0.07174477  1
  O2-  O376  1  0.24992941  0.32186867  0.66206660  1
  O2-  O377  1  0.24995690  0.33413026  0.57502471  1
  O2-  O378  1  0.24982259  0.33325585  0.15062493  1
  O2-  O379  1  0.24997196  0.66795820  0.42261467  1
  O2-  O380  1  0.74994662  0.33626531  0.90253187  1
  O2-  O381  1  0.24973601  -0.00802438  0.16693065  1
  O2-  O382  1  0.25019318  -0.00176871  0.90519619  1
  O2-  O383  1  0.74990562  0.00684114  0.35495312  1
  O2-  O384  1  0.25009518  0.67531881  0.83474072  1
  O2-  O385  1  0.75018373  0.67067752  0.39774713  1
  O2-  O386  1  0.25008534  0.66325816  0.09843467  1
  O2-  O387  1  0.75031509  -0.00078866  0.60094167  1
  O2-  O388  1  0.25004161  0.32968033  0.40487423  1
  O2-  O389  1  0.24982307  0.00289357  0.07644395  1
  O2-  O390  1  0.74998031  0.00271407  0.90078863  1
  O2-  O391  1  0.75005049  0.01238185  0.15806092  1
  O2-  O392  1  0.25018903  0.66509899  0.92346461  1
  O2-  O393  1  0.74999211  0.65896701  0.15926028  1
  O2-  O394  1  0.24984380  0.66943522  0.32638785  1
  O2-  O395  1  0.75010030  0.66606385  0.06860625  1
  O2-  O396  1  0.25007887  0.83671285  0.08910964  1
  O2-  O397  1  0.25011437  0.15764743  0.60602372  1
  O2-  O398  1  0.24999358  0.16581452  0.90076605  1
  O2-  O399  1  0.24998041  0.16118216  0.14458180  1
  O2-  O400  1  0.25000365  0.49550516  0.18835407  1
  O2-  O401  1  0.24977404  0.50154029  0.65081185  1
  O2-  O402  1  0.24984238  0.49010027  0.89168931  1
  O2-  O403  1  0.74999033  0.83358431  0.40676579  1
  O2-  O404  1  0.75008273  0.50032910  0.39412265  1
  O2-  O405  1  0.24990264  0.17144042  0.68657076  1
  O2-  O406  1  0.24993393  0.49188125  0.10618411  1
  O2-  O407  1  0.75000244  0.17145010  0.09447764  1
  O2-  O408  1  0.24982054  0.17095849  0.81948096  1
  O2-  O409  1  0.74991736  0.49762812  0.31504990  1
  O2-  O410  1  0.25006327  0.15291622  0.38138864  1
  O2-  O411  1  0.75003895  0.83583619  0.87282859  1
  O2-  O412  1  0.25001734  0.83126991  0.41028161  1
  O2-  O413  1  0.24996940  0.49489636  0.56938617  1
  O2-  O414  1  0.74994821  0.50093147  0.63210523  1
  O2-  O415  1  0.75007134  0.16872111  0.59728395  1
  O2-  O416  1  0.74997208  0.17189436  0.18104488  1
  O2-  O417  1  0.75000271  0.83927240  0.63206227  1
  O2-  O418  1  0.75001052  0.83304883  0.13974828  1
  O2-  O419  1  0.25006638  0.50417606  0.40961034  1
  O2-  O420  1  0.46788156  0.66103599  0.61926418  1
  O2-  O421  1  0.47423816  -0.00142910  0.12805696  1
  O2-  O422  1  0.97429903  0.33546703  0.88023904  1
  O2-  O423  1  0.02795653  0.33497526  0.37672569  1
  O2-  O424  1  0.53088290  0.66297647  0.86907962  1
  O2-  O425  1  0.46399058  0.33720214  0.13163364  1
  O2-  O426  1  0.02713976  -0.00402546  0.62138779  1
  O2-  O427  1  0.53088965  0.33814367  0.61884214  1
  O2-  O428  1  0.46822783  0.33751245  0.63170912  1
  O2-  O429  1  0.52485552  -0.00117097  0.37858340  1
  O2-  O430  1  0.97601547  0.33340042  0.12041514  1
  O2-  O431  1  0.47182273  0.66650741  0.12387852  1
  O2-  O432  1  0.02886501  0.67011098  0.37726643  1
  O2-  O433  1  0.47434722  0.33272217  0.37183513  1
  O2-  O434  1  0.97069139  0.67197761  0.37010434  1
  O2-  O435  1  0.02043199  -0.00321340  0.87997975  1
  O2-  O436  1  0.02687966  0.66764323  0.12716466  1
  O2-  O437  1  0.52664770  -0.00263013  0.62771885  1
  O2-  O438  1  0.97293713  0.00285045  0.12822602  1
  O2-  O439  1  0.53944018  0.33229624  0.12560263  1
  O2-  O440  1  0.46756003  0.66444713  0.87389902  1
  O2-  O441  1  0.02096056  0.67444273  0.62493274  1
  O2-  O442  1  0.47510622  0.33362779  0.86666535  1
  O2-  O443  1  0.53048582  0.66782676  0.62762764  1
