# generated using pymatgen
data_La7(Ru4O11)2
_symmetry_space_group_name_H-M   'P 1'
_cell_length_a   23.98946776
_cell_length_b   16.82946126
_cell_length_c   15.42632195
_cell_angle_alpha   90.00006736
_cell_angle_beta   90.00006938
_cell_angle_gamma   90.00027942
_symmetry_Int_Tables_number   1
_chemical_formula_structural   La7(Ru4O11)2
_chemical_formula_sum   'La84 Ru96 O264'
_cell_volume   6228.06615836
_cell_formula_units_Z   12
loop_
 _symmetry_equiv_pos_site_id
 _symmetry_equiv_pos_as_xyz
  1  'x, y, z'
loop_
 _atom_type_symbol
 _atom_type_oxidation_number
  La3+  3.0
  Ru4+  4.0
  O2-  -2.0
loop_
 _atom_site_type_symbol
 _atom_site_label
 _atom_site_symmetry_multiplicity
 _atom_site_fract_x
 _atom_site_fract_y
 _atom_site_fract_z
 _atom_site_occupancy
  La3+  La0  1  0.14105207  0.00016354  0.12579339  1
  La3+  La1  1  0.14150596  0.00053241  0.37392605  1
  La3+  La2  1  0.14074024  0.00109029  0.62648393  1
  La3+  La3  1  0.14065051  0.00046559  0.87328108  1
  La3+  La4  1  0.14072848  0.33396249  0.12208001  1
  La3+  La5  1  0.13908056  0.33400078  0.37720232  1
  La3+  La6  1  0.13828776  0.33816293  0.62826100  1
  La3+  La7  1  0.13878971  0.33804209  0.87140134  1
  La3+  La8  1  0.13537840  0.66713854  0.12215818  1
  La3+  La9  1  0.13761218  0.66704753  0.37683608  1
  La3+  La10  1  0.13857115  0.66649752  0.62363178  1
  La3+  La11  1  0.13733837  0.66656509  0.87774993  1
  La3+  La12  1  0.63978438  -0.00045630  0.12778951  1
  La3+  La13  1  0.63843837  0.00158085  0.37725299  1
  La3+  La14  1  0.63975148  -0.00058778  0.62351886  1
  La3+  La15  1  0.63936702  -0.00034442  0.87273070  1
  La3+  La16  1  0.63965111  0.33360813  0.12720199  1
  La3+  La17  1  0.63974680  0.33421795  0.37560942  1
  La3+  La18  1  0.63956288  0.33395349  0.62302906  1
  La3+  La19  1  0.63764520  0.33284029  0.87443545  1
  La3+  La20  1  0.64034474  0.66693925  0.12583743  1
  La3+  La21  1  0.64093195  0.66777679  0.37451299  1
  La3+  La22  1  0.63815605  0.66853770  0.62347086  1
  La3+  La23  1  0.63738083  0.66620597  0.87481531  1
  La3+  La24  1  0.35828268  0.00154468  0.12622863  1
  La3+  La25  1  0.35978147  0.00147883  0.37399792  1
  La3+  La26  1  0.35942625  0.00137703  0.62641114  1
  La3+  La27  1  0.35933499  0.00091794  0.87419214  1
  La3+  La28  1  0.36015383  0.33332346  0.12161810  1
  La3+  La29  1  0.36137706  0.33354582  0.37727414  1
  La3+  La30  1  0.36009779  0.33498196  0.62490152  1
  La3+  La31  1  0.35858681  0.33402492  0.87644345  1
  La3+  La32  1  0.36465490  0.66539073  0.12645886  1
  La3+  La33  1  0.36263660  0.66389018  0.37433052  1
  La3+  La34  1  0.35959858  0.66488240  0.62584481  1
  La3+  La35  1  0.36051186  0.66695131  0.87617411  1
  La3+  La36  1  0.86137271  0.00065332  0.12584363  1
  La3+  La37  1  0.86009728  0.00012056  0.37567912  1
  La3+  La38  1  0.86047760  -0.00041573  0.62516459  1
  La3+  La39  1  0.86347557  0.00097465  0.87349900  1
  La3+  La40  1  0.86145363  0.33478364  0.12555874  1
  La3+  La41  1  0.85943878  0.33463144  0.37509026  1
  La3+  La42  1  0.86023848  0.33296984  0.62428113  1
  La3+  La43  1  0.86331689  0.33420415  0.87589913  1
  La3+  La44  1  0.86080735  0.66634421  0.12526159  1
  La3+  La45  1  0.86014823  0.66802372  0.37510094  1
  La3+  La46  1  0.86029317  0.66866978  0.62253033  1
  La3+  La47  1  0.86200855  0.66538254  0.87712575  1
  La3+  La48  1  0.49954890  0.50051683  0.61389107  1
  La3+  La49  1  -0.00132897  0.16444823  0.88138639  1
  La3+  La50  1  0.00044763  0.50119708  0.13263671  1
  La3+  La51  1  0.50270446  0.16229216  0.61453352  1
  La3+  La52  1  0.50010632  0.83942143  0.12787639  1
  La3+  La53  1  0.00180713  0.83246504  0.86341158  1
  La3+  La54  1  -0.00051730  0.49479862  0.87171971  1
  La3+  La55  1  0.49751683  0.16753109  0.63471848  1
  La3+  La56  1  -0.00234017  0.16773633  0.13180982  1
  La3+  La57  1  -0.00077842  0.16470322  0.10995070  1
  La3+  La58  1  -0.00014184  0.16030907  0.36881698  1
  La3+  La59  1  0.00386791  0.49578556  0.61572817  1
  La3+  La60  1  0.49986404  0.83186783  0.85963985  1
  La3+  La61  1  0.50318198  0.50191837  0.13866124  1
  La3+  La62  1  0.49551739  0.50097977  0.11964683  1
  La3+  La63  1  0.50028948  0.16608613  0.11275163  1
  La3+  La64  1  -0.00009388  0.16959687  0.38898156  1
  La3+  La65  1  0.49901274  0.50260409  0.87661345  1
  La3+  La66  1  -0.00163371  0.50338861  0.63524242  1
  La3+  La67  1  0.50040332  0.16605675  0.13515824  1
  La3+  La68  1  0.50192499  0.83477668  0.11210203  1
  La3+  La69  1  0.00091536  0.49900652  0.11510182  1
  La3+  La70  1  0.50008535  0.16623123  0.38344631  1
  La3+  La71  1  0.00051155  0.83340467  0.36565155  1
  La3+  La72  1  0.74995529  0.16402308  0.49848865  1
  La3+  La73  1  0.74983461  0.86966840  0.01129227  1
  La3+  La74  1  0.75028577  0.16525069  0.75002965  1
  La3+  La75  1  0.75003552  0.17009569  0.03133041  1
  La3+  La76  1  0.74976329  0.49988152  0.79677579  1
  La3+  La77  1  0.24975128  0.49950158  0.25052585  1
  La3+  La78  1  0.25001688  0.87224658  0.20205831  1
  La3+  La79  1  0.75024562  0.46195333  0.25021215  1
  La3+  La80  1  0.25019364  0.12898477  0.23321332  1
  La3+  La81  1  0.24990469  0.16919733  -0.02355002  1
  La3+  La82  1  0.25008094  0.78180477  0.50043146  1
  La3+  La83  1  0.25000748  0.87282454  0.79763913  1
  Ru4+  Ru84  1  0.00454842  -0.00390779  -0.00132020  1
  Ru4+  Ru85  1  -0.00111283  -0.00472795  0.24621028  1
  Ru4+  Ru86  1  -0.00267536  -0.00298612  0.50133007  1
  Ru4+  Ru87  1  -0.00145729  -0.00102189  0.75324835  1
  Ru4+  Ru88  1  0.00245227  0.33057928  -0.00547361  1
  Ru4+  Ru89  1  0.00046617  0.33682109  0.25407374  1
  Ru4+  Ru90  1  0.00300641  0.33374679  0.49590599  1
  Ru4+  Ru91  1  -0.00012050  0.33433838  0.75316282  1
  Ru4+  Ru92  1  0.00189578  0.67640958  -0.00223056  1
  Ru4+  Ru93  1  0.00006507  0.66675564  0.24732228  1
  Ru4+  Ru94  1  0.00011754  0.66726100  0.49829804  1
  Ru4+  Ru95  1  -0.00103238  0.66994244  0.75158082  1
  Ru4+  Ru96  1  0.49740200  0.00449001  -0.00175698  1
  Ru4+  Ru97  1  0.50013677  0.00027334  0.25149393  1
  Ru4+  Ru98  1  0.49699082  -0.00729897  0.50038511  1
  Ru4+  Ru99  1  0.49997621  -0.00122854  0.74997994  1
  Ru4+  Ru100  1  0.49964917  0.32990109  -0.00224099  1
  Ru4+  Ru101  1  0.50012368  0.33114967  0.25100522  1
  Ru4+  Ru102  1  0.50033353  0.33561943  0.50034151  1
  Ru4+  Ru103  1  0.49935461  0.33462827  0.75108555  1
  Ru4+  Ru104  1  0.50010417  0.66845110  -0.00215447  1
  Ru4+  Ru105  1  0.50150189  0.66161816  0.25410461  1
  Ru4+  Ru106  1  0.50049243  0.66426490  0.50129577  1
  Ru4+  Ru107  1  0.50402780  0.66957122  0.74890854  1
  Ru4+  Ru108  1  0.11336219  0.16592681  -0.00052548  1
  Ru4+  Ru109  1  0.11419432  0.16583838  0.24973613  1
  Ru4+  Ru110  1  0.11515017  0.16757035  0.50085830  1
  Ru4+  Ru111  1  0.11415908  0.16456806  0.74948987  1
  Ru4+  Ru112  1  0.11604564  0.49465265  -0.00124320  1
  Ru4+  Ru113  1  0.11100141  0.49955005  0.24924015  1
  Ru4+  Ru114  1  0.11371494  0.49847646  0.50046994  1
  Ru4+  Ru115  1  0.11313690  0.49445219  0.75065639  1
  Ru4+  Ru116  1  0.11306619  0.83117634  -0.00060582  1
  Ru4+  Ru117  1  0.11032218  0.83326716  0.24886359  1
  Ru4+  Ru118  1  0.11158195  0.83219713  0.49887980  1
  Ru4+  Ru119  1  0.11196778  0.83491208  0.75066035  1
  Ru4+  Ru120  1  0.61137277  0.16842080  -0.00092278  1
  Ru4+  Ru121  1  0.61234237  0.16545740  0.24961133  1
  Ru4+  Ru122  1  0.61452195  0.16999501  0.49984867  1
  Ru4+  Ru123  1  0.61254164  0.16625537  0.75053246  1
  Ru4+  Ru124  1  0.61489301  0.50172456  -0.00037613  1
  Ru4+  Ru125  1  0.61196361  0.49925670  0.25109938  1
  Ru4+  Ru126  1  0.61349603  0.49879435  0.49972969  1
  Ru4+  Ru127  1  0.61057269  0.50033091  0.75053498  1
  Ru4+  Ru128  1  0.61270727  0.83353417  0.00027653  1
  Ru4+  Ru129  1  0.61753424  0.83636903  0.25013734  1
  Ru4+  Ru130  1  0.61404081  0.83358189  0.49903753  1
  Ru4+  Ru131  1  0.61286668  0.83393403  0.74976503  1
  Ru4+  Ru132  1  0.38799285  0.16664808  0.00000431  1
  Ru4+  Ru133  1  0.38928262  0.16553558  0.24961067  1
  Ru4+  Ru134  1  0.38599632  0.16409472  0.49945809  1
  Ru4+  Ru135  1  0.38635634  0.16487534  0.74998803  1
  Ru4+  Ru136  1  0.38516519  0.49717416  0.00038217  1
  Ru4+  Ru137  1  0.38822042  0.50114310  0.25092089  1
  Ru4+  Ru138  1  0.38687993  0.49735201  0.49972869  1
  Ru4+  Ru139  1  0.38626234  0.49788568  0.74996432  1
  Ru4+  Ru140  1  0.38595961  0.83149224  -0.00053062  1
  Ru4+  Ru141  1  0.38739105  0.83464597  0.25093248  1
  Ru4+  Ru142  1  0.38809569  0.83207636  0.49981420  1
  Ru4+  Ru143  1  0.38887362  0.83458001  0.74970551  1
  Ru4+  Ru144  1  0.88635871  0.17073454  -0.00021629  1
  Ru4+  Ru145  1  0.88463689  0.16422557  0.24980793  1
  Ru4+  Ru146  1  0.88704051  0.16320601  0.50156749  1
  Ru4+  Ru147  1  0.88825297  0.16523596  0.75036400  1
  Ru4+  Ru148  1  0.88205774  0.50099153  0.00011116  1
  Ru4+  Ru149  1  0.88863270  0.50054219  0.25124046  1
  Ru4+  Ru150  1  0.88502248  0.49982653  0.49840336  1
  Ru4+  Ru151  1  0.88805484  0.49918190  0.75032318  1
  Ru4+  Ru152  1  0.88810518  0.83281426  0.00045128  1
  Ru4+  Ru153  1  0.88652455  0.83158913  0.25016017  1
  Ru4+  Ru154  1  0.88626439  0.83248373  0.49963359  1
  Ru4+  Ru155  1  0.88782928  0.83452888  0.74995762  1
  Ru4+  Ru156  1  0.74988956  0.42551299  0.00352998  1
  Ru4+  Ru157  1  0.25000056  0.24889969  0.49537593  1
  Ru4+  Ru158  1  0.24985581  0.25265008  0.75057254  1
  Ru4+  Ru159  1  0.74993635  0.37471748  0.75164448  1
  Ru4+  Ru160  1  0.24998193  0.73177451  0.74999514  1
  Ru4+  Ru161  1  0.74995695  0.58511632  0.49480355  1
  Ru4+  Ru162  1  0.25011949  0.57903059  0.75025882  1
  Ru4+  Ru163  1  0.75004012  0.72673792  0.00117859  1
  Ru4+  Ru164  1  0.74989599  0.29418808  0.00773254  1
  Ru4+  Ru165  1  0.25023574  0.91720166  -0.00062809  1
  Ru4+  Ru166  1  0.74968976  0.24815750  0.24898206  1
  Ru4+  Ru167  1  0.25038115  0.25900289  0.25137890  1
  Ru4+  Ru168  1  0.74982160  0.62038828  0.73283212  1
  Ru4+  Ru169  1  0.24981004  0.58640723  -0.00478232  1
  Ru4+  Ru170  1  0.75022747  0.91293353  0.25174080  1
  Ru4+  Ru171  1  0.24934981  0.62329076  0.24946018  1
  Ru4+  Ru172  1  0.24976196  0.94291277  0.50048688  1
  Ru4+  Ru173  1  0.24977608  0.37599947  0.24648445  1
  Ru4+  Ru174  1  0.25006820  0.58624687  0.50432325  1
  Ru4+  Ru175  1  0.24995456  0.73932024  0.25016073  1
  Ru4+  Ru176  1  0.75012264  0.60650239  0.25406151  1
  Ru4+  Ru177  1  0.74976334  0.75398370  0.74302117  1
  Ru4+  Ru178  1  0.75023915  0.91318841  0.50574868  1
  Ru4+  Ru179  1  0.74981921  0.04935378  0.00177478  1
  O2-  O180  1  0.16677890  0.08009849  0.00016885  1
  O2-  O181  1  0.16428460  0.08013180  0.24963282  1
  O2-  O182  1  0.16819544  0.08149380  0.50076140  1
  O2-  O183  1  0.16530286  0.08390192  0.75036057  1
  O2-  O184  1  0.16562310  0.41598421  -0.00043097  1
  O2-  O185  1  0.16678202  0.41236485  0.25104635  1
  O2-  O186  1  0.16625464  0.41494142  0.49934062  1
  O2-  O187  1  0.16836863  0.41580471  0.75082053  1
  O2-  O188  1  0.16858309  0.74802246  0.00053360  1
  O2-  O189  1  0.16749753  0.74667581  0.25033416  1
  O2-  O190  1  0.16505500  0.74583568  0.50030241  1
  O2-  O191  1  0.16603511  0.74661265  0.75025992  1
  O2-  O192  1  0.66703870  0.07888324  -0.00102083  1
  O2-  O193  1  0.66675363  0.08098632  0.25074445  1
  O2-  O194  1  0.66829498  0.08191489  0.50043208  1
  O2-  O195  1  0.66756777  0.08127060  0.74934735  1
  O2-  O196  1  0.66862378  0.41471392  -0.00052193  1
  O2-  O197  1  0.66408180  0.41244552  0.24980912  1
  O2-  O198  1  0.66638716  0.41478807  0.49992393  1
  O2-  O199  1  0.66603127  0.41260334  0.75052037  1
  O2-  O200  1  0.66745566  0.74651054  -0.00011989  1
  O2-  O201  1  0.66777077  0.74937661  0.25014627  1
  O2-  O202  1  0.66631335  0.74952547  0.50067364  1
  O2-  O203  1  0.66815299  0.74727278  0.75001208  1
  O2-  O204  1  0.33398465  0.25175708  -0.00015551  1
  O2-  O205  1  0.33310781  0.25430868  0.25024367  1
  O2-  O206  1  0.33143673  0.25258577  0.50019831  1
  O2-  O207  1  0.33147704  0.25233181  0.75059969  1
  O2-  O208  1  0.33215465  0.58683559  -0.00026418  1
  O2-  O209  1  0.33319798  0.58668503  0.24909391  1
  O2-  O210  1  0.33333974  0.58582712  0.49997207  1
  O2-  O211  1  0.33196217  0.58619219  0.75098355  1
  O2-  O212  1  0.33036522  0.91937199  -0.00051053  1
  O2-  O213  1  0.33462616  0.91854514  0.25070019  1
  O2-  O214  1  0.33284441  0.91953130  0.50002129  1
  O2-  O215  1  0.33508912  0.91846958  0.74956690  1
  O2-  O216  1  0.83416187  0.25474358  0.00034801  1
  O2-  O217  1  0.83264385  0.25252701  0.24918102  1
  O2-  O218  1  0.83013998  0.25205083  0.50034525  1
  O2-  O219  1  0.83230723  0.25278481  0.75102281  1
  O2-  O220  1  0.83261206  0.58607989  -0.00039915  1
  O2-  O221  1  0.83240371  0.58659645  0.24962910  1
  O2-  O222  1  0.83360076  0.58515553  0.50033213  1
  O2-  O223  1  0.83415744  0.58810369  0.75042176  1
  O2-  O224  1  0.83423206  0.92096689  -0.00063834  1
  O2-  O225  1  0.83191655  0.91963891  0.24903366  1
  O2-  O226  1  0.83234873  0.91890033  0.50026181  1
  O2-  O227  1  0.83322555  0.91856696  0.74986264  1
  O2-  O228  1  0.16698904  0.25183562  -0.00067264  1
  O2-  O229  1  0.16689407  0.25370956  0.25053346  1
  O2-  O230  1  0.16805135  0.25124796  0.49967608  1
  O2-  O231  1  0.16969364  0.25187839  0.75118738  1
  O2-  O232  1  0.16846995  0.58648111  -0.00044321  1
  O2-  O233  1  0.16515600  0.58756468  0.25039743  1
  O2-  O234  1  0.16744667  0.58596566  0.49975091  1
  O2-  O235  1  0.16693415  0.58556089  0.75079991  1
  O2-  O236  1  0.16809197  0.91867420  0.00047590  1
  O2-  O237  1  0.16528080  0.91860568  0.25027813  1
  O2-  O238  1  0.16742477  0.91963195  0.50061323  1
  O2-  O239  1  0.16633225  0.91848686  0.74892574  1
  O2-  O240  1  0.66539059  0.25383415  0.00040772  1
  O2-  O241  1  0.66765212  0.25308009  0.25036909  1
  O2-  O242  1  0.66910573  0.25269091  0.50045977  1
  O2-  O243  1  0.66878390  0.25247999  0.75156583  1
  O2-  O244  1  0.66707282  0.58512557  -0.00071689  1
  O2-  O245  1  0.66704512  0.58656950  0.24962977  1
  O2-  O246  1  0.66684074  0.58478309  0.50006666  1
  O2-  O247  1  0.66739181  0.58788984  0.74959955  1
  O2-  O248  1  0.66580492  0.92055001  -0.00149881  1
  O2-  O249  1  0.66884432  0.91953647  0.25008338  1
  O2-  O250  1  0.66680768  0.91860084  0.50050650  1
  O2-  O251  1  0.66549481  0.91796527  0.74982926  1
  O2-  O252  1  0.33284697  0.08067044  -0.00056435  1
  O2-  O253  1  0.33596386  0.07993600  0.25079770  1
  O2-  O254  1  0.33341464  0.08143252  0.50009300  1
  O2-  O255  1  0.33456322  0.08241952  0.74996740  1
  O2-  O256  1  0.33321049  0.41618023  -0.00022684  1
  O2-  O257  1  0.33493570  0.41293485  0.25008549  1
  O2-  O258  1  0.33254147  0.41501689  0.49950281  1
  O2-  O259  1  0.33429466  0.41555273  0.75039789  1
  O2-  O260  1  0.33337276  0.74798060  0.00088049  1
  O2-  O261  1  0.33247792  0.74643748  0.24903968  1
  O2-  O262  1  0.33403353  0.74660284  0.50012064  1
  O2-  O263  1  0.33350115  0.74623745  0.75057075  1
  O2-  O264  1  0.83335934  0.07877426  0.00022842  1
  O2-  O265  1  0.83210545  0.08123128  0.24955954  1
  O2-  O266  1  0.83146579  0.08324446  0.49976333  1
  O2-  O267  1  0.83115501  0.08143736  0.74900610  1
  O2-  O268  1  0.83220431  0.41485820  -0.00001474  1
  O2-  O269  1  0.83613857  0.41274381  0.24901307  1
  O2-  O270  1  0.83202973  0.41466064  0.50040017  1
  O2-  O271  1  0.83271517  0.41267166  0.75106166  1
  O2-  O272  1  0.83296403  0.74659463  -0.00037520  1
  O2-  O273  1  0.83422965  0.74865281  0.24992822  1
  O2-  O274  1  0.83519363  0.74882602  0.50031023  1
  O2-  O275  1  0.83335955  0.74755332  0.74979385  1
  O2-  O276  1  0.95093549  0.56995264  0.76584925  1
  O2-  O277  1  0.45333142  0.57104980  0.23406370  1
  O2-  O278  1  0.53814781  0.77554686  0.25331732  1
  O2-  O279  1  0.95959617  0.89054018  0.97423499  1
  O2-  O280  1  0.95326876  0.57015317  0.01955972  1
  O2-  O281  1  0.95238159  0.43053143  0.98375415  1
  O2-  O282  1  0.54168083  0.78173814  0.49096309  1
  O2-  O283  1  0.46157827  0.56618231  0.25938043  1
  O2-  O284  1  0.45381920  0.23475978  0.51126815  1
  O2-  O285  1  0.54760915  0.09488716  0.95789136  1
  O2-  O286  1  0.03363904  0.21772549  0.74456516  1
  O2-  O287  1  0.45513787  0.23302377  0.98643360  1
  O2-  O288  1  0.95303802  0.89857759  0.74809045  1
  O2-  O289  1  0.53810065  0.22377707  0.78215827  1
  O2-  O290  1  0.04816800  0.42861613  0.76521351  1
  O2-  O291  1  0.95188079  0.23580122  0.26205130  1
  O2-  O292  1  0.45424397  0.90348562  0.23543708  1
  O2-  O293  1  0.53815019  0.77546390  0.25348990  1
  O2-  O294  1  0.04183105  0.43659347  0.73994449  1
  O2-  O295  1  0.54582529  0.43006955  0.51517545  1
  O2-  O296  1  0.95502670  0.43445515  0.26154860  1
  O2-  O297  1  0.04762243  0.23747052  0.26318281  1
  O2-  O298  1  0.95517369  0.90121683  0.75068688  1
  O2-  O299  1  0.54448259  0.76449496  0.98796468  1
  O2-  O300  1  0.54360940  0.56975801  0.48458772  1
  O2-  O301  1  0.04972688  0.56487252  0.01473067  1
  O2-  O302  1  0.53839927  0.44190118  0.97059707  1
  O2-  O303  1  0.46664841  0.79512838  0.51953664  1
  O2-  O304  1  0.54781258  0.57089036  0.01456222  1
  O2-  O305  1  0.03953191  0.10954125  0.52968187  1
  O2-  O306  1  0.04306856  0.56048841  0.77934095  1
  O2-  O307  1  0.96071264  0.22576308  0.52952455  1
  O2-  O308  1  0.45068900  0.42914928  0.23676613  1
  O2-  O309  1  0.95350357  0.09864391  0.98702791  1
  O2-  O310  1  0.04742188  0.90213184  0.23449313  1
  O2-  O311  1  0.45457380  0.77241931  0.22114706  1
  O2-  O312  1  0.04500927  0.43143861  0.48368622  1
  O2-  O313  1  0.45273636  0.56930529  0.98430266  1
  O2-  O314  1  0.54739329  0.43267822  0.26522124  1
  O2-  O315  1  0.95446537  0.56812503  0.98064036  1
  O2-  O316  1  0.95497589  0.56933337  0.48508569  1
  O2-  O317  1  0.54583068  0.09518662  0.73600228  1
  O2-  O318  1  0.44975951  0.90533059  0.95687930  1
  O2-  O319  1  0.54723299  0.09836924  0.48541596  1
  O2-  O320  1  0.45379651  0.76543793  0.73552512  1
  O2-  O321  1  0.54218373  0.89350835  0.97179146  1
  O2-  O322  1  0.04587601  0.09497658  0.23535348  1
  O2-  O323  1  0.95258840  0.90056396  0.26390112  1
  O2-  O324  1  0.56607480  0.92699423  0.22109418  1
  O2-  O325  1  0.56467802  0.59184140  0.77921994  1
  O2-  O326  1  0.57141596  0.38991712  0.05312843  1
  O2-  O327  1  0.93616523  0.07597315  0.97284749  1
  O2-  O328  1  0.93684749  0.59945104  0.28148982  1
  O2-  O329  1  0.93397114  0.40836762  0.45290279  1
  O2-  O330  1  0.43442689  0.40462816  0.02979146  1
  O2-  O331  1  0.42946792  0.73160671  0.29729793  1
  O2-  O332  1  0.57072008  0.71880181  0.18898070  1
  O2-  O333  1  0.06485312  0.93090346  0.78319807  1
  O2-  O334  1  0.57324956  0.71974176  0.45978610  1
  O2-  O335  1  0.07052400  0.61077255  0.70028357  1
  O2-  O336  1  0.93239003  0.40669954  0.54719539  1
  O2-  O337  1  0.06566349  0.73806935  0.22428635  1
  O2-  O338  1  0.43333661  0.59937432  0.28337590  1
  O2-  O339  1  0.06375130  0.26453755  0.94031139  1
  O2-  O340  1  0.42478025  0.71597162  0.56317789  1
  O2-  O341  1  0.06655012  0.25862733  0.05155538  1
  O2-  O342  1  0.93516137  0.92552904  0.47135512  1
  O2-  O343  1  0.93324901  0.07297899  0.52906449  1
  O2-  O344  1  0.93402828  0.40351625  0.72232979  1
  O2-  O345  1  0.06954348  0.40346924  0.71727643  1
  O2-  O346  1  0.06453064  0.59734670  0.53322166  1
  O2-  O347  1  0.57300134  0.06799364  0.06943612  1
  O2-  O348  1  0.57089457  0.27610840  0.69994973  1
  O2-  O349  1  0.55439014  0.08453090  0.95261366  1
  O2-  O350  1  0.06547916  0.40749497  0.22204912  1
  O2-  O351  1  0.56525262  0.73879432  0.72213751  1
  O2-  O352  1  0.93116575  0.93843263  0.04621919  1
  O2-  O353  1  0.93502933  0.07111859  0.27811508  1
  O2-  O354  1  0.93831019  0.40451335  0.96797589  1
  O2-  O355  1  0.07583591  0.27203733  0.71458906  1
  O2-  O356  1  0.06447174  0.73967350  0.97124835  1
  O2-  O357  1  0.57120241  0.93299158  0.04401755  1
  O2-  O358  1  0.43132207  0.72742104  0.43415233  1
  O2-  O359  1  0.06308158  0.59147931  0.03067919  1
  O2-  O360  1  0.56979800  0.72030022  0.30826834  1
  O2-  O361  1  0.07205912  0.06425808  0.45848767  1
  O2-  O362  1  0.93432998  0.07291894  0.77842055  1
  O2-  O363  1  0.92869177  0.26673660  0.45902163  1
  O2-  O364  1  0.56419758  0.93048502  0.46777494  1
  O2-  O365  1  0.43623821  0.59718314  0.80281664  1
  O2-  O366  1  0.42952596  0.94228646  0.07660014  1
  O2-  O367  1  0.06268090  0.73638465  0.46674877  1
  O2-  O368  1  0.43433465  0.40572129  0.52984569  1
  O2-  O369  1  0.43594331  0.59732955  0.69781207  1
  O2-  O370  1  0.44500410  0.91344084  0.95142720  1
  O2-  O371  1  0.56230338  0.07375672  0.46877973  1
  O2-  O372  1  0.74984775  0.33976545  0.89491471  1
  O2-  O373  1  0.24995607  0.66321589  0.64938655  1
  O2-  O374  1  0.75002907  0.33196517  0.15588337  1
  O2-  O375  1  0.24994050  0.66666947  0.40702450  1
  O2-  O376  1  0.74992732  0.32723605  0.64728220  1
  O2-  O377  1  0.24971455  -0.00314496  0.65005352  1
  O2-  O378  1  0.24988381  -0.00271359  0.34860401  1
  O2-  O379  1  0.75005648  0.66760770  0.15421697  1
  O2-  O380  1  0.75026746  0.66372689  0.59437067  1
  O2-  O381  1  0.74988926  0.00046483  0.59215418  1
  O2-  O382  1  0.74988029  0.00222094  0.82286625  1
  O2-  O383  1  0.25008825  0.66300625  0.84920796  1
  O2-  O384  1  0.74973423  0.33001331  0.34203271  1
  O2-  O385  1  0.25009132  0.33289642  0.10188420  1
  O2-  O386  1  0.75028797  -0.00659480  0.10511914  1
  O2-  O387  1  0.74994627  -0.01515142  0.90847875  1
  O2-  O388  1  0.24991363  0.32850665  0.90030989  1
  O2-  O389  1  0.75024513  0.66992478  0.85085596  1
  O2-  O390  1  0.24966471  -0.00243637  0.15225138  1
  O2-  O391  1  0.74991217  -0.00093121  0.40598761  1
  O2-  O392  1  0.25003969  -0.00285786  0.84947287  1
  O2-  O393  1  0.75007955  0.66364162  0.40616374  1
  O2-  O394  1  0.24992349  0.32955924  0.65789040  1
  O2-  O395  1  0.24994728  0.33165952  0.40817175  1
  O2-  O396  1  0.25012854  0.82388739  0.32187066  1
  O2-  O397  1  0.75005034  0.49747508  0.56687285  1
  O2-  O398  1  0.75000446  0.50938765  0.37463223  1
  O2-  O399  1  0.74990293  0.50373735  0.12361778  1
  O2-  O400  1  0.75008943  0.83694693  0.58785398  1
  O2-  O401  1  0.24998139  0.16860441  0.10510189  1
  O2-  O402  1  0.75000217  0.82365438  0.89411708  1
  O2-  O403  1  0.75004408  0.82739500  0.13092564  1
  O2-  O404  1  0.24991053  0.17408586  0.36442370  1
  O2-  O405  1  0.75011932  0.50173280  0.65450793  1
  O2-  O406  1  0.25005929  0.49387981  0.05310736  1
  O2-  O407  1  0.25000616  0.85281362  0.40131934  1
  O2-  O408  1  0.25012542  0.50066105  0.36814172  1
  O2-  O409  1  0.75004297  0.16873755  0.16552785  1
  O2-  O410  1  0.24990626  0.85199920  0.59958021  1
  O2-  O411  1  0.74992990  0.83327801  0.41776682  1
  O2-  O412  1  0.25010074  0.50089844  0.13205261  1
  O2-  O413  1  0.24987385  0.49383657  0.44566270  1
  O2-  O414  1  0.24999641  0.49938074  0.58171016  1
  O2-  O415  1  0.25005180  0.49933466  0.66937478  1
  O2-  O416  1  0.25003383  0.82234505  0.67815005  1
  O2-  O417  1  0.75005844  0.84005955  0.81151753  1
  O2-  O418  1  0.74996284  0.83276901  0.32996722  1
  O2-  O419  1  0.74996477  0.16562476  0.88721786  1
  O2-  O420  1  0.97639761  -0.00330625  0.87315406  1
  O2-  O421  1  0.53684682  0.33066765  0.37649660  1
  O2-  O422  1  0.96183760  0.33285930  0.12464544  1
  O2-  O423  1  0.97180000  -0.00103743  0.62649070  1
  O2-  O424  1  0.97754522  0.33112784  0.36869132  1
  O2-  O425  1  0.52570707  0.66942897  0.87667658  1
  O2-  O426  1  0.47210792  0.00060503  0.62424197  1
  O2-  O427  1  0.03038073  -0.00184134  0.62574169  1
  O2-  O428  1  0.47431498  0.32850328  0.12751096  1
  O2-  O429  1  0.03009538  0.33176710  0.61436342  1
  O2-  O430  1  0.02550463  0.66570178  0.87220032  1
  O2-  O431  1  0.97121594  0.32715218  0.62835285  1
  O2-  O432  1  0.46360383  0.33496598  0.87333305  1
  O2-  O433  1  0.46325385  0.33322201  0.37473327  1
  O2-  O434  1  0.47074880  0.66801317  0.12148174  1
  O2-  O435  1  0.02285036  0.66586569  0.12607308  1
  O2-  O436  1  0.51998953  0.00213704  0.13293620  1
  O2-  O437  1  0.53650569  0.33363159  0.87533589  1
  O2-  O438  1  0.47195658  0.00110622  0.37491283  1
  O2-  O439  1  0.03203152  0.33583178  0.12913628  1
  O2-  O440  1  0.03238252  -0.00486767  0.37133792  1
  O2-  O441  1  0.52680723  0.66286301  0.62190106  1
  O2-  O442  1  0.47422810  0.33135949  0.62961138  1
  O2-  O443  1  0.96981526  0.00173860  0.37774443  1
