# generated using pymatgen
data_La7(Ru4O11)2
_symmetry_space_group_name_H-M   'P 1'
_cell_length_a   23.99273490
_cell_length_b   16.83280220
_cell_length_c   15.42878524
_cell_angle_alpha   89.99611892
_cell_angle_beta   89.99907855
_cell_angle_gamma   89.99619944
_symmetry_Int_Tables_number   1
_chemical_formula_structural   La7(Ru4O11)2
_chemical_formula_sum   'La84 Ru96 O264'
_cell_volume   6231.14571794
_cell_formula_units_Z   12
loop_
 _symmetry_equiv_pos_site_id
 _symmetry_equiv_pos_as_xyz
  1  'x, y, z'
loop_
 _atom_type_symbol
 _atom_type_oxidation_number
  La3+  3.0
  Ru4+  4.0
  O2-  -2.0
loop_
 _atom_site_type_symbol
 _atom_site_label
 _atom_site_symmetry_multiplicity
 _atom_site_fract_x
 _atom_site_fract_y
 _atom_site_fract_z
 _atom_site_occupancy
  La3+  La0  1  0.13143178  0.00199288  0.12721121  1
  La3+  La1  1  0.13786073  0.00246905  0.36643975  1
  La3+  La2  1  0.14049842  -0.00099610  0.62478299  1
  La3+  La3  1  0.13727260  0.00054611  0.87700071  1
  La3+  La4  1  0.14328685  0.33113435  0.13060390  1
  La3+  La5  1  0.13410635  0.32147920  0.38076577  1
  La3+  La6  1  0.13755102  0.33001086  0.61849766  1
  La3+  La7  1  0.13700112  0.33315500  0.87001451  1
  La3+  La8  1  0.13967511  0.66939792  0.12315042  1
  La3+  La9  1  0.14199702  0.66845319  0.37942085  1
  La3+  La10  1  0.14052620  0.66818860  0.62791690  1
  La3+  La11  1  0.14184531  0.67083605  0.87827360  1
  La3+  La12  1  0.64131278  0.00189611  0.12782437  1
  La3+  La13  1  0.64373903  0.00095960  0.36895846  1
  La3+  La14  1  0.64224317  0.00061009  0.63206076  1
  La3+  La15  1  0.63776484  -0.00187339  0.86914055  1
  La3+  La16  1  0.63531373  0.34487259  0.11257616  1
  La3+  La17  1  0.63702180  0.33417783  0.37443081  1
  La3+  La18  1  0.64283979  0.33193786  0.62779422  1
  La3+  La19  1  0.62883138  0.35126607  0.88615089  1
  La3+  La20  1  0.65020099  0.66774543  0.12892092  1
  La3+  La21  1  0.63316861  0.66566390  0.37150364  1
  La3+  La22  1  0.63846711  0.66544859  0.62639979  1
  La3+  La23  1  0.64486822  0.66891652  0.87431611  1
  La3+  La24  1  0.36550634  -0.00199931  0.12876815  1
  La3+  La25  1  0.35987892  0.00009672  0.36966672  1
  La3+  La26  1  0.36606687  0.00472429  0.62585118  1
  La3+  La27  1  0.36079926  -0.00294121  0.87029640  1
  La3+  La28  1  0.36066319  0.32907322  0.13042137  1
  La3+  La29  1  0.35971928  0.32388983  0.37144586  1
  La3+  La30  1  0.35935479  0.33139237  0.61816934  1
  La3+  La31  1  0.36265942  0.33446820  0.87044368  1
  La3+  La32  1  0.36775185  0.66762312  0.12354104  1
  La3+  La33  1  0.36845770  0.67011475  0.37752175  1
  La3+  La34  1  0.36566868  0.66542999  0.61911899  1
  La3+  La35  1  0.36074709  0.66856350  0.88022280  1
  La3+  La36  1  0.85936827  0.00003821  0.13196061  1
  La3+  La37  1  0.85264648  -0.00360392  0.36653090  1
  La3+  La38  1  0.86057137  -0.00023065  0.62526593  1
  La3+  La39  1  0.85975176  -0.00050860  0.86865324  1
  La3+  La40  1  0.85568119  0.33452273  0.12403667  1
  La3+  La41  1  0.86479383  0.32932213  0.37329940  1
  La3+  La42  1  0.86437308  0.33071231  0.62556104  1
  La3+  La43  1  0.84915697  0.33510423  0.86932362  1
  La3+  La44  1  0.84994892  0.66595872  0.13101612  1
  La3+  La45  1  0.86828485  0.66544180  0.37433406  1
  La3+  La46  1  0.85907733  0.66761132  0.62764796  1
  La3+  La47  1  0.85665153  0.66905621  0.87519198  1
  La3+  La48  1  -0.00076051  0.49740485  0.61983015  1
  La3+  La49  1  0.49695015  0.50245154  0.88595865  1
  La3+  La50  1  -0.00807365  0.48835737  0.11545082  1
  La3+  La51  1  0.49748386  0.83618128  0.63616149  1
  La3+  La52  1  0.00604233  0.84647437  0.88064831  1
  La3+  La53  1  -0.00722719  0.49401729  0.13099664  1
  La3+  La54  1  0.49934079  0.15950174  0.88105197  1
  La3+  La55  1  0.00003410  0.83241763  0.62863222  1
  La3+  La56  1  0.49769838  0.16421758  0.62780413  1
  La3+  La57  1  0.00162414  0.16233056  0.86730326  1
  La3+  La58  1  0.49897729  0.16442710  0.38331123  1
  La3+  La59  1  0.49931317  0.15850371  0.86422092  1
  La3+  La60  1  -0.00039894  0.50688284  0.88045473  1
  La3+  La61  1  0.00581177  0.16865844  0.88759061  1
  La3+  La62  1  0.49958089  0.49308684  0.12517737  1
  La3+  La63  1  0.00179276  0.17156442  0.63258758  1
  La3+  La64  1  0.00346397  0.49797373  0.86135518  1
  La3+  La65  1  0.00574218  0.83278180  0.38729050  1
  La3+  La66  1  0.00952343  0.83589639  0.86227762  1
  La3+  La67  1  0.50229819  0.83204798  0.61534657  1
  La3+  La68  1  -0.00146456  0.16783356  0.13559323  1
  La3+  La69  1  0.49742870  0.83640511  0.37906115  1
  La3+  La70  1  0.00484643  0.82976130  0.36468517  1
  La3+  La71  1  0.50079812  0.49797530  0.10899370  1
  La3+  La72  1  0.74853394  0.53698738  0.43939478  1
  La3+  La73  1  0.24962294  0.86934846  0.75420797  1
  La3+  La74  1  0.24859480  0.21991220  0.70909347  1
  La3+  La75  1  0.74888514  0.80301907  0.48234867  1
  La3+  La76  1  0.75002781  0.83884177  0.23490737  1
  La3+  La77  1  0.74993865  0.48887602  0.79621675  1
  La3+  La78  1  0.24989350  0.56699471  -0.02027838  1
  La3+  La79  1  0.24920068  0.16783497  0.24233719  1
  La3+  La80  1  0.24973968  0.15127802  -0.02242560  1
  La3+  La81  1  0.74793209  0.23205861  -0.01460314  1
  La3+  La82  1  0.24918916  0.79703443  0.49716853  1
  La3+  La83  1  0.24958251  0.44015896  0.27372486  1
  Ru4+  Ru84  1  -0.00208472  -0.00866524  0.00761622  1
  Ru4+  Ru85  1  0.00233499  -0.00239055  0.24512286  1
  Ru4+  Ru86  1  -0.00806114  0.00641980  0.50333448  1
  Ru4+  Ru87  1  -0.00090475  -0.00008148  0.73093748  1
  Ru4+  Ru88  1  0.00058729  0.33176831  0.00850423  1
  Ru4+  Ru89  1  -0.00078440  0.32967484  0.25086132  1
  Ru4+  Ru90  1  -0.00430946  0.33737902  0.49996533  1
  Ru4+  Ru91  1  0.00169278  0.32905793  0.74839469  1
  Ru4+  Ru92  1  -0.00543276  0.67482815  -0.00535301  1
  Ru4+  Ru93  1  0.00450836  0.66129585  0.25624286  1
  Ru4+  Ru94  1  0.00096534  0.66903990  0.49949219  1
  Ru4+  Ru95  1  0.00382852  0.66874038  0.74517325  1
  Ru4+  Ru96  1  0.50016979  0.01084886  0.00673471  1
  Ru4+  Ru97  1  0.50153346  -0.00202523  0.24818216  1
  Ru4+  Ru98  1  0.49721630  0.00161858  0.50896609  1
  Ru4+  Ru99  1  0.50714223  -0.00310865  0.75832347  1
  Ru4+  Ru100  1  0.50192447  0.33752833  -0.00050262  1
  Ru4+  Ru101  1  0.49802796  0.33620298  0.25387585  1
  Ru4+  Ru102  1  0.49203099  0.34909517  0.49493792  1
  Ru4+  Ru103  1  0.50926058  0.34586306  0.75487230  1
  Ru4+  Ru104  1  0.50207532  0.67934751  0.00861264  1
  Ru4+  Ru105  1  0.50516131  0.66153861  0.24622009  1
  Ru4+  Ru106  1  0.50297628  0.65434229  0.50965022  1
  Ru4+  Ru107  1  0.49273431  0.67021714  0.74896110  1
  Ru4+  Ru108  1  0.11454299  0.17102848  0.00015884  1
  Ru4+  Ru109  1  0.11351177  0.17350892  0.25276378  1
  Ru4+  Ru110  1  0.11718638  0.16387524  0.49959390  1
  Ru4+  Ru111  1  0.10527423  0.16735193  0.75368616  1
  Ru4+  Ru112  1  0.10905177  0.49947412  0.00442901  1
  Ru4+  Ru113  1  0.10986778  0.50735748  0.25935293  1
  Ru4+  Ru114  1  0.11486764  0.49807737  0.49922678  1
  Ru4+  Ru115  1  0.11243093  0.50044851  0.74457485  1
  Ru4+  Ru116  1  0.11451960  0.83135605  0.00613337  1
  Ru4+  Ru117  1  0.11391949  0.83509222  0.24902825  1
  Ru4+  Ru118  1  0.10738247  0.83237267  0.50166771  1
  Ru4+  Ru119  1  0.10757941  0.83379681  0.74558299  1
  Ru4+  Ru120  1  0.60747842  0.16518145  0.00285289  1
  Ru4+  Ru121  1  0.61387412  0.16230773  0.25214301  1
  Ru4+  Ru122  1  0.61197099  0.16676649  0.49963215  1
  Ru4+  Ru123  1  0.61981531  0.16735207  0.75160729  1
  Ru4+  Ru124  1  0.61183865  0.49948728  0.00385184  1
  Ru4+  Ru125  1  0.60813138  0.49351466  0.25118875  1
  Ru4+  Ru126  1  0.60582912  0.49687304  0.50339721  1
  Ru4+  Ru127  1  0.60870140  0.49141082  0.74067474  1
  Ru4+  Ru128  1  0.61387131  0.83024874  -0.00015785  1
  Ru4+  Ru129  1  0.61010142  0.83496556  0.25278544  1
  Ru4+  Ru130  1  0.61165309  0.83172583  0.49832674  1
  Ru4+  Ru131  1  0.61581954  0.83405297  0.75144871  1
  Ru4+  Ru132  1  0.39477137  0.16097586  0.00304210  1
  Ru4+  Ru133  1  0.39104143  0.16832878  0.24937413  1
  Ru4+  Ru134  1  0.38544244  0.17127770  0.49906753  1
  Ru4+  Ru135  1  0.38287046  0.17161470  0.75114221  1
  Ru4+  Ru136  1  0.38730331  0.49185948  -0.00155169  1
  Ru4+  Ru137  1  0.39092842  0.50116854  0.25339922  1
  Ru4+  Ru138  1  0.40027070  0.48467732  0.50153192  1
  Ru4+  Ru139  1  0.38868574  0.50087632  0.75108358  1
  Ru4+  Ru140  1  0.39059433  0.82780247  -0.00243208  1
  Ru4+  Ru141  1  0.38725191  0.83733134  0.25194270  1
  Ru4+  Ru142  1  0.38226021  0.83644457  0.49936464  1
  Ru4+  Ru143  1  0.39190265  0.82735271  0.75928671  1
  Ru4+  Ru144  1  0.88899666  0.16802587  -0.00108646  1
  Ru4+  Ru145  1  0.88871229  0.16101798  0.25717157  1
  Ru4+  Ru146  1  0.89361579  0.16529911  0.49757442  1
  Ru4+  Ru147  1  0.88456874  0.16658248  0.74989979  1
  Ru4+  Ru148  1  0.88430790  0.50188876  0.00170468  1
  Ru4+  Ru149  1  0.88599427  0.50387571  0.24993520  1
  Ru4+  Ru150  1  0.88337949  0.49733025  0.50490465  1
  Ru4+  Ru151  1  0.88579960  0.49633824  0.74827987  1
  Ru4+  Ru152  1  0.88551016  0.82652925  0.00702786  1
  Ru4+  Ru153  1  0.88648652  0.82564345  0.24621328  1
  Ru4+  Ru154  1  0.88308801  0.82641221  0.50344530  1
  Ru4+  Ru155  1  0.88285913  0.83867165  0.75035998  1
  Ru4+  Ru156  1  0.74978048  0.58593312  0.01495771  1
  Ru4+  Ru157  1  0.25093152  0.03045909  0.05418708  1
  Ru4+  Ru158  1  0.25173565  0.57556819  0.50082827  1
  Ru4+  Ru159  1  0.74992239  0.94933903  0.51130604  1
  Ru4+  Ru160  1  0.75028841  0.23404627  0.50904053  1
  Ru4+  Ru161  1  0.24850198  0.94166700  0.46498236  1
  Ru4+  Ru162  1  0.25058837  0.89211128  0.00397609  1
  Ru4+  Ru163  1  0.25137637  0.61102591  0.26110544  1
  Ru4+  Ru164  1  0.25076327  0.28745203  -0.03599253  1
  Ru4+  Ru165  1  0.25014784  0.42379461  0.74953731  1
  Ru4+  Ru166  1  0.74985765  0.75451215  0.74662171  1
  Ru4+  Ru167  1  0.24866242  0.07823903  0.75296435  1
  Ru4+  Ru168  1  0.75016891  0.08987738  0.50012946  1
  Ru4+  Ru169  1  0.25084999  0.56497702  0.74263710  1
  Ru4+  Ru170  1  0.25033362  0.75405925  0.25158192  1
  Ru4+  Ru171  1  0.74958147  0.42944319  0.24715724  1
  Ru4+  Ru172  1  0.74981487  0.90348050  -0.00426189  1
  Ru4+  Ru173  1  0.74999526  0.40094585  0.52062066  1
  Ru4+  Ru174  1  0.24943462  0.41953031  0.50455660  1
  Ru4+  Ru175  1  0.24913239  0.41724251  -0.01348391  1
  Ru4+  Ru176  1  0.75071730  0.06436665  -0.01105949  1
  Ru4+  Ru177  1  0.25010156  0.73410031  0.73905251  1
  Ru4+  Ru178  1  0.25031596  0.08932841  0.49464419  1
  Ru4+  Ru179  1  0.74865896  0.24279990  0.25185322  1
  O2-  O180  1  0.16480435  0.07786216  0.00038721  1
  O2-  O181  1  0.16460533  0.08082312  0.24551300  1
  O2-  O182  1  0.16602180  0.08022411  0.49911823  1
  O2-  O183  1  0.16455177  0.07985200  0.75064339  1
  O2-  O184  1  0.16310401  0.41345710  -0.00474664  1
  O2-  O185  1  0.16067916  0.41573765  0.24726945  1
  O2-  O186  1  0.16623346  0.41380961  0.49743118  1
  O2-  O187  1  0.16562117  0.41434004  0.74702222  1
  O2-  O188  1  0.16428611  0.74799622  0.00401672  1
  O2-  O189  1  0.16705320  0.74723702  0.24997514  1
  O2-  O190  1  0.16488377  0.74419670  0.50232041  1
  O2-  O191  1  0.16611212  0.74646540  0.75069764  1
  O2-  O192  1  0.66878756  0.07981980  -0.00277214  1
  O2-  O193  1  0.66547068  0.08332295  0.24943570  1
  O2-  O194  1  0.66719519  0.08213643  0.50047035  1
  O2-  O195  1  0.66984064  0.08089441  0.75199023  1
  O2-  O196  1  0.66897358  0.41835473  -0.00212537  1
  O2-  O197  1  0.66770340  0.41518803  0.24933933  1
  O2-  O198  1  0.66759924  0.41529191  0.49786253  1
  O2-  O199  1  0.66885137  0.41464051  0.75055085  1
  O2-  O200  1  0.66242153  0.74652920  -0.00161923  1
  O2-  O201  1  0.66566622  0.74817810  0.25572608  1
  O2-  O202  1  0.66289053  0.74188390  0.49722662  1
  O2-  O203  1  0.66946811  0.74776202  0.74663819  1
  O2-  O204  1  0.33723422  0.25254342  -0.00305967  1
  O2-  O205  1  0.33179153  0.25003718  0.24845560  1
  O2-  O206  1  0.33307153  0.25055253  0.49783747  1
  O2-  O207  1  0.33490573  0.25912548  0.75281673  1
  O2-  O208  1  0.34127378  0.58928278  0.00537812  1
  O2-  O209  1  0.33631487  0.58988674  0.25424375  1
  O2-  O210  1  0.33924972  0.58148849  0.49609504  1
  O2-  O211  1  0.33498499  0.58334773  0.74877659  1
  O2-  O212  1  0.33558594  0.91462656  0.00288440  1
  O2-  O213  1  0.33721236  0.91880991  0.24429700  1
  O2-  O214  1  0.32944512  0.92083515  0.49671030  1
  O2-  O215  1  0.34242025  0.91689488  0.74603767  1
  O2-  O216  1  0.84240786  0.25787716  -0.00041597  1
  O2-  O217  1  0.83402527  0.25067091  0.25073329  1
  O2-  O218  1  0.83355572  0.24743028  0.50312001  1
  O2-  O219  1  0.83814253  0.25317687  0.74496131  1
  O2-  O220  1  0.83218783  0.58857981  0.00061267  1
  O2-  O221  1  0.83217846  0.58315305  0.26026370  1
  O2-  O222  1  0.82795099  0.58761268  0.49377563  1
  O2-  O223  1  0.83449920  0.58614239  0.74845816  1
  O2-  O224  1  0.83465016  0.91706754  -0.00246544  1
  O2-  O225  1  0.83288323  0.91226848  0.24677925  1
  O2-  O226  1  0.83154913  0.91804829  0.50249940  1
  O2-  O227  1  0.83117569  0.91889208  0.75133484  1
  O2-  O228  1  0.16613844  0.25621998  -0.00465292  1
  O2-  O229  1  0.16852650  0.25342475  0.25418626  1
  O2-  O230  1  0.16600365  0.25211562  0.50336014  1
  O2-  O231  1  0.16139159  0.25791341  0.74759081  1
  O2-  O232  1  0.15924176  0.58996454  0.00392562  1
  O2-  O233  1  0.16730207  0.58737393  0.24984367  1
  O2-  O234  1  0.17124815  0.58292629  0.49928181  1
  O2-  O235  1  0.17024053  0.58334882  0.75027712  1
  O2-  O236  1  0.16760629  0.91849209  0.00093582  1
  O2-  O237  1  0.16270339  0.92038917  0.24695845  1
  O2-  O238  1  0.16673445  0.92108184  0.49638021  1
  O2-  O239  1  0.15887377  0.92176678  0.75120813  1
  O2-  O240  1  0.65535527  0.25841936  -0.00229808  1
  O2-  O241  1  0.66310087  0.25292656  0.24848854  1
  O2-  O242  1  0.66695826  0.24737839  0.50109906  1
  O2-  O243  1  0.66440640  0.25268290  0.75019187  1
  O2-  O244  1  0.66336968  0.58656361  -0.00094016  1
  O2-  O245  1  0.65935913  0.58219248  0.25738298  1
  O2-  O246  1  0.66468632  0.58663981  0.49673524  1
  O2-  O247  1  0.66151681  0.58423665  0.74889273  1
  O2-  O248  1  0.66442380  0.91871025  -0.00031294  1
  O2-  O249  1  0.66797663  0.91648230  0.24928900  1
  O2-  O250  1  0.67016966  0.92097336  0.49830979  1
  O2-  O251  1  0.66831683  0.91702436  0.75150083  1
  O2-  O252  1  0.33135302  0.07631819  0.00722148  1
  O2-  O253  1  0.33729716  0.07897035  0.24659998  1
  O2-  O254  1  0.33292480  0.08093698  0.49706138  1
  O2-  O255  1  0.33161618  0.08264431  0.74848511  1
  O2-  O256  1  0.33426902  0.41062973  -0.00471417  1
  O2-  O257  1  0.33816339  0.41038110  0.24720818  1
  O2-  O258  1  0.32886087  0.41600916  0.49819757  1
  O2-  O259  1  0.33159401  0.41474910  0.74914779  1
  O2-  O260  1  0.33866463  0.74875341  0.00315958  1
  O2-  O261  1  0.33374365  0.74951686  0.25034926  1
  O2-  O262  1  0.33406865  0.74279922  0.49621280  1
  O2-  O263  1  0.33222172  0.74416964  0.74941209  1
  O2-  O264  1  0.83421816  0.07724918  -0.00140222  1
  O2-  O265  1  0.83282781  0.08419161  0.24936588  1
  O2-  O266  1  0.83071658  0.08551237  0.50346708  1
  O2-  O267  1  0.83276744  0.08034743  0.75257401  1
  O2-  O268  1  0.83700683  0.41528222  -0.00063763  1
  O2-  O269  1  0.83416063  0.41393190  0.25261106  1
  O2-  O270  1  0.83231780  0.41236882  0.49871690  1
  O2-  O271  1  0.83167569  0.41449911  0.74353298  1
  O2-  O272  1  0.83280208  0.74899592  -0.00438358  1
  O2-  O273  1  0.83087503  0.74729934  0.25701538  1
  O2-  O274  1  0.83087398  0.74121778  0.49851400  1
  O2-  O275  1  0.83097597  0.74916790  0.74767004  1
  O2-  O276  1  0.45144562  0.42690515  0.26507055  1
  O2-  O277  1  0.55407419  0.42379796  0.98466923  1
  O2-  O278  1  0.95421616  0.88776866  0.51537181  1
  O2-  O279  1  0.05301965  0.09977508  0.23477137  1
  O2-  O280  1  0.55066455  0.57260708  0.50985358  1
  O2-  O281  1  0.45666582  0.56844557  0.00894642  1
  O2-  O282  1  0.44798911  0.42945480  0.76658700  1
  O2-  O283  1  0.54712039  0.09606742  0.50597988  1
  O2-  O284  1  0.05265651  0.90935956  0.02033596  1
  O2-  O285  1  0.45466624  0.09202464  0.74201307  1
  O2-  O286  1  0.55237460  0.43650638  0.79940984  1
  O2-  O287  1  0.95522315  0.56144050  0.75460251  1
  O2-  O288  1  0.54492540  0.43699796  0.00404538  1
  O2-  O289  1  0.94472083  0.90616921  0.27069162  1
  O2-  O290  1  0.47527813  0.48159339  0.47919804  1
  O2-  O291  1  0.05424894  0.23953848  0.48060329  1
  O2-  O292  1  0.54995817  0.24008139  0.76081478  1
  O2-  O293  1  0.03687866  0.44665554  0.25703224  1
  O2-  O294  1  0.04266971  0.57042222  0.20141165  1
  O2-  O295  1  0.95505026  0.43090837  0.98926878  1
  O2-  O296  1  0.95206552  0.77296614  0.95885499  1
  O2-  O297  1  0.45670147  0.76206538  0.50302553  1
  O2-  O298  1  0.45376467  0.90469732  0.25971232  1
  O2-  O299  1  0.45006601  0.24136824  0.76636652  1
  O2-  O300  1  0.94590133  0.90929470  0.00469954  1
  O2-  O301  1  0.04178757  0.55894419  0.49312660  1
  O2-  O302  1  0.54615196  0.24303383  0.48789051  1
  O2-  O303  1  0.45508617  0.76590441  0.98707748  1
  O2-  O304  1  0.94747174  0.43068195  0.25983120  1
  O2-  O305  1  0.94598675  0.25082803  0.50056175  1
  O2-  O306  1  0.05124834  0.24842287  0.51832076  1
  O2-  O307  1  0.95664240  0.90692417  0.23594805  1
  O2-  O308  1  0.95616285  0.76010194  0.23720912  1
  O2-  O309  1  0.95317329  0.90291050  0.47992930  1
  O2-  O310  1  0.05221184  0.76209214  0.99920022  1
  O2-  O311  1  0.55095929  0.09541865  0.74138517  1
  O2-  O312  1  0.04385715  0.23373531  0.01159593  1
  O2-  O313  1  0.05058369  0.09650844  0.01626592  1
  O2-  O314  1  0.54037572  0.23207471  0.01263606  1
  O2-  O315  1  0.97203004  0.11006797  0.50951153  1
  O2-  O316  1  0.96704788  0.10890211  0.51986865  1
  O2-  O317  1  0.04812983  0.42095916  0.48779298  1
  O2-  O318  1  0.95612480  0.54747066  0.48963238  1
  O2-  O319  1  0.95369140  0.09369457  0.98372268  1
  O2-  O320  1  0.44802739  0.75982700  0.26882111  1
  O2-  O321  1  0.94492416  0.24977967  0.50963541  1
  O2-  O322  1  0.95160564  0.76851179  0.75640549  1
  O2-  O323  1  0.46747889  0.12292001  0.04739029  1
  O2-  O324  1  0.56267335  0.92096522  0.29053323  1
  O2-  O325  1  0.05911505  0.25305476  0.28066015  1
  O2-  O326  1  0.43117753  0.08129497  0.73361176  1
  O2-  O327  1  0.44010168  0.25582333  0.53336903  1
  O2-  O328  1  0.92970908  0.08984179  0.18316439  1
  O2-  O329  1  0.93940258  0.08250540  0.73108729  1
  O2-  O330  1  0.56401357  0.40050504  0.51847725  1
  O2-  O331  1  0.07420812  0.57755133  0.81878869  1
  O2-  O332  1  0.06118632  0.06865960  0.21952655  1
  O2-  O333  1  0.56142186  0.41091669  0.18258800  1
  O2-  O334  1  0.07186415  0.61744355  0.31904094  1
  O2-  O335  1  0.42940562  0.75194749  0.68048708  1
  O2-  O336  1  0.44195391  0.73235568  0.82374305  1
  O2-  O337  1  0.43747006  0.25796749  0.22708286  1
  O2-  O338  1  0.55800460  0.07778518  0.28639634  1
  O2-  O339  1  0.93566883  0.07611542  0.31491053  1
  O2-  O340  1  0.56545220  0.40756850  0.32506990  1
  O2-  O341  1  0.43547512  0.08121214  0.52404289  1
  O2-  O342  1  0.43889745  0.74462887  0.52316344  1
  O2-  O343  1  0.42146333  0.06749920  0.94522267  1
  O2-  O344  1  0.55948938  0.08490751  0.72994019  1
  O2-  O345  1  0.43631931  0.91817261  0.51926926  1
  O2-  O346  1  0.05701820  0.59478874  0.03698912  1
  O2-  O347  1  0.56430186  0.38757608  0.66540159  1
  O2-  O348  1  0.44174690  0.58068675  0.03775805  1
  O2-  O349  1  0.55992192  0.42530873  0.80499552  1
  O2-  O350  1  0.93627873  0.40208868  0.78609763  1
  O2-  O351  1  0.56346089  0.73722207  0.71809976  1
  O2-  O352  1  0.56888915  0.07199210  0.02779161  1
  O2-  O353  1  0.93725531  0.74386207  0.47459662  1
  O2-  O354  1  0.41848958  0.39129922  0.43899809  1
  O2-  O355  1  0.93058864  0.70675963  0.06992824  1
  O2-  O356  1  0.93640649  0.59556472  0.20855862  1
  O2-  O357  1  0.56337551  0.92235720  0.50971371  1
  O2-  O358  1  0.06290578  0.06600336  0.02495519  1
  O2-  O359  1  0.43687535  0.72892471  0.27997705  1
  O2-  O360  1  0.93720545  0.40454215  0.53703559  1
  O2-  O361  1  0.43321893  0.40353464  0.58634385  1
  O2-  O362  1  0.92130686  0.02335362  0.44370356  1
  O2-  O363  1  0.06684766  0.57689871  0.67738415  1
  O2-  O364  1  0.93803488  0.26187150  0.28053570  1
  O2-  O365  1  0.07999099  0.61427993  0.52298259  1
  O2-  O366  1  0.44696885  0.42202304  0.26202676  1
  O2-  O367  1  0.92195361  0.60490083  0.53006955  1
  O2-  O368  1  0.07171288  0.38916506  0.29266186  1
  O2-  O369  1  0.56719133  0.40062006  0.03801429  1
  O2-  O370  1  0.56288318  0.91645562  0.77541637  1
  O2-  O371  1  0.93760279  0.93187380  0.78842168  1
  O2-  O372  1  0.24960882  0.67678357  0.14839402  1
  O2-  O373  1  0.25043451  -0.01426359  0.68308836  1
  O2-  O374  1  0.74974994  0.33637076  0.08033355  1
  O2-  O375  1  0.24966634  0.32765427  0.07985955  1
  O2-  O376  1  0.24992006  -0.01414407  0.81836108  1
  O2-  O377  1  0.25013036  0.68435664  0.93789507  1
  O2-  O378  1  0.74911790  0.33349867  0.17090394  1
  O2-  O379  1  0.74862057  0.67243454  0.84024825  1
  O2-  O380  1  0.25020422  0.33064472  0.83921956  1
  O2-  O381  1  0.74927169  0.00079562  0.62650596  1
  O2-  O382  1  0.75273309  0.33874016  0.85728357  1
  O2-  O383  1  0.24824292  0.33805118  0.60315754  1
  O2-  O384  1  0.74767170  -0.00984806  0.37284288  1
  O2-  O385  1  0.24994622  -0.00541333  0.93783404  1
  O2-  O386  1  0.25000085  -0.00081994  0.36076982  1
  O2-  O387  1  0.75051819  0.32113991  0.43767397  1
  O2-  O388  1  0.24961414  0.32999057  0.18988580  1
  O2-  O389  1  0.75037827  -0.00706323  0.08177905  1
  O2-  O390  1  0.75005520  -0.00640245  0.17423115  1
  O2-  O391  1  0.25008582  0.00051722  0.56861789  1
  O2-  O392  1  0.25078518  0.65240640  0.64360997  1
  O2-  O393  1  0.25103415  0.64827216  0.82207585  1
  O2-  O394  1  0.74722268  0.66326074  0.13226241  1
  O2-  O395  1  0.75009981  0.33824567  0.31408458  1
  O2-  O396  1  0.24958476  0.82364244  0.34671841  1
  O2-  O397  1  0.25000567  0.50274720  0.59591096  1
  O2-  O398  1  0.25036390  0.15943994  0.11331466  1
  O2-  O399  1  0.24981029  0.19093546  0.45879747  1
  O2-  O400  1  0.75037353  0.14986452  0.10428319  1
  O2-  O401  1  0.25010260  0.83777691  0.09980633  1
  O2-  O402  1  0.75068540  0.14047272  0.88375088  1
  O2-  O403  1  0.25029705  0.51806336  0.39529530  1
  O2-  O404  1  0.74954645  0.83948411  0.90608124  1
  O2-  O405  1  0.74987433  0.82467638  0.62183645  1
  O2-  O406  1  0.75000883  0.50403198  0.66183190  1
  O2-  O407  1  0.25001953  0.16224427  0.83928752  1
  O2-  O408  1  0.74988187  0.14815993  0.19389610  1
  O2-  O409  1  0.25029040  0.16478749  0.37504349  1
  O2-  O410  1  0.25027722  0.54053849  0.17574087  1
  O2-  O411  1  0.24975747  0.48652385  0.85705702  1
  O2-  O412  1  0.75019325  0.51010948  0.16714736  1
  O2-  O413  1  0.75035453  0.50979864  0.92967025  1
  O2-  O414  1  0.74927851  0.49333897  0.08077131  1
  O2-  O415  1  0.75034863  0.16715935  0.80405427  1
  O2-  O416  1  0.25015892  0.46723206  0.08754773  1
  O2-  O417  1  0.75019292  0.49906598  0.57502181  1
  O2-  O418  1  0.25018912  0.83792979  0.90303607  1
  O2-  O419  1  0.74968733  0.83782055  0.09316159  1
  O2-  O420  1  0.04903638  0.00457719  0.62923772  1
  O2-  O421  1  0.47246485  0.34505777  0.11477874  1
  O2-  O422  1  0.47342099  0.00518717  0.38001513  1
  O2-  O423  1  0.02914406  0.33321436  0.87875531  1
  O2-  O424  1  0.95253007  0.32987110  0.12130805  1
  O2-  O425  1  0.97266162  0.66079225  0.37376752  1
  O2-  O426  1  0.03089081  -0.00448705  0.37588465  1
  O2-  O427  1  0.52095678  0.31344174  0.88423601  1
  O2-  O428  1  0.48179785  0.64638482  0.62763464  1
  O2-  O429  1  0.95410505  0.67125242  0.64508878  1
  O2-  O430  1  0.45704660  -0.01742596  0.85007770  1
  O2-  O431  1  0.03858023  0.70105770  0.62229329  1
  O2-  O432  1  0.04728618  0.34557171  0.12653487  1
  O2-  O433  1  0.45994217  -0.01159438  0.63588917  1
  O2-  O434  1  0.54226774  -0.01226251  0.62711877  1
  O2-  O435  1  0.95091036  0.65358305  0.87645263  1
  O2-  O436  1  0.97664575  -0.00246106  0.12247499  1
  O2-  O437  1  0.52263439  -0.00886780  0.12902877  1
  O2-  O438  1  0.48214765  0.30608011  0.37172901  1
  O2-  O439  1  0.95756932  -0.01515586  0.62128420  1
  O2-  O440  1  0.54426272  0.01465164  0.89095356  1
  O2-  O441  1  0.02817526  0.00625748  0.87594953  1
  O2-  O442  1  0.04091534  0.68108052  0.88355831  1
  O2-  O443  1  0.47656360  0.67337449  0.13313921  1
