# generated using pymatgen
data_La7(Ru4O11)2
_symmetry_space_group_name_H-M   'P 1'
_cell_length_a   23.99330984
_cell_length_b   16.83337703
_cell_length_c   15.42878659
_cell_angle_alpha   90.00529522
_cell_angle_beta   89.99690339
_cell_angle_gamma   90.00225059
_symmetry_Int_Tables_number   1
_chemical_formula_structural   La7(Ru4O11)2
_chemical_formula_sum   'La84 Ru96 O264'
_cell_volume   6231.50836182
_cell_formula_units_Z   12
loop_
 _symmetry_equiv_pos_site_id
 _symmetry_equiv_pos_as_xyz
  1  'x, y, z'
loop_
 _atom_type_symbol
 _atom_type_oxidation_number
  La3+  3.0
  Ru4+  4.0
  O2-  -2.0
loop_
 _atom_site_type_symbol
 _atom_site_label
 _atom_site_symmetry_multiplicity
 _atom_site_fract_x
 _atom_site_fract_y
 _atom_site_fract_z
 _atom_site_occupancy
  La3+  La0  1  0.14233714  0.00403998  0.12427785  1
  La3+  La1  1  0.14838436  -0.00568956  0.37205376  1
  La3+  La2  1  0.13719490  -0.00466667  0.62698170  1
  La3+  La3  1  0.13876223  -0.00491233  0.87665096  1
  La3+  La4  1  0.13470890  0.33235236  0.12691380  1
  La3+  La5  1  0.14114654  0.33569143  0.36805604  1
  La3+  La6  1  0.13518374  0.33019274  0.62710217  1
  La3+  La7  1  0.14155600  0.33522161  0.87926701  1
  La3+  La8  1  0.13963713  0.66847487  0.12616106  1
  La3+  La9  1  0.12988120  0.67073376  0.37401922  1
  La3+  La10  1  0.14317998  0.66785458  0.63347479  1
  La3+  La11  1  0.13309350  0.66962137  0.86975985  1
  La3+  La12  1  0.64192755  0.00570834  0.12550674  1
  La3+  La13  1  0.64345460  -0.00147143  0.37867248  1
  La3+  La14  1  0.64070135  0.00564616  0.62199788  1
  La3+  La15  1  0.63482495  0.00369244  0.87785665  1
  La3+  La16  1  0.63573716  0.32594593  0.12244479  1
  La3+  La17  1  0.63988956  0.33005963  0.36920681  1
  La3+  La18  1  0.63432152  0.32882410  0.63512506  1
  La3+  La19  1  0.64562457  0.33074943  0.87520580  1
  La3+  La20  1  0.63698997  0.66850206  0.12619458  1
  La3+  La21  1  0.64546967  0.66179809  0.37775050  1
  La3+  La22  1  0.62607647  0.66516494  0.62381654  1
  La3+  La23  1  0.63812633  0.66603672  0.87430621  1
  La3+  La24  1  0.35863696  0.00363091  0.12894747  1
  La3+  La25  1  0.35682279  -0.00699309  0.38047606  1
  La3+  La26  1  0.36493552  -0.00068249  0.61772559  1
  La3+  La27  1  0.35630109  0.00139819  0.87089315  1
  La3+  La28  1  0.37186748  0.33237852  0.12611312  1
  La3+  La29  1  0.36404162  0.33008495  0.36791333  1
  La3+  La30  1  0.36084085  0.33088406  0.62495155  1
  La3+  La31  1  0.36285468  0.33656277  0.88259620  1
  La3+  La32  1  0.37294006  0.68026066  0.13212218  1
  La3+  La33  1  0.36962649  0.66986104  0.35647370  1
  La3+  La34  1  0.36313436  0.67172333  0.62856718  1
  La3+  La35  1  0.37178689  0.66720406  0.87691169  1
  La3+  La36  1  0.85557725  0.00545809  0.12587695  1
  La3+  La37  1  0.85523127  0.00212050  0.37769735  1
  La3+  La38  1  0.85026435  0.00064088  0.62482431  1
  La3+  La39  1  0.86332567  0.00375644  0.87778998  1
  La3+  La40  1  0.86289996  0.32381736  0.12518418  1
  La3+  La41  1  0.85364573  0.33521637  0.36952787  1
  La3+  La42  1  0.85583391  0.33307356  0.62417428  1
  La3+  La43  1  0.85159720  0.33165605  0.87530097  1
  La3+  La44  1  0.86099840  0.66811683  0.12475399  1
  La3+  La45  1  0.85371481  0.65998248  0.37262254  1
  La3+  La46  1  0.87129807  0.67183374  0.62645946  1
  La3+  La47  1  0.86366714  0.66556453  0.86968952  1
  La3+  La48  1  0.48999568  0.82424841  0.11203987  1
  La3+  La49  1  0.00673032  0.18187812  0.37617739  1
  La3+  La50  1  0.48989751  0.82449276  0.12899659  1
  La3+  La51  1  0.50461836  0.49393240  0.87494216  1
  La3+  La52  1  -0.00203966  0.49963992  0.87274925  1
  La3+  La53  1  0.00032174  0.83074854  0.87991932  1
  La3+  La54  1  0.49336815  0.82031478  0.36610825  1
  La3+  La55  1  0.49673239  0.49798428  0.37440657  1
  La3+  La56  1  0.50555762  0.49649081  0.63332866  1
  La3+  La57  1  0.00971191  0.82637461  0.63529901  1
  La3+  La58  1  0.50168740  0.16769764  0.36936564  1
  La3+  La59  1  0.00327192  0.83834404  0.86532275  1
  La3+  La60  1  -0.00145329  0.50453084  0.62345095  1
  La3+  La61  1  0.49851796  0.82572428  0.86916313  1
  La3+  La62  1  0.00241666  0.50039713  0.13214651  1
  La3+  La63  1  -0.01798666  0.82436002  0.36260928  1
  La3+  La64  1  0.00705520  0.15366468  0.63643651  1
  La3+  La65  1  0.00389707  0.17870221  0.35437963  1
  La3+  La66  1  0.50331366  0.84554806  0.62916726  1
  La3+  La67  1  0.00511411  0.84476983  0.12041298  1
  La3+  La68  1  -0.01336253  0.83249758  0.37439433  1
  La3+  La69  1  0.50261546  0.16326986  0.86524907  1
  La3+  La70  1  0.00738187  0.16337404  0.87984239  1
  La3+  La71  1  0.00228274  0.17068533  0.89946305  1
  La3+  La72  1  0.75125540  0.44383262  0.00479872  1
  La3+  La73  1  0.25136482  0.11818079  0.48121058  1
  La3+  La74  1  0.25151478  0.46446660  0.21590730  1
  La3+  La75  1  0.25074438  0.55178507  0.49707867  1
  La3+  La76  1  0.75143228  0.77990188  0.23930637  1
  La3+  La77  1  0.74839717  0.55092255  0.20356592  1
  La3+  La78  1  0.25051978  0.16514411  0.24128657  1
  La3+  La79  1  0.74978192  0.84930474  0.69267745  1
  La3+  La80  1  0.25018822  0.50193127  0.69801328  1
  La3+  La81  1  0.75090600  0.80492122  -0.01175244  1
  La3+  La82  1  0.75099182  0.55626344  0.52780119  1
  La3+  La83  1  0.24999144  0.84492865  -0.05338538  1
  Ru4+  Ru84  1  -0.01016757  0.00411541  0.00855633  1
  Ru4+  Ru85  1  0.00892150  0.00447010  0.23464322  1
  Ru4+  Ru86  1  -0.00497556  0.00611625  0.50734927  1
  Ru4+  Ru87  1  0.00038858  -0.00024282  0.74568177  1
  Ru4+  Ru88  1  -0.00620627  0.33216614  -0.01025623  1
  Ru4+  Ru89  1  -0.00509057  0.33778861  0.23749806  1
  Ru4+  Ru90  1  -0.00815116  0.33063522  0.49824883  1
  Ru4+  Ru91  1  -0.00326352  0.33573660  0.74697257  1
  Ru4+  Ru92  1  0.00078705  0.65649335  0.01875981  1
  Ru4+  Ru93  1  -0.00272336  0.65458125  0.23471501  1
  Ru4+  Ru94  1  -0.00374115  0.67381616  0.51622398  1
  Ru4+  Ru95  1  0.00575677  0.66008499  0.75098182  1
  Ru4+  Ru96  1  0.49591346  -0.00961662  -0.00049701  1
  Ru4+  Ru97  1  0.49968281  -0.00282642  0.24115414  1
  Ru4+  Ru98  1  0.50778371  0.00245789  0.50324612  1
  Ru4+  Ru99  1  0.50247747  0.00348169  0.74143006  1
  Ru4+  Ru100  1  0.51181257  0.33822919  0.01120145  1
  Ru4+  Ru101  1  0.50521843  0.33894247  0.25313821  1
  Ru4+  Ru102  1  0.48785506  0.32224138  0.49446358  1
  Ru4+  Ru103  1  0.49487815  0.32954480  0.75213492  1
  Ru4+  Ru104  1  0.50314669  0.66085763  0.01060512  1
  Ru4+  Ru105  1  0.49722254  0.66882927  0.24185148  1
  Ru4+  Ru106  1  0.49384863  0.67574287  0.49912568  1
  Ru4+  Ru107  1  0.49931403  0.66520481  0.74243268  1
  Ru4+  Ru108  1  0.11481997  0.16620973  0.00199363  1
  Ru4+  Ru109  1  0.11024162  0.15896587  0.24365077  1
  Ru4+  Ru110  1  0.11093766  0.16449935  0.50223893  1
  Ru4+  Ru111  1  0.11237845  0.16477911  0.74685067  1
  Ru4+  Ru112  1  0.11368880  0.50233536  -0.00256909  1
  Ru4+  Ru113  1  0.10797331  0.49752254  0.25171031  1
  Ru4+  Ru114  1  0.10681337  0.50139392  0.50194822  1
  Ru4+  Ru115  1  0.11250836  0.50002059  0.75131031  1
  Ru4+  Ru116  1  0.11598995  0.82993199  0.00086357  1
  Ru4+  Ru117  1  0.11480699  0.84337479  0.25126832  1
  Ru4+  Ru118  1  0.11429305  0.83049292  0.50368987  1
  Ru4+  Ru119  1  0.12212707  0.83933632  0.74719667  1
  Ru4+  Ru120  1  0.61412500  0.17172488  0.00129807  1
  Ru4+  Ru121  1  0.61565275  0.17003120  0.25053272  1
  Ru4+  Ru122  1  0.61108240  0.16608728  0.50094959  1
  Ru4+  Ru123  1  0.61307771  0.17114789  0.74752177  1
  Ru4+  Ru124  1  0.60569887  0.49343494  0.00001290  1
  Ru4+  Ru125  1  0.60940441  0.49844721  0.25104232  1
  Ru4+  Ru126  1  0.61091369  0.49104721  0.49869137  1
  Ru4+  Ru127  1  0.61685304  0.50254331  0.75157351  1
  Ru4+  Ru128  1  0.61132185  0.83649706  -0.00163365  1
  Ru4+  Ru129  1  0.60949193  0.83027354  0.25883361  1
  Ru4+  Ru130  1  0.61313320  0.83858430  0.49664379  1
  Ru4+  Ru131  1  0.61715927  0.83910504  0.74958223  1
  Ru4+  Ru132  1  0.38704081  0.16333943  -0.00468444  1
  Ru4+  Ru133  1  0.38675727  0.16118232  0.24461897  1
  Ru4+  Ru134  1  0.39232421  0.17677592  0.50697046  1
  Ru4+  Ru135  1  0.38847316  0.16457049  0.75519568  1
  Ru4+  Ru136  1  0.38246032  0.50128344  0.00294522  1
  Ru4+  Ru137  1  0.39138656  0.50007549  0.24731795  1
  Ru4+  Ru138  1  0.39052537  0.50029304  0.49703311  1
  Ru4+  Ru139  1  0.38708816  0.48545072  0.75248417  1
  Ru4+  Ru140  1  0.38443139  0.84705449  -0.00152555  1
  Ru4+  Ru141  1  0.38401283  0.83762107  0.25366383  1
  Ru4+  Ru142  1  0.38704210  0.83050528  0.49634410  1
  Ru4+  Ru143  1  0.38284426  0.83076283  0.74991665  1
  Ru4+  Ru144  1  0.88957888  0.17553087  0.00739378  1
  Ru4+  Ru145  1  0.88470743  0.16791861  0.24605340  1
  Ru4+  Ru146  1  0.89295202  0.16801483  0.50613727  1
  Ru4+  Ru147  1  0.88409729  0.17478007  0.74156632  1
  Ru4+  Ru148  1  0.89235460  0.50021225  0.00222684  1
  Ru4+  Ru149  1  0.89145857  0.50317891  0.25393236  1
  Ru4+  Ru150  1  0.89243424  0.49755616  0.50168110  1
  Ru4+  Ru151  1  0.88362634  0.49478213  0.75145380  1
  Ru4+  Ru152  1  0.89383247  0.83508384  -0.00010223  1
  Ru4+  Ru153  1  0.88772266  0.83344662  0.24800486  1
  Ru4+  Ru154  1  0.88369155  0.83517826  0.49701379  1
  Ru4+  Ru155  1  0.88452022  0.83936616  0.74927861  1
  Ru4+  Ru156  1  0.75081689  0.94765651  0.01799038  1
  Ru4+  Ru157  1  0.25102894  0.76311701  0.50775885  1
  Ru4+  Ru158  1  0.74938080  0.96227295  0.78926303  1
  Ru4+  Ru159  1  0.74960496  0.93661701  0.25063020  1
  Ru4+  Ru160  1  0.24954566  0.38603317  0.80029578  1
  Ru4+  Ru161  1  0.75038885  0.40147489  0.23987044  1
  Ru4+  Ru162  1  0.74951087  0.40628169  0.51955124  1
  Ru4+  Ru163  1  0.24918562  0.75463859  0.26326665  1
  Ru4+  Ru164  1  0.25086826  0.23758032  -0.00629871  1
  Ru4+  Ru165  1  0.25097448  0.70279172  -0.01934606  1
  Ru4+  Ru166  1  0.74915994  0.41679065  0.76686608  1
  Ru4+  Ru167  1  0.24940583  0.60110635  0.27754179  1
  Ru4+  Ru168  1  0.75089951  0.55655116  0.75435168  1
  Ru4+  Ru169  1  0.24861117  0.26086099  0.48303953  1
  Ru4+  Ru170  1  0.24977657  0.40973402  0.46254762  1
  Ru4+  Ru171  1  0.74923317  0.75557494  0.50366696  1
  Ru4+  Ru172  1  0.25054400  0.22434078  0.75733674  1
  Ru4+  Ru173  1  0.24903311  0.97385217  0.01614420  1
  Ru4+  Ru174  1  0.74886465  0.23068395  0.49367118  1
  Ru4+  Ru175  1  0.75031224  0.59523099  0.01358563  1
  Ru4+  Ru176  1  0.25203623  0.63122465  0.77227129  1
  Ru4+  Ru177  1  0.24952094  0.08751135  0.74957561  1
  Ru4+  Ru178  1  0.75059465  0.70666797  0.72240042  1
  Ru4+  Ru179  1  0.75042762  0.08506862  0.48490157  1
  O2-  O180  1  0.16645356  0.07979283  -0.00518522  1
  O2-  O181  1  0.17176624  0.08277344  0.24890059  1
  O2-  O182  1  0.16462131  0.07687099  0.50695357  1
  O2-  O183  1  0.16672607  0.08056365  0.74962659  1
  O2-  O184  1  0.16256174  0.41302933  0.00822288  1
  O2-  O185  1  0.16691861  0.41313559  0.24774141  1
  O2-  O186  1  0.16480848  0.41540261  0.49540747  1
  O2-  O187  1  0.16679592  0.41218605  0.74619741  1
  O2-  O188  1  0.16896940  0.74282151  -0.00188049  1
  O2-  O189  1  0.16263127  0.74899112  0.25388185  1
  O2-  O190  1  0.17126768  0.74482903  0.49264799  1
  O2-  O191  1  0.16465691  0.74751044  0.75208835  1
  O2-  O192  1  0.66168871  0.07961260  -0.00344123  1
  O2-  O193  1  0.66052689  0.08033747  0.24948876  1
  O2-  O194  1  0.66822187  0.08208622  0.49665116  1
  O2-  O195  1  0.65939052  0.08226383  0.75564578  1
  O2-  O196  1  0.66181113  0.41026559  0.00782762  1
  O2-  O197  1  0.66632648  0.41203434  0.24486685  1
  O2-  O198  1  0.66563486  0.41202972  0.50486470  1
  O2-  O199  1  0.66676600  0.41272808  0.75102222  1
  O2-  O200  1  0.65927891  0.74540195  -0.00060276  1
  O2-  O201  1  0.66170467  0.74620555  0.24684336  1
  O2-  O202  1  0.66469888  0.74718091  0.50623762  1
  O2-  O203  1  0.66882954  0.74431055  0.74737598  1
  O2-  O204  1  0.33531885  0.25299446  0.00550956  1
  O2-  O205  1  0.33168640  0.25270146  0.24365207  1
  O2-  O206  1  0.33172435  0.25242448  0.49502390  1
  O2-  O207  1  0.33350082  0.24799366  0.75403131  1
  O2-  O208  1  0.33892790  0.58748982  -0.00050508  1
  O2-  O209  1  0.33090256  0.58274264  0.24597543  1
  O2-  O210  1  0.34063359  0.59087555  0.50000650  1
  O2-  O211  1  0.33476726  0.58483457  0.75075506  1
  O2-  O212  1  0.32784125  0.92901113  -0.00030146  1
  O2-  O213  1  0.33749797  0.92442270  0.24663702  1
  O2-  O214  1  0.33413059  0.91497982  0.50460445  1
  O2-  O215  1  0.33983284  0.92110604  0.74651418  1
  O2-  O216  1  0.82923444  0.24617335  0.00606263  1
  O2-  O217  1  0.83241049  0.24745881  0.24839341  1
  O2-  O218  1  0.83108993  0.24690795  0.50390192  1
  O2-  O219  1  0.83002059  0.24995333  0.75218392  1
  O2-  O220  1  0.83448006  0.58648883  0.00062446  1
  O2-  O221  1  0.83490772  0.58409443  0.24625121  1
  O2-  O222  1  0.84425685  0.58851740  0.50173529  1
  O2-  O223  1  0.83332350  0.58098255  0.74923376  1
  O2-  O224  1  0.83226037  0.92162476  -0.00147475  1
  O2-  O225  1  0.83196030  0.92126629  0.25074858  1
  O2-  O226  1  0.83466232  0.91708123  0.50233855  1
  O2-  O227  1  0.83199005  0.92330291  0.75642692  1
  O2-  O228  1  0.16703575  0.25236624  0.00323446  1
  O2-  O229  1  0.16600434  0.25067971  0.24647525  1
  O2-  O230  1  0.16342628  0.25374985  0.49819656  1
  O2-  O231  1  0.16966440  0.24874865  0.75281806  1
  O2-  O232  1  0.16425324  0.58261240  0.00064211  1
  O2-  O233  1  0.16466529  0.58676439  0.25522559  1
  O2-  O234  1  0.16035280  0.59131063  0.49586517  1
  O2-  O235  1  0.17190836  0.58509201  0.75341591  1
  O2-  O236  1  0.16898838  0.92164484  -0.00196929  1
  O2-  O237  1  0.17047102  0.91642594  0.25092422  1
  O2-  O238  1  0.16178354  0.91760454  0.50592525  1
  O2-  O239  1  0.17027979  0.92405026  0.74728770  1
  O2-  O240  1  0.66890105  0.24906534  0.00051667  1
  O2-  O241  1  0.66575212  0.25047123  0.24621137  1
  O2-  O242  1  0.66323243  0.25204745  0.50115068  1
  O2-  O243  1  0.66794314  0.25157113  0.74896447  1
  O2-  O244  1  0.66511869  0.58402422  0.00236927  1
  O2-  O245  1  0.65999910  0.58546658  0.24802338  1
  O2-  O246  1  0.65748545  0.58809189  0.50464414  1
  O2-  O247  1  0.66983188  0.58292416  0.74874922  1
  O2-  O248  1  0.67099865  0.92102737  0.00103662  1
  O2-  O249  1  0.66534335  0.91947131  0.24966453  1
  O2-  O250  1  0.66540154  0.91615468  0.50452775  1
  O2-  O251  1  0.66763104  0.92519052  0.75331882  1
  O2-  O252  1  0.33670381  0.08089839  -0.00044603  1
  O2-  O253  1  0.33264619  0.08337357  0.24938118  1
  O2-  O254  1  0.34107991  0.08227968  0.50193727  1
  O2-  O255  1  0.33195306  0.08252700  0.74565012  1
  O2-  O256  1  0.33388082  0.41294662  0.00928785  1
  O2-  O257  1  0.33709520  0.41020325  0.24329356  1
  O2-  O258  1  0.33461602  0.41484679  0.49373764  1
  O2-  O259  1  0.32830373  0.41025342  0.75095141  1
  O2-  O260  1  0.33499516  0.74757017  -0.00440544  1
  O2-  O261  1  0.33079722  0.74873259  0.24840440  1
  O2-  O262  1  0.33122409  0.74783846  0.50573156  1
  O2-  O263  1  0.33370478  0.74462360  0.75336111  1
  O2-  O264  1  0.84001470  0.08411960  -0.00460229  1
  O2-  O265  1  0.83619337  0.08057685  0.25122403  1
  O2-  O266  1  0.83481735  0.08633516  0.49599903  1
  O2-  O267  1  0.83948246  0.08349819  0.75748552  1
  O2-  O268  1  0.84274608  0.41011482  0.00403584  1
  O2-  O269  1  0.83597840  0.41460287  0.24118550  1
  O2-  O270  1  0.83463765  0.41492233  0.50185623  1
  O2-  O271  1  0.83066807  0.41375248  0.74880564  1
  O2-  O272  1  0.84252488  0.74522819  -0.00134840  1
  O2-  O273  1  0.84294312  0.74260623  0.24924567  1
  O2-  O274  1  0.83212550  0.74742627  0.50614701  1
  O2-  O275  1  0.83121101  0.74336937  0.74863832  1
  O2-  O276  1  0.94334178  0.76385569  0.55027414  1
  O2-  O277  1  0.04796910  0.90214776  0.98235091  1
  O2-  O278  1  0.04929427  0.43098020  0.75814397  1
  O2-  O279  1  0.54462887  0.75701308  0.74099346  1
  O2-  O280  1  0.95560593  0.75786545  0.74499695  1
  O2-  O281  1  0.95993159  0.21015232  0.77329478  1
  O2-  O282  1  0.44643496  0.76880150  0.23766647  1
  O2-  O283  1  0.04199707  0.43555181  0.99724327  1
  O2-  O284  1  0.04487393  0.76478768  0.23609125  1
  O2-  O285  1  0.04878283  0.90388816  0.30576472  1
  O2-  O286  1  0.54635061  0.76597670  0.98150971  1
  O2-  O287  1  0.95568683  0.09751163  0.45086612  1
  O2-  O288  1  0.94981092  0.43307650  0.74488976  1
  O2-  O289  1  0.55023878  0.57814087  0.97508128  1
  O2-  O290  1  0.96938121  0.19898858  0.04339731  1
  O2-  O291  1  0.04778200  0.56656856  0.26876004  1
  O2-  O292  1  0.45140591  0.41779527  0.98163794  1
  O2-  O293  1  0.44635779  0.42990937  0.01781766  1
  O2-  O294  1  0.54537422  0.58174534  0.48127739  1
  O2-  O295  1  0.95057227  0.90664509  0.23932201  1
  O2-  O296  1  0.54981808  0.56637760  0.51626405  1
  O2-  O297  1  0.54529504  0.45073626  0.05087269  1
  O2-  O298  1  0.05119778  0.09290530  0.99212708  1
  O2-  O299  1  0.04805254  0.76075474  0.27466034  1
  O2-  O300  1  0.44892877  0.23453753  0.22865376  1
  O2-  O301  1  0.54443000  0.90490365  0.24056395  1
  O2-  O302  1  0.44829218  0.09975715  0.51663202  1
  O2-  O303  1  0.45404084  0.08634765  0.48138351  1
  O2-  O304  1  0.04649131  0.76146589  0.00509904  1
  O2-  O305  1  0.45249532  0.23483766  0.76573743  1
  O2-  O306  1  0.96852588  0.22603798  0.54430917  1
  O2-  O307  1  0.95179178  0.43515595  0.23968399  1
  O2-  O308  1  0.44776461  0.76835769  0.00136045  1
  O2-  O309  1  0.04784323  0.24227102  0.23197469  1
  O2-  O310  1  0.45059601  0.25097088  0.26354896  1
  O2-  O311  1  0.44722228  0.56337429  0.76800817  1
  O2-  O312  1  0.55006310  0.43194784  0.75512187  1
  O2-  O313  1  0.45082822  0.91335847  0.47592862  1
  O2-  O314  1  0.45313016  0.42705587  0.23120245  1
  O2-  O315  1  0.45146694  0.57507884  0.73120283  1
  O2-  O316  1  0.45564763  0.77075670  0.55125485  1
  O2-  O317  1  0.54819997  0.90106160  0.75526838  1
  O2-  O318  1  0.05354645  0.77245644  0.76346859  1
  O2-  O319  1  0.94482238  0.57273501  0.76221242  1
  O2-  O320  1  0.55168447  0.76452042  0.48327805  1
  O2-  O321  1  0.04592938  0.77745856  0.45503348  1
  O2-  O322  1  0.95102000  0.09172686  0.26149026  1
  O2-  O323  1  0.54896825  0.77183275  0.21084441  1
  O2-  O324  1  0.06352264  0.40280835  0.21531471  1
  O2-  O325  1  0.93847228  0.92808139  0.46224423  1
  O2-  O326  1  0.43448119  0.24525633  0.42760303  1
  O2-  O327  1  0.55977193  0.25487935  0.29080546  1
  O2-  O328  1  0.06022973  0.59759492  0.96243327  1
  O2-  O329  1  0.92090644  0.26977377  0.95024393  1
  O2-  O330  1  0.43857818  0.92684707  0.92304311  1
  O2-  O331  1  0.05834790  0.92361380  0.95528301  1
  O2-  O332  1  0.06731856  0.09174705  0.17937644  1
  O2-  O333  1  0.43415773  0.75250662  0.22658217  1
  O2-  O334  1  0.43859606  0.40487210  0.67376978  1
  O2-  O335  1  0.93394280  0.74363610  0.73244721  1
  O2-  O336  1  0.43358305  0.93340690  0.07670875  1
  O2-  O337  1  0.43829266  0.58523195  0.27671188  1
  O2-  O338  1  0.93515879  0.71442220  0.40195400  1
  O2-  O339  1  0.06221807  0.25555626  0.72272023  1
  O2-  O340  1  0.43811071  0.40060568  0.82343667  1
  O2-  O341  1  0.05655994  0.74451025  0.78743449  1
  O2-  O342  1  0.92997843  0.28876561  0.68151922  1
  O2-  O343  1  0.43160035  0.74095601  0.28775685  1
  O2-  O344  1  0.44167870  0.92484526  0.46682148  1
  O2-  O345  1  0.56996006  0.71389075  0.32261351  1
  O2-  O346  1  0.92769976  0.05706877  0.57885511  1
  O2-  O347  1  0.56809121  0.74685286  0.73071239  1
  O2-  O348  1  0.55945506  0.26453309  0.71764513  1
  O2-  O349  1  0.56546163  0.59189847  0.73179080  1
  O2-  O350  1  0.93667428  0.60429698  0.77635404  1
  O2-  O351  1  0.08406749  0.73756490  0.56330653  1
  O2-  O352  1  0.55881990  0.40635261  0.77930287  1
  O2-  O353  1  0.06350451  0.06743183  0.47895613  1
  O2-  O354  1  0.93415179  0.26159987  0.22993383  1
  O2-  O355  1  0.56735532  0.38940131  0.92892955  1
  O2-  O356  1  0.07888980  0.92445243  0.18113385  1
  O2-  O357  1  0.56475516  0.08006727  0.51875684  1
  O2-  O358  1  0.55839550  0.25068927  0.01917505  1
  O2-  O359  1  0.91863621  0.27085287  0.44101299  1
  O2-  O360  1  0.56156515  0.41320599  0.28735543  1
  O2-  O361  1  0.56382755  0.92509367  0.97267773  1
  O2-  O362  1  0.06533596  0.92420333  0.73042471  1
  O2-  O363  1  0.56197205  0.92998813  0.45962062  1
  O2-  O364  1  0.43865126  0.74489304  0.02749525  1
  O2-  O365  1  0.94807204  0.77066407  0.54334643  1
  O2-  O366  1  0.06432611  0.59040070  0.78945692  1
  O2-  O367  1  0.44195469  0.26738785  0.57545890  1
  O2-  O368  1  0.93727240  0.59807501  0.28187909  1
  O2-  O369  1  0.43832066  0.74167258  0.71907178  1
  O2-  O370  1  0.06299370  0.06733202  0.32300589  1
  O2-  O371  1  0.42256678  0.73011624  0.44408152  1
  O2-  O372  1  0.24935293  0.34656053  0.56656934  1
  O2-  O373  1  0.74946503  0.32708885  0.43441502  1
  O2-  O374  1  0.25130914  0.01496013  0.33070775  1
  O2-  O375  1  0.25087652  -0.00433387  0.42114499  1
  O2-  O376  1  0.75005592  0.66425274  0.42269518  1
  O2-  O377  1  0.74975884  0.31701076  0.30678246  1
  O2-  O378  1  0.24939139  0.32913593  0.36214460  1
  O2-  O379  1  0.74932475  0.34853974  0.88603094  1
  O2-  O380  1  0.74946689  0.67503129  0.60166503  1
  O2-  O381  1  0.75029481  0.33797471  0.13562757  1
  O2-  O382  1  0.75036451  0.67159840  0.13410761  1
  O2-  O383  1  0.25114772  0.33014615  0.90836764  1
  O2-  O384  1  0.25199378  0.65919994  0.64065314  1
  O2-  O385  1  0.25131760  0.63342696  0.06350884  1
  O2-  O386  1  0.74991004  -0.00502411  0.55907793  1
  O2-  O387  1  0.24871438  0.67368884  0.18226663  1
  O2-  O388  1  0.74946064  0.64873482  0.82434677  1
  O2-  O389  1  0.74986561  0.00418476  0.39697259  1
  O2-  O390  1  0.74929881  0.01363225  0.68477886  1
  O2-  O391  1  0.24993012  0.01174547  0.84467582  1
  O2-  O392  1  0.74992856  0.68184942  0.94635224  1
  O2-  O393  1  0.74862730  0.00396249  0.14695348  1
  O2-  O394  1  0.24987810  0.32131435  0.69515082  1
  O2-  O395  1  0.74883730  0.66323299  0.32818006  1
  O2-  O396  1  0.75015321  0.16999043  0.66822861  1
  O2-  O397  1  0.74951163  0.16621378  0.38500503  1
  O2-  O398  1  0.75034532  0.86203331  0.12295861  1
  O2-  O399  1  0.75021755  0.16765464  0.09044157  1
  O2-  O400  1  0.75012775  0.51094752  0.87614794  1
  O2-  O401  1  0.25038921  0.50147267  0.84507083  1
  O2-  O402  1  0.25018972  0.83421727  0.09751786  1
  O2-  O403  1  0.75091772  0.48898123  0.32358741  1
  O2-  O404  1  0.74972574  0.85090531  0.84754659  1
  O2-  O405  1  0.25005742  0.17674933  0.09499226  1
  O2-  O406  1  0.24974273  0.50285342  0.36120427  1
  O2-  O407  1  0.25046302  0.17321127  0.90109713  1
  O2-  O408  1  0.25015224  0.84233294  0.33453927  1
  O2-  O409  1  0.25002908  0.83689038  0.42312529  1
  O2-  O410  1  0.74904115  0.47545564  0.41647958  1
  O2-  O411  1  0.24910382  0.82708368  0.59402032  1
  O2-  O412  1  0.25022491  0.84465003  0.18495874  1
  O2-  O413  1  0.25003482  0.50266165  0.93272867  1
  O2-  O414  1  0.74961022  0.84597593  0.44730110  1
  O2-  O415  1  0.24981498  0.16784673  0.63215184  1
  O2-  O416  1  0.74941928  0.85667785  0.35430266  1
  O2-  O417  1  0.74969926  0.15831863  0.58246383  1
  O2-  O418  1  0.24994913  0.82467867  0.82214778  1
  O2-  O419  1  0.75004596  0.47833160  0.64900082  1
  O2-  O420  1  0.52361296  0.02225486  0.86890051  1
  O2-  O421  1  0.52726019  0.00747715  0.11505831  1
  O2-  O422  1  0.45126866  -0.00522439  0.64783735  1
  O2-  O423  1  0.04659678  0.65607623  0.12745810  1
  O2-  O424  1  0.95483556  0.62731845  0.61713548  1
  O2-  O425  1  0.96902708  0.00318798  0.87320997  1
  O2-  O426  1  0.04368586  0.64775108  0.63945284  1
  O2-  O427  1  0.94768646  0.00223339  0.11858254  1
  O2-  O428  1  0.47334140  0.66924939  0.87767724  1
  O2-  O429  1  0.52675990  0.33264407  0.13776107  1
  O2-  O430  1  0.05023677  0.31172185  0.88739743  1
  O2-  O431  1  0.47862032  0.35597773  0.37546139  1
  O2-  O432  1  0.54408782  -0.00874406  0.63098308  1
  O2-  O433  1  0.54754446  0.66516466  0.11842538  1
  O2-  O434  1  0.46002803  0.64165350  0.12711565  1
  O2-  O435  1  0.02658987  0.34747440  0.61120955  1
  O2-  O436  1  0.96153272  0.35448669  0.86526191  1
  O2-  O437  1  0.97717037  0.34819012  0.11025111  1
  O2-  O438  1  0.98795296  0.34250164  0.36755351  1
  O2-  O439  1  0.52381322  0.66661077  0.61784241  1
  O2-  O440  1  0.48833446  0.64811346  0.37737290  1
  O2-  O441  1  0.03631189  -0.00789867  0.09502348  1
  O2-  O442  1  0.95270531  0.67181067  0.12049444  1
  O2-  O443  1  0.02763967  0.00648145  0.62217054  1
