# generated using pymatgen
data_La7(Ru4O11)2
_symmetry_space_group_name_H-M   'P 1'
_cell_length_a   23.99010730
_cell_length_b   16.83052228
_cell_length_c   15.42663772
_cell_angle_alpha   89.99978060
_cell_angle_beta   90.00008646
_cell_angle_gamma   89.99949500
_symmetry_Int_Tables_number   1
_chemical_formula_structural   La7(Ru4O11)2
_chemical_formula_sum   'La84 Ru96 O264'
_cell_volume   6228.75235088
_cell_formula_units_Z   12
loop_
 _symmetry_equiv_pos_site_id
 _symmetry_equiv_pos_as_xyz
  1  'x, y, z'
loop_
 _atom_type_symbol
 _atom_type_oxidation_number
  La3+  3.0
  Ru4+  4.0
  O2-  -2.0
loop_
 _atom_site_type_symbol
 _atom_site_label
 _atom_site_symmetry_multiplicity
 _atom_site_fract_x
 _atom_site_fract_y
 _atom_site_fract_z
 _atom_site_occupancy
  La3+  La0  1  0.13866669  0.00065338  0.12444604  1
  La3+  La1  1  0.13688989  -0.00056876  0.37270499  1
  La3+  La2  1  0.13749468  0.00113054  0.62466000  1
  La3+  La3  1  0.13772046  0.00088935  0.87391273  1
  La3+  La4  1  0.13537592  0.33419916  0.12528076  1
  La3+  La5  1  0.14024713  0.33229203  0.37460180  1
  La3+  La6  1  0.13999180  0.33157675  0.62553160  1
  La3+  La7  1  0.13705087  0.33295225  0.87326760  1
  La3+  La8  1  0.13721010  0.66653331  0.12430686  1
  La3+  La9  1  0.14059343  0.66718879  0.37605401  1
  La3+  La10  1  0.13314800  0.65999372  0.62977607  1
  La3+  La11  1  0.13352392  0.66205406  0.87041327  1
  La3+  La12  1  0.64224642  -0.00057551  0.12267874  1
  La3+  La13  1  0.63944843  0.00234235  0.37753272  1
  La3+  La14  1  0.63760902  0.00208050  0.62324110  1
  La3+  La15  1  0.64242196  0.00143039  0.87676855  1
  La3+  La16  1  0.63904214  0.33160802  0.11949461  1
  La3+  La17  1  0.63601545  0.33232716  0.38200180  1
  La3+  La18  1  0.63950547  0.33205090  0.62216051  1
  La3+  La19  1  0.64202959  0.33104809  0.87573230  1
  La3+  La20  1  0.63674275  0.66969586  0.12213124  1
  La3+  La21  1  0.63933008  0.66709216  0.37800788  1
  La3+  La22  1  0.64050106  0.66722075  0.62537497  1
  La3+  La23  1  0.64449251  0.66660555  0.87205306  1
  La3+  La24  1  0.36212473  0.00073203  0.12693612  1
  La3+  La25  1  0.36266394  0.00089720  0.37305800  1
  La3+  La26  1  0.36231810  0.00016062  0.62588034  1
  La3+  La27  1  0.36194429  -0.00014128  0.87229374  1
  La3+  La28  1  0.36144424  0.33385929  0.12693104  1
  La3+  La29  1  0.36343703  0.32776406  0.38067223  1
  La3+  La30  1  0.36283997  0.32687817  0.62070950  1
  La3+  La31  1  0.36129525  0.33315806  0.87106723  1
  La3+  La32  1  0.36274309  0.66595717  0.12358421  1
  La3+  La33  1  0.36295430  0.66554865  0.37601870  1
  La3+  La34  1  0.36389434  0.66859518  0.62537566  1
  La3+  La35  1  0.36131527  0.66724329  0.87627052  1
  La3+  La36  1  0.86094693  -0.00014019  0.12233257  1
  La3+  La37  1  0.86080233  -0.00058787  0.37492046  1
  La3+  La38  1  0.86097212  0.00090770  0.62694186  1
  La3+  La39  1  0.85721998  0.00067580  0.87455157  1
  La3+  La40  1  0.86112241  0.33078367  0.12010585  1
  La3+  La41  1  0.86210513  0.33236824  0.38173589  1
  La3+  La42  1  0.86071688  0.33432797  0.62066090  1
  La3+  La43  1  0.85711771  0.33156646  0.87735245  1
  La3+  La44  1  0.86235421  0.66979387  0.12419151  1
  La3+  La45  1  0.86063083  0.66775867  0.37580421  1
  La3+  La46  1  0.85923907  0.66688650  0.62655094  1
  La3+  La47  1  0.85698640  0.66771585  0.87236977  1
  La3+  La48  1  -0.00203174  0.49297913  0.12845204  1
  La3+  La49  1  -0.00032907  0.49972203  0.36599777  1
  La3+  La50  1  0.50012222  0.83367227  0.13667041  1
  La3+  La51  1  0.49914808  0.83343443  0.38715404  1
  La3+  La52  1  0.00037327  0.16715901  0.11335836  1
  La3+  La53  1  0.50245965  0.16211648  0.12653727  1
  La3+  La54  1  -0.00131667  0.83704727  0.63685219  1
  La3+  La55  1  0.49875209  0.16937767  0.62966994  1
  La3+  La56  1  0.49932900  0.16729115  0.61260925  1
  La3+  La57  1  0.50142255  0.50128089  0.63657406  1
  La3+  La58  1  0.49847376  0.49913979  0.12657674  1
  La3+  La59  1  0.49903014  0.83235727  0.88323581  1
  La3+  La60  1  0.50109422  0.49781041  0.88523246  1
  La3+  La61  1  0.49706375  0.50377355  0.61520099  1
  La3+  La62  1  0.49969573  0.50299763  0.38061784  1
  La3+  La63  1  -0.00120636  0.49835090  0.86116824  1
  La3+  La64  1  0.49883081  0.16426530  0.38737195  1
  La3+  La65  1  -0.00171037  0.49380169  0.11142528  1
  La3+  La66  1  0.49685127  0.16700792  0.86781823  1
  La3+  La67  1  0.00471533  0.50358954  0.88091110  1
  La3+  La68  1  -0.00005129  0.49840688  0.38839035  1
  La3+  La69  1  -0.00151318  0.49748715  0.63193216  1
  La3+  La70  1  0.49934734  0.83142382  0.86040582  1
  La3+  La71  1  -0.00475529  0.17006560  0.37127425  1
  La3+  La72  1  0.25017180  0.79025090  0.04289211  1
  La3+  La73  1  0.24983890  0.83898046  0.25345573  1
  La3+  La74  1  0.25020237  0.46255148  0.74772653  1
  La3+  La75  1  0.25003718  0.87788735  0.71186328  1
  La3+  La76  1  0.75010957  0.50001724  0.72015561  1
  La3+  La77  1  0.75026668  0.11484169  0.24828254  1
  La3+  La78  1  0.24972931  0.16907974  -0.01569331  1
  La3+  La79  1  0.24966554  0.19755019  0.47686674  1
  La3+  La80  1  0.74988810  0.79552941  0.25986437  1
  La3+  La81  1  0.75022033  0.45417402  -0.03811922  1
  La3+  La82  1  0.75118116  0.51140663  0.26455642  1
  La3+  La83  1  0.25010930  0.54185376  0.02319803  1
  Ru4+  Ru84  1  -0.00101807  0.00349665  0.00235473  1
  Ru4+  Ru85  1  -0.00085615  0.00103369  0.24965190  1
  Ru4+  Ru86  1  -0.00043445  -0.00683104  0.49718383  1
  Ru4+  Ru87  1  -0.00233393  -0.00177108  0.74595003  1
  Ru4+  Ru88  1  -0.00439722  0.32648538  -0.00101716  1
  Ru4+  Ru89  1  0.00009910  0.33441895  0.24990776  1
  Ru4+  Ru90  1  0.00267826  0.32730750  0.50544824  1
  Ru4+  Ru91  1  -0.00019216  0.33407782  0.74848471  1
  Ru4+  Ru92  1  0.00148854  0.66977553  0.00216776  1
  Ru4+  Ru93  1  -0.00130022  0.67155487  0.24528296  1
  Ru4+  Ru94  1  -0.00331999  0.67137069  0.50600749  1
  Ru4+  Ru95  1  -0.00089595  0.66515491  0.74729196  1
  Ru4+  Ru96  1  0.49838733  -0.00818594  0.00228890  1
  Ru4+  Ru97  1  0.49968648  0.00136550  0.24620092  1
  Ru4+  Ru98  1  0.49716551  -0.00660641  0.49954530  1
  Ru4+  Ru99  1  0.49979109  -0.00052343  0.75112786  1
  Ru4+  Ru100  1  0.50164979  0.33457123  -0.00140122  1
  Ru4+  Ru101  1  0.50600787  0.33776237  0.25396258  1
  Ru4+  Ru102  1  0.49408997  0.33342686  0.49849772  1
  Ru4+  Ru103  1  0.49746748  0.33736948  0.75143282  1
  Ru4+  Ru104  1  0.50043660  0.66711434  0.00393807  1
  Ru4+  Ru105  1  0.49970413  0.66720720  0.25167871  1
  Ru4+  Ru106  1  0.50160209  0.67057362  0.49862360  1
  Ru4+  Ru107  1  0.50304021  0.66234380  0.75190786  1
  Ru4+  Ru108  1  0.10916631  0.16490047  -0.00119053  1
  Ru4+  Ru109  1  0.11497201  0.16815792  0.24937806  1
  Ru4+  Ru110  1  0.11134323  0.16934501  0.50110880  1
  Ru4+  Ru111  1  0.11437355  0.16887355  0.74981576  1
  Ru4+  Ru112  1  0.11551888  0.50411063  -0.00103814  1
  Ru4+  Ru113  1  0.11347405  0.49810121  0.25110568  1
  Ru4+  Ru114  1  0.11309157  0.49855479  0.50117130  1
  Ru4+  Ru115  1  0.10965600  0.49851013  0.74804833  1
  Ru4+  Ru116  1  0.11158468  0.83069248  -0.00052641  1
  Ru4+  Ru117  1  0.11194920  0.83206856  0.24873737  1
  Ru4+  Ru118  1  0.11224525  0.83731754  0.49936279  1
  Ru4+  Ru119  1  0.11059973  0.83434798  0.75003037  1
  Ru4+  Ru120  1  0.61640853  0.16649306  0.00155595  1
  Ru4+  Ru121  1  0.61131146  0.16450547  0.24912022  1
  Ru4+  Ru122  1  0.62079866  0.16556227  0.49929018  1
  Ru4+  Ru123  1  0.61686426  0.16206003  0.75035533  1
  Ru4+  Ru124  1  0.61161010  0.49895712  0.00100181  1
  Ru4+  Ru125  1  0.61089692  0.49912266  0.25022044  1
  Ru4+  Ru126  1  0.61721885  0.50391981  0.49808729  1
  Ru4+  Ru127  1  0.61254058  0.49989349  0.75120199  1
  Ru4+  Ru128  1  0.61506163  0.83491324  0.00128998  1
  Ru4+  Ru129  1  0.61137779  0.83429317  0.25050976  1
  Ru4+  Ru130  1  0.61219954  0.83472557  0.50122742  1
  Ru4+  Ru131  1  0.61473175  0.83353471  0.75054146  1
  Ru4+  Ru132  1  0.38836842  0.16455835  -0.00041712  1
  Ru4+  Ru133  1  0.38384628  0.16295260  0.25238530  1
  Ru4+  Ru134  1  0.38881297  0.16613051  0.50124235  1
  Ru4+  Ru135  1  0.38560645  0.16810805  0.74853348  1
  Ru4+  Ru136  1  0.38871086  0.50082512  -0.00005402  1
  Ru4+  Ru137  1  0.38735897  0.50036124  0.25002357  1
  Ru4+  Ru138  1  0.38790117  0.49855817  0.50012848  1
  Ru4+  Ru139  1  0.38849649  0.50160438  0.75055954  1
  Ru4+  Ru140  1  0.39156921  0.83262059  -0.00062846  1
  Ru4+  Ru141  1  0.38962643  0.83461603  0.25154255  1
  Ru4+  Ru142  1  0.38903067  0.83390255  0.50015924  1
  Ru4+  Ru143  1  0.38739748  0.83829347  0.75046381  1
  Ru4+  Ru144  1  0.88528223  0.16757109  -0.00061733  1
  Ru4+  Ru145  1  0.88877856  0.16664754  0.24974262  1
  Ru4+  Ru146  1  0.88441710  0.16738718  0.49962087  1
  Ru4+  Ru147  1  0.88506670  0.16457071  0.75005804  1
  Ru4+  Ru148  1  0.88862506  0.49930435  0.00017319  1
  Ru4+  Ru149  1  0.88991266  0.49921200  0.25021930  1
  Ru4+  Ru150  1  0.88141272  0.50357666  0.50070048  1
  Ru4+  Ru151  1  0.88775376  0.50047236  0.74977235  1
  Ru4+  Ru152  1  0.88440713  0.83327067  -0.00124562  1
  Ru4+  Ru153  1  0.88744318  0.82851581  0.24852710  1
  Ru4+  Ru154  1  0.88851738  0.83440524  0.50029083  1
  Ru4+  Ru155  1  0.88600713  0.83443506  0.75045545  1
  Ru4+  Ru156  1  0.25006987  0.41280745  -0.00294094  1
  Ru4+  Ru157  1  0.25001041  0.97151130  0.25084707  1
  Ru4+  Ru158  1  0.24998877  0.75076153  0.49916243  1
  Ru4+  Ru159  1  0.25016734  0.70396859  0.26382996  1
  Ru4+  Ru160  1  0.74984975  0.24898309  0.25476700  1
  Ru4+  Ru161  1  0.25007687  0.41932869  0.25175645  1
  Ru4+  Ru162  1  0.24995522  0.57853091  0.49831774  1
  Ru4+  Ru163  1  0.25004296  0.41894916  0.50352232  1
  Ru4+  Ru164  1  0.75019994  0.90576590  0.49634058  1
  Ru4+  Ru165  1  0.74990625  0.94018490  0.23837381  1
  Ru4+  Ru166  1  0.74964091  0.63639789  0.24654935  1
  Ru4+  Ru167  1  0.75007160  0.75539224  0.50336741  1
  Ru4+  Ru168  1  0.24983870  0.91856030  0.49792274  1
  Ru4+  Ru169  1  0.25039896  0.59817247  0.73876935  1
  Ru4+  Ru170  1  0.25005300  0.28941847  0.02002486  1
  Ru4+  Ru171  1  0.24952156  0.57343945  0.25484256  1
  Ru4+  Ru172  1  0.25000607  0.05852209  0.50560307  1
  Ru4+  Ru173  1  0.25021878  0.73773238  0.74318906  1
  Ru4+  Ru174  1  0.25004121  0.04524195  -0.01086178  1
  Ru4+  Ru175  1  0.74993722  0.61097516  -0.00848954  1
  Ru4+  Ru176  1  0.75003539  0.24195807  0.75448126  1
  Ru4+  Ru177  1  0.24985388  0.08747807  0.74958369  1
  Ru4+  Ru178  1  0.25066273  0.92102524  -0.00340379  1
  Ru4+  Ru179  1  0.74993556  0.38463276  0.25660411  1
  O2-  O180  1  0.16679747  0.07811077  -0.00010315  1
  O2-  O181  1  0.16850517  0.08042391  0.25121226  1
  O2-  O182  1  0.16843428  0.07935550  0.50025395  1
  O2-  O183  1  0.16820882  0.08088325  0.74842386  1
  O2-  O184  1  0.16658933  0.41368676  0.00003903  1
  O2-  O185  1  0.16689533  0.41443971  0.24979047  1
  O2-  O186  1  0.16628247  0.41472922  0.49945437  1
  O2-  O187  1  0.16564644  0.41221599  0.75112349  1
  O2-  O188  1  0.16457790  0.74761006  0.00057180  1
  O2-  O189  1  0.16501075  0.74648815  0.24921277  1
  O2-  O190  1  0.16795874  0.74775709  0.50185367  1
  O2-  O191  1  0.16735592  0.74528334  0.74976721  1
  O2-  O192  1  0.66823217  0.08469872  -0.00287935  1
  O2-  O193  1  0.66286158  0.07832531  0.25189028  1
  O2-  O194  1  0.66720028  0.08001794  0.49918899  1
  O2-  O195  1  0.66565941  0.08053713  0.74859492  1
  O2-  O196  1  0.66433806  0.41438729  0.00112101  1
  O2-  O197  1  0.66488288  0.41228672  0.24980058  1
  O2-  O198  1  0.66620088  0.41456540  0.49962497  1
  O2-  O199  1  0.66844171  0.41369032  0.75005662  1
  O2-  O200  1  0.66739953  0.74836894  0.00056786  1
  O2-  O201  1  0.66356564  0.74470662  0.24889404  1
  O2-  O202  1  0.66721519  0.74916838  0.49931955  1
  O2-  O203  1  0.66525066  0.74871333  0.74832716  1
  O2-  O204  1  0.33354511  0.25557768  0.00149711  1
  O2-  O205  1  0.33312987  0.25326615  0.25013272  1
  O2-  O206  1  0.33319509  0.25488894  0.49867672  1
  O2-  O207  1  0.33281950  0.25172331  0.75047207  1
  O2-  O208  1  0.33618552  0.58762433  -0.00003082  1
  O2-  O209  1  0.33322841  0.58588925  0.25094690  1
  O2-  O210  1  0.33219984  0.58695214  0.49972051  1
  O2-  O211  1  0.33382260  0.58701216  0.74927085  1
  O2-  O212  1  0.33403380  0.92120440  0.00065150  1
  O2-  O213  1  0.33238345  0.92098043  0.24894586  1
  O2-  O214  1  0.33354290  0.91899191  0.49999787  1
  O2-  O215  1  0.33537417  0.92181470  0.75023142  1
  O2-  O216  1  0.83435928  0.24893954  -0.00076640  1
  O2-  O217  1  0.83409879  0.25363350  0.25047690  1
  O2-  O218  1  0.83399899  0.25036061  0.49942359  1
  O2-  O219  1  0.83316383  0.25285105  0.74978539  1
  O2-  O220  1  0.83103596  0.58807503  0.00037617  1
  O2-  O221  1  0.83367679  0.58911904  0.24901047  1
  O2-  O222  1  0.83235183  0.58497457  0.49905066  1
  O2-  O223  1  0.83202180  0.58499288  0.74865286  1
  O2-  O224  1  0.83578570  0.91629128  -0.00102414  1
  O2-  O225  1  0.83261611  0.91980153  0.24979910  1
  O2-  O226  1  0.83097120  0.91869405  0.50001479  1
  O2-  O227  1  0.83240322  0.91735059  0.74987319  1
  O2-  O228  1  0.16420640  0.25509801  0.00072414  1
  O2-  O229  1  0.16558398  0.25157862  0.25024104  1
  O2-  O230  1  0.16526573  0.25261964  0.49902194  1
  O2-  O231  1  0.16562554  0.25197124  0.75095523  1
  O2-  O232  1  0.16458004  0.58918306  -0.00010320  1
  O2-  O233  1  0.16905073  0.58623418  0.24893886  1
  O2-  O234  1  0.16874923  0.58623703  0.50152515  1
  O2-  O235  1  0.16726548  0.58730532  0.75006078  1
  O2-  O236  1  0.16753163  0.92042537  0.00043131  1
  O2-  O237  1  0.16776496  0.92161006  0.25001034  1
  O2-  O238  1  0.16655519  0.91848785  0.50072360  1
  O2-  O239  1  0.16436126  0.92103056  0.74908915  1
  O2-  O240  1  0.66483826  0.25065318  0.00045363  1
  O2-  O241  1  0.66518003  0.25380135  0.25077189  1
  O2-  O242  1  0.66630419  0.25238079  0.49760688  1
  O2-  O243  1  0.66788634  0.25274031  0.74964702  1
  O2-  O244  1  0.66718286  0.58644126  0.00002391  1
  O2-  O245  1  0.66632346  0.58804367  0.24883559  1
  O2-  O246  1  0.66733217  0.58507658  0.50049113  1
  O2-  O247  1  0.66587045  0.58523434  0.74708988  1
  O2-  O248  1  0.66678354  0.91629633  -0.00272845  1
  O2-  O249  1  0.66681949  0.91936835  0.25071029  1
  O2-  O250  1  0.67001849  0.91924336  0.49983580  1
  O2-  O251  1  0.66544568  0.91832899  0.74863448  1
  O2-  O252  1  0.33560829  0.07820863  0.00016616  1
  O2-  O253  1  0.33200155  0.08028721  0.24951556  1
  O2-  O254  1  0.33423603  0.07951498  0.49959607  1
  O2-  O255  1  0.33101273  0.08106064  0.74882004  1
  O2-  O256  1  0.33415255  0.41363625  0.00090360  1
  O2-  O257  1  0.33310829  0.41453219  0.25013376  1
  O2-  O258  1  0.33408959  0.41354206  0.49882832  1
  O2-  O259  1  0.33462280  0.41118411  0.74996933  1
  O2-  O260  1  0.33429119  0.74551330  0.00062629  1
  O2-  O261  1  0.33501892  0.74549718  0.24960763  1
  O2-  O262  1  0.33346132  0.74719181  0.49951753  1
  O2-  O263  1  0.33329060  0.74578106  0.74968850  1
  O2-  O264  1  0.83435268  0.08184816  -0.00103703  1
  O2-  O265  1  0.83840329  0.07752165  0.25004415  1
  O2-  O266  1  0.83290235  0.08122295  0.49954166  1
  O2-  O267  1  0.83504665  0.08253221  0.74903844  1
  O2-  O268  1  0.83712053  0.41365812  0.00149139  1
  O2-  O269  1  0.83488135  0.41160568  0.24941050  1
  O2-  O270  1  0.83404637  0.41569854  0.49904431  1
  O2-  O271  1  0.83391800  0.41379406  0.75049818  1
  O2-  O272  1  0.83241388  0.74806768  0.00128727  1
  O2-  O273  1  0.83566059  0.74610640  0.24938739  1
  O2-  O274  1  0.83185206  0.74963773  0.49932653  1
  O2-  O275  1  0.83421068  0.74963246  0.74927551  1
  O2-  O276  1  0.04251059  0.77786977  0.78158046  1
  O2-  O277  1  0.45411704  0.42817430  0.23598673  1
  O2-  O278  1  0.04574053  0.57070446  0.01350769  1
  O2-  O279  1  0.54988041  0.24256973  0.01479451  1
  O2-  O280  1  0.95206646  0.90430394  0.23127994  1
  O2-  O281  1  0.03847807  0.55538961  0.53236069  1
  O2-  O282  1  0.53132133  0.11387636  0.00102026  1
  O2-  O283  1  0.04296891  0.55995017  0.75774481  1
  O2-  O284  1  0.54601333  0.42986283  0.48075980  1
  O2-  O285  1  0.45197632  0.76589644  0.26324283  1
  O2-  O286  1  0.04610698  0.23846523  0.26541331  1
  O2-  O287  1  0.95352841  0.43333803  0.51273588  1
  O2-  O288  1  0.54588982  0.23225721  0.76817096  1
  O2-  O289  1  0.45440028  0.76648054  0.51451251  1
  O2-  O290  1  0.95046397  0.76543638  0.73711330  1
  O2-  O291  1  0.03806458  0.55535476  0.21980548  1
  O2-  O292  1  0.44714203  0.24709269  0.28049849  1
  O2-  O293  1  0.45396559  0.22744125  0.51130551  1
  O2-  O294  1  0.95288393  0.09963909  0.23669067  1
  O2-  O295  1  0.04852359  0.90486753  0.48784218  1
  O2-  O296  1  0.45678068  0.22515292  0.02947345  1
  O2-  O297  1  0.04335410  0.10377850  0.27458843  1
  O2-  O298  1  0.54699699  0.76655118  0.03875104  1
  O2-  O299  1  0.44825742  0.24132073  0.48919476  1
  O2-  O300  1  0.55160862  0.23632800  0.48038102  1
  O2-  O301  1  0.04495093  0.89063133  0.27594683  1
  O2-  O302  1  0.45297212  0.76389320  0.73479307  1
  O2-  O303  1  0.45501744  0.57274964  0.98520714  1
  O2-  O304  1  0.95296875  0.09995667  0.00930784  1
  O2-  O305  1  0.03451844  0.11417627  0.49766119  1
  O2-  O306  1  0.04034432  0.77158516  0.52871338  1
  O2-  O307  1  0.04983483  0.57244338  0.73522611  1
  O2-  O308  1  0.45109035  0.56963132  0.26403857  1
  O2-  O309  1  0.95172257  0.90415165  0.27025856  1
  O2-  O310  1  0.55180021  0.23654029  0.51953440  1
  O2-  O311  1  0.04009268  0.89226174  0.02740003  1
  O2-  O312  1  0.54239933  0.55398132  0.22094879  1
  O2-  O313  1  0.54602328  0.09706855  0.51471739  1
  O2-  O314  1  0.54020984  0.10758995  0.96534097  1
  O2-  O315  1  0.95163445  0.90107509  0.48651278  1
  O2-  O316  1  0.04440823  0.42940623  0.01224175  1
  O2-  O317  1  0.54662209  0.43079132  0.51969625  1
  O2-  O318  1  0.54723364  0.76700609  0.26574279  1
  O2-  O319  1  0.54671457  0.23329748  0.72897081  1
  O2-  O320  1  0.45405794  0.42873298  0.01392436  1
  O2-  O321  1  0.95948534  0.77321521  0.02604048  1
  O2-  O322  1  0.95428221  0.10059816  0.98878786  1
  O2-  O323  1  0.45477489  0.43378813  0.76312719  1
  O2-  O324  1  0.43720231  0.73790807  0.72245152  1
  O2-  O325  1  0.07590510  0.59981897  0.45055550  1
  O2-  O326  1  0.56286436  0.59695440  0.46767642  1
  O2-  O327  1  0.56383713  0.07366177  0.22451815  1
  O2-  O328  1  0.93493681  0.59420616  0.72343917  1
  O2-  O329  1  0.93664466  0.73352573  0.21633635  1
  O2-  O330  1  0.93388745  0.92664034  0.72261448  1
  O2-  O331  1  0.56415875  0.92294808  0.02776838  1
  O2-  O332  1  0.44638905  0.24779560  0.27995856  1
  O2-  O333  1  0.93595558  0.59274108  0.96572954  1
  O2-  O334  1  0.07242996  0.73487391  0.46158121  1
  O2-  O335  1  0.93727525  0.26233935  0.46579384  1
  O2-  O336  1  0.58461240  0.05028889  0.05460649  1
  O2-  O337  1  0.93544865  0.26083792  0.02526633  1
  O2-  O338  1  0.56039012  0.07514828  0.53620169  1
  O2-  O339  1  0.43158294  0.26404609  0.20253656  1
  O2-  O340  1  0.06378422  0.41189319  0.02821534  1
  O2-  O341  1  0.06351080  0.26508084  0.53027857  1
  O2-  O342  1  0.06993442  0.72943844  0.69951966  1
  O2-  O343  1  0.56306157  0.40212303  0.03337740  1
  O2-  O344  1  0.43814080  0.07303758  0.28417368  1
  O2-  O345  1  0.93342485  0.59077120  0.55512357  1
  O2-  O346  1  0.56805321  0.40937997  0.69308532  1
  O2-  O347  1  0.06880608  0.93197403  0.20664592  1
  O2-  O348  1  0.07662855  0.05877270  0.46770308  1
  O2-  O349  1  0.43559009  0.59748533  0.53324246  1
  O2-  O350  1  0.42721564  0.27040815  0.95559779  1
  O2-  O351  1  0.06818505  0.06352784  0.20204690  1
  O2-  O352  1  0.06868451  0.59672374  0.78145488  1
  O2-  O353  1  0.93296755  0.73335945  0.95747839  1
  O2-  O354  1  0.43165919  0.26918813  0.53637848  1
  O2-  O355  1  0.56370436  0.40280885  0.81342577  1
  O2-  O356  1  0.06409564  0.40126187  0.71663930  1
  O2-  O357  1  0.93509077  0.07032226  0.44843437  1
  O2-  O358  1  0.55512403  0.75580978  0.04501624  1
  O2-  O359  1  0.57088728  0.61136915  0.30517956  1
  O2-  O360  1  0.06685533  0.07573960  0.97306993  1
  O2-  O361  1  0.56808110  0.72451713  0.91876608  1
  O2-  O362  1  0.56340133  0.92794986  0.53106357  1
  O2-  O363  1  0.93346864  0.58988895  0.44533644  1
  O2-  O364  1  0.43660495  0.26349441  0.71690743  1
  O2-  O365  1  0.93498685  0.07421859  0.54313254  1
  O2-  O366  1  0.93772223  0.40852261  0.52632200  1
  O2-  O367  1  0.07015911  0.93067888  0.96184529  1
  O2-  O368  1  0.43472032  0.07534318  0.77627259  1
  O2-  O369  1  0.07704695  0.60525730  0.29728343  1
  O2-  O370  1  0.93483717  0.59134885  0.27994732  1
  O2-  O371  1  0.43767115  0.92830625  0.28288395  1
  O2-  O372  1  0.25005644  -0.00354696  0.10812955  1
  O2-  O373  1  0.75035434  -0.00255653  0.10600463  1
  O2-  O374  1  0.25008566  0.33600630  0.59194450  1
  O2-  O375  1  0.25014082  0.66789876  0.40495202  1
  O2-  O376  1  0.24979538  0.66686131  0.59398410  1
  O2-  O377  1  0.75003208  0.32677479  0.15598516  1
  O2-  O378  1  0.74994563  0.33563927  0.06684033  1
  O2-  O379  1  0.74999356  0.67198060  0.35855975  1
  O2-  O380  1  0.75011920  -0.00040064  0.84503433  1
  O2-  O381  1  0.25035175  0.33187349  0.42036854  1
  O2-  O382  1  0.75004685  0.33035137  0.36122724  1
  O2-  O383  1  0.75010853  0.33267768  0.89825752  1
  O2-  O384  1  0.25002070  0.33204655  0.32828040  1
  O2-  O385  1  0.75026013  0.66284814  0.85581970  1
  O2-  O386  1  0.24995704  0.33300076  0.89363570  1
  O2-  O387  1  0.25001499  0.66229704  0.14175248  1
  O2-  O388  1  0.24985144  0.00201133  0.84154876  1
  O2-  O389  1  0.74995026  0.67361093  0.13764636  1
  O2-  O390  1  0.74992566  0.00042986  0.34688427  1
  O2-  O391  1  0.24953604  0.66536220  0.83985986  1
  O2-  O392  1  0.74987821  0.67199217  0.59037738  1
  O2-  O393  1  0.74993296  0.33314229  0.58130904  1
  O2-  O394  1  0.74997549  0.33524553  0.67208134  1
  O2-  O395  1  0.24997069  0.66795683  0.93191213  1
  O2-  O396  1  0.75009351  0.83274064  0.06102431  1
  O2-  O397  1  0.24983774  0.82296963  0.83161476  1
  O2-  O398  1  0.25013440  0.49605021  0.88808706  1
  O2-  O399  1  0.25013994  0.16274579  0.85635808  1
  O2-  O400  1  0.74993564  0.17901153  0.13360708  1
  O2-  O401  1  0.74996421  0.16880250  0.59723695  1
  O2-  O402  1  0.74995182  0.50676881  0.84701005  1
  O2-  O403  1  0.25019637  0.83378885  0.40693630  1
  O2-  O404  1  0.74958451  0.48942129  0.14482882  1
  O2-  O405  1  0.74964801  0.49642670  0.38041890  1
  O2-  O406  1  0.24991055  0.50035071  0.40625303  1
  O2-  O407  1  0.25002208  0.16804415  0.11159696  1
  O2-  O408  1  0.75005275  0.17893402  0.36636917  1
  O2-  O409  1  0.25001819  0.50089772  0.59397027  1
  O2-  O410  1  0.75001699  0.50030846  0.45816535  1
  O2-  O411  1  0.75002145  0.51785050  0.07005994  1
  O2-  O412  1  0.25012060  0.49724395  0.16065431  1
  O2-  O413  1  0.25006345  0.15742247  0.61474682  1
  O2-  O414  1  0.75009821  0.17120034  0.83448187  1
  O2-  O415  1  0.24983159  0.16679524  0.19249503  1
  O2-  O416  1  0.74993241  0.84436358  0.14197328  1
  O2-  O417  1  0.25000152  0.83119112  0.58501292  1
  O2-  O418  1  0.74998239  0.84211886  0.38722600  1
  O2-  O419  1  0.24976927  0.83988790  0.91660822  1
  O2-  O420  1  0.97728331  0.67536248  0.62571669  1
  O2-  O421  1  0.97383550  0.33074182  0.63245060  1
  O2-  O422  1  0.51857675  -0.00660055  0.12886895  1
  O2-  O423  1  0.52935020  0.66455710  0.62456495  1
  O2-  O424  1  0.47457651  0.33585621  0.87007647  1
  O2-  O425  1  0.52312683  0.32940581  0.62233571  1
  O2-  O426  1  0.02559594  0.66858674  0.88121558  1
  O2-  O427  1  0.52934003  0.33397182  0.37054201  1
  O2-  O428  1  0.02459905  0.67381664  0.37005035  1
  O2-  O429  1  0.97980342  -0.00094029  0.62912154  1
  O2-  O430  1  0.46014734  -0.00593921  0.88542826  1
  O2-  O431  1  0.02737364  0.33351346  0.87479053  1
  O2-  O432  1  0.02801870  0.66780071  0.12575488  1
  O2-  O433  1  0.96044750  0.34099965  0.12988360  1
  O2-  O434  1  0.04013633  0.32742819  0.13264985  1
  O2-  O435  1  0.02667840  0.00145639  0.86515932  1
  O2-  O436  1  0.54184937  -0.00375749  0.86855202  1
  O2-  O437  1  0.47207240  0.66654497  0.37746195  1
  O2-  O438  1  0.96930139  -0.00172280  0.87227874  1
  O2-  O439  1  0.45851829  0.66809278  0.12265378  1
  O2-  O440  1  0.96868813  0.67807057  0.37170626  1
  O2-  O441  1  0.02471621  -0.00055834  0.37115891  1
  O2-  O442  1  0.53768314  0.65949566  0.13345400  1
  O2-  O443  1  0.97329109  -0.00129401  0.12097542  1
