# generated using pymatgen
data_La7(Ru4O11)2
_symmetry_space_group_name_H-M   'P 1'
_cell_length_a   23.99451339
_cell_length_b   16.83455126
_cell_length_c   15.43027738
_cell_angle_alpha   90.00180537
_cell_angle_beta   90.00252686
_cell_angle_gamma   90.00131705
_symmetry_Int_Tables_number   1
_chemical_formula_structural   La7(Ru4O11)2
_chemical_formula_sum   'La84 Ru96 O264'
_cell_volume   6232.85787122
_cell_formula_units_Z   12
loop_
 _symmetry_equiv_pos_site_id
 _symmetry_equiv_pos_as_xyz
  1  'x, y, z'
loop_
 _atom_type_symbol
 _atom_type_oxidation_number
  La3+  3.0
  Ru4+  4.0
  O2-  -2.0
loop_
 _atom_site_type_symbol
 _atom_site_label
 _atom_site_symmetry_multiplicity
 _atom_site_fract_x
 _atom_site_fract_y
 _atom_site_fract_z
 _atom_site_occupancy
  La3+  La0  1  0.14806361  -0.00419844  0.12217915  1
  La3+  La1  1  0.14430801  -0.00238999  0.37119406  1
  La3+  La2  1  0.14608387  -0.00041062  0.61992151  1
  La3+  La3  1  0.14078704  -0.00107750  0.87474447  1
  La3+  La4  1  0.14313438  0.32943283  0.12121294  1
  La3+  La5  1  0.13740858  0.32873364  0.37769310  1
  La3+  La6  1  0.14181838  0.33432077  0.62876905  1
  La3+  La7  1  0.13882063  0.33872880  0.86769922  1
  La3+  La8  1  0.13497433  0.66752315  0.12538626  1
  La3+  La9  1  0.13528046  0.66392887  0.37382991  1
  La3+  La10  1  0.13672115  0.66394489  0.62372734  1
  La3+  La11  1  0.14082447  0.66845215  0.87389591  1
  La3+  La12  1  0.64140927  0.00173550  0.12500736  1
  La3+  La13  1  0.65774297  0.00171599  0.37161951  1
  La3+  La14  1  0.64852143  -0.01053898  0.62123628  1
  La3+  La15  1  0.64729675  0.00207738  0.87499829  1
  La3+  La16  1  0.63623911  0.33014274  0.12514177  1
  La3+  La17  1  0.64398075  0.32627557  0.37807080  1
  La3+  La18  1  0.64444605  0.32427157  0.62336076  1
  La3+  La19  1  0.64296443  0.32773864  0.87429319  1
  La3+  La20  1  0.63913105  0.66951974  0.12203474  1
  La3+  La21  1  0.63298660  0.66624245  0.37508983  1
  La3+  La22  1  0.63253392  0.66252611  0.62171922  1
  La3+  La23  1  0.64045330  0.66739869  0.88017311  1
  La3+  La24  1  0.35285675  -0.00648773  0.12516584  1
  La3+  La25  1  0.36379462  -0.00401694  0.37109370  1
  La3+  La26  1  0.35513671  -0.00411750  0.62123916  1
  La3+  La27  1  0.35679212  -0.00182277  0.87994789  1
  La3+  La28  1  0.36223465  0.33239964  0.12393888  1
  La3+  La29  1  0.36307289  0.33443214  0.37785306  1
  La3+  La30  1  0.34929042  0.33317427  0.62782149  1
  La3+  La31  1  0.36002555  0.33636135  0.86938972  1
  La3+  La32  1  0.35779645  0.66947212  0.12538756  1
  La3+  La33  1  0.35756837  0.66697086  0.37683332  1
  La3+  La34  1  0.36407903  0.66227280  0.63235636  1
  La3+  La35  1  0.35472244  0.67126752  0.87666348  1
  La3+  La36  1  0.85158995  0.00875714  0.12229855  1
  La3+  La37  1  0.84580138  0.00018824  0.37149829  1
  La3+  La38  1  0.86232955  0.00240689  0.61938724  1
  La3+  La39  1  0.85906970  -0.00255622  0.87860304  1
  La3+  La40  1  0.87231340  0.33329087  0.13048853  1
  La3+  La41  1  0.86055401  0.32529428  0.37469893  1
  La3+  La42  1  0.86035681  0.32860332  0.62920304  1
  La3+  La43  1  0.86304807  0.33439145  0.87325447  1
  La3+  La44  1  0.86105657  0.67197946  0.12993663  1
  La3+  La45  1  0.86008883  0.66269202  0.37721583  1
  La3+  La46  1  0.86761501  0.66712245  0.62370603  1
  La3+  La47  1  0.85596283  0.66694228  0.88267882  1
  La3+  La48  1  0.49924921  0.16077504  0.13315989  1
  La3+  La49  1  0.49251779  0.83103322  0.15514544  1
  La3+  La50  1  0.50336672  0.17223199  0.87123440  1
  La3+  La51  1  -0.00003817  0.82969951  0.62313298  1
  La3+  La52  1  0.00138051  0.82318258  0.38704267  1
  La3+  La53  1  0.50802891  0.49421652  0.62506801  1
  La3+  La54  1  0.49535976  0.16402392  0.62189535  1
  La3+  La55  1  -0.00300902  0.17176812  0.38368086  1
  La3+  La56  1  0.00582536  0.49070544  0.87586625  1
  La3+  La57  1  0.50309587  0.49925023  0.12793266  1
  La3+  La58  1  0.49580391  0.50482437  0.37506785  1
  La3+  La59  1  0.49956825  0.17033875  0.63540234  1
  La3+  La60  1  0.49083661  0.82706467  0.61906193  1
  La3+  La61  1  0.49372520  0.82908587  0.13796650  1
  La3+  La62  1  0.50193156  0.49345846  0.60482499  1
  La3+  La63  1  0.00107831  0.83845316  0.12936400  1
  La3+  La64  1  0.00268982  0.49816499  0.62491667  1
  La3+  La65  1  0.50554595  0.82962360  0.87818106  1
  La3+  La66  1  0.50678359  0.17333619  0.36076840  1
  La3+  La67  1  0.49100723  0.83381636  0.64037600  1
  La3+  La68  1  0.49735049  0.16214216  0.11095835  1
  La3+  La69  1  0.00058619  0.16063217  0.11963153  1
  La3+  La70  1  -0.00079285  0.83590086  0.86864995  1
  La3+  La71  1  -0.00734504  0.18072418  0.86991685  1
  La3+  La72  1  0.75058700  0.42831457  0.74657522  1
  La3+  La73  1  0.74880372  0.54537523  0.04843995  1
  La3+  La74  1  0.74899743  0.49401403  0.26590803  1
  La3+  La75  1  0.75274980  0.88827661  0.70391255  1
  La3+  La76  1  0.24949344  0.21932670  0.79262927  1
  La3+  La77  1  0.25019815  0.48456745  0.24801996  1
  La3+  La78  1  0.24902373  0.16361326  0.44884676  1
  La3+  La79  1  0.74993304  0.15934697  0.26845699  1
  La3+  La80  1  0.75109746  0.82093310  0.04289664  1
  La3+  La81  1  0.74926113  0.84335153  0.27014665  1
  La3+  La82  1  0.24924210  0.44696799  0.50632058  1
  La3+  La83  1  0.24874828  0.54139219  -0.04341199  1
  Ru4+  Ru84  1  -0.00061569  -0.00362629  -0.00489406  1
  Ru4+  Ru85  1  -0.00190593  -0.00409891  0.23852120  1
  Ru4+  Ru86  1  -0.00128068  0.00136608  0.50505226  1
  Ru4+  Ru87  1  0.00414910  0.00704148  0.74426819  1
  Ru4+  Ru88  1  0.00949508  0.33187476  -0.00673457  1
  Ru4+  Ru89  1  0.01024250  0.34057385  0.26353876  1
  Ru4+  Ru90  1  0.00035237  0.33242638  0.50088916  1
  Ru4+  Ru91  1  0.00091405  0.32123933  0.73621660  1
  Ru4+  Ru92  1  -0.00314328  0.66487612  0.00673757  1
  Ru4+  Ru93  1  0.00179058  0.66079569  0.25832110  1
  Ru4+  Ru94  1  0.00039471  0.66547574  0.50406741  1
  Ru4+  Ru95  1  -0.00414498  0.66894926  0.75245661  1
  Ru4+  Ru96  1  0.50905377  -0.00863567  0.00805593  1
  Ru4+  Ru97  1  0.50730459  0.00217507  0.25311188  1
  Ru4+  Ru98  1  0.51369036  -0.02136717  0.46672104  1
  Ru4+  Ru99  1  0.50119868  0.00184161  0.75488060  1
  Ru4+  Ru100  1  0.49763011  0.33778665  -0.00349784  1
  Ru4+  Ru101  1  0.49690436  0.32307143  0.24712758  1
  Ru4+  Ru102  1  0.50109689  0.33030885  0.51164152  1
  Ru4+  Ru103  1  0.50065167  0.33614081  0.74914832  1
  Ru4+  Ru104  1  0.50352162  0.66244975  -0.00447492  1
  Ru4+  Ru105  1  0.50173761  0.66658982  0.27052643  1
  Ru4+  Ru106  1  0.49382284  0.67573404  0.48534102  1
  Ru4+  Ru107  1  0.49616107  0.65755310  0.76373027  1
  Ru4+  Ru108  1  0.11142140  0.16409656  0.00129223  1
  Ru4+  Ru109  1  0.11192651  0.16625243  0.24844211  1
  Ru4+  Ru110  1  0.11013736  0.16556855  0.50070383  1
  Ru4+  Ru111  1  0.10166033  0.16505059  0.74287842  1
  Ru4+  Ru112  1  0.11045193  0.50198307  0.00331147  1
  Ru4+  Ru113  1  0.10283634  0.49456231  0.25682371  1
  Ru4+  Ru114  1  0.10907549  0.50001412  0.49912493  1
  Ru4+  Ru115  1  0.11835820  0.50353066  0.74994036  1
  Ru4+  Ru116  1  0.11257400  0.83536657  -0.00099108  1
  Ru4+  Ru117  1  0.11333489  0.83734962  0.25016691  1
  Ru4+  Ru118  1  0.11193639  0.83215816  0.50201162  1
  Ru4+  Ru119  1  0.11129370  0.83342077  0.75432109  1
  Ru4+  Ru120  1  0.61352924  0.16780173  -0.00207325  1
  Ru4+  Ru121  1  0.61028438  0.16857730  0.24938563  1
  Ru4+  Ru122  1  0.61570382  0.15839731  0.50360122  1
  Ru4+  Ru123  1  0.61541306  0.16608869  0.75218542  1
  Ru4+  Ru124  1  0.60708776  0.49624350  -0.00286596  1
  Ru4+  Ru125  1  0.60945297  0.49362465  0.25009094  1
  Ru4+  Ru126  1  0.61794545  0.49600929  0.49325412  1
  Ru4+  Ru127  1  0.61131347  0.50163930  0.75706676  1
  Ru4+  Ru128  1  0.61191791  0.83984042  -0.00577707  1
  Ru4+  Ru129  1  0.61135594  0.83515767  0.25233846  1
  Ru4+  Ru130  1  0.61146754  0.84489082  0.48520442  1
  Ru4+  Ru131  1  0.61160121  0.83447567  0.75363150  1
  Ru4+  Ru132  1  0.38679199  0.16380503  -0.00347714  1
  Ru4+  Ru133  1  0.38969924  0.16892838  0.25400688  1
  Ru4+  Ru134  1  0.38473062  0.16344563  0.50317873  1
  Ru4+  Ru135  1  0.38989468  0.16070181  0.75173099  1
  Ru4+  Ru136  1  0.38730311  0.49676825  0.00075105  1
  Ru4+  Ru137  1  0.39121322  0.50075507  0.24783312  1
  Ru4+  Ru138  1  0.38949386  0.49919245  0.49346557  1
  Ru4+  Ru139  1  0.38693367  0.50701579  0.75962609  1
  Ru4+  Ru140  1  0.38640414  0.83698394  -0.00234335  1
  Ru4+  Ru141  1  0.38186588  0.83250450  0.25072405  1
  Ru4+  Ru142  1  0.38758017  0.83179121  0.49865719  1
  Ru4+  Ru143  1  0.39147959  0.83152530  0.75287697  1
  Ru4+  Ru144  1  0.88618368  0.16540026  -0.00182919  1
  Ru4+  Ru145  1  0.88892887  0.16394543  0.24756793  1
  Ru4+  Ru146  1  0.88390074  0.16975375  0.50245114  1
  Ru4+  Ru147  1  0.88711509  0.17125896  0.74798150  1
  Ru4+  Ru148  1  0.88521096  0.50380792  0.00500528  1
  Ru4+  Ru149  1  0.89057428  0.50490306  0.25631027  1
  Ru4+  Ru150  1  0.88867524  0.49932920  0.49932077  1
  Ru4+  Ru151  1  0.88829198  0.50749878  0.74951178  1
  Ru4+  Ru152  1  0.88979274  0.83938810  0.00126345  1
  Ru4+  Ru153  1  0.89107264  0.83846538  0.24694788  1
  Ru4+  Ru154  1  0.88574227  0.83876424  0.49727194  1
  Ru4+  Ru155  1  0.89117098  0.82844493  0.74919138  1
  Ru4+  Ru156  1  0.75033497  0.73923497  0.73901672  1
  Ru4+  Ru157  1  0.25026886  0.06449150  0.74806760  1
  Ru4+  Ru158  1  0.24999829  0.21325985  0.24056586  1
  Ru4+  Ru159  1  0.74844510  0.64168966  0.27948349  1
  Ru4+  Ru160  1  0.24951489  0.91851632  0.47864285  1
  Ru4+  Ru161  1  0.75032541  0.39074690  0.01523747  1
  Ru4+  Ru162  1  0.24981699  0.07112736  0.23429560  1
  Ru4+  Ru163  1  0.75017715  0.34989344  0.23310432  1
  Ru4+  Ru164  1  0.24835098  0.62139594  0.22129597  1
  Ru4+  Ru165  1  0.75152157  0.24026926  0.01270993  1
  Ru4+  Ru166  1  0.24996350  0.74382939  0.76739394  1
  Ru4+  Ru167  1  0.74983518  0.59441919  0.73542158  1
  Ru4+  Ru168  1  0.74975925  0.74957476  0.49378232  1
  Ru4+  Ru169  1  0.25057863  0.91787656  0.75930074  1
  Ru4+  Ru170  1  0.25045700  0.59308117  0.53285730  1
  Ru4+  Ru171  1  0.24881096  0.77008273  0.24965041  1
  Ru4+  Ru172  1  0.24912767  0.75432595  -0.00242416  1
  Ru4+  Ru173  1  0.75014879  0.59938120  0.48031414  1
  Ru4+  Ru174  1  0.25079306  0.40757702  0.01221322  1
  Ru4+  Ru175  1  0.75162558  0.40795748  0.49841389  1
  Ru4+  Ru176  1  0.24925191  0.34601564  0.25831280  1
  Ru4+  Ru177  1  0.75159999  0.07980915  0.75398153  1
  Ru4+  Ru178  1  0.25028129  0.76169429  0.49447423  1
  Ru4+  Ru179  1  0.24999396  0.23266823  0.01117242  1
  O2-  O180  1  0.15944684  0.07951305  -0.00139300  1
  O2-  O181  1  0.16762593  0.08084534  0.24816696  1
  O2-  O182  1  0.16723702  0.08103643  0.49417106  1
  O2-  O183  1  0.16731337  0.08349761  0.75476449  1
  O2-  O184  1  0.16891393  0.41646463  -0.00030139  1
  O2-  O185  1  0.16533644  0.41070879  0.24996664  1
  O2-  O186  1  0.16030517  0.40997685  0.49274121  1
  O2-  O187  1  0.16502249  0.41981419  0.74994689  1
  O2-  O188  1  0.16542870  0.74679660  -0.00008607  1
  O2-  O189  1  0.16638761  0.74910144  0.24959819  1
  O2-  O190  1  0.16722594  0.74900621  0.50056849  1
  O2-  O191  1  0.16418821  0.74552520  0.75028464  1
  O2-  O192  1  0.66372898  0.08205814  0.00256315  1
  O2-  O193  1  0.66777279  0.08356042  0.23970458  1
  O2-  O194  1  0.67317070  0.08666887  0.49791263  1
  O2-  O195  1  0.67055488  0.08350130  0.74831369  1
  O2-  O196  1  0.66365021  0.40965724  0.00486410  1
  O2-  O197  1  0.66713281  0.41018306  0.24643158  1
  O2-  O198  1  0.66859020  0.41093441  0.49788968  1
  O2-  O199  1  0.65477316  0.40618048  0.75078069  1
  O2-  O200  1  0.66519639  0.75403629  0.00554611  1
  O2-  O201  1  0.66879692  0.74958822  0.24985016  1
  O2-  O202  1  0.66111504  0.74746289  0.49945570  1
  O2-  O203  1  0.66592562  0.74555171  0.74243061  1
  O2-  O204  1  0.33219363  0.25197403  0.00055635  1
  O2-  O205  1  0.32892866  0.25059574  0.24930849  1
  O2-  O206  1  0.33383284  0.25134378  0.49333019  1
  O2-  O207  1  0.34099625  0.25449565  0.75091004  1
  O2-  O208  1  0.33316072  0.58765372  0.00157665  1
  O2-  O209  1  0.33463669  0.58828237  0.24865724  1
  O2-  O210  1  0.33668136  0.58669263  0.50714932  1
  O2-  O211  1  0.33003467  0.58516146  0.74841039  1
  O2-  O212  1  0.33512442  0.91872261  -0.00404958  1
  O2-  O213  1  0.33403981  0.91867786  0.25253962  1
  O2-  O214  1  0.33056837  0.92152583  0.49215100  1
  O2-  O215  1  0.33518917  0.91870790  0.75374248  1
  O2-  O216  1  0.83495096  0.25291233  0.00445695  1
  O2-  O217  1  0.83322557  0.25373166  0.24546362  1
  O2-  O218  1  0.83456329  0.25255179  0.50286614  1
  O2-  O219  1  0.83229367  0.24772373  0.75198232  1
  O2-  O220  1  0.83158863  0.58245760  -0.00065092  1
  O2-  O221  1  0.82875308  0.58782004  0.24820807  1
  O2-  O222  1  0.83426261  0.58716535  0.50070759  1
  O2-  O223  1  0.83379878  0.58659971  0.74749425  1
  O2-  O224  1  0.82780224  0.91824861  0.00148228  1
  O2-  O225  1  0.83040565  0.91365153  0.24731523  1
  O2-  O226  1  0.83351236  0.91875683  0.50452021  1
  O2-  O227  1  0.84134078  0.92388335  0.75160724  1
  O2-  O228  1  0.16516779  0.25026205  -0.00293975  1
  O2-  O229  1  0.16921009  0.24770908  0.25033918  1
  O2-  O230  1  0.16708435  0.24767145  0.49743188  1
  O2-  O231  1  0.16124996  0.24888750  0.74751556  1
  O2-  O232  1  0.16403153  0.59094232  0.00304798  1
  O2-  O233  1  0.16474742  0.58709808  0.24510168  1
  O2-  O234  1  0.16647179  0.58591697  0.50206009  1
  O2-  O235  1  0.16532742  0.59051722  0.75380520  1
  O2-  O236  1  0.16244775  0.91904428  -0.00375909  1
  O2-  O237  1  0.16650237  0.92021444  0.25064734  1
  O2-  O238  1  0.16619914  0.91916950  0.49179156  1
  O2-  O239  1  0.16763118  0.91894179  0.75016030  1
  O2-  O240  1  0.66897597  0.25063100  0.00380599  1
  O2-  O241  1  0.66651219  0.25540089  0.24536851  1
  O2-  O242  1  0.66629771  0.24858923  0.49754459  1
  O2-  O243  1  0.66696054  0.24833044  0.75216284  1
  O2-  O244  1  0.66367067  0.58588335  0.00310519  1
  O2-  O245  1  0.66756070  0.58960520  0.24933880  1
  O2-  O246  1  0.66747090  0.58795856  0.50039374  1
  O2-  O247  1  0.66607834  0.58998713  0.74381700  1
  O2-  O248  1  0.67190948  0.91742760  0.00960239  1
  O2-  O249  1  0.66984635  0.91644892  0.23823134  1
  O2-  O250  1  0.67137744  0.91567833  0.49921512  1
  O2-  O251  1  0.66458227  0.91998079  0.75434924  1
  O2-  O252  1  0.33909702  0.07924313  -0.00241478  1
  O2-  O253  1  0.33597909  0.08210097  0.24986356  1
  O2-  O254  1  0.32629421  0.07999262  0.48878450  1
  O2-  O255  1  0.33507386  0.07882881  0.75180131  1
  O2-  O256  1  0.33405094  0.41138397  -0.00228319  1
  O2-  O257  1  0.33590041  0.41020891  0.25083860  1
  O2-  O258  1  0.33992969  0.40990249  0.49942191  1
  O2-  O259  1  0.33942641  0.42074514  0.75182038  1
  O2-  O260  1  0.33257467  0.74809042  0.00185709  1
  O2-  O261  1  0.33248335  0.74708335  0.25156653  1
  O2-  O262  1  0.33537474  0.74744463  0.50231498  1
  O2-  O263  1  0.33326081  0.74429404  0.74855348  1
  O2-  O264  1  0.83457794  0.08338032  -0.00709185  1
  O2-  O265  1  0.83305092  0.08573759  0.24727377  1
  O2-  O266  1  0.83887940  0.07936494  0.50327483  1
  O2-  O267  1  0.83567629  0.08198734  0.75102079  1
  O2-  O268  1  0.83708653  0.41243253  0.00603355  1
  O2-  O269  1  0.82861417  0.41278042  0.24127906  1
  O2-  O270  1  0.83387758  0.41166876  0.49933390  1
  O2-  O271  1  0.84593285  0.40986050  0.75114496  1
  O2-  O272  1  0.83831935  0.75054165  0.00304464  1
  O2-  O273  1  0.82981016  0.75398202  0.25156647  1
  O2-  O274  1  0.83262427  0.74625567  0.50061176  1
  O2-  O275  1  0.83645640  0.74578581  0.74765303  1
  O2-  O276  1  0.04718291  0.08692447  0.48666392  1
  O2-  O277  1  0.03705705  0.48517995  0.21499911  1
  O2-  O278  1  0.94977862  0.24151906  0.26437528  1
  O2-  O279  1  0.04855771  0.90579386  0.49354402  1
  O2-  O280  1  0.05311216  0.57729597  0.00761425  1
  O2-  O281  1  0.54932537  0.56568714  0.25779478  1
  O2-  O282  1  0.95744764  0.44329065  0.25423807  1
  O2-  O283  1  0.96494978  0.55267308  0.00340501  1
  O2-  O284  1  0.95367426  0.41778321  0.73218744  1
  O2-  O285  1  0.45215966  0.42547396  0.74223289  1
  O2-  O286  1  0.54655717  0.56473208  0.49262218  1
  O2-  O287  1  0.05607493  0.75291168  0.22960250  1
  O2-  O288  1  0.05017216  0.43651716  0.74596164  1
  O2-  O289  1  0.45318713  0.42668428  0.24946976  1
  O2-  O290  1  0.44838614  0.58268540  0.22775139  1
  O2-  O291  1  0.45471016  0.76796888  0.01455243  1
  O2-  O292  1  0.55565970  0.57841483  0.01825355  1
  O2-  O293  1  0.01822165  0.12367058  0.75258203  1
  O2-  O294  1  0.45459968  0.91019120  0.24148077  1
  O2-  O295  1  0.95699578  0.10401506  0.99601208  1
  O2-  O296  1  0.53327965  0.87899411  0.03128354  1
  O2-  O297  1  0.55274930  0.58353296  0.52475015  1
  O2-  O298  1  0.55372560  0.57448061  0.99910062  1
  O2-  O299  1  0.95816924  0.76957912  0.00293651  1
  O2-  O300  1  0.94293045  0.42420813  0.98343736  1
  O2-  O301  1  0.55164099  0.89935704  0.54911555  1
  O2-  O302  1  0.94940036  0.23418139  0.51611362  1
  O2-  O303  1  0.96415459  0.76645558  0.24471608  1
  O2-  O304  1  0.53282653  0.14155489  0.49239835  1
  O2-  O305  1  0.04618319  0.10121533  0.24191518  1
  O2-  O306  1  0.55123422  0.42221604  0.47444417  1
  O2-  O307  1  0.95085244  0.43263412  0.51811550  1
  O2-  O308  1  0.05936883  0.91714704  0.24291129  1
  O2-  O309  1  0.95804944  0.89593851  0.74167624  1
  O2-  O310  1  0.95348646  0.41662366  0.01804493  1
  O2-  O311  1  0.53653116  0.13763959  0.50210465  1
  O2-  O312  1  0.95784395  0.90341206  0.29479544  1
  O2-  O313  1  0.43859634  0.12196990  0.43549837  1
  O2-  O314  1  0.95146867  0.43482416  0.76648225  1
  O2-  O315  1  0.45085040  0.56417197  0.70541875  1
  O2-  O316  1  0.54746162  0.42000672  0.98600902  1
  O2-  O317  1  0.45431070  0.55141699  -0.00136260  1
  O2-  O318  1  0.05306686  0.24323212  0.47705621  1
  O2-  O319  1  0.45465004  0.23185128  0.75771733  1
  O2-  O320  1  0.95678123  0.24933502  0.22757301  1
  O2-  O321  1  0.54093509  0.10127034  0.98929975  1
  O2-  O322  1  0.96151984  0.89783340  0.27665931  1
  O2-  O323  1  0.55337728  0.57845155  0.76772974  1
  O2-  O324  1  0.06320305  0.74380217  0.53904115  1
  O2-  O325  1  0.55931064  0.91100233  0.55271275  1
  O2-  O326  1  0.57235523  0.04273032  0.41994144  1
  O2-  O327  1  0.93756546  0.74668993  0.51636627  1
  O2-  O328  1  0.93779879  0.92920365  0.02302519  1
  O2-  O329  1  0.06486335  0.39609995  0.32909994  1
  O2-  O330  1  0.44050605  0.40350049  0.46050894  1
  O2-  O331  1  0.05913017  0.40445139  0.73558322  1
  O2-  O332  1  0.06967309  0.41031923  0.98382221  1
  O2-  O333  1  0.56720093  0.26663599  0.52823801  1
  O2-  O334  1  0.43709935  0.91818440  0.21447828  1
  O2-  O335  1  0.43443213  0.61784570  0.04867722  1
  O2-  O336  1  0.93841243  0.58829256  0.28608380  1
  O2-  O337  1  0.06476688  0.24975218  0.68012619  1
  O2-  O338  1  0.92168831  0.72381051  0.29300217  1
  O2-  O339  1  0.91677586  0.62008886  0.02278189  1
  O2-  O340  1  0.93922359  0.92793088  0.46742331  1
  O2-  O341  1  0.56072216  0.91749040  0.26904887  1
  O2-  O342  1  0.91869971  0.94284725  0.16804056  1
  O2-  O343  1  0.55952930  0.74644427  0.76829483  1
  O2-  O344  1  0.93886648  0.25488290  0.71687039  1
  O2-  O345  1  0.57061564  0.95337127  0.93554635  1
  O2-  O346  1  0.59305473  0.07908725  0.58899220  1
  O2-  O347  1  0.56242665  0.26010827  0.96200028  1
  O2-  O348  1  0.42773198  0.61786980  0.82277691  1
  O2-  O349  1  0.55713438  0.58449713  0.76426429  1
  O2-  O350  1  0.57113784  0.91279603  0.40605668  1
  O2-  O351  1  0.06069546  0.58920140  0.53533732  1
  O2-  O352  1  0.42154395  0.08151424  0.57260454  1
  O2-  O353  1  0.93569204  0.59289922  0.72757230  1
  O2-  O354  1  0.56467962  0.74214712  0.97788688  1
  O2-  O355  1  0.43874730  0.26823408  0.33079269  1
  O2-  O356  1  0.43127798  0.24630926  0.18124775  1
  O2-  O357  1  0.56166447  0.08161865  0.79582117  1
  O2-  O358  1  0.56015753  0.74535084  0.26024591  1
  O2-  O359  1  0.55714030  0.91627988  0.78461573  1
  O2-  O360  1  0.94175441  0.08302835  0.21596109  1
  O2-  O361  1  0.91991646  0.38127610  0.27178289  1
  O2-  O362  1  0.43995242  0.91841314  0.52162745  1
  O2-  O363  1  0.06060501  0.92066472  0.79257098  1
  O2-  O364  1  0.55937579  0.08267438  0.27175092  1
  O2-  O365  1  0.07842022  0.04190529  0.69960276  1
  O2-  O366  1  0.43947444  0.25255882  0.02121478  1
  O2-  O367  1  0.06121017  0.35486464  0.17169500  1
  O2-  O368  1  0.55848299  0.24961672  0.73003439  1
  O2-  O369  1  0.06761107  0.60265716  0.27288169  1
  O2-  O370  1  0.07414918  0.23981234  0.82468443  1
  O2-  O371  1  0.06208067  0.41199000  0.52170760  1
  O2-  O372  1  0.75089131  0.67975415  0.07382588  1
  O2-  O373  1  0.74983185  0.68764273  0.16713203  1
  O2-  O374  1  0.74997233  0.32358627  0.82782817  1
  O2-  O375  1  0.24811329  0.67245889  0.89594417  1
  O2-  O376  1  0.25129008  0.66332714  0.44362830  1
  O2-  O377  1  0.74948525  0.33509471  0.36053652  1
  O2-  O378  1  0.75086869  0.66698070  0.94376530  1
  O2-  O379  1  0.24959967  0.32008680  0.93200554  1
  O2-  O380  1  0.75083391  0.31672495  0.92068944  1
  O2-  O381  1  0.24931563  0.33364970  0.66983391  1
  O2-  O382  1  0.75505841  -0.00386433  0.34197221  1
  O2-  O383  1  0.24857649  0.01327237  0.12661615  1
  O2-  O384  1  0.25014385  -0.00255212  0.85710813  1
  O2-  O385  1  0.75326315  0.01504169  0.64775278  1
  O2-  O386  1  0.75204643  0.34129632  0.62272552  1
  O2-  O387  1  0.25035334  0.34925130  0.81329962  1
  O2-  O388  1  0.24929694  -0.00949372  0.64493177  1
  O2-  O389  1  0.24934907  0.67976058  0.32248099  1
  O2-  O390  1  0.24921919  0.01556187  0.34912938  1
  O2-  O391  1  0.25007488  0.32518154  0.57715322  1
  O2-  O392  1  0.24926962  0.68695426  0.11818807  1
  O2-  O393  1  0.75081671  0.66838921  0.83019401  1
  O2-  O394  1  0.75226325  0.00595377  0.84383578  1
  O2-  O395  1  0.25187394  0.32614163  0.10765966  1
  O2-  O396  1  0.74996436  0.49571801  0.40888738  1
  O2-  O397  1  0.25004033  0.83620684  0.07309311  1
  O2-  O398  1  0.25025345  0.15745234  0.92439081  1
  O2-  O399  1  0.24974960  0.83072854  0.84945340  1
  O2-  O400  1  0.74946551  0.53690711  0.83312390  1
  O2-  O401  1  0.75035850  0.82184601  0.82603429  1
  O2-  O402  1  0.25098934  0.16747666  0.58263466  1
  O2-  O403  1  0.74960642  0.46864188  0.93284138  1
  O2-  O404  1  0.25021048  0.84432950  0.16301789  1
  O2-  O405  1  0.25035011  0.49753599  0.09735525  1
  O2-  O406  1  0.75004297  0.50591462  0.55265475  1
  O2-  O407  1  0.25043785  0.15094951  0.66803216  1
  O2-  O408  1  0.74935958  0.83854728  0.91247021  1
  O2-  O409  1  0.24986784  0.17113649  0.11020524  1
  O2-  O410  1  0.75116611  0.16479731  0.39469806  1
  O2-  O411  1  0.24990309  0.83115776  0.35303995  1
  O2-  O412  1  0.25105246  0.51738045  0.38423829  1
  O2-  O413  1  0.75034052  0.16984606  0.09717286  1
  O2-  O414  1  0.24974314  0.52461891  0.62830414  1
  O2-  O415  1  0.75054781  0.52213842  0.64378467  1
  O2-  O416  1  0.24963319  0.82564205  0.69130669  1
  O2-  O417  1  0.74934666  0.82168093  0.40649776  1
  O2-  O418  1  0.74941855  0.81777357  0.58632865  1
  O2-  O419  1  0.24973790  0.84717612  0.56733486  1
  O2-  O420  1  0.47246242  0.67820500  0.61492223  1
  O2-  O421  1  0.44822922  -0.01699707  0.66716547  1
  O2-  O422  1  0.44956641  0.66646874  0.37694618  1
  O2-  O423  1  0.98104192  0.67069813  0.13181352  1
  O2-  O424  1  0.54277326  0.66924627  0.38752747  1
  O2-  O425  1  0.51734794  0.67599767  0.87805694  1
  O2-  O426  1  0.48782249  0.35208968  0.12098124  1
  O2-  O427  1  0.54050282  0.00408618  0.65974643  1
  O2-  O428  1  0.44991560  0.31549192  0.61308155  1
  O2-  O429  1  0.46897163  0.00077873  0.36529950  1
  O2-  O430  1  0.01198426  0.34129893  0.61946443  1
  O2-  O431  1  0.47333454  0.32846386  0.87514226  1
  O2-  O432  1  0.97762399  0.66685553  0.87606278  1
  O2-  O433  1  0.54266375  0.36248328  0.63453576  1
  O2-  O434  1  0.95188353  0.31753175  0.86460072  1
  O2-  O435  1  0.97482171  -0.00102000  0.86934301  1
  O2-  O436  1  0.45073100  0.01927245  0.09824463  1
  O2-  O437  1  0.02481234  0.67848477  0.38383605  1
  O2-  O438  1  0.02856051  0.00280986  0.11460886  1
  O2-  O439  1  0.97255723  0.00207600  0.62395318  1
  O2-  O440  1  0.98208658  0.67097004  0.62908259  1
  O2-  O441  1  0.54628638  0.00483375  0.13139886  1
  O2-  O442  1  0.03457203  0.34405760  0.88098453  1
  O2-  O443  1  0.97502824  0.32249812  0.38308646  1
