# generated using pymatgen
data_La7(Ru4O11)2
_symmetry_space_group_name_H-M   'P 1'
_cell_length_a   23.99196236
_cell_length_b   16.83230944
_cell_length_c   15.42932774
_cell_angle_alpha   89.99897393
_cell_angle_beta   89.99987458
_cell_angle_gamma   90.00180092
_symmetry_Int_Tables_number   1
_chemical_formula_structural   La7(Ru4O11)2
_chemical_formula_sum   'La84 Ru96 O264'
_cell_volume   6230.98178892
_cell_formula_units_Z   12
loop_
 _symmetry_equiv_pos_site_id
 _symmetry_equiv_pos_as_xyz
  1  'x, y, z'
loop_
 _atom_type_symbol
 _atom_type_oxidation_number
  La3+  3.0
  Ru4+  4.0
  O2-  -2.0
loop_
 _atom_site_type_symbol
 _atom_site_label
 _atom_site_symmetry_multiplicity
 _atom_site_fract_x
 _atom_site_fract_y
 _atom_site_fract_z
 _atom_site_occupancy
  La3+  La0  1  0.14351347  -0.00231288  0.12580436  1
  La3+  La1  1  0.13988257  -0.00153757  0.37343769  1
  La3+  La2  1  0.13669216  -0.00084685  0.61965758  1
  La3+  La3  1  0.13750822  -0.00158159  0.88004359  1
  La3+  La4  1  0.13761548  0.33266204  0.12468160  1
  La3+  La5  1  0.13678879  0.33323166  0.37641142  1
  La3+  La6  1  0.13534672  0.32674060  0.63251241  1
  La3+  La7  1  0.13482121  0.32797209  0.86915171  1
  La3+  La8  1  0.14472222  0.66880830  0.12746597  1
  La3+  La9  1  0.14257180  0.67041755  0.37028686  1
  La3+  La10  1  0.14117353  0.66489356  0.62325671  1
  La3+  La11  1  0.14242715  0.66308332  0.87548238  1
  La3+  La12  1  0.63697065  0.00083951  0.12719860  1
  La3+  La13  1  0.63345364  -0.00351925  0.37125023  1
  La3+  La14  1  0.63750385  -0.00218441  0.62873739  1
  La3+  La15  1  0.64176666  -0.00362063  0.87085499  1
  La3+  La16  1  0.63923036  0.33292306  0.12754969  1
  La3+  La17  1  0.63929874  0.33474968  0.37160904  1
  La3+  La18  1  0.64040384  0.33739598  0.62702190  1
  La3+  La19  1  0.63555603  0.32891614  0.87500189  1
  La3+  La20  1  0.63867515  0.66721706  0.12845099  1
  La3+  La21  1  0.64242547  0.66480409  0.37183548  1
  La3+  La22  1  0.63419441  0.66871567  0.62996693  1
  La3+  La23  1  0.63943726  0.66576324  0.87441745  1
  La3+  La24  1  0.35427129  -0.00110674  0.12407122  1
  La3+  La25  1  0.35515015  -0.00338011  0.37187121  1
  La3+  La26  1  0.35909320  -0.00324749  0.62277323  1
  La3+  La27  1  0.35601868  -0.00417952  0.88169753  1
  La3+  La28  1  0.36007420  0.33379564  0.12356172  1
  La3+  La29  1  0.36137496  0.33434777  0.37384505  1
  La3+  La30  1  0.35965192  0.33375489  0.62667295  1
  La3+  La31  1  0.35930449  0.33517861  0.87671365  1
  La3+  La32  1  0.36041727  0.66583754  0.12740857  1
  La3+  La33  1  0.35562948  0.66882232  0.37010981  1
  La3+  La34  1  0.35856810  0.66496604  0.62811251  1
  La3+  La35  1  0.35861644  0.66234615  0.87355797  1
  La3+  La36  1  0.86038841  -0.00425715  0.12708771  1
  La3+  La37  1  0.86532363  -0.00365660  0.37653082  1
  La3+  La38  1  0.86211533  -0.00261621  0.62563544  1
  La3+  La39  1  0.85989931  -0.00342347  0.87457596  1
  La3+  La40  1  0.86176428  0.33503455  0.12681755  1
  La3+  La41  1  0.86050955  0.33745870  0.37297822  1
  La3+  La42  1  0.85862131  0.33178915  0.62697842  1
  La3+  La43  1  0.86800413  0.33559836  0.87830158  1
  La3+  La44  1  0.86353036  0.66819589  0.12770630  1
  La3+  La45  1  0.86150193  0.66652620  0.37489429  1
  La3+  La46  1  0.86021517  0.66738199  0.62733663  1
  La3+  La47  1  0.86267324  0.67050626  0.87459450  1
  La3+  La48  1  0.50741459  0.49618092  0.35586460  1
  La3+  La49  1  0.49531756  0.17403194  0.11887291  1
  La3+  La50  1  0.00018790  0.50141125  0.12826093  1
  La3+  La51  1  0.48915242  0.84674332  0.62663677  1
  La3+  La52  1  0.00169351  0.50173763  0.62616868  1
  La3+  La53  1  0.49757970  0.50144112  0.12150295  1
  La3+  La54  1  0.00261705  0.83246126  0.62747920  1
  La3+  La55  1  0.50051252  0.16738119  0.63583663  1
  La3+  La56  1  -0.00587045  0.49512281  0.88045633  1
  La3+  La57  1  0.00018114  0.17218747  0.62535980  1
  La3+  La58  1  0.49973281  0.49605202  0.63585314  1
  La3+  La59  1  0.00145073  0.84196908  0.37550873  1
  La3+  La60  1  -0.00715709  0.49312488  0.86386238  1
  La3+  La61  1  0.00109847  0.83590818  0.86953966  1
  La3+  La62  1  0.00132760  0.16318388  0.13105571  1
  La3+  La63  1  0.50014279  0.50610493  0.61630253  1
  La3+  La64  1  0.00263897  0.16678149  0.85482370  1
  La3+  La65  1  0.49201164  0.16104997  0.37309346  1
  La3+  La66  1  0.50145191  0.83220536  0.13873765  1
  La3+  La67  1  0.00310805  0.17699080  0.87432612  1
  La3+  La68  1  0.50147319  0.83017242  0.87086808  1
  La3+  La69  1  0.50360175  0.83628202  0.38348437  1
  La3+  La70  1  0.49928133  0.16288677  0.35405468  1
  La3+  La71  1  -0.00090986  0.16911686  0.37951093  1
  La3+  La72  1  0.75015267  0.20106983  0.01472033  1
  La3+  La73  1  0.75022912  0.51909627  0.74221215  1
  La3+  La74  1  0.74962674  0.15345186  0.42467861  1
  La3+  La75  1  0.24933337  0.15845022  0.46424146  1
  La3+  La76  1  0.75018850  0.10104464  0.76327646  1
  La3+  La77  1  0.74941295  0.46590923  0.47612698  1
  La3+  La78  1  0.75009974  0.50217147  0.01747756  1
  La3+  La79  1  0.74911710  0.16489889  0.23396386  1
  La3+  La80  1  0.24781673  0.17745097  0.77892532  1
  La3+  La81  1  0.25014235  0.49901537  -0.01697026  1
  La3+  La82  1  0.24943225  0.10407912  0.25426800  1
  La3+  La83  1  0.25018263  0.54266509  0.45863974  1
  Ru4+  Ru84  1  -0.00193074  -0.00455086  -0.00238237  1
  Ru4+  Ru85  1  0.00302849  -0.00536365  0.24714362  1
  Ru4+  Ru86  1  -0.00270305  -0.00118917  0.50207402  1
  Ru4+  Ru87  1  -0.00037660  -0.00474402  0.75263198  1
  Ru4+  Ru88  1  0.00501446  0.32972964  -0.00092073  1
  Ru4+  Ru89  1  0.00246842  0.33455554  0.24526730  1
  Ru4+  Ru90  1  -0.00096112  0.33054360  0.50202402  1
  Ru4+  Ru91  1  0.00199238  0.33592613  0.74743643  1
  Ru4+  Ru92  1  -0.00251108  0.66603886  0.00600139  1
  Ru4+  Ru93  1  0.00065919  0.67012714  0.24359039  1
  Ru4+  Ru94  1  -0.00038248  0.66546781  0.50592409  1
  Ru4+  Ru95  1  0.00187877  0.66814592  0.75187513  1
  Ru4+  Ru96  1  0.50856382  0.00733540  -0.01021205  1
  Ru4+  Ru97  1  0.49713052  0.00266697  0.25002027  1
  Ru4+  Ru98  1  0.50141156  -0.00359432  0.50484299  1
  Ru4+  Ru99  1  0.49320772  -0.00067251  0.75474510  1
  Ru4+  Ru100  1  0.49960796  0.32628836  -0.00142770  1
  Ru4+  Ru101  1  0.50047870  0.33156725  0.25413577  1
  Ru4+  Ru102  1  0.50109934  0.33064877  0.49582288  1
  Ru4+  Ru103  1  0.49787630  0.33195057  0.75061702  1
  Ru4+  Ru104  1  0.49718998  0.66921539  0.00100394  1
  Ru4+  Ru105  1  0.49961110  0.66558658  0.24836209  1
  Ru4+  Ru106  1  0.50120262  0.67114891  0.50105606  1
  Ru4+  Ru107  1  0.50031718  0.68056221  0.74547818  1
  Ru4+  Ru108  1  0.11788900  0.16510114  0.00129821  1
  Ru4+  Ru109  1  0.11097253  0.16663149  0.24803148  1
  Ru4+  Ru110  1  0.11506176  0.17368468  0.50101713  1
  Ru4+  Ru111  1  0.11346580  0.16863731  0.74661428  1
  Ru4+  Ru112  1  0.11082633  0.50444599  0.00249402  1
  Ru4+  Ru113  1  0.11369924  0.49992033  0.24991987  1
  Ru4+  Ru114  1  0.11471792  0.50445311  0.50096598  1
  Ru4+  Ru115  1  0.11448727  0.49927617  0.74953251  1
  Ru4+  Ru116  1  0.11343770  0.83688216  -0.00001783  1
  Ru4+  Ru117  1  0.11292675  0.83203621  0.24510292  1
  Ru4+  Ru118  1  0.11376753  0.83172540  0.50002151  1
  Ru4+  Ru119  1  0.11277364  0.83262447  0.75166178  1
  Ru4+  Ru120  1  0.60747417  0.16229891  -0.00218647  1
  Ru4+  Ru121  1  0.60844181  0.16771271  0.25184370  1
  Ru4+  Ru122  1  0.61204545  0.16967100  0.50259824  1
  Ru4+  Ru123  1  0.61494307  0.17292813  0.75046632  1
  Ru4+  Ru124  1  0.60954361  0.50261844  -0.00114773  1
  Ru4+  Ru125  1  0.61352787  0.50023456  0.24975887  1
  Ru4+  Ru126  1  0.61167913  0.50245145  0.49679505  1
  Ru4+  Ru127  1  0.61425890  0.49591522  0.75267692  1
  Ru4+  Ru128  1  0.60977597  0.83385841  0.00012332  1
  Ru4+  Ru129  1  0.61584261  0.82711957  0.24693801  1
  Ru4+  Ru130  1  0.61063747  0.83134396  0.50012995  1
  Ru4+  Ru131  1  0.61437142  0.82916605  0.75098091  1
  Ru4+  Ru132  1  0.38551282  0.16782878  0.00051456  1
  Ru4+  Ru133  1  0.38978619  0.16644505  0.24640569  1
  Ru4+  Ru134  1  0.38867625  0.16419598  0.50042151  1
  Ru4+  Ru135  1  0.39474213  0.15964478  0.75359948  1
  Ru4+  Ru136  1  0.38890256  0.49952846  0.00069339  1
  Ru4+  Ru137  1  0.38579648  0.50283126  0.24823937  1
  Ru4+  Ru138  1  0.38933311  0.50362420  0.49822716  1
  Ru4+  Ru139  1  0.38131111  0.49920544  0.75267157  1
  Ru4+  Ru140  1  0.38796351  0.82999109  0.00158820  1
  Ru4+  Ru141  1  0.38434192  0.83360363  0.25055411  1
  Ru4+  Ru142  1  0.38706002  0.83440883  0.49827208  1
  Ru4+  Ru143  1  0.38718139  0.83539268  0.74981590  1
  Ru4+  Ru144  1  0.88834987  0.16473053  0.00480736  1
  Ru4+  Ru145  1  0.88904022  0.16389297  0.25061645  1
  Ru4+  Ru146  1  0.88994129  0.16783322  0.49968463  1
  Ru4+  Ru147  1  0.88830681  0.16238267  0.74694050  1
  Ru4+  Ru148  1  0.88568380  0.50718335  0.00129920  1
  Ru4+  Ru149  1  0.88636827  0.50146412  0.24970178  1
  Ru4+  Ru150  1  0.88998777  0.50860688  0.49737612  1
  Ru4+  Ru151  1  0.88841887  0.49854509  0.75014123  1
  Ru4+  Ru152  1  0.88994375  0.83358308  0.00191636  1
  Ru4+  Ru153  1  0.89033462  0.83243921  0.25047709  1
  Ru4+  Ru154  1  0.88918609  0.82862345  0.50251515  1
  Ru4+  Ru155  1  0.88464953  0.83343153  0.74942608  1
  Ru4+  Ru156  1  0.24947239  0.90977678  0.75920233  1
  Ru4+  Ru157  1  0.74965674  0.90997037  0.50025486  1
  Ru4+  Ru158  1  0.25025229  0.27369273  0.24558024  1
  Ru4+  Ru159  1  0.75025299  0.64086905  0.02284322  1
  Ru4+  Ru160  1  0.74963344  0.36357593  0.00234716  1
  Ru4+  Ru161  1  0.25043020  0.04285378  0.74440046  1
  Ru4+  Ru162  1  0.75131209  0.24858045  0.76591271  1
  Ru4+  Ru163  1  0.74998055  0.91324814  0.24807732  1
  Ru4+  Ru164  1  0.24984377  0.91238409  0.47142692  1
  Ru4+  Ru165  1  0.74957404  0.60694513  0.51342133  1
  Ru4+  Ru166  1  0.75008000  0.38891927  0.78208240  1
  Ru4+  Ru167  1  0.74947567  0.77065673  -0.00153747  1
  Ru4+  Ru168  1  0.75091052  0.27428575  0.49624263  1
  Ru4+  Ru169  1  0.75084100  0.75338790  0.24778949  1
  Ru4+  Ru170  1  0.75006220  0.65619393  0.75021832  1
  Ru4+  Ru171  1  0.25030597  0.74707460  0.48279723  1
  Ru4+  Ru172  1  0.25032401  0.75882253  0.00359930  1
  Ru4+  Ru173  1  0.25013322  0.74457717  0.75023470  1
  Ru4+  Ru174  1  0.75021930  0.04385890  0.52242909  1
  Ru4+  Ru175  1  0.25161150  0.31524849  0.77896402  1
  Ru4+  Ru176  1  0.75005588  0.74893970  0.49813170  1
  Ru4+  Ru177  1  0.74940013  0.90935037  0.00469423  1
  Ru4+  Ru178  1  0.25013093  0.39889052  0.49215060  1
  Ru4+  Ru179  1  0.74976062  0.05863570  0.01773115  1
  O2-  O180  1  0.16751417  0.08172125  0.00011940  1
  O2-  O181  1  0.16032128  0.07776531  0.25159464  1
  O2-  O182  1  0.16609840  0.08012762  0.50173964  1
  O2-  O183  1  0.16411689  0.07679205  0.75009001  1
  O2-  O184  1  0.16435791  0.41546022  0.00276404  1
  O2-  O185  1  0.16656356  0.41372697  0.24980825  1
  O2-  O186  1  0.16964328  0.41369654  0.49492223  1
  O2-  O187  1  0.16309486  0.41178514  0.75170942  1
  O2-  O188  1  0.16622543  0.74858740  -0.00151662  1
  O2-  O189  1  0.16661317  0.75131547  0.25211225  1
  O2-  O190  1  0.16794597  0.74887601  0.49700123  1
  O2-  O191  1  0.16658329  0.74671333  0.74901007  1
  O2-  O192  1  0.66757365  0.07987284  0.00450024  1
  O2-  O193  1  0.66867965  0.08016483  0.25271922  1
  O2-  O194  1  0.66600315  0.07878895  0.49748893  1
  O2-  O195  1  0.65870012  0.08024254  0.74889704  1
  O2-  O196  1  0.66913611  0.41226516  0.00213866  1
  O2-  O197  1  0.66546401  0.41327411  0.24863862  1
  O2-  O198  1  0.66192387  0.41271653  0.49824173  1
  O2-  O199  1  0.66794712  0.41291852  0.75482725  1
  O2-  O200  1  0.66779214  0.74853094  0.00146849  1
  O2-  O201  1  0.66906028  0.74729358  0.25009443  1
  O2-  O202  1  0.66660438  0.74768517  0.50310989  1
  O2-  O203  1  0.67128096  0.74600979  0.74796957  1
  O2-  O204  1  0.33582453  0.25253244  0.00294466  1
  O2-  O205  1  0.33311074  0.25490906  0.25002196  1
  O2-  O206  1  0.33383789  0.25404973  0.49864340  1
  O2-  O207  1  0.33285202  0.25415837  0.74911451  1
  O2-  O208  1  0.33196130  0.58621553  0.00275990  1
  O2-  O209  1  0.33258282  0.58289173  0.24986881  1
  O2-  O210  1  0.33293346  0.58699074  0.49641568  1
  O2-  O211  1  0.33429091  0.58497065  0.74951296  1
  O2-  O212  1  0.33732474  0.91445906  0.00148030  1
  O2-  O213  1  0.33580741  0.91796971  0.24843310  1
  O2-  O214  1  0.33244966  0.91821050  0.49677101  1
  O2-  O215  1  0.33404760  0.91821694  0.74982094  1
  O2-  O216  1  0.83786040  0.25517482  0.00044776  1
  O2-  O217  1  0.83042488  0.25333108  0.24993464  1
  O2-  O218  1  0.83513853  0.25476583  0.49720880  1
  O2-  O219  1  0.83441899  0.25355896  0.75354609  1
  O2-  O220  1  0.83306715  0.59201758  0.00150248  1
  O2-  O221  1  0.83467037  0.58403470  0.25099656  1
  O2-  O222  1  0.82986604  0.58824521  0.49944550  1
  O2-  O223  1  0.83501053  0.58993749  0.75269969  1
  O2-  O224  1  0.83073279  0.91672401  0.00009332  1
  O2-  O225  1  0.83305101  0.91821086  0.25365423  1
  O2-  O226  1  0.83299510  0.91765451  0.49944504  1
  O2-  O227  1  0.83644889  0.91745939  0.75110880  1
  O2-  O228  1  0.16418387  0.25415568  0.00127709  1
  O2-  O229  1  0.16953742  0.25551170  0.25169386  1
  O2-  O230  1  0.16890347  0.25282129  0.49803341  1
  O2-  O231  1  0.16898203  0.25555970  0.75231475  1
  O2-  O232  1  0.16977138  0.58479985  -0.00006360  1
  O2-  O233  1  0.16460596  0.58243316  0.24989683  1
  O2-  O234  1  0.16674622  0.58895346  0.49787382  1
  O2-  O235  1  0.16264436  0.58580911  0.74915971  1
  O2-  O236  1  0.16465083  0.91683437  -0.00125496  1
  O2-  O237  1  0.16503386  0.91530492  0.25103098  1
  O2-  O238  1  0.16841992  0.91998999  0.49898425  1
  O2-  O239  1  0.16719010  0.91922754  0.74759969  1
  O2-  O240  1  0.66374283  0.25246583  0.00135914  1
  O2-  O241  1  0.67062207  0.25335999  0.24866006  1
  O2-  O242  1  0.66934998  0.25332516  0.49607764  1
  O2-  O243  1  0.66853542  0.25233592  0.75338092  1
  O2-  O244  1  0.66532488  0.58630132  0.00331798  1
  O2-  O245  1  0.66456010  0.58489655  0.24907503  1
  O2-  O246  1  0.66624521  0.58695871  0.50218531  1
  O2-  O247  1  0.66473257  0.59047911  0.74960397  1
  O2-  O248  1  0.66755213  0.91834322  0.00282785  1
  O2-  O249  1  0.66691408  0.91814573  0.25280569  1
  O2-  O250  1  0.66655848  0.91737298  0.49851052  1
  O2-  O251  1  0.66225276  0.91523592  0.74925644  1
  O2-  O252  1  0.33697206  0.08243866  0.00072905  1
  O2-  O253  1  0.33965668  0.07803639  0.25054134  1
  O2-  O254  1  0.33402794  0.08007519  0.49846980  1
  O2-  O255  1  0.33071655  0.07826655  0.74908371  1
  O2-  O256  1  0.33345507  0.41380713  0.00475585  1
  O2-  O257  1  0.33391954  0.41418368  0.24953450  1
  O2-  O258  1  0.33462308  0.41429315  0.49885857  1
  O2-  O259  1  0.33559365  0.41235455  0.74973440  1
  O2-  O260  1  0.33136632  0.74702938  0.00051082  1
  O2-  O261  1  0.33648232  0.74727336  0.24768171  1
  O2-  O262  1  0.33273727  0.74735208  0.49674835  1
  O2-  O263  1  0.33400927  0.74700024  0.75142532  1
  O2-  O264  1  0.82972280  0.08057268  -0.00130239  1
  O2-  O265  1  0.83165883  0.08258478  0.25425867  1
  O2-  O266  1  0.83026976  0.07687618  0.49713393  1
  O2-  O267  1  0.84119921  0.07553434  0.74816522  1
  O2-  O268  1  0.83319110  0.41050083  0.00153194  1
  O2-  O269  1  0.83472281  0.41405083  0.24948772  1
  O2-  O270  1  0.83694750  0.41556580  0.49693210  1
  O2-  O271  1  0.83264731  0.41120024  0.75214398  1
  O2-  O272  1  0.83101519  0.74992366  -0.00040697  1
  O2-  O273  1  0.83266616  0.74825301  0.24949450  1
  O2-  O274  1  0.82915046  0.75056287  0.49878298  1
  O2-  O275  1  0.83285236  0.74612583  0.75389121  1
  O2-  O276  1  0.05073272  0.08987772  0.74742907  1
  O2-  O277  1  0.44865855  0.76359188  0.48175813  1
  O2-  O278  1  0.46791387  0.14502897  0.77699367  1
  O2-  O279  1  0.95509618  0.56845515  0.24146010  1
  O2-  O280  1  0.04515891  0.45022183  0.49868356  1
  O2-  O281  1  0.95542849  0.43714704  0.49161810  1
  O2-  O282  1  0.45113207  0.56767533  0.73898042  1
  O2-  O283  1  0.54145406  0.77799086  0.54240134  1
  O2-  O284  1  0.04552539  0.43285829  0.24135229  1
  O2-  O285  1  0.05116952  0.57533673  0.95130305  1
  O2-  O286  1  0.54675269  0.09466394  0.49242316  1
  O2-  O287  1  0.54054360  0.22717700  0.77932677  1
  O2-  O288  1  0.94971809  0.24013358  0.02341373  1
  O2-  O289  1  0.04528082  0.23240092  0.74596743  1
  O2-  O290  1  0.96309984  0.10674245  0.96892237  1
  O2-  O291  1  0.95503869  0.56608597  0.74372257  1
  O2-  O292  1  0.45314933  0.89889620  0.26487534  1
  O2-  O293  1  0.55106842  0.58058746  0.02131300  1
  O2-  O294  1  0.45119826  0.23570029  0.51885918  1
  O2-  O295  1  0.94622457  0.75692556  0.26508500  1
  O2-  O296  1  0.95575669  0.42923922  0.99094299  1
  O2-  O297  1  0.45493169  0.23515626  0.99169627  1
  O2-  O298  1  0.05229148  0.24087292  0.77043291  1
  O2-  O299  1  0.54842992  0.08551503  0.76693495  1
  O2-  O300  1  0.55753547  0.09411511  0.73212004  1
  O2-  O301  1  0.04421146  0.77403564  0.28695557  1
  O2-  O302  1  0.44942538  0.76773359  0.76570368  1
  O2-  O303  1  0.55156584  0.89953089  0.26431652  1
  O2-  O304  1  0.97616880  0.78311004  0.49821844  1
  O2-  O305  1  0.05082877  0.10140956  0.52410314  1
  O2-  O306  1  0.94687657  0.91414389  0.47967252  1
  O2-  O307  1  0.46626289  0.55426596  0.45729631  1
  O2-  O308  1  0.55162619  0.57027360  0.73855732  1
  O2-  O309  1  0.94738397  0.23926617  0.75260872  1
  O2-  O310  1  0.05258822  0.23916628  0.99331421  1
  O2-  O311  1  0.54359036  0.43479149  0.48630631  1
  O2-  O312  1  0.44960577  0.56791909  0.01546128  1
  O2-  O313  1  0.54882106  0.08891377  0.05106082  1
  O2-  O314  1  0.95430319  0.23588092  0.24076349  1
  O2-  O315  1  0.95466317  0.89543815  0.74075452  1
  O2-  O316  1  0.04496352  0.89694198  0.98861267  1
  O2-  O317  1  0.95505275  0.43993896  0.47823762  1
  O2-  O318  1  0.04572064  0.09382613  0.48638778  1
  O2-  O319  1  0.54208348  0.78337442  0.70889063  1
  O2-  O320  1  0.53017390  0.44298222  0.99182348  1
  O2-  O321  1  0.45317867  0.43331693  0.25589099  1
  O2-  O322  1  0.95000028  0.90936077  0.26571813  1
  O2-  O323  1  0.54072651  0.22472014  0.46140192  1
  O2-  O324  1  0.93803399  0.92509401  0.46980171  1
  O2-  O325  1  0.06620748  0.07456204  0.98033222  1
  O2-  O326  1  0.56973196  0.05598462  0.91588242  1
  O2-  O327  1  0.06334228  0.92621922  0.53405651  1
  O2-  O328  1  0.43978323  0.73743664  0.07821335  1
  O2-  O329  1  0.93485193  0.74158539  0.02234365  1
  O2-  O330  1  0.93539581  0.07850749  0.52214980  1
  O2-  O331  1  0.91945029  0.06709382  0.05858431  1
  O2-  O332  1  0.57140058  0.26384741  0.70680642  1
  O2-  O333  1  0.06395711  0.73554648  0.46599893  1
  O2-  O334  1  0.93611759  0.40560830  0.77374906  1
  O2-  O335  1  0.92828139  0.37778454  0.55589759  1
  O2-  O336  1  0.93708427  0.59945907  0.42864642  1
  O2-  O337  1  0.56463811  0.40961405  0.72385870  1
  O2-  O338  1  0.06526326  0.92523951  0.21734337  1
  O2-  O339  1  0.57708024  0.39505038  0.97076994  1
  O2-  O340  1  0.56388268  0.93019912  0.27216141  1
  O2-  O341  1  0.93697364  0.41657179  0.96847960  1
  O2-  O342  1  0.43095848  0.26617872  0.76969257  1
  O2-  O343  1  0.06282540  0.58987696  0.52528415  1
  O2-  O344  1  0.06182228  0.73849238  0.78569881  1
  O2-  O345  1  0.57776331  0.72837710  0.80513162  1
  O2-  O346  1  0.42334014  0.60627492  0.55386751  1
  O2-  O347  1  0.07909572  0.39086276  0.53423814  1
  O2-  O348  1  0.55374059  0.08513730  0.05765722  1
  O2-  O349  1  0.07175642  0.71921687  0.19067512  1
  O2-  O350  1  0.43835996  0.59520148  0.72380642  1
  O2-  O351  1  0.42240051  0.08007116  0.67181327  1
  O2-  O352  1  0.43914670  0.07095316  0.21599623  1
  O2-  O353  1  0.56711266  0.92518132  0.52156291  1
  O2-  O354  1  0.06022824  0.26056120  0.46233641  1
  O2-  O355  1  0.43891781  0.59741055  0.21833737  1
  O2-  O356  1  0.06142840  0.07720485  0.21672403  1
  O2-  O357  1  0.42054901  0.05424153  0.81438854  1
  O2-  O358  1  0.93379722  0.58024563  0.56507746  1
  O2-  O359  1  0.56889926  0.71557204  0.43433113  1
  O2-  O360  1  0.56193328  0.73654189  0.21754143  1
  O2-  O361  1  0.57989784  0.27308500  0.55577870  1
  O2-  O362  1  0.43303853  0.75104635  0.93546604  1
  O2-  O363  1  0.07174599  0.26658756  0.72054374  1
  O2-  O364  1  0.56503391  0.25319116  0.97616882  1
  O2-  O365  1  0.06965754  0.60285586  0.09087870  1
  O2-  O366  1  0.06572619  0.25841227  0.22633499  1
  O2-  O367  1  0.91356048  0.72108560  0.53552517  1
  O2-  O368  1  0.93478949  0.92159458  0.02463120  1
  O2-  O369  1  0.55983137  0.59616359  0.71438865  1
  O2-  O370  1  0.06576168  0.92114052  0.77200784  1
  O2-  O371  1  0.05358253  0.58219343  0.94451662  1
  O2-  O372  1  0.25033964  0.66536425  0.36648394  1
  O2-  O373  1  0.74977966  0.66457739  0.15316548  1
  O2-  O374  1  0.74941622  0.00173779  0.15707702  1
  O2-  O375  1  0.75100641  0.34077717  0.39023417  1
  O2-  O376  1  0.25084366  0.00144837  0.36156572  1
  O2-  O377  1  0.25046224  0.31702574  0.57786861  1
  O2-  O378  1  0.75004050  0.66920530  0.39396130  1
  O2-  O379  1  0.75058164  0.32603370  0.67907747  1
  O2-  O380  1  0.24906844  -0.00716322  0.63379676  1
  O2-  O381  1  0.74975207  0.67197698  0.89079685  1
  O2-  O382  1  0.24996650  0.67231769  0.59236129  1
  O2-  O383  1  0.24940372  -0.00424974  0.86115695  1
  O2-  O384  1  0.75036697  0.32390805  0.11875343  1
  O2-  O385  1  0.24956061  0.33112101  0.89758041  1
  O2-  O386  1  0.74990711  0.32478814  0.88686132  1
  O2-  O387  1  0.74988852  -0.00886476  0.91776734  1
  O2-  O388  1  0.75016481  0.00166270  0.64163779  1
  O2-  O389  1  0.25027189  0.66647860  0.92432841  1
  O2-  O390  1  0.75042575  -0.01322894  0.82352186  1
  O2-  O391  1  0.75005435  0.36107483  0.56921160  1
  O2-  O392  1  0.25050733  -0.00289648  0.16835307  1
  O2-  O393  1  0.25060424  0.00120726  0.07831016  1
  O2-  O394  1  0.24944416  0.34993524  0.66301272  1
  O2-  O395  1  0.24989560  0.66119123  0.83150788  1
  O2-  O396  1  0.74999636  0.48999568  0.88013332  1
  O2-  O397  1  0.74997857  0.83501757  0.40335561  1
  O2-  O398  1  0.75006470  0.83198190  0.15485534  1
  O2-  O399  1  0.75014025  0.50943833  0.60782289  1
  O2-  O400  1  0.74956949  0.82968783  0.58325938  1
  O2-  O401  1  0.24992483  0.16484601  0.58252839  1
  O2-  O402  1  0.24992398  0.49422892  0.59616257  1
  O2-  O403  1  0.25017537  0.18754257  0.15582666  1
  O2-  O404  1  0.25018933  0.49875555  0.85424751  1
  O2-  O405  1  0.25023380  0.83458639  0.55625805  1
  O2-  O406  1  0.74982961  0.17023390  0.56621457  1
  O2-  O407  1  0.25023835  0.83061390  0.67863939  1
  O2-  O408  1  0.75017570  0.83197819  0.66912440  1
  O2-  O409  1  0.24995929  0.82930941  0.84655157  1
  O2-  O410  1  0.25068655  0.19959911  0.34550271  1
  O2-  O411  1  0.25029215  0.83488922  0.37242844  1
  O2-  O412  1  0.75012089  0.18048261  0.87723146  1
  O2-  O413  1  0.25111769  0.16405708  0.07474709  1
  O2-  O414  1  0.24729676  0.16694108  0.97128259  1
  O2-  O415  1  0.24986208  0.82688811  0.08570473  1
  O2-  O416  1  0.74965297  0.18667060  0.66170179  1
  O2-  O417  1  0.25366885  0.16355417  0.89395642  1
  O2-  O418  1  0.24990119  0.49901963  0.68178969  1
  O2-  O419  1  0.25122121  0.16563353  0.65999446  1
  O2-  O420  1  0.96353109  0.67519167  0.64624434  1
  O2-  O421  1  0.46751165  0.34531460  0.87587622  1
  O2-  O422  1  0.47992791  0.67952857  0.62856115  1
  O2-  O423  1  0.97917650  0.32529447  0.87465922  1
  O2-  O424  1  0.47107394  0.65213837  0.86203506  1
  O2-  O425  1  0.54092475  0.00367035  0.63811774  1
  O2-  O426  1  0.97077641  0.66805833  0.87547693  1
  O2-  O427  1  0.02509754  0.34012754  0.11783849  1
  O2-  O428  1  0.51050285  0.34440798  0.62234733  1
  O2-  O429  1  0.95216612  -0.00493033  0.86841086  1
  O2-  O430  1  0.54549729  0.33464494  0.36584523  1
  O2-  O431  1  0.01811075  0.33518245  0.62862853  1
  O2-  O432  1  0.02690680  -0.00054661  0.37445965  1
  O2-  O433  1  0.98086127  0.00028226  0.13328740  1
  O2-  O434  1  0.97345448  0.66137564  0.12496888  1
  O2-  O435  1  0.45401355  0.33066659  0.38057372  1
  O2-  O436  1  0.97524815  -0.00081848  0.62986753  1
  O2-  O437  1  0.04323924  0.67574722  0.63155320  1
  O2-  O438  1  0.52349316  0.00509317  0.37807086  1
  O2-  O439  1  0.52800401  0.33554167  0.86577891  1
  O2-  O440  1  0.45900065  -0.01903342  0.60608572  1
  O2-  O441  1  0.47841004  -0.01983514  0.88433590  1
  O2-  O442  1  0.03573611  -0.00110661  0.87712330  1
  O2-  O443  1  0.52796479  0.65793022  0.88738157  1
