# generated using pymatgen
data_La7(Ru4O11)2
_symmetry_space_group_name_H-M   'P 1'
_cell_length_a   23.99048954
_cell_length_b   16.83028200
_cell_length_c   15.42673812
_cell_angle_alpha   90.00112513
_cell_angle_beta   90.00071807
_cell_angle_gamma   90.00008603
_symmetry_Int_Tables_number   1
_chemical_formula_structural   La7(Ru4O11)2
_chemical_formula_sum   'La84 Ru96 O264'
_cell_volume   6228.80320474
_cell_formula_units_Z   12
loop_
 _symmetry_equiv_pos_site_id
 _symmetry_equiv_pos_as_xyz
  1  'x, y, z'
loop_
 _atom_type_symbol
 _atom_type_oxidation_number
  La3+  3.0
  Ru4+  4.0
  O2-  -2.0
loop_
 _atom_site_type_symbol
 _atom_site_label
 _atom_site_symmetry_multiplicity
 _atom_site_fract_x
 _atom_site_fract_y
 _atom_site_fract_z
 _atom_site_occupancy
  La3+  La0  1  0.13944668  -0.00208228  0.12528380  1
  La3+  La1  1  0.13947903  -0.00104626  0.37425015  1
  La3+  La2  1  0.13671829  0.00031702  0.62399802  1
  La3+  La3  1  0.13817309  -0.00246989  0.87613426  1
  La3+  La4  1  0.13829756  0.33543203  0.12568269  1
  La3+  La5  1  0.14058232  0.33570543  0.37481577  1
  La3+  La6  1  0.14044552  0.33741964  0.62500152  1
  La3+  La7  1  0.13659783  0.33565950  0.87236392  1
  La3+  La8  1  0.13993297  0.66665240  0.12395912  1
  La3+  La9  1  0.14019628  0.66759120  0.37664515  1
  La3+  La10  1  0.13778076  0.66529428  0.62574459  1
  La3+  La11  1  0.14164983  0.66539987  0.87310977  1
  La3+  La12  1  0.63949829  -0.00136749  0.12445136  1
  La3+  La13  1  0.63865996  0.00012918  0.37450845  1
  La3+  La14  1  0.63730453  0.00328457  0.62340812  1
  La3+  La15  1  0.64032115  -0.00077093  0.87522887  1
  La3+  La16  1  0.63631890  0.33394397  0.12476514  1
  La3+  La17  1  0.63671770  0.33401973  0.37701046  1
  La3+  La18  1  0.63850765  0.33205191  0.62671875  1
  La3+  La19  1  0.63966434  0.33321260  0.87344871  1
  La3+  La20  1  0.63961830  0.66679327  0.12755927  1
  La3+  La21  1  0.64123107  0.66745191  0.37339985  1
  La3+  La22  1  0.64211628  0.66698202  0.62346775  1
  La3+  La23  1  0.63952846  0.66761212  0.87443330  1
  La3+  La24  1  0.35924570  -0.00078361  0.12409754  1
  La3+  La25  1  0.36035132  -0.00066978  0.37464003  1
  La3+  La26  1  0.36328513  0.00045019  0.62406258  1
  La3+  La27  1  0.36034886  -0.00101845  0.87642233  1
  La3+  La28  1  0.36103720  0.33420863  0.12724583  1
  La3+  La29  1  0.36019286  0.33599055  0.37461306  1
  La3+  La30  1  0.36005537  0.33643785  0.62498137  1
  La3+  La31  1  0.36382442  0.33449267  0.87264890  1
  La3+  La32  1  0.35907931  0.66808416  0.12385273  1
  La3+  La33  1  0.36031414  0.66733747  0.37653453  1
  La3+  La34  1  0.36264582  0.66673591  0.62481986  1
  La3+  La35  1  0.35994859  0.66709723  0.87544423  1
  La3+  La36  1  0.86141234  -0.00206137  0.12422861  1
  La3+  La37  1  0.86129219  -0.00249816  0.37378642  1
  La3+  La38  1  0.86132171  0.00177209  0.62619567  1
  La3+  La39  1  0.85960081  -0.00021190  0.87628886  1
  La3+  La40  1  0.86793494  0.32943949  0.11798227  1
  La3+  La41  1  0.86222865  0.33440303  0.37536277  1
  La3+  La42  1  0.86153710  0.33284092  0.62668189  1
  La3+  La43  1  0.86395718  0.32992715  0.87808512  1
  La3+  La44  1  0.86021215  0.66754101  0.12723536  1
  La3+  La45  1  0.86059454  0.66609795  0.37588142  1
  La3+  La46  1  0.85843934  0.66652611  0.62258914  1
  La3+  La47  1  0.86318051  0.66797857  0.87320989  1
  La3+  La48  1  0.49859856  0.83198765  0.87573940  1
  La3+  La49  1  0.50089770  0.16561594  0.61887106  1
  La3+  La50  1  0.00014820  0.50800840  0.36596663  1
  La3+  La51  1  0.50249637  0.83210069  0.62732196  1
  La3+  La52  1  0.50187046  0.83378017  0.11634772  1
  La3+  La53  1  -0.00060363  0.50140356  0.62065551  1
  La3+  La54  1  -0.00153079  0.50349504  0.13340328  1
  La3+  La55  1  0.50239151  0.16455457  0.38740745  1
  La3+  La56  1  0.00127887  0.83290043  0.11472439  1
  La3+  La57  1  0.50197874  0.49605357  0.86609312  1
  La3+  La58  1  -0.00231871  0.17303794  0.12752641  1
  La3+  La59  1  0.00135507  0.83076028  0.13197593  1
  La3+  La60  1  0.00284223  0.16202700  0.62211499  1
  La3+  La61  1  0.49959971  0.16830266  0.86660121  1
  La3+  La62  1  0.50028578  0.50071243  0.63486346  1
  La3+  La63  1  -0.00232495  0.50405100  0.87834661  1
  La3+  La64  1  -0.00787485  0.16482796  0.87048754  1
  La3+  La65  1  0.50047848  0.50002460  0.36506407  1
  La3+  La66  1  -0.00343884  0.16076300  0.37200820  1
  La3+  La67  1  0.00029343  0.83445172  0.61662336  1
  La3+  La68  1  0.49994710  0.50070946  0.13229464  1
  La3+  La69  1  0.00011231  0.49728833  0.38515801  1
  La3+  La70  1  0.00005070  0.16367430  0.88929114  1
  La3+  La71  1  0.50003631  0.50024977  0.61274634  1
  La3+  La72  1  0.74985111  0.16230793  0.28251309  1
  La3+  La73  1  0.25004464  0.53932768  0.03658033  1
  La3+  La74  1  0.74987151  0.79951087  0.49514623  1
  La3+  La75  1  0.25006234  0.13058030  0.53515119  1
  La3+  La76  1  0.25009657  0.87414540  0.24729656  1
  La3+  La77  1  0.74975464  0.12434179  0.51286892  1
  La3+  La78  1  0.74999495  0.50577778  0.49634759  1
  La3+  La79  1  0.75007161  0.13242623  -0.04838853  1
  La3+  La80  1  0.24952800  0.82891531  0.71919046  1
  La3+  La81  1  0.24984385  0.16198453  -0.00051422  1
  La3+  La82  1  0.75031109  0.46316140  0.02182372  1
  La3+  La83  1  0.25023458  0.13727159  0.75130969  1
  Ru4+  Ru84  1  -0.00031656  -0.00142273  -0.00195116  1
  Ru4+  Ru85  1  -0.00477482  0.00646585  0.24875780  1
  Ru4+  Ru86  1  -0.00017402  -0.00091264  0.50113332  1
  Ru4+  Ru87  1  0.00111864  -0.00005512  0.74953054  1
  Ru4+  Ru88  1  -0.00239387  0.33083866  -0.00019370  1
  Ru4+  Ru89  1  -0.00088148  0.33141805  0.25002958  1
  Ru4+  Ru90  1  0.00531677  0.33362792  0.49967434  1
  Ru4+  Ru91  1  -0.00058950  0.33461646  0.74707777  1
  Ru4+  Ru92  1  0.00321734  0.66265869  -0.00241171  1
  Ru4+  Ru93  1  0.00119322  0.66807640  0.24947759  1
  Ru4+  Ru94  1  0.00114546  0.67474282  0.49984032  1
  Ru4+  Ru95  1  0.00023977  0.66909469  0.75589061  1
  Ru4+  Ru96  1  0.50234419  0.00133646  -0.00294590  1
  Ru4+  Ru97  1  0.50066753  0.00420764  0.25548847  1
  Ru4+  Ru98  1  0.49579433  -0.00574230  0.49525139  1
  Ru4+  Ru99  1  0.49837830  0.00470438  0.75089335  1
  Ru4+  Ru100  1  0.49652081  0.33684925  0.00093330  1
  Ru4+  Ru101  1  0.49963491  0.33430148  0.24993869  1
  Ru4+  Ru102  1  0.50072691  0.33345811  0.49888264  1
  Ru4+  Ru103  1  0.49984804  0.33177032  0.75363597  1
  Ru4+  Ru104  1  0.50115712  0.66646200  0.00047654  1
  Ru4+  Ru105  1  0.50129634  0.66763952  0.25123613  1
  Ru4+  Ru106  1  0.49983230  0.66857165  0.49954461  1
  Ru4+  Ru107  1  0.50467220  0.65926950  0.75182565  1
  Ru4+  Ru108  1  0.11181884  0.16633214  0.00123211  1
  Ru4+  Ru109  1  0.11335386  0.16601575  0.24979869  1
  Ru4+  Ru110  1  0.11073864  0.16785939  0.50029052  1
  Ru4+  Ru111  1  0.11227149  0.16504666  0.74803454  1
  Ru4+  Ru112  1  0.11367601  0.50310497  -0.00086472  1
  Ru4+  Ru113  1  0.11466987  0.49978740  0.24870951  1
  Ru4+  Ru114  1  0.11561197  0.49703020  0.50132121  1
  Ru4+  Ru115  1  0.11481013  0.49978075  0.74989386  1
  Ru4+  Ru116  1  0.11438646  0.83084006  0.00011025  1
  Ru4+  Ru117  1  0.11656263  0.82982223  0.25036306  1
  Ru4+  Ru118  1  0.11232456  0.83236271  0.49891944  1
  Ru4+  Ru119  1  0.11012985  0.83138904  0.75099624  1
  Ru4+  Ru120  1  0.61329228  0.16300548  0.00087589  1
  Ru4+  Ru121  1  0.61033994  0.16689391  0.25011175  1
  Ru4+  Ru122  1  0.61511486  0.17171571  0.49784907  1
  Ru4+  Ru123  1  0.61449883  0.16825650  0.74961390  1
  Ru4+  Ru124  1  0.61092698  0.50021294  0.00090732  1
  Ru4+  Ru125  1  0.61239620  0.50238537  0.24998635  1
  Ru4+  Ru126  1  0.61237937  0.49893209  0.49874741  1
  Ru4+  Ru127  1  0.61200644  0.50080802  0.74937578  1
  Ru4+  Ru128  1  0.61347963  0.83478611  0.00005112  1
  Ru4+  Ru129  1  0.61479963  0.82993283  0.25083908  1
  Ru4+  Ru130  1  0.61086923  0.83164392  0.49892296  1
  Ru4+  Ru131  1  0.61601859  0.83115872  0.74957975  1
  Ru4+  Ru132  1  0.39037889  0.16822187  0.00080373  1
  Ru4+  Ru133  1  0.38792550  0.16622987  0.24982077  1
  Ru4+  Ru134  1  0.38882101  0.16402706  0.50021453  1
  Ru4+  Ru135  1  0.38970741  0.16671915  0.75058185  1
  Ru4+  Ru136  1  0.38889160  0.50018295  0.00048758  1
  Ru4+  Ru137  1  0.38697347  0.49863487  0.24967766  1
  Ru4+  Ru138  1  0.38649711  0.49888668  0.50069444  1
  Ru4+  Ru139  1  0.38531061  0.49866291  0.74977497  1
  Ru4+  Ru140  1  0.38469499  0.83185311  0.00037174  1
  Ru4+  Ru141  1  0.38670333  0.83255480  0.24998803  1
  Ru4+  Ru142  1  0.38609864  0.83176623  0.49996855  1
  Ru4+  Ru143  1  0.38515228  0.83710815  0.75005449  1
  Ru4+  Ru144  1  0.88851597  0.16619577  -0.00000913  1
  Ru4+  Ru145  1  0.88945143  0.16848714  0.24848545  1
  Ru4+  Ru146  1  0.88622931  0.16202356  0.49939902  1
  Ru4+  Ru147  1  0.88620723  0.16699191  0.75140317  1
  Ru4+  Ru148  1  0.88963942  0.49816464  0.00003035  1
  Ru4+  Ru149  1  0.88564428  0.50343613  0.24875976  1
  Ru4+  Ru150  1  0.88375452  0.49719466  0.50155729  1
  Ru4+  Ru151  1  0.88702343  0.50062532  0.75002309  1
  Ru4+  Ru152  1  0.88330657  0.83930251  -0.00011210  1
  Ru4+  Ru153  1  0.88529249  0.83449901  0.25055639  1
  Ru4+  Ru154  1  0.88876182  0.83272183  0.50016862  1
  Ru4+  Ru155  1  0.88699919  0.82993671  0.75080743  1
  Ru4+  Ru156  1  0.24933802  0.70067600  0.74795226  1
  Ru4+  Ru157  1  0.74994047  0.41896169  0.24281239  1
  Ru4+  Ru158  1  0.74976129  0.75750629  0.00269859  1
  Ru4+  Ru159  1  0.25000983  0.95731462  0.73262286  1
  Ru4+  Ru160  1  0.75020746  0.59649226  0.00112557  1
  Ru4+  Ru161  1  0.74998348  0.41243366  0.75833580  1
  Ru4+  Ru162  1  0.25018954  0.57947867  0.25501138  1
  Ru4+  Ru163  1  0.24991943  0.27107961  0.76031815  1
  Ru4+  Ru164  1  0.25015748  0.26536939  0.49145913  1
  Ru4+  Ru165  1  0.25046797  0.41200277  -0.00566712  1
  Ru4+  Ru166  1  0.25006885  0.03357117  0.02428153  1
  Ru4+  Ru167  1  0.25035856  0.73192533  0.26115649  1
  Ru4+  Ru168  1  0.74965105  0.26802459  0.01003098  1
  Ru4+  Ru169  1  0.25010413  0.57970453  0.50089601  1
  Ru4+  Ru170  1  0.74986127  0.93860888  0.50050509  1
  Ru4+  Ru171  1  0.75022892  0.27266064  0.50210632  1
  Ru4+  Ru172  1  0.74968914  0.91325061  0.75237436  1
  Ru4+  Ru173  1  0.24993263  0.25530281  0.24630980  1
  Ru4+  Ru174  1  0.25008632  0.08182445  0.24356122  1
  Ru4+  Ru175  1  0.74980482  0.03532870  0.24224804  1
  Ru4+  Ru176  1  0.74976928  0.29218429  0.24096254  1
  Ru4+  Ru177  1  0.25021271  0.28781121  0.00009549  1
  Ru4+  Ru178  1  0.25000722  0.91245686  0.49711900  1
  Ru4+  Ru179  1  0.74997481  0.58890561  0.75477245  1
  O2-  O180  1  0.16610448  0.07911687  -0.00111384  1
  O2-  O181  1  0.16604636  0.08158044  0.25039315  1
  O2-  O182  1  0.16652601  0.07869530  0.50073989  1
  O2-  O183  1  0.16592818  0.07950201  0.74965424  1
  O2-  O184  1  0.16760240  0.41452153  0.00052038  1
  O2-  O185  1  0.16619042  0.41436395  0.25078130  1
  O2-  O186  1  0.16714430  0.41544871  0.49864302  1
  O2-  O187  1  0.16701252  0.41532077  0.75064905  1
  O2-  O188  1  0.16759009  0.75076886  -0.00102641  1
  O2-  O189  1  0.16751686  0.74549409  0.25155681  1
  O2-  O190  1  0.16686387  0.74759343  0.50123096  1
  O2-  O191  1  0.16745086  0.74566613  0.74744237  1
  O2-  O192  1  0.66667453  0.07971350  0.00115588  1
  O2-  O193  1  0.66701255  0.07844932  0.24916760  1
  O2-  O194  1  0.66411646  0.07924632  0.50015427  1
  O2-  O195  1  0.66634847  0.08109800  0.75020652  1
  O2-  O196  1  0.66433062  0.41130584  -0.00003908  1
  O2-  O197  1  0.66640527  0.41248313  0.24970409  1
  O2-  O198  1  0.66852378  0.41320625  0.50030879  1
  O2-  O199  1  0.66785359  0.41332104  0.75004702  1
  O2-  O200  1  0.66778620  0.74740508  0.00059952  1
  O2-  O201  1  0.66668483  0.74926809  0.24841823  1
  O2-  O202  1  0.66428302  0.74800007  0.50007943  1
  O2-  O203  1  0.66728298  0.74899105  0.74988824  1
  O2-  O204  1  0.33535204  0.25366551  -0.00029906  1
  O2-  O205  1  0.33196939  0.25290142  0.25129831  1
  O2-  O206  1  0.33398247  0.25429776  0.50020562  1
  O2-  O207  1  0.33203953  0.25363614  0.75062913  1
  O2-  O208  1  0.33334205  0.58661133  -0.00253500  1
  O2-  O209  1  0.33245876  0.58607796  0.25044757  1
  O2-  O210  1  0.33309013  0.58631431  0.50091884  1
  O2-  O211  1  0.33404208  0.58649272  0.74912416  1
  O2-  O212  1  0.33422057  0.91821591  0.00034528  1
  O2-  O213  1  0.33506255  0.92140819  0.25224568  1
  O2-  O214  1  0.33225428  0.91947480  0.50072720  1
  O2-  O215  1  0.33285772  0.92057274  0.74800260  1
  O2-  O216  1  0.83261257  0.25380255  0.00144265  1
  O2-  O217  1  0.83373210  0.25474720  0.24987010  1
  O2-  O218  1  0.83126849  0.25481708  0.50010933  1
  O2-  O219  1  0.83382435  0.25278343  0.74956943  1
  O2-  O220  1  0.83407263  0.58782766  0.00022577  1
  O2-  O221  1  0.83450918  0.58546825  0.24911693  1
  O2-  O222  1  0.83353855  0.58478456  0.49966780  1
  O2-  O223  1  0.83249310  0.58549288  0.74994942  1
  O2-  O224  1  0.83342624  0.91883084  0.00209569  1
  O2-  O225  1  0.83174150  0.91957618  0.24785434  1
  O2-  O226  1  0.83348179  0.92005245  0.50042491  1
  O2-  O227  1  0.83226643  0.91891273  0.74832307  1
  O2-  O228  1  0.16556137  0.25376580  -0.00020982  1
  O2-  O229  1  0.16816971  0.25227760  0.25122215  1
  O2-  O230  1  0.16587175  0.25277938  0.49967924  1
  O2-  O231  1  0.16818702  0.25304308  0.75161880  1
  O2-  O232  1  0.16589854  0.58601175  -0.00123899  1
  O2-  O233  1  0.16783837  0.58559274  0.25149067  1
  O2-  O234  1  0.16722102  0.58689884  0.50062716  1
  O2-  O235  1  0.16682873  0.58457247  0.74826593  1
  O2-  O236  1  0.16677311  0.91865860  -0.00056228  1
  O2-  O237  1  0.16477235  0.92082805  0.25085625  1
  O2-  O238  1  0.16774028  0.91778667  0.50094198  1
  O2-  O239  1  0.16520411  0.92140934  0.74915359  1
  O2-  O240  1  0.66659146  0.25479046  0.00041487  1
  O2-  O241  1  0.66615797  0.25537776  0.24945371  1
  O2-  O242  1  0.66849608  0.25338309  0.49962397  1
  O2-  O243  1  0.66737238  0.25168396  0.75059321  1
  O2-  O244  1  0.66696812  0.58655179  0.00065573  1
  O2-  O245  1  0.66523791  0.58511351  0.24954052  1
  O2-  O246  1  0.66548638  0.58522879  0.49973564  1
  O2-  O247  1  0.66685036  0.58538771  0.75026510  1
  O2-  O248  1  0.66578650  0.91840919  0.00153568  1
  O2-  O249  1  0.66805445  0.91941897  0.24916074  1
  O2-  O250  1  0.66806038  0.91927586  0.50129030  1
  O2-  O251  1  0.66777199  0.91842283  0.74941223  1
  O2-  O252  1  0.33292980  0.07982849  -0.00054396  1
  O2-  O253  1  0.33445885  0.08206191  0.25076998  1
  O2-  O254  1  0.33398978  0.07928452  0.50004527  1
  O2-  O255  1  0.33385199  0.07942530  0.74822026  1
  O2-  O256  1  0.33454810  0.41426515  -0.00011890  1
  O2-  O257  1  0.33454782  0.41489725  0.25082842  1
  O2-  O258  1  0.33306682  0.41466952  0.49959506  1
  O2-  O259  1  0.33431234  0.41391858  0.75064622  1
  O2-  O260  1  0.33315330  0.74907839  -0.00159675  1
  O2-  O261  1  0.33405863  0.74678379  0.25149214  1
  O2-  O262  1  0.33412633  0.74798469  0.50147767  1
  O2-  O263  1  0.33404045  0.74589299  0.74849809  1
  O2-  O264  1  0.83281163  0.08053895  0.00306852  1
  O2-  O265  1  0.83286174  0.07755257  0.24943428  1
  O2-  O266  1  0.83622969  0.07768255  0.49961934  1
  O2-  O267  1  0.83359818  0.08075879  0.74949900  1
  O2-  O268  1  0.83531992  0.41100919  0.00046117  1
  O2-  O269  1  0.83299108  0.41213682  0.24952562  1
  O2-  O270  1  0.83230715  0.41234110  0.50044418  1
  O2-  O271  1  0.83269781  0.41443551  0.74933539  1
  O2-  O272  1  0.83290289  0.74687206  0.00067993  1
  O2-  O273  1  0.83528844  0.74827830  0.24812446  1
  O2-  O274  1  0.83523543  0.74669121  0.50006048  1
  O2-  O275  1  0.83451065  0.74872702  0.74916825  1
  O2-  O276  1  0.54686580  0.76275265  0.51437110  1
  O2-  O277  1  0.54391730  0.89212190  0.77696275  1
  O2-  O278  1  0.05098307  0.23518581  0.01571340  1
  O2-  O279  1  0.54449046  0.56451104  0.48531035  1
  O2-  O280  1  0.54830950  0.09972345  0.51403398  1
  O2-  O281  1  0.46220891  0.56154562  0.96637071  1
  O2-  O282  1  0.54564167  0.23425441  0.99880618  1
  O2-  O283  1  0.04765334  0.09439683  0.23406024  1
  O2-  O284  1  0.95308859  0.42994287  0.51604248  1
  O2-  O285  1  0.54490573  0.09981729  0.73718348  1
  O2-  O286  1  0.54554576  0.89189712  0.27837978  1
  O2-  O287  1  0.95046547  0.76503491  0.51572470  1
  O2-  O288  1  0.94945941  0.23782160  0.01571952  1
  O2-  O289  1  0.95217855  0.43137539  0.26185620  1
  O2-  O290  1  0.54850651  0.43119056  0.98653918  1
  O2-  O291  1  0.95407927  0.76614004  0.76100894  1
  O2-  O292  1  0.04579916  0.09471893  0.01771915  1
  O2-  O293  1  0.45412921  0.23620184  0.51312327  1
  O2-  O294  1  0.94598787  0.24783668  0.53613434  1
  O2-  O295  1  0.95509974  0.22908210  0.99050644  1
  O2-  O296  1  0.04517205  0.10082599  0.51206388  1
  O2-  O297  1  0.95157660  0.56970936  0.48602309  1
  O2-  O298  1  0.95271936  0.76881280  0.98750696  1
  O2-  O299  1  0.94942222  0.76157593  0.02550625  1
  O2-  O300  1  0.54553609  0.23352936  -0.00169008  1
  O2-  O301  1  0.04465495  0.57126635  0.01066745  1
  O2-  O302  1  0.04794233  0.76664226  0.49576769  1
  O2-  O303  1  0.03954330  0.22288063  0.77754265  1
  O2-  O304  1  0.03485016  0.80510294  0.97772938  1
  O2-  O305  1  0.45471470  0.89951765  0.01210279  1
  O2-  O306  1  0.04779138  0.57013990  0.51411514  1
  O2-  O307  1  0.04806947  0.76339881  0.50481620  1
  O2-  O308  1  0.03807875  0.88925012  0.26297919  1
  O2-  O309  1  0.95124556  0.09875336  0.23603113  1
  O2-  O310  1  0.45428257  0.56966701  0.76347655  1
  O2-  O311  1  0.45212230  0.23597669  0.01500709  1
  O2-  O312  1  0.03712414  0.22635728  0.28321200  1
  O2-  O313  1  0.03729195  0.43851867  1.00173453  1
  O2-  O314  1  0.45184731  0.42857834  0.98821249  1
  O2-  O315  1  0.46316158  0.22186484  0.28552060  1
  O2-  O316  1  0.53308358  0.88840334  0.49203994  1
  O2-  O317  1  0.04739163  0.43328586  0.23683528  1
  O2-  O318  1  0.03845369  0.43780846  0.02129566  1
  O2-  O319  1  0.04244784  0.89813654  0.23759620  1
  O2-  O320  1  0.45838638  0.89525701  0.72042115  1
  O2-  O321  1  0.45301616  0.76167018  0.73127001  1
  O2-  O322  1  0.46091887  0.88296407  0.24498645  1
  O2-  O323  1  0.45280915  0.76269965  0.77054035  1
  O2-  O324  1  0.07187697  0.27706562  0.69228080  1
  O2-  O325  1  0.43513664  0.26021216  0.77642042  1
  O2-  O326  1  0.56294851  0.59695579  0.03425382  1
  O2-  O327  1  0.93670925  0.40284265  0.71699504  1
  O2-  O328  1  0.06171869  0.59600898  0.71565702  1
  O2-  O329  1  0.43521375  0.07013625  0.94607116  1
  O2-  O330  1  0.56415861  0.07501404  0.52835330  1
  O2-  O331  1  0.57435923  0.93435144  0.70797176  1
  O2-  O332  1  0.43741666  0.59722533  0.21688178  1
  O2-  O333  1  0.42928395  0.27785614  0.19723588  1
  O2-  O334  1  0.06444037  0.73719884  0.77944042  1
  O2-  O335  1  0.43727588  0.74029249  0.05889217  1
  O2-  O336  1  0.06811556  0.92891715  0.30156167  1
  O2-  O337  1  0.06663265  0.93667652  0.18657233  1
  O2-  O338  1  0.92993740  0.26659578  0.96900913  1
  O2-  O339  1  0.06408242  0.40257268  0.53331670  1
  O2-  O340  1  0.57104793  0.93272785  0.21020229  1
  O2-  O341  1  0.56373215  0.26105307  0.46659719  1
  O2-  O342  1  0.42976479  0.60454244  0.05186155  1
  O2-  O343  1  0.06478073  0.59203575  0.22321729  1
  O2-  O344  1  0.57633856  0.94167318  0.46536342  1
  O2-  O345  1  0.93286798  0.92496919  0.70476570  1
  O2-  O346  1  0.43247637  0.07462688  0.04513047  1
  O2-  O347  1  0.93597124  0.59411008  0.47086458  1
  O2-  O348  1  0.06516667  0.74232721  0.22220048  1
  O2-  O349  1  0.06270244  0.93138040  0.03300324  1
  O2-  O350  1  0.56236978  0.26187139  0.71576268  1
  O2-  O351  1  0.43753630  0.40219474  0.53361188  1
  O2-  O352  1  0.56250550  0.40517353  0.71628520  1
  O2-  O353  1  0.93517415  0.92856594  0.27611949  1
  O2-  O354  1  0.93311050  0.92557731  0.79607981  1
  O2-  O355  1  0.93362983  0.07186056  0.97386626  1
  O2-  O356  1  0.08210592  0.38517178  0.95527080  1
  O2-  O357  1  0.94551301  0.24837406  0.53396192  1
  O2-  O358  1  0.56505606  0.73772991  0.27557262  1
  O2-  O359  1  0.93528201  0.59308042  0.77568943  1
  O2-  O360  1  0.06417790  0.41000259  0.77837913  1
  O2-  O361  1  0.42274595  0.94296766  0.21578148  1
  O2-  O362  1  0.56198902  0.73674660  0.96678454  1
  O2-  O363  1  0.07310934  0.73482795  0.06646315  1
  O2-  O364  1  0.92855098  0.26412116  0.44881903  1
  O2-  O365  1  0.56362638  0.73492046  0.80806929  1
  O2-  O366  1  0.07302937  0.71382760  0.93557387  1
  O2-  O367  1  0.56218382  0.40526837  0.46703426  1
  O2-  O368  1  0.42887307  0.94354657  0.80338741  1
  O2-  O369  1  0.56627234  0.74273334  0.69973116  1
  O2-  O370  1  0.07695167  0.27136235  0.20276928  1
  O2-  O371  1  0.43708792  0.73553731  0.94026243  1
  O2-  O372  1  0.24998897  -0.00228213  0.32992577  1
  O2-  O373  1  0.75002563  0.67341469  0.82462256  1
  O2-  O374  1  0.75019196  0.00415780  0.40169903  1
  O2-  O375  1  0.25018571  0.66655534  0.07329157  1
  O2-  O376  1  0.74990728  0.66663719  0.42035936  1
  O2-  O377  1  0.74982981  0.66676333  0.33110130  1
  O2-  O378  1  0.25015781  -0.01665832  0.91660140  1
  O2-  O379  1  0.75021582  0.67145085  0.09975559  1
  O2-  O380  1  0.74986511  -0.00160405  0.91966332  1
  O2-  O381  1  0.75005026  0.67468864  0.91630908  1
  O2-  O382  1  0.75028323  0.32679703  0.82810977  1
  O2-  O383  1  0.75049911  0.66599793  0.59861572  1
  O2-  O384  1  0.24995773  0.66373741  0.40706721  1
  O2-  O385  1  0.25003617  0.34086646  0.67026305  1
  O2-  O386  1  0.25000063  0.33362982  0.15454334  1
  O2-  O387  1  0.25006045  0.34210576  0.57941837  1
  O2-  O388  1  0.25002567  0.00226220  0.42458515  1
  O2-  O389  1  0.25004364  0.01920360  0.83428753  1
  O2-  O390  1  0.25079945  0.66135660  0.85414807  1
  O2-  O391  1  0.25001291  0.00031744  0.15410964  1
  O2-  O392  1  0.25004529  0.33591668  0.39851234  1
  O2-  O393  1  0.75008801  0.00341893  0.82829415  1
  O2-  O394  1  0.25030501  0.66092268  0.16595436  1
  O2-  O395  1  0.75027569  0.34123255  0.91985610  1
  O2-  O396  1  0.74991608  0.50664774  0.88545301  1
  O2-  O397  1  0.25020606  0.83301366  0.85623720  1
  O2-  O398  1  0.25009592  0.50444610  0.65134305  1
  O2-  O399  1  0.74994714  0.49676279  0.38009986  1
  O2-  O400  1  0.25003392  0.49811169  0.42079022  1
  O2-  O401  1  0.74998012  0.17253481  0.07837854  1
  O2-  O402  1  0.25023451  0.82479958  0.12930513  1
  O2-  O403  1  0.25003160  0.16673755  0.32010497  1
  O2-  O404  1  0.25005910  0.49888273  0.33220838  1
  O2-  O405  1  0.25007352  0.49919352  0.81860238  1
  O2-  O406  1  0.74994217  0.82956913  0.83029594  1
  O2-  O407  1  0.75008456  0.17650430  0.62591889  1
  O2-  O408  1  0.74997349  0.49950879  0.69324812  1
  O2-  O409  1  0.24995495  0.16694760  0.15774717  1
  O2-  O410  1  0.74995483  0.83763600  0.91834024  1
  O2-  O411  1  0.75000244  0.49903354  0.16063728  1
  O2-  O412  1  0.25013422  0.82655116  0.37429780  1
  O2-  O413  1  0.75007679  0.51142613  0.30222878  1
  O2-  O414  1  0.75018470  0.18036314  0.40180281  1
  O2-  O415  1  0.24997474  0.17144945  0.40866348  1
  O2-  O416  1  0.74981453  0.49831171  0.61291763  1
  O2-  O417  1  0.75011967  0.16485136  0.16014283  1
  O2-  O418  1  0.25015217  0.49670239  0.90250693  1
  O2-  O419  1  0.75003061  0.83507786  0.34973340  1
  O2-  O420  1  0.97872028  0.00209335  0.87529200  1
  O2-  O421  1  0.03387675  0.32398581  0.87630857  1
  O2-  O422  1  0.03266548  0.33618376  0.12156651  1
  O2-  O423  1  0.97405059  0.66894170  0.36743911  1
  O2-  O424  1  0.53152733  0.00365060  0.11875141  1
  O2-  O425  1  0.96185028  0.00693123  0.61531043  1
  O2-  O426  1  0.97414494  0.66494133  0.88143623  1
  O2-  O427  1  0.53802084  0.65619906  0.61793238  1
  O2-  O428  1  0.45781448  0.66507670  0.62096552  1
  O2-  O429  1  0.47424989  -0.00073743  0.12722343  1
  O2-  O430  1  0.97547766  0.33827418  0.36938753  1
  O2-  O431  1  0.96117709  0.34182887  0.86601867  1
  O2-  O432  1  0.46493846  0.66630444  0.37571702  1
  O2-  O433  1  0.46218209  0.00267623  0.62155533  1
  O2-  O434  1  0.53227417  0.66262993  0.37931384  1
  O2-  O435  1  0.52799387  0.00028939  0.87580486  1
  O2-  O436  1  0.01702313  0.66290684  0.12504473  1
  O2-  O437  1  0.96608843  0.00514713  0.38299015  1
  O2-  O438  1  0.53013684  0.00019746  0.62350661  1
  O2-  O439  1  0.04156592  -0.00196295  0.62835281  1
  O2-  O440  1  0.47436847  0.33646025  0.87529108  1
  O2-  O441  1  0.96111999  0.33658461  0.12803498  1
  O2-  O442  1  0.52338244  0.00767839  0.37095634  1
  O2-  O443  1  0.03284247  0.00624721  0.38454113  1
