# generated using pymatgen
data_La7(Ru4O11)2
_symmetry_space_group_name_H-M   'P 1'
_cell_length_a   23.99219981
_cell_length_b   16.83206598
_cell_length_c   15.42786848
_cell_angle_alpha   90.00028808
_cell_angle_beta   89.99958261
_cell_angle_gamma   90.00138382
_symmetry_Int_Tables_number   1
_chemical_formula_structural   La7(Ru4O11)2
_chemical_formula_sum   'La84 Ru96 O264'
_cell_volume   6230.36402551
_cell_formula_units_Z   12
loop_
 _symmetry_equiv_pos_site_id
 _symmetry_equiv_pos_as_xyz
  1  'x, y, z'
loop_
 _atom_type_symbol
 _atom_type_oxidation_number
  La3+  3.0
  Ru4+  4.0
  O2-  -2.0
loop_
 _atom_site_type_symbol
 _atom_site_label
 _atom_site_symmetry_multiplicity
 _atom_site_fract_x
 _atom_site_fract_y
 _atom_site_fract_z
 _atom_site_occupancy
  La3+  La0  1  0.14307445  0.00323068  0.12813364  1
  La3+  La1  1  0.14396387  0.00023694  0.37287402  1
  La3+  La2  1  0.13896842  -0.00543667  0.62647810  1
  La3+  La3  1  0.13773076  0.00041096  0.87526876  1
  La3+  La4  1  0.13637561  0.33049211  0.12374473  1
  La3+  La5  1  0.14209820  0.33180211  0.37608614  1
  La3+  La6  1  0.13678516  0.33311121  0.62067781  1
  La3+  La7  1  0.13634110  0.33455469  0.87738722  1
  La3+  La8  1  0.13989087  0.66361016  0.12640931  1
  La3+  La9  1  0.14290267  0.66401605  0.37324317  1
  La3+  La10  1  0.14475065  0.66814446  0.63145884  1
  La3+  La11  1  0.13771833  0.66474434  0.87008744  1
  La3+  La12  1  0.63900034  0.00578084  0.11839316  1
  La3+  La13  1  0.63687922  -0.00330931  0.37399675  1
  La3+  La14  1  0.63606764  -0.00370457  0.62466109  1
  La3+  La15  1  0.63725117  0.00334879  0.87945764  1
  La3+  La16  1  0.64606237  0.33371701  0.12624133  1
  La3+  La17  1  0.63857609  0.33794781  0.37427797  1
  La3+  La18  1  0.63632427  0.33937417  0.63102375  1
  La3+  La19  1  0.64528910  0.34210893  0.88070983  1
  La3+  La20  1  0.64643709  0.66555976  0.12136574  1
  La3+  La21  1  0.64420224  0.66841377  0.37468450  1
  La3+  La22  1  0.64905444  0.66014924  0.62417770  1
  La3+  La23  1  0.64253388  0.65997186  0.86830764  1
  La3+  La24  1  0.36078740  0.00248243  0.12787425  1
  La3+  La25  1  0.35924171  -0.00065257  0.37571927  1
  La3+  La26  1  0.36338989  -0.00294358  0.62142650  1
  La3+  La27  1  0.36057885  0.00148424  0.87570060  1
  La3+  La28  1  0.35731546  0.33270953  0.12815057  1
  La3+  La29  1  0.35814884  0.33279229  0.37433588  1
  La3+  La30  1  0.36193810  0.33160594  0.62478370  1
  La3+  La31  1  0.36223558  0.33179263  0.87496024  1
  La3+  La32  1  0.36116507  0.66496436  0.12366087  1
  La3+  La33  1  0.35981499  0.66554407  0.37285173  1
  La3+  La34  1  0.35810546  0.66833102  0.62889535  1
  La3+  La35  1  0.36422155  0.66437409  0.87096902  1
  La3+  La36  1  0.86752056  0.01577205  0.13540336  1
  La3+  La37  1  0.87010698  0.00456378  0.36522660  1
  La3+  La38  1  0.86298972  -0.00196967  0.62422154  1
  La3+  La39  1  0.85540640  0.00045106  0.87763146  1
  La3+  La40  1  0.85408040  0.33331584  0.12299133  1
  La3+  La41  1  0.86032367  0.33654366  0.37411763  1
  La3+  La42  1  0.86060236  0.33867885  0.62635644  1
  La3+  La43  1  0.85636469  0.33909085  0.87724445  1
  La3+  La44  1  0.85545007  0.67011451  0.12563455  1
  La3+  La45  1  0.85350538  0.66739272  0.37751772  1
  La3+  La46  1  0.85417540  0.66225615  0.62486904  1
  La3+  La47  1  0.85080991  0.66755671  0.86855651  1
  La3+  La48  1  0.50316948  0.17024750  0.12796879  1
  La3+  La49  1  -0.00199002  0.82964430  0.11448735  1
  La3+  La50  1  0.00122233  0.49845571  0.11354805  1
  La3+  La51  1  0.50304595  0.49835549  0.13855180  1
  La3+  La52  1  -0.00891303  0.17201123  0.87044775  1
  La3+  La53  1  0.00061121  0.83204245  0.13634696  1
  La3+  La54  1  0.00079901  0.50223769  0.62531075  1
  La3+  La55  1  0.50098932  0.50530892  0.62105351  1
  La3+  La56  1  -0.00439685  0.16737456  0.36476729  1
  La3+  La57  1  -0.00139897  0.83269172  0.39005298  1
  La3+  La58  1  0.00085018  0.83323062  0.87734763  1
  La3+  La59  1  0.49574108  0.16487445  0.10914543  1
  La3+  La60  1  -0.00452614  0.15639261  0.38386550  1
  La3+  La61  1  -0.00099219  0.16602161  0.63383234  1
  La3+  La62  1  -0.00192685  0.83657399  0.62235987  1
  La3+  La63  1  0.50246251  0.50242289  0.63797079  1
  La3+  La64  1  0.49656724  0.16613678  0.61538753  1
  La3+  La65  1  0.00432436  0.82428966  0.85793516  1
  La3+  La66  1  0.00650374  0.16472319  0.13515041  1
  La3+  La67  1  -0.00067321  0.50180356  0.38160507  1
  La3+  La68  1  0.49448237  0.50154089  0.12069767  1
  La3+  La69  1  0.50178137  0.83579644  0.88133162  1
  La3+  La70  1  0.50072030  0.50289109  0.87900154  1
  La3+  La71  1  -0.00290367  0.82452826  0.37085599  1
  La3+  La72  1  0.25039036  0.83618597  0.00032812  1
  La3+  La73  1  0.75105082  0.82139194  0.49440035  1
  La3+  La74  1  0.74984258  0.15526443  0.49406036  1
  La3+  La75  1  0.75010670  0.77909604  0.75661753  1
  La3+  La76  1  0.25063783  0.45686457  0.53290442  1
  La3+  La77  1  0.75008479  0.45456521  0.24244686  1
  La3+  La78  1  0.24965888  0.16317747  0.72621772  1
  La3+  La79  1  0.24940498  0.54540290  -0.01883829  1
  La3+  La80  1  0.25093106  0.22869373  0.49122324  1
  La3+  La81  1  0.75078898  0.17832001  0.71135224  1
  La3+  La82  1  0.75022949  0.20695004  0.26349768  1
  La3+  La83  1  0.75042034  0.83404632  0.22469384  1
  Ru4+  Ru84  1  -0.00098577  0.01204265  0.00175430  1
  Ru4+  Ru85  1  -0.00249195  0.00440580  0.23976689  1
  Ru4+  Ru86  1  -0.00165559  -0.00726735  0.50127208  1
  Ru4+  Ru87  1  0.00047270  0.00189236  0.75064805  1
  Ru4+  Ru88  1  -0.00152970  0.33426040  0.00604444  1
  Ru4+  Ru89  1  -0.00527026  0.33844063  0.24596655  1
  Ru4+  Ru90  1  -0.00430622  0.34360040  0.50082603  1
  Ru4+  Ru91  1  -0.00437260  0.34171010  0.75212005  1
  Ru4+  Ru92  1  -0.00337682  0.65643333  -0.01061915  1
  Ru4+  Ru93  1  -0.00049033  0.66356483  0.25243306  1
  Ru4+  Ru94  1  -0.00031936  0.66343123  0.49449793  1
  Ru4+  Ru95  1  0.00314611  0.65909033  0.75592498  1
  Ru4+  Ru96  1  0.49495065  -0.00840870  0.00175103  1
  Ru4+  Ru97  1  0.49295635  -0.00332170  0.24937070  1
  Ru4+  Ru98  1  0.50007410  0.00048569  0.50531251  1
  Ru4+  Ru99  1  0.50826578  0.00453449  0.74407018  1
  Ru4+  Ru100  1  0.50302948  0.32458933  -0.00575212  1
  Ru4+  Ru101  1  0.49934487  0.33064293  0.25284236  1
  Ru4+  Ru102  1  0.50234238  0.32669959  0.49745827  1
  Ru4+  Ru103  1  0.49873573  0.31558460  0.75579485  1
  Ru4+  Ru104  1  0.49320290  0.67660477  0.00117059  1
  Ru4+  Ru105  1  0.50302552  0.67375049  0.24707739  1
  Ru4+  Ru106  1  0.49407935  0.66983104  0.50672323  1
  Ru4+  Ru107  1  0.50586028  0.68541342  0.74499912  1
  Ru4+  Ru108  1  0.11530458  0.15986769  -0.00336542  1
  Ru4+  Ru109  1  0.11637728  0.16427748  0.24817964  1
  Ru4+  Ru110  1  0.11486161  0.15848557  0.50372156  1
  Ru4+  Ru111  1  0.11065642  0.16742846  0.75125596  1
  Ru4+  Ru112  1  0.11073668  0.49859236  -0.00063577  1
  Ru4+  Ru113  1  0.11324392  0.50174361  0.25094214  1
  Ru4+  Ru114  1  0.10926835  0.50017841  0.50167150  1
  Ru4+  Ru115  1  0.11013343  0.50123521  0.75169674  1
  Ru4+  Ru116  1  0.11103464  0.83837702  0.00127362  1
  Ru4+  Ru117  1  0.11244774  0.82870225  0.25042445  1
  Ru4+  Ru118  1  0.11237398  0.83851836  0.50104938  1
  Ru4+  Ru119  1  0.11718050  0.83223515  0.74630659  1
  Ru4+  Ru120  1  0.61368097  0.17072385  -0.00288469  1
  Ru4+  Ru121  1  0.61067935  0.16817606  0.25285093  1
  Ru4+  Ru122  1  0.60793188  0.17282344  0.49887868  1
  Ru4+  Ru123  1  0.60631836  0.16679680  0.75672397  1
  Ru4+  Ru124  1  0.61520121  0.49796704  -0.00087474  1
  Ru4+  Ru125  1  0.60966650  0.49890589  0.25431677  1
  Ru4+  Ru126  1  0.61376976  0.49894105  0.49801592  1
  Ru4+  Ru127  1  0.61943274  0.49972155  0.75191148  1
  Ru4+  Ru128  1  0.61115494  0.83274666  -0.00120000  1
  Ru4+  Ru129  1  0.61410849  0.83230452  0.24812726  1
  Ru4+  Ru130  1  0.61131674  0.83282014  0.50094089  1
  Ru4+  Ru131  1  0.60249816  0.82467844  0.74958716  1
  Ru4+  Ru132  1  0.38615525  0.16400129  -0.00147403  1
  Ru4+  Ru133  1  0.38699873  0.17168684  0.25422896  1
  Ru4+  Ru134  1  0.39281817  0.16575036  0.49709020  1
  Ru4+  Ru135  1  0.39069978  0.16856857  0.75023999  1
  Ru4+  Ru136  1  0.38964215  0.49981294  -0.00280248  1
  Ru4+  Ru137  1  0.38565062  0.50357057  0.25205525  1
  Ru4+  Ru138  1  0.39164542  0.50224281  0.49816666  1
  Ru4+  Ru139  1  0.38706123  0.50535883  0.75137706  1
  Ru4+  Ru140  1  0.39388009  0.82757150  0.00022269  1
  Ru4+  Ru141  1  0.38499115  0.83781472  0.24985976  1
  Ru4+  Ru142  1  0.38782961  0.83195307  0.50180533  1
  Ru4+  Ru143  1  0.38547973  0.83065983  0.74897940  1
  Ru4+  Ru144  1  0.88872126  0.16554788  -0.00111218  1
  Ru4+  Ru145  1  0.88903802  0.16800799  0.24783352  1
  Ru4+  Ru146  1  0.88819945  0.16150288  0.49900799  1
  Ru4+  Ru147  1  0.89001335  0.16756238  0.74837564  1
  Ru4+  Ru148  1  0.89289453  0.50557286  -0.00427672  1
  Ru4+  Ru149  1  0.89098861  0.49581066  0.24954199  1
  Ru4+  Ru150  1  0.88630545  0.50042627  0.50081889  1
  Ru4+  Ru151  1  0.88830614  0.49520694  0.74911444  1
  Ru4+  Ru152  1  0.88588027  0.83018298  0.00042943  1
  Ru4+  Ru153  1  0.88876267  0.83754026  0.25043473  1
  Ru4+  Ru154  1  0.89171580  0.83376406  0.50075801  1
  Ru4+  Ru155  1  0.89014433  0.83042684  0.74771442  1
  Ru4+  Ru156  1  0.24922430  0.98112236  0.01603494  1
  Ru4+  Ru157  1  0.24967930  0.60978883  0.50413343  1
  Ru4+  Ru158  1  0.75058714  0.91066987  -0.00736775  1
  Ru4+  Ru159  1  0.25028434  0.39398615  0.01413890  1
  Ru4+  Ru160  1  0.24987133  0.30351891  0.75389016  1
  Ru4+  Ru161  1  0.75021620  0.56788370  0.00491500  1
  Ru4+  Ru162  1  0.24939518  0.91065309  0.24667421  1
  Ru4+  Ru163  1  0.74983828  0.92135992  0.74131932  1
  Ru4+  Ru164  1  0.74990971  0.60428195  0.27586818  1
  Ru4+  Ru165  1  0.24944472  0.75097004  0.50304652  1
  Ru4+  Ru166  1  0.74940884  0.05400267  0.78045010  1
  Ru4+  Ru167  1  0.25056431  0.75585869  0.25555634  1
  Ru4+  Ru168  1  0.75048857  0.01644898  0.48379398  1
  Ru4+  Ru169  1  0.24984721  0.69649622  0.00110392  1
  Ru4+  Ru170  1  0.25004409  0.43481136  0.75669064  1
  Ru4+  Ru171  1  0.24996605  0.02249792  0.76229231  1
  Ru4+  Ru172  1  0.74953004  0.76276420  -0.00194801  1
  Ru4+  Ru173  1  0.74978667  0.29533478  0.50965754  1
  Ru4+  Ru174  1  0.75020100  0.31190644  0.76607199  1
  Ru4+  Ru175  1  0.25028657  0.06089830  0.49934015  1
  Ru4+  Ru176  1  0.75041086  0.24659285  0.00228435  1
  Ru4+  Ru177  1  0.25074333  0.24891283  0.00781852  1
  Ru4+  Ru178  1  0.74851587  0.06503257  0.25145357  1
  Ru4+  Ru179  1  0.24952065  0.41135484  0.25753495  1
  O2-  O180  1  0.17083729  0.07908842  -0.00100442  1
  O2-  O181  1  0.16789533  0.08176188  0.25030680  1
  O2-  O182  1  0.16748623  0.07815231  0.50207982  1
  O2-  O183  1  0.16662598  0.07737168  0.74843543  1
  O2-  O184  1  0.16870154  0.41232151  -0.00003079  1
  O2-  O185  1  0.16468004  0.41300434  0.25106105  1
  O2-  O186  1  0.16317532  0.41236651  0.49869784  1
  O2-  O187  1  0.16627847  0.41679490  0.75087851  1
  O2-  O188  1  0.16730615  0.74408046  -0.00049534  1
  O2-  O189  1  0.16742230  0.74801585  0.24642202  1
  O2-  O190  1  0.16742367  0.74712404  0.49846840  1
  O2-  O191  1  0.16758596  0.74904278  0.75439792  1
  O2-  O192  1  0.66365000  0.08520146  0.00010584  1
  O2-  O193  1  0.66646153  0.07819656  0.25109350  1
  O2-  O194  1  0.66566115  0.07939013  0.49853186  1
  O2-  O195  1  0.66849239  0.07869246  0.74924192  1
  O2-  O196  1  0.66579336  0.41678677  0.00461049  1
  O2-  O197  1  0.66243662  0.41307418  0.24930966  1
  O2-  O198  1  0.66460364  0.41443061  0.50066553  1
  O2-  O199  1  0.66855388  0.41505865  0.74971532  1
  O2-  O200  1  0.66786072  0.75012397  -0.00114097  1
  O2-  O201  1  0.67120787  0.74962374  0.25027162  1
  O2-  O202  1  0.66249273  0.74975365  0.49829350  1
  O2-  O203  1  0.66078423  0.74661851  0.75007233  1
  O2-  O204  1  0.33448017  0.25372102  -0.00026708  1
  O2-  O205  1  0.33221331  0.24946831  0.25281105  1
  O2-  O206  1  0.34287617  0.25596560  0.50134042  1
  O2-  O207  1  0.33163951  0.25789781  0.75128200  1
  O2-  O208  1  0.33634458  0.59039105  0.00067694  1
  O2-  O209  1  0.33604447  0.58515928  0.25044918  1
  O2-  O210  1  0.33069304  0.58885436  0.50160087  1
  O2-  O211  1  0.33340037  0.58451546  0.75021056  1
  O2-  O212  1  0.33513689  0.91966149  0.00085892  1
  O2-  O213  1  0.33001964  0.91892941  0.24936056  1
  O2-  O214  1  0.33705682  0.91690999  0.50174489  1
  O2-  O215  1  0.33506791  0.92061490  0.75145154  1
  O2-  O216  1  0.83132266  0.24734889  0.00232639  1
  O2-  O217  1  0.84016942  0.25454132  0.25120912  1
  O2-  O218  1  0.83315967  0.25596319  0.50063831  1
  O2-  O219  1  0.83371504  0.25482407  0.74889583  1
  O2-  O220  1  0.82894679  0.58314444  0.00252863  1
  O2-  O221  1  0.83180675  0.58440917  0.25065155  1
  O2-  O222  1  0.83775834  0.58382452  0.50049728  1
  O2-  O223  1  0.83563496  0.57862601  0.74914227  1
  O2-  O224  1  0.83231727  0.91904298  0.00216642  1
  O2-  O225  1  0.83596699  0.92231059  0.25143544  1
  O2-  O226  1  0.83408778  0.92302559  0.49724640  1
  O2-  O227  1  0.83392380  0.92013374  0.74773804  1
  O2-  O228  1  0.16841024  0.25142555  0.00026469  1
  O2-  O229  1  0.16348644  0.25246373  0.25000101  1
  O2-  O230  1  0.15745772  0.25527391  0.50094191  1
  O2-  O231  1  0.16568378  0.25657176  0.74938694  1
  O2-  O232  1  0.16216711  0.59131389  0.00027732  1
  O2-  O233  1  0.16300822  0.58481979  0.24869819  1
  O2-  O234  1  0.16578398  0.58703230  0.50011022  1
  O2-  O235  1  0.16527350  0.58337284  0.75395980  1
  O2-  O236  1  0.16810042  0.92152837  0.00054844  1
  O2-  O237  1  0.16770002  0.91907437  0.25129195  1
  O2-  O238  1  0.16455066  0.91911813  0.50205357  1
  O2-  O239  1  0.16958853  0.92145710  0.75001225  1
  O2-  O240  1  0.67091338  0.24926814  -0.00158706  1
  O2-  O241  1  0.66083390  0.25362322  0.25227721  1
  O2-  O242  1  0.66913716  0.25567599  0.50237163  1
  O2-  O243  1  0.67191972  0.25244591  0.74318359  1
  O2-  O244  1  0.66705118  0.58515728  0.00027564  1
  O2-  O245  1  0.66731424  0.58672583  0.25033180  1
  O2-  O246  1  0.66320217  0.58313613  0.49592178  1
  O2-  O247  1  0.66771704  0.58257898  0.75027197  1
  O2-  O248  1  0.66635205  0.91696410  0.00166496  1
  O2-  O249  1  0.66514180  0.92018996  0.24948904  1
  O2-  O250  1  0.67064925  0.92079674  0.49817088  1
  O2-  O251  1  0.66553077  0.91667123  0.74925400  1
  O2-  O252  1  0.33553545  0.07919377  0.00161472  1
  O2-  O253  1  0.33814985  0.08214860  0.24927339  1
  O2-  O254  1  0.33165600  0.07950718  0.50123539  1
  O2-  O255  1  0.33360403  0.07640505  0.75144780  1
  O2-  O256  1  0.33479663  0.41286220  -0.00122060  1
  O2-  O257  1  0.33329199  0.41262626  0.25193192  1
  O2-  O258  1  0.34028193  0.41325962  0.50112470  1
  O2-  O259  1  0.33537398  0.41439993  0.75100691  1
  O2-  O260  1  0.33048795  0.74439730  -0.00125870  1
  O2-  O261  1  0.33082126  0.74957807  0.24759502  1
  O2-  O262  1  0.33028546  0.74728228  0.49770069  1
  O2-  O263  1  0.33350133  0.74898557  0.75219954  1
  O2-  O264  1  0.83512376  0.08566747  0.00433742  1
  O2-  O265  1  0.83012276  0.07959022  0.25412781  1
  O2-  O266  1  0.83349697  0.07672600  0.49926146  1
  O2-  O267  1  0.83083079  0.07800159  0.74839303  1
  O2-  O268  1  0.83881855  0.41947709  0.00226855  1
  O2-  O269  1  0.83816905  0.41064749  0.25032214  1
  O2-  O270  1  0.83711505  0.41440325  0.50036210  1
  O2-  O271  1  0.83192451  0.41540474  0.74889759  1
  O2-  O272  1  0.83148945  0.75012077  -0.00019413  1
  O2-  O273  1  0.82995949  0.74822096  0.25113996  1
  O2-  O274  1  0.83744814  0.74784485  0.50098144  1
  O2-  O275  1  0.84140977  0.74475630  0.74478198  1
  O2-  O276  1  0.53687437  0.21678313  0.74054350  1
  O2-  O277  1  0.05790396  0.24828234  0.02526453  1
  O2-  O278  1  0.53172730  0.21763285  0.95603919  1
  O2-  O279  1  0.05006860  0.23723907  0.48018013  1
  O2-  O280  1  0.55230765  0.09191235  0.01616009  1
  O2-  O281  1  0.44610995  0.76272203  0.76825531  1
  O2-  O282  1  0.54212841  0.43206868  0.49593472  1
  O2-  O283  1  0.95012555  0.42009798  0.99101726  1
  O2-  O284  1  0.43822876  0.25396295  0.72428949  1
  O2-  O285  1  0.54187224  0.57427499  0.75899656  1
  O2-  O286  1  0.55249421  0.09715115  0.50898347  1
  O2-  O287  1  0.45573611  0.78323163  0.24047176  1
  O2-  O288  1  0.04377128  0.24414222  0.75990076  1
  O2-  O289  1  0.54992196  0.43106049  0.72515953  1
  O2-  O290  1  0.44458230  0.08143019  0.51810497  1
  O2-  O291  1  0.53773318  0.22096712  0.73314711  1
  O2-  O292  1  0.52912719  0.80975449  0.72297316  1
  O2-  O293  1  0.04711789  0.09641316  0.75554084  1
  O2-  O294  1  0.54395477  0.77884935  0.29187271  1
  O2-  O295  1  0.04976696  0.24316264  0.26040069  1
  O2-  O296  1  0.04677217  0.09326765  0.52082244  1
  O2-  O297  1  0.95347689  0.23538875  0.04850319  1
  O2-  O298  1  0.46622451  0.20517027  0.29100919  1
  O2-  O299  1  0.94908295  0.23754775  0.49360517  1
  O2-  O300  1  0.03578114  0.54732214  0.78543896  1
  O2-  O301  1  0.45130805  0.43370442  0.24214569  1
  O2-  O302  1  0.04567561  0.76485475  0.51576805  1
  O2-  O303  1  0.54317713  0.57241727  0.26829995  1
  O2-  O304  1  0.97620346  0.54208370  0.97432323  1
  O2-  O305  1  0.54828246  0.57710941  0.00833983  1
  O2-  O306  1  0.95347417  0.90432447  0.98950987  1
  O2-  O307  1  0.54793570  0.76455260  0.99372872  1
  O2-  O308  1  0.54860807  0.09188298  0.23857286  1
  O2-  O309  1  0.04867598  0.23915023  0.51948777  1
  O2-  O310  1  0.54472958  0.43088856  0.01051452  1
  O2-  O311  1  0.45354164  0.23849702  0.48920564  1
  O2-  O312  1  0.04547466  0.90300108  0.26805898  1
  O2-  O313  1  0.94613005  0.09202850  0.23440192  1
  O2-  O314  1  0.04552241  0.76460550  0.99491236  1
  O2-  O315  1  0.54524082  0.57544154  0.51812952  1
  O2-  O316  1  0.54110265  0.43691138  0.76102681  1
  O2-  O317  1  0.53968511  0.88458947  0.52513018  1
  O2-  O318  1  0.05784136  0.57168950  0.98860881  1
  O2-  O319  1  0.04157990  0.11491620  0.95585893  1
  O2-  O320  1  0.95557666  0.10417929  0.04278910  1
  O2-  O321  1  0.54281210  0.78987489  0.25498309  1
  O2-  O322  1  0.95296019  0.90393437  0.75882178  1
  O2-  O323  1  0.95471279  0.10433712  0.25499232  1
  O2-  O324  1  0.56359825  0.92785398  0.78771408  1
  O2-  O325  1  0.93469960  0.41999505  0.31653748  1
  O2-  O326  1  0.93550888  0.07517459  0.72529162  1
  O2-  O327  1  0.94066984  0.40611315  0.67538460  1
  O2-  O328  1  0.57975857  0.26897788  0.04852300  1
  O2-  O329  1  0.43556313  0.25597652  0.72544823  1
  O2-  O330  1  0.43878706  0.58986867  0.96739857  1
  O2-  O331  1  0.93000078  0.06842868  0.28521895  1
  O2-  O332  1  0.44144930  0.59711436  0.78380221  1
  O2-  O333  1  0.07732852  0.06225342  0.05198924  1
  O2-  O334  1  0.06465826  0.92416990  0.77138036  1
  O2-  O335  1  0.91344247  0.60382614  0.93361338  1
  O2-  O336  1  0.42215937  0.71814209  0.22444976  1
  O2-  O337  1  0.06452130  0.40805903  0.02520827  1
  O2-  O338  1  0.05911194  0.74530743  0.71550289  1
  O2-  O339  1  0.43221245  0.92581560  0.27357591  1
  O2-  O340  1  0.43714672  0.07080613  0.53007070  1
  O2-  O341  1  0.05958104  0.40586028  0.53528838  1
  O2-  O342  1  0.57103485  0.70684305  0.67852633  1
  O2-  O343  1  0.56238350  0.26908271  0.57137378  1
  O2-  O344  1  0.06557270  0.06802099  0.28848625  1
  O2-  O345  1  0.92914634  0.27483036  0.93033299  1
  O2-  O346  1  0.43664896  0.74253245  0.92517382  1
  O2-  O347  1  0.06857799  0.60347360  0.68668688  1
  O2-  O348  1  0.93476108  0.58331980  0.31237990  1
  O2-  O349  1  0.56424938  0.40853983  0.27484595  1
  O2-  O350  1  0.43636396  0.59308800  0.46598955  1
  O2-  O351  1  0.56523140  0.73053464  0.83187257  1
  O2-  O352  1  0.57508372  0.69314530  0.18803783  1
  O2-  O353  1  0.56066795  0.07610113  0.82045205  1
  O2-  O354  1  0.92956706  0.05232538  0.93016199  1
  O2-  O355  1  0.58953861  0.29381657  0.80061435  1
  O2-  O356  1  0.57073281  0.24802577  0.43685627  1
  O2-  O357  1  0.05877268  0.24997256  0.02610024  1
  O2-  O358  1  0.56364040  0.58219963  0.77678530  1
  O2-  O359  1  0.57168555  0.93182267  0.46264949  1
  O2-  O360  1  0.56997529  0.07726871  0.68957481  1
  O2-  O361  1  0.43357983  0.74969538  0.06345603  1
  O2-  O362  1  0.91813986  0.58378672  0.07556443  1
  O2-  O363  1  0.93582539  0.74611587  0.22985656  1
  O2-  O364  1  0.56123976  0.06866566  0.04260353  1
  O2-  O365  1  0.43644243  0.74513290  0.52248383  1
  O2-  O366  1  0.06406476  0.40138803  0.77940822  1
  O2-  O367  1  0.93881807  0.59468283  0.71240135  1
  O2-  O368  1  0.93595847  0.40690357  0.17568831  1
  O2-  O369  1  0.42504288  0.27191607  0.20047110  1
  O2-  O370  1  0.93494670  0.58591306  0.19438525  1
  O2-  O371  1  0.93962810  0.40480998  0.81679596  1
  O2-  O372  1  0.25042512  0.32762477  0.89774746  1
  O2-  O373  1  0.74854976  0.66600227  0.38451974  1
  O2-  O374  1  0.75100346  0.32866438  0.14506693  1
  O2-  O375  1  0.75010444  0.00148334  0.60778302  1
  O2-  O376  1  0.24999160  0.66464513  0.62786806  1
  O2-  O377  1  0.74964233  0.32909260  0.32199330  1
  O2-  O378  1  0.25086538  0.67027957  0.34602608  1
  O2-  O379  1  0.74980358  0.66675550  0.92693956  1
  O2-  O380  1  0.25077288  -0.00836661  0.14851321  1
  O2-  O381  1  0.75027208  -0.01759210  0.16558749  1
  O2-  O382  1  0.75088920  0.66486743  0.66917131  1
  O2-  O383  1  0.24951325  0.33922101  0.39155946  1
  O2-  O384  1  0.75056394  0.35703843  0.40872208  1
  O2-  O385  1  0.24954226  0.33485660  0.15070791  1
  O2-  O386  1  0.74933154  -0.00172723  0.07644516  1
  O2-  O387  1  0.74958371  -0.00330778  0.90123737  1
  O2-  O388  1  0.74987222  0.33960549  0.62454663  1
  O2-  O389  1  0.74904145  0.66382407  0.83378286  1
  O2-  O390  1  0.24981361  0.32996909  0.61076467  1
  O2-  O391  1  0.74987273  0.67307237  0.09083605  1
  O2-  O392  1  0.25068995  0.00083751  0.89066921  1
  O2-  O393  1  0.75108191  0.67122918  0.57790942  1
  O2-  O394  1  0.75014332  0.32522285  0.90413453  1
  O2-  O395  1  0.24996191  -0.00303373  0.40059166  1
  O2-  O396  1  0.75011941  0.84051746  0.89199071  1
  O2-  O397  1  0.24960557  0.13743764  0.59454384  1
  O2-  O398  1  0.74949666  0.50517736  0.91657722  1
  O2-  O399  1  0.24961302  0.83561193  0.34259709  1
  O2-  O400  1  0.25003043  0.50071765  0.66725339  1
  O2-  O401  1  0.25088726  0.15842802  0.94628694  1
  O2-  O402  1  0.24965284  0.15088535  0.39052619  1
  O2-  O403  1  0.24983879  0.83798135  0.58219645  1
  O2-  O404  1  0.24961276  0.51343939  0.40618033  1
  O2-  O405  1  0.74970992  0.84111590  0.35746197  1
  O2-  O406  1  0.25035523  0.48512923  0.85824083  1
  O2-  O407  1  0.75047374  0.49999045  0.66438363  1
  O2-  O408  1  0.74969963  0.16251009  0.13010224  1
  O2-  O409  1  0.75021803  0.16754160  0.85982543  1
  O2-  O410  1  0.74962056  0.51845887  0.11217923  1
  O2-  O411  1  0.75021809  0.50030374  0.58440059  1
  O2-  O412  1  0.25022773  0.50535875  0.18583947  1
  O2-  O413  1  0.25000315  0.16817344  0.86021794  1
  O2-  O414  1  0.24999405  0.83239264  0.66606653  1
  O2-  O415  1  0.24967677  0.16616268  0.30318053  1
  O2-  O416  1  0.75027113  0.84992648  0.63414923  1
  O2-  O417  1  0.25023772  0.47961355  0.10229862  1
  O2-  O418  1  0.24998905  0.50605729  0.31890275  1
  O2-  O419  1  0.75008422  0.51920824  0.36710698  1
  O2-  O420  1  0.95868715  0.68881600  0.85691008  1
  O2-  O421  1  0.04786148  0.66367631  0.36936369  1
  O2-  O422  1  0.97837193  0.32657176  0.38021558  1
  O2-  O423  1  0.95422487  -0.01398327  0.12359600  1
  O2-  O424  1  0.97721060  -0.00739338  0.62092688  1
  O2-  O425  1  0.51892518  -0.00890770  0.62298051  1
  O2-  O426  1  0.05091132  0.66401507  0.13498751  1
  O2-  O427  1  0.47137293  0.65101028  0.63160641  1
  O2-  O428  1  0.96794946  0.69104626  0.11174560  1
  O2-  O429  1  0.46470576  0.34175242  0.37502716  1
  O2-  O430  1  0.97496066  -0.01372145  0.38022321  1
  O2-  O431  1  0.04754967  0.67429663  0.87360439  1
  O2-  O432  1  0.04319369  -0.01773205  0.14233489  1
  O2-  O433  1  0.52406765  0.33497242  0.37117346  1
  O2-  O434  1  0.47060410  0.00605115  0.37898426  1
  O2-  O435  1  0.52823239  0.00710411  0.36571378  1
  O2-  O436  1  0.02437442  -0.00460746  0.88034437  1
  O2-  O437  1  0.51750106  0.34927873  0.88076642  1
  O2-  O438  1  0.47835610  0.64343361  0.12597147  1
  O2-  O439  1  0.02447868  0.33221164  0.13365217  1
  O2-  O440  1  0.45603848  0.34614348  0.09549940  1
  O2-  O441  1  0.47155856  0.00064936  0.12900359  1
  O2-  O442  1  0.54218994  0.33932882  0.14902289  1
  O2-  O443  1  0.95639664  0.68460550  0.39034718  1
