# generated using pymatgen
data_La7(Ru4O11)2
_symmetry_space_group_name_H-M   'P 1'
_cell_length_a   23.98974251
_cell_length_b   16.82898290
_cell_length_c   15.42633721
_cell_angle_alpha   90.00010101
_cell_angle_beta   90.00026626
_cell_angle_gamma   90.00092634
_symmetry_Int_Tables_number   1
_chemical_formula_structural   La7(Ru4O11)2
_chemical_formula_sum   'La84 Ru96 O264'
_cell_volume   6227.96662072
_cell_formula_units_Z   12
loop_
 _symmetry_equiv_pos_site_id
 _symmetry_equiv_pos_as_xyz
  1  'x, y, z'
loop_
 _atom_type_symbol
 _atom_type_oxidation_number
  La3+  3.0
  Ru4+  4.0
  O2-  -2.0
loop_
 _atom_site_type_symbol
 _atom_site_label
 _atom_site_symmetry_multiplicity
 _atom_site_fract_x
 _atom_site_fract_y
 _atom_site_fract_z
 _atom_site_occupancy
  La3+  La0  1  0.13766115  -0.00044161  0.12506361  1
  La3+  La1  1  0.13818016  0.00040051  0.37590481  1
  La3+  La2  1  0.13522716  -0.00502210  0.62989559  1
  La3+  La3  1  0.13475386  -0.00421357  0.86987542  1
  La3+  La4  1  0.14108486  0.33314764  0.12389642  1
  La3+  La5  1  0.13884160  0.33299244  0.37529190  1
  La3+  La6  1  0.13867277  0.33395857  0.62577730  1
  La3+  La7  1  0.14297835  0.33258650  0.87749727  1
  La3+  La8  1  0.13917718  0.66685742  0.12459958  1
  La3+  La9  1  0.13889464  0.66784198  0.37625698  1
  La3+  La10  1  0.14003588  0.66622832  0.62237114  1
  La3+  La11  1  0.13741229  0.66673810  0.87655898  1
  La3+  La12  1  0.63651860  0.00043503  0.12402583  1
  La3+  La13  1  0.63791977  -0.00041457  0.37617193  1
  La3+  La14  1  0.63903058  0.00032047  0.62507171  1
  La3+  La15  1  0.63765594  0.00129427  0.87589012  1
  La3+  La16  1  0.63422319  0.33029178  0.12162810  1
  La3+  La17  1  0.63817406  0.33211310  0.37551062  1
  La3+  La18  1  0.63947297  0.33223496  0.62307683  1
  La3+  La19  1  0.63471171  0.32862603  0.88128723  1
  La3+  La20  1  0.63643663  0.66579495  0.12553388  1
  La3+  La21  1  0.64083102  0.66561142  0.37474068  1
  La3+  La22  1  0.64334485  0.66681999  0.62589160  1
  La3+  La23  1  0.64220889  0.66597381  0.87572349  1
  La3+  La24  1  0.36215627  0.00008477  0.12419889  1
  La3+  La25  1  0.36171977  -0.00080203  0.37680117  1
  La3+  La26  1  0.35906723  0.00065903  0.62356590  1
  La3+  La27  1  0.36180702  0.00026692  0.87512806  1
  La3+  La28  1  0.35841366  0.33325221  0.12317704  1
  La3+  La29  1  0.35946159  0.33378142  0.37524313  1
  La3+  La30  1  0.36735202  0.33881001  0.63458671  1
  La3+  La31  1  0.36110279  0.33776973  0.87010269  1
  La3+  La32  1  0.35997233  0.66737102  0.12548375  1
  La3+  La33  1  0.36130154  0.66761454  0.37692445  1
  La3+  La34  1  0.35997367  0.66632200  0.62235318  1
  La3+  La35  1  0.36280134  0.66719761  0.87617639  1
  La3+  La36  1  0.86433857  -0.00158008  0.12488935  1
  La3+  La37  1  0.86132702  0.00070619  0.37486923  1
  La3+  La38  1  0.85895356  0.00078083  0.62610362  1
  La3+  La39  1  0.86033827  -0.00033470  0.87469764  1
  La3+  La40  1  0.86291531  0.33272745  0.12566788  1
  La3+  La41  1  0.85779483  0.33278353  0.37375409  1
  La3+  La42  1  0.86026937  0.33387440  0.62434398  1
  La3+  La43  1  0.86350765  0.33367682  0.87515209  1
  La3+  La44  1  0.86255345  0.66592505  0.12388003  1
  La3+  La45  1  0.86105166  0.66798310  0.37657744  1
  La3+  La46  1  0.85868929  0.66619510  0.62592505  1
  La3+  La47  1  0.86044541  0.66518896  0.87581214  1
  La3+  La48  1  -0.00054419  0.50154063  0.88411520  1
  La3+  La49  1  -0.00074429  0.49915980  0.61794151  1
  La3+  La50  1  0.00008857  0.16496913  0.85942400  1
  La3+  La51  1  0.50233422  0.16485136  0.11045888  1
  La3+  La52  1  0.50002167  0.50121758  0.64012704  1
  La3+  La53  1  0.50323833  0.16804229  0.12723173  1
  La3+  La54  1  0.49752910  0.49380618  0.87887523  1
  La3+  La55  1  -0.00006129  0.16698964  0.61426633  1
  La3+  La56  1  0.49994699  0.16729812  0.38914378  1
  La3+  La57  1  -0.00056964  0.83228343  0.86381473  1
  La3+  La58  1  0.49974687  0.83507135  0.61441839  1
  La3+  La59  1  0.49696093  0.49417942  0.61983751  1
  La3+  La60  1  0.00668854  0.83590299  0.88288764  1
  La3+  La61  1  0.50173440  0.50071401  0.36684028  1
  La3+  La62  1  0.50121252  0.16685820  0.36734133  1
  La3+  La63  1  0.00072241  0.50051256  0.36702910  1
  La3+  La64  1  0.50120006  0.50071596  0.13315397  1
  La3+  La65  1  0.49814036  0.83531874  0.13966556  1
  La3+  La66  1  -0.00324704  0.16525092  0.12204503  1
  La3+  La67  1  0.00111976  0.50231632  0.11312605  1
  La3+  La68  1  0.50302551  0.16556777  0.87899405  1
  La3+  La69  1  0.50142528  0.83241695  0.88798640  1
  La3+  La70  1  0.00244327  0.83635329  0.62140361  1
  La3+  La71  1  -0.00197365  0.49843402  0.38917806  1
  La3+  La72  1  0.24891976  0.46404797  -0.00156932  1
  La3+  La73  1  0.74974664  0.20104196  0.23078289  1
  La3+  La74  1  0.75009210  0.78033370  -0.01153842  1
  La3+  La75  1  0.75007050  0.83063532  0.76426944  1
  La3+  La76  1  0.25036160  0.86638500  0.78627875  1
  La3+  La77  1  0.74961324  0.50041840  0.25199631  1
  La3+  La78  1  0.24966657  0.22136945  0.25403508  1
  La3+  La79  1  0.75017788  0.86182750  0.29831811  1
  La3+  La80  1  0.24997940  0.49920169  0.26969251  1
  La3+  La81  1  0.25017295  0.20065732  0.73808894  1
  La3+  La82  1  0.74989264  0.54044471  0.78693898  1
  La3+  La83  1  0.25022648  0.16673247  0.48814626  1
  Ru4+  Ru84  1  0.00453399  0.00336197  0.00375323  1
  Ru4+  Ru85  1  0.00019272  0.00219158  0.24672598  1
  Ru4+  Ru86  1  0.00118416  0.00099915  0.50228659  1
  Ru4+  Ru87  1  0.00263757  -0.00088978  0.74724846  1
  Ru4+  Ru88  1  -0.00253700  0.33882703  0.00094743  1
  Ru4+  Ru89  1  0.00065750  0.33089719  0.24908401  1
  Ru4+  Ru90  1  -0.00203162  0.32821334  0.49620992  1
  Ru4+  Ru91  1  0.00256155  0.32868010  0.74982799  1
  Ru4+  Ru92  1  0.00010635  0.66713926  0.00034613  1
  Ru4+  Ru93  1  -0.00080074  0.67115718  0.25056390  1
  Ru4+  Ru94  1  -0.00217482  0.67026376  0.49896976  1
  Ru4+  Ru95  1  0.00222793  0.67114763  0.74867358  1
  Ru4+  Ru96  1  0.49782499  -0.00595174  -0.00019567  1
  Ru4+  Ru97  1  0.50073601  -0.00065111  0.25114820  1
  Ru4+  Ru98  1  0.50193642  0.00032281  0.49700289  1
  Ru4+  Ru99  1  0.50297778  0.00224767  0.75261196  1
  Ru4+  Ru100  1  0.50078396  0.33491123  0.00211142  1
  Ru4+  Ru101  1  0.50234413  0.33240540  0.24956758  1
  Ru4+  Ru102  1  0.49829601  0.33191687  0.49924611  1
  Ru4+  Ru103  1  0.49645844  0.33090255  0.74601405  1
  Ru4+  Ru104  1  0.50618633  0.67284103  -0.00426103  1
  Ru4+  Ru105  1  0.49832912  0.66201876  0.25339072  1
  Ru4+  Ru106  1  0.50330877  0.67048008  0.49748615  1
  Ru4+  Ru107  1  0.49978775  0.66607151  0.75070524  1
  Ru4+  Ru108  1  0.11661596  0.16552919  0.00143089  1
  Ru4+  Ru109  1  0.11014470  0.16502644  0.25074332  1
  Ru4+  Ru110  1  0.11200680  0.16633805  0.50064143  1
  Ru4+  Ru111  1  0.11087094  0.16447282  0.74959757  1
  Ru4+  Ru112  1  0.11077558  0.49909828  -0.00001956  1
  Ru4+  Ru113  1  0.11395136  0.50015476  0.24886464  1
  Ru4+  Ru114  1  0.11486974  0.49981519  0.50104073  1
  Ru4+  Ru115  1  0.11366066  0.49789631  0.74983539  1
  Ru4+  Ru116  1  0.11298639  0.83212158  0.00003619  1
  Ru4+  Ru117  1  0.11335692  0.83280122  0.25008063  1
  Ru4+  Ru118  1  0.11326414  0.83139292  0.50137443  1
  Ru4+  Ru119  1  0.10953411  0.83428486  0.74926844  1
  Ru4+  Ru120  1  0.61492038  0.17093310  0.00094351  1
  Ru4+  Ru121  1  0.60836698  0.16745160  0.24857615  1
  Ru4+  Ru122  1  0.61269464  0.16712168  0.49992480  1
  Ru4+  Ru123  1  0.61218658  0.16562775  0.74956406  1
  Ru4+  Ru124  1  0.61335273  0.50087306  -0.00029253  1
  Ru4+  Ru125  1  0.61224862  0.49955772  0.24912471  1
  Ru4+  Ru126  1  0.61318185  0.50089529  0.49948708  1
  Ru4+  Ru127  1  0.61223103  0.50097061  0.74955500  1
  Ru4+  Ru128  1  0.61190286  0.83333358  -0.00154583  1
  Ru4+  Ru129  1  0.61378635  0.83818719  0.24863843  1
  Ru4+  Ru130  1  0.61198845  0.82993502  0.49881863  1
  Ru4+  Ru131  1  0.61204136  0.83358438  0.75000883  1
  Ru4+  Ru132  1  0.38427189  0.16819028  -0.00007856  1
  Ru4+  Ru133  1  0.38795612  0.16525976  0.24957344  1
  Ru4+  Ru134  1  0.38911767  0.16699383  0.49838336  1
  Ru4+  Ru135  1  0.38779849  0.16719961  0.74904743  1
  Ru4+  Ru136  1  0.38062931  0.49065776  -0.00129800  1
  Ru4+  Ru137  1  0.38815498  0.50195345  0.25018076  1
  Ru4+  Ru138  1  0.38706910  0.49872409  0.50106670  1
  Ru4+  Ru139  1  0.38872402  0.49726005  0.75118223  1
  Ru4+  Ru140  1  0.38704577  0.83071212  0.00002961  1
  Ru4+  Ru141  1  0.38824822  0.83352335  0.25095968  1
  Ru4+  Ru142  1  0.38735969  0.83070163  0.49950231  1
  Ru4+  Ru143  1  0.38822559  0.83275570  0.74890978  1
  Ru4+  Ru144  1  0.88661435  0.16881352  0.00084411  1
  Ru4+  Ru145  1  0.89006607  0.16792267  0.24886049  1
  Ru4+  Ru146  1  0.88782816  0.17230112  0.49940237  1
  Ru4+  Ru147  1  0.88765533  0.16461647  0.75031106  1
  Ru4+  Ru148  1  0.88603537  0.50189480  0.00055064  1
  Ru4+  Ru149  1  0.88679081  0.49870522  0.24943475  1
  Ru4+  Ru150  1  0.88699612  0.50035490  0.50096737  1
  Ru4+  Ru151  1  0.88348879  0.50013163  0.75074885  1
  Ru4+  Ru152  1  0.88596299  0.82894656  0.00183173  1
  Ru4+  Ru153  1  0.88945217  0.83134335  0.25115625  1
  Ru4+  Ru154  1  0.88672367  0.82935022  0.49895447  1
  Ru4+  Ru155  1  0.88700051  0.83518391  0.74792466  1
  Ru4+  Ru156  1  0.24995798  0.60502954  -0.00848223  1
  Ru4+  Ru157  1  0.25024531  0.91036697  -0.00121692  1
  Ru4+  Ru158  1  0.74946854  0.39807976  0.75738525  1
  Ru4+  Ru159  1  0.74996904  0.41371292  0.49357366  1
  Ru4+  Ru160  1  0.24961019  0.75497518  0.24837749  1
  Ru4+  Ru161  1  0.74976238  0.06457486  0.24151209  1
  Ru4+  Ru162  1  0.75009781  0.41698816  0.00071164  1
  Ru4+  Ru163  1  0.24967657  0.57506655  0.74548832  1
  Ru4+  Ru164  1  0.24993465  0.06012391  0.75166194  1
  Ru4+  Ru165  1  0.74990921  0.24483876  0.75448911  1
  Ru4+  Ru166  1  0.75013349  0.59030202  0.49956041  1
  Ru4+  Ru167  1  0.25003225  0.08730574  -0.01200374  1
  Ru4+  Ru168  1  0.75009619  0.91111814  0.49797005  1
  Ru4+  Ru169  1  0.24992013  0.90458972  0.24617879  1
  Ru4+  Ru170  1  0.25001529  0.72804702  0.75182235  1
  Ru4+  Ru171  1  0.75005867  0.08611722  0.75450330  1
  Ru4+  Ru172  1  0.25020905  0.41762141  0.49918145  1
  Ru4+  Ru173  1  0.75014959  0.72512204  0.24972992  1
  Ru4+  Ru174  1  0.74968318  0.09315803  0.49761602  1
  Ru4+  Ru175  1  0.24980057  0.91785128  0.50350158  1
  Ru4+  Ru176  1  0.74988689  0.94049333  -0.00107196  1
  Ru4+  Ru177  1  0.75055584  0.25155142  -0.00011189  1
  Ru4+  Ru178  1  0.75023562  0.08259477  -0.00297887  1
  Ru4+  Ru179  1  0.24996391  0.07668857  0.25152400  1
  O2-  O180  1  0.16642472  0.07974335  -0.00073874  1
  O2-  O181  1  0.16718607  0.07905007  0.24945996  1
  O2-  O182  1  0.16532761  0.08000547  0.50019107  1
  O2-  O183  1  0.16691851  0.07931123  0.74999073  1
  O2-  O184  1  0.16341657  0.41348571  -0.00057312  1
  O2-  O185  1  0.16714802  0.41394293  0.25210277  1
  O2-  O186  1  0.16932775  0.41462008  0.50151063  1
  O2-  O187  1  0.16565294  0.41397622  0.74949307  1
  O2-  O188  1  0.16750901  0.74763359  -0.00108443  1
  O2-  O189  1  0.16693341  0.74763319  0.25064500  1
  O2-  O190  1  0.16583334  0.74786319  0.50031378  1
  O2-  O191  1  0.16522690  0.74659782  0.75025506  1
  O2-  O192  1  0.66665068  0.08061270  0.00007814  1
  O2-  O193  1  0.66690200  0.07836572  0.24858502  1
  O2-  O194  1  0.66750335  0.08052654  0.49933524  1
  O2-  O195  1  0.66570402  0.08205312  0.75033356  1
  O2-  O196  1  0.66908941  0.41499385  0.00072109  1
  O2-  O197  1  0.67000303  0.41445935  0.25094714  1
  O2-  O198  1  0.66712077  0.41454024  0.49883675  1
  O2-  O199  1  0.66717624  0.41236500  0.75204275  1
  O2-  O200  1  0.66404203  0.74608828  0.00385845  1
  O2-  O201  1  0.66736058  0.74655450  0.24995424  1
  O2-  O202  1  0.66713599  0.75096951  0.50001576  1
  O2-  O203  1  0.66562392  0.74768953  0.75149887  1
  O2-  O204  1  0.33284274  0.24922415  0.00131423  1
  O2-  O205  1  0.33731366  0.25579576  0.25154331  1
  O2-  O206  1  0.33412670  0.25472549  0.50127490  1
  O2-  O207  1  0.33537470  0.25508532  0.74763747  1
  O2-  O208  1  0.33299345  0.58764165  -0.00037850  1
  O2-  O209  1  0.33311351  0.58661289  0.25175906  1
  O2-  O210  1  0.33266289  0.58683772  0.49939582  1
  O2-  O211  1  0.33382380  0.58587917  0.75073945  1
  O2-  O212  1  0.33214423  0.91900529  -0.00012164  1
  O2-  O213  1  0.33304974  0.91948507  0.25004030  1
  O2-  O214  1  0.33418281  0.91914972  0.49957045  1
  O2-  O215  1  0.33206023  0.92053693  0.75096605  1
  O2-  O216  1  0.83241522  0.25197653  -0.00031629  1
  O2-  O217  1  0.83357576  0.25352843  0.24986334  1
  O2-  O218  1  0.83179695  0.24969898  0.50051308  1
  O2-  O219  1  0.83261147  0.25311743  0.75099114  1
  O2-  O220  1  0.83259037  0.58429668  0.00230552  1
  O2-  O221  1  0.83132851  0.58594709  0.24856904  1
  O2-  O222  1  0.83215568  0.58625906  0.50035201  1
  O2-  O223  1  0.83429007  0.58617248  0.75049553  1
  O2-  O224  1  0.83230383  0.92004726  0.00026934  1
  O2-  O225  1  0.83407502  0.91969933  0.24904555  1
  O2-  O226  1  0.83324781  0.91931366  0.49976952  1
  O2-  O227  1  0.83206029  0.91911388  0.75055750  1
  O2-  O228  1  0.16721924  0.24971053  -0.00132929  1
  O2-  O229  1  0.16208033  0.25467618  0.25030664  1
  O2-  O230  1  0.16582312  0.25408540  0.50139687  1
  O2-  O231  1  0.16470801  0.25607858  0.74900775  1
  O2-  O232  1  0.16818531  0.58747589  -0.00139359  1
  O2-  O233  1  0.16746762  0.58713436  0.25155706  1
  O2-  O234  1  0.16691963  0.58607105  0.50024635  1
  O2-  O235  1  0.16738641  0.58659580  0.75091018  1
  O2-  O236  1  0.16734842  0.91880274  -0.00055734  1
  O2-  O237  1  0.16647054  0.91971232  0.24931896  1
  O2-  O238  1  0.16576083  0.91972622  0.50070342  1
  O2-  O239  1  0.16815225  0.92234871  0.74934091  1
  O2-  O240  1  0.66874005  0.25229959  0.00039277  1
  O2-  O241  1  0.66581747  0.25630589  0.25079587  1
  O2-  O242  1  0.66724253  0.25178530  0.49867264  1
  O2-  O243  1  0.66796880  0.25235409  0.75129885  1
  O2-  O244  1  0.66585169  0.58389645  0.00173013  1
  O2-  O245  1  0.66975965  0.58515159  0.24888636  1
  O2-  O246  1  0.66758046  0.58481184  0.49991887  1
  O2-  O247  1  0.66563751  0.58524279  0.75179588  1
  O2-  O248  1  0.66766713  0.91942969  0.00052127  1
  O2-  O249  1  0.66715158  0.91910508  0.24937156  1
  O2-  O250  1  0.66644148  0.91836662  0.49963822  1
  O2-  O251  1  0.66601539  0.91974998  0.75026822  1
  O2-  O252  1  0.33277627  0.08050893  -0.00020770  1
  O2-  O253  1  0.33308466  0.07958661  0.25082820  1
  O2-  O254  1  0.33417485  0.07993318  0.49881333  1
  O2-  O255  1  0.33147358  0.07984893  0.74998757  1
  O2-  O256  1  0.33150846  0.40945394  0.00107605  1
  O2-  O257  1  0.33290866  0.41305891  0.25180394  1
  O2-  O258  1  0.33195295  0.41450092  0.50175472  1
  O2-  O259  1  0.33041792  0.41458181  0.74780126  1
  O2-  O260  1  0.33318496  0.74829202  -0.00136252  1
  O2-  O261  1  0.33332391  0.74806235  0.25066842  1
  O2-  O262  1  0.33335878  0.74671817  0.49996998  1
  O2-  O263  1  0.33405431  0.74654666  0.75094319  1
  O2-  O264  1  0.83211709  0.08075657  -0.00031017  1
  O2-  O265  1  0.83360021  0.07934443  0.24891432  1
  O2-  O266  1  0.83449065  0.08166381  0.49906287  1
  O2-  O267  1  0.83310119  0.08178955  0.75055154  1
  O2-  O268  1  0.83134135  0.41441709  0.00024698  1
  O2-  O269  1  0.82952385  0.41525942  0.24786420  1
  O2-  O270  1  0.83340730  0.41465285  0.49929811  1
  O2-  O271  1  0.83325261  0.41364217  0.75181930  1
  O2-  O272  1  0.83698248  0.74582803  0.00259297  1
  O2-  O273  1  0.83133554  0.74586373  0.24924790  1
  O2-  O274  1  0.83337316  0.74982252  0.50043381  1
  O2-  O275  1  0.83445814  0.74791621  0.75132412  1
  O2-  O276  1  0.95414689  0.76407488  0.73246704  1
  O2-  O277  1  0.45754143  0.43897792  0.75498783  1
  O2-  O278  1  0.54438669  0.22579185  0.01106534  1
  O2-  O279  1  0.95137591  0.23387717  0.76189024  1
  O2-  O280  1  0.04658777  0.57007172  0.51556371  1
  O2-  O281  1  0.04829797  0.76702134  0.01498442  1
  O2-  O282  1  0.04621818  0.90126625  0.51467210  1
  O2-  O283  1  0.04906538  0.09018904  0.01630212  1
  O2-  O284  1  0.95590039  0.57105235  0.72953161  1
  O2-  O285  1  0.95506401  0.90131994  0.01787513  1
  O2-  O286  1  0.95508468  0.42846635  0.72974995  1
  O2-  O287  1  0.95212821  0.90691784  0.97936835  1
  O2-  O288  1  0.97674687  0.20025167  0.48081693  1
  O2-  O289  1  0.45481967  0.23603756  0.75972298  1
  O2-  O290  1  0.46197347  0.21336649  0.99988119  1
  O2-  O291  1  0.54783359  0.09558511  0.98715570  1
  O2-  O292  1  0.04716060  0.23567614  0.73449939  1
  O2-  O293  1  0.53100845  0.79789872  0.47923505  1
  O2-  O294  1  0.54852209  0.76246806  0.23226908  1
  O2-  O295  1  0.45516867  0.23397170  0.23857069  1
  O2-  O296  1  0.95354536  0.56863719  0.76857310  1
  O2-  O297  1  0.45438561  0.43314965  0.26426130  1
  O2-  O298  1  0.45545250  0.76170782  0.73320718  1
  O2-  O299  1  0.95020492  0.57088036  0.26161984  1
  O2-  O300  1  0.53679963  0.78170989  0.03229400  1
  O2-  O301  1  0.45050195  0.42832697  0.73138082  1
  O2-  O302  1  0.95381440  0.43039332  0.76897483  1
  O2-  O303  1  0.54511970  0.09786027  0.73861567  1
  O2-  O304  1  0.04098141  0.23105085  -0.01087384  1
  O2-  O305  1  0.45502574  0.56929308  0.48464541  1
  O2-  O306  1  0.45546977  0.23579409  0.73923131  1
  O2-  O307  1  0.95108570  0.76346201  0.98672798  1
  O2-  O308  1  0.44850157  0.76301366  0.48661995  1
  O2-  O309  1  0.95841744  0.11018911  0.96600446  1
  O2-  O310  1  0.54983580  0.23975113  0.98846294  1
  O2-  O311  1  0.95241319  0.10110010  0.23775099  1
  O2-  O312  1  0.04071496  0.23072506  0.98825434  1
  O2-  O313  1  0.45480783  0.90101563  0.01627067  1
  O2-  O314  1  0.04714557  0.57012748  0.23424245  1
  O2-  O315  1  0.04261931  0.89642362  0.75879899  1
  O2-  O316  1  0.04943977  0.42771141  0.26279914  1
  O2-  O317  1  0.95975096  0.44179494  0.21097526  1
  O2-  O318  1  0.05038895  0.90808925  0.73647865  1
  O2-  O319  1  0.54617511  0.56686467  0.98547253  1
  O2-  O320  1  0.44606684  0.54830243  -0.01354402  1
  O2-  O321  1  0.45317250  0.89963912  0.26324716  1
  O2-  O322  1  0.54364731  0.76631525  0.27048016  1
  O2-  O323  1  0.46166692  0.89357429  0.77835450  1
  O2-  O324  1  0.57231564  0.72460842  0.94364779  1
  O2-  O325  1  0.56425028  0.25768319  0.47112426  1
  O2-  O326  1  0.44472630  0.61029439  0.04805134  1
  O2-  O327  1  0.56626046  0.25957138  0.79303710  1
  O2-  O328  1  0.92565177  0.28600057  0.43496216  1
  O2-  O329  1  0.93586699  0.93059961  0.68834726  1
  O2-  O330  1  0.43628879  0.06934637  0.03466819  1
  O2-  O331  1  0.43694403  0.06968395  0.21700235  1
  O2-  O332  1  0.43568474  0.40795812  0.97090958  1
  O2-  O333  1  0.07748311  0.27755697  0.04196822  1
  O2-  O334  1  0.92856011  0.39155564  0.30590032  1
  O2-  O335  1  0.93194913  0.27526738  0.57241361  1
  O2-  O336  1  0.93420875  0.93209688  0.81261580  1
  O2-  O337  1  0.43330850  0.07474128  0.79700770  1
  O2-  O338  1  0.06501939  0.40431648  0.47439904  1
  O2-  O339  1  0.06499512  0.59255634  0.02749037  1
  O2-  O340  1  0.56414008  0.92894965  0.96646078  1
  O2-  O341  1  0.06744226  0.93482526  0.78386400  1
  O2-  O342  1  0.42066929  0.27704824  0.96291883  1
  O2-  O343  1  0.93618457  0.59057819  0.97326364  1
  O2-  O344  1  0.56375796  0.93282933  0.21646127  1
  O2-  O345  1  0.56461801  0.59180101  0.22313967  1
  O2-  O346  1  0.93625796  0.40646585  0.03260359  1
  O2-  O347  1  0.56287791  0.59100619  0.46847031  1
  O2-  O348  1  0.93355635  0.92511063  0.45539982  1
  O2-  O349  1  0.93556244  0.74183856  0.47383426  1
  O2-  O350  1  0.56259924  0.59800473  0.71771145  1
  O2-  O351  1  0.56501046  0.07516859  0.52660368  1
  O2-  O352  1  0.56411789  0.40553670  0.71755066  1
  O2-  O353  1  0.56517074  0.41006656  0.02897946  1
  O2-  O354  1  0.06615975  0.07277287  0.27583216  1
  O2-  O355  1  0.56472985  0.26126680  0.69995793  1
  O2-  O356  1  0.42782905  0.93231994  0.70725879  1
  O2-  O357  1  0.56794488  0.72577596  0.57444755  1
  O2-  O358  1  0.93679547  0.26409369  0.21671952  1
  O2-  O359  1  0.56218874  0.07172724  0.96807455  1
  O2-  O360  1  0.57297675  0.72184928  0.43200475  1
  O2-  O361  1  0.56452508  0.93070305  0.46622232  1
  O2-  O362  1  0.93472738  0.26048432  0.03385268  1
  O2-  O363  1  0.43126415  0.40211351  0.77634988  1
  O2-  O364  1  0.56561934  0.40892176  0.22416491  1
  O2-  O365  1  0.56402630  0.40478130  0.53348638  1
  O2-  O366  1  0.43301898  0.07643057  0.70361428  1
  O2-  O367  1  0.93426489  0.74029759  0.27661759  1
  O2-  O368  1  0.57117367  0.26455608  0.03210468  1
  O2-  O369  1  0.93531846  0.93015596  0.55146325  1
  O2-  O370  1  0.93604094  0.59552226  0.53494672  1
  O2-  O371  1  0.92674292  0.06383264  0.04434526  1
  O2-  O372  1  0.25001266  0.66406224  0.17292075  1
  O2-  O373  1  0.24998154  0.66360005  0.65031459  1
  O2-  O374  1  0.24988499  0.00156694  0.06820100  1
  O2-  O375  1  0.25029718  0.33567913  0.40710974  1
  O2-  O376  1  0.24936219  0.33711604  0.90395344  1
  O2-  O377  1  0.74999361  0.00167184  0.57681787  1
  O2-  O378  1  0.25008381  0.33443529  0.07998971  1
  O2-  O379  1  0.74997136  -0.00204777  0.67529772  1
  O2-  O380  1  0.24993670  0.00526485  0.42557007  1
  O2-  O381  1  0.25031918  0.33398983  0.17027581  1
  O2-  O382  1  0.75014814  0.66687302  0.40404351  1
  O2-  O383  1  0.75033243  -0.00785980  0.32824083  1
  O2-  O384  1  0.24984162  -0.00190382  0.90419105  1
  O2-  O385  1  0.75007334  0.66721057  0.90201145  1
  O2-  O386  1  0.75006481  0.33154259  0.57071022  1
  O2-  O387  1  0.24987304  -0.00759190  0.17011647  1
  O2-  O388  1  0.74998909  0.00147247  0.84672461  1
  O2-  O389  1  0.74974094  0.33401164  0.90515162  1
  O2-  O390  1  0.75062103  0.66237007  0.65137102  1
  O2-  O391  1  0.75006823  0.32569687  0.66902521  1
  O2-  O392  1  0.24966426  -0.00096630  0.59595101  1
  O2-  O393  1  0.24985245  -0.00790682  0.33231070  1
  O2-  O394  1  0.75020514  0.00171490  0.42506379  1
  O2-  O395  1  0.25007604  0.67544128  0.08336433  1
  O2-  O396  1  0.75003861  0.16099793  0.36543453  1
  O2-  O397  1  0.24994669  0.16460716  0.61227607  1
  O2-  O398  1  0.74985305  0.82089828  0.17342048  1
  O2-  O399  1  0.25007911  0.50137975  0.13818538  1
  O2-  O400  1  0.24997196  0.17288122  0.06131627  1
  O2-  O401  1  0.25024351  0.15382040  0.14673575  1
  O2-  O402  1  0.74999829  0.49353313  0.65763902  1
  O2-  O403  1  0.24989228  0.50262623  0.66129810  1
  O2-  O404  1  0.74983997  0.84984042  0.88561128  1
  O2-  O405  1  0.24991883  0.83035883  0.42308893  1
  O2-  O406  1  0.74991057  0.50028950  0.57028364  1
  O2-  O407  1  0.75002632  0.16625043  0.90811088  1
  O2-  O408  1  0.75006607  0.82583664  0.56549644  1
  O2-  O409  1  0.75002243  0.17040914  0.57879156  1
  O2-  O410  1  0.75021085  0.83562952  0.64606304  1
  O2-  O411  1  0.24996545  0.83197560  0.33309257  1
  O2-  O412  1  0.25005121  0.82976024  0.65581754  1
  O2-  O413  1  0.24990059  0.82666708  0.56794092  1
  O2-  O414  1  0.25004420  0.15213933  0.36148010  1
  O2-  O415  1  0.24993195  0.15661968  0.86758037  1
  O2-  O416  1  0.74995485  0.85390331  0.09245324  1
  O2-  O417  1  0.74995760  0.16509633  0.08854153  1
  O2-  O418  1  0.74995591  0.50018144  0.40590847  1
  O2-  O419  1  0.74997333  0.16546109  0.66936322  1
  O2-  O420  1  0.47121701  0.66635329  0.87552135  1
  O2-  O421  1  0.46403887  0.68207186  0.14819653  1
  O2-  O422  1  0.97236797  0.33388160  0.87913120  1
  O2-  O423  1  0.97621029  -0.00488415  0.13310271  1
  O2-  O424  1  0.02915514  0.67025540  0.12829615  1
  O2-  O425  1  0.03956376  0.66829735  0.37362673  1
  O2-  O426  1  0.53342749  0.34258348  0.88187471  1
  O2-  O427  1  0.45832742  0.33431442  0.12261200  1
  O2-  O428  1  0.47175925  -0.00069685  0.61176120  1
  O2-  O429  1  0.53789265  0.66622941  0.11458317  1
  O2-  O430  1  0.02544540  0.33739619  0.12982753  1
  O2-  O431  1  0.52567820  0.33650860  0.37019222  1
  O2-  O432  1  0.53113348  -0.00685910  0.62844756  1
  O2-  O433  1  0.96659626  0.65796288  0.37536779  1
  O2-  O434  1  0.53324357  0.33022229  0.13231310  1
  O2-  O435  1  0.47389122  0.32990684  0.87390267  1
  O2-  O436  1  0.96257786  0.67163139  0.87112026  1
  O2-  O437  1  0.47204192  0.00405994  0.37800586  1
  O2-  O438  1  0.02918903  -0.00259325  0.37810966  1
  O2-  O439  1  0.02596827  0.32886951  0.37090931  1
  O2-  O440  1  0.04178184  0.66541427  0.87570725  1
  O2-  O441  1  0.96712251  0.66595870  0.12522642  1
  O2-  O442  1  0.47436191  -0.00245437  0.87942778  1
  O2-  O443  1  0.97159592  0.00461024  0.36774819  1
