# generated using pymatgen
data_La7(Ru4O11)2
_symmetry_space_group_name_H-M   'P 1'
_cell_length_a   23.98947140
_cell_length_b   16.82967325
_cell_length_c   15.42587809
_cell_angle_alpha   89.99954365
_cell_angle_beta   90.00011949
_cell_angle_gamma   90.00093334
_symmetry_Int_Tables_number   1
_chemical_formula_structural   La7(Ru4O11)2
_chemical_formula_sum   'La84 Ru96 O264'
_cell_volume   6227.96634787
_cell_formula_units_Z   12
loop_
 _symmetry_equiv_pos_site_id
 _symmetry_equiv_pos_as_xyz
  1  'x, y, z'
loop_
 _atom_type_symbol
 _atom_type_oxidation_number
  La3+  3.0
  Ru4+  4.0
  O2-  -2.0
loop_
 _atom_site_type_symbol
 _atom_site_label
 _atom_site_symmetry_multiplicity
 _atom_site_fract_x
 _atom_site_fract_y
 _atom_site_fract_z
 _atom_site_occupancy
  La3+  La0  1  0.13765052  -0.00046382  0.12536022  1
  La3+  La1  1  0.13893014  0.00015453  0.37613416  1
  La3+  La2  1  0.13796863  0.00086930  0.62330554  1
  La3+  La3  1  0.13686086  -0.00024519  0.87424259  1
  La3+  La4  1  0.13793077  0.33373993  0.12814133  1
  La3+  La5  1  0.13899045  0.33222596  0.37462649  1
  La3+  La6  1  0.13783171  0.33224574  0.62316475  1
  La3+  La7  1  0.13766282  0.33331475  0.87423083  1
  La3+  La8  1  0.14075568  0.66628680  0.12591944  1
  La3+  La9  1  0.13884900  0.66617361  0.37259919  1
  La3+  La10  1  0.13686007  0.66523757  0.62661604  1
  La3+  La11  1  0.14065704  0.66616217  0.87429104  1
  La3+  La12  1  0.63592125  0.00057019  0.12830568  1
  La3+  La13  1  0.63696514  0.00110404  0.37457106  1
  La3+  La14  1  0.63938580  0.00014819  0.62529915  1
  La3+  La15  1  0.63805638  0.00105557  0.87178447  1
  La3+  La16  1  0.63846295  0.33476331  0.12647245  1
  La3+  La17  1  0.63832537  0.33335466  0.37302246  1
  La3+  La18  1  0.63944818  0.33423916  0.62570030  1
  La3+  La19  1  0.63718283  0.33525680  0.87507225  1
  La3+  La20  1  0.63681915  0.66409227  0.12497082  1
  La3+  La21  1  0.63811095  0.66570315  0.37532738  1
  La3+  La22  1  0.63673485  0.66547004  0.62700057  1
  La3+  La23  1  0.63764213  0.66458858  0.87280729  1
  La3+  La24  1  0.36149583  -0.00163366  0.12511516  1
  La3+  La25  1  0.35968047  -0.00012985  0.37573640  1
  La3+  La26  1  0.36113793  0.00044028  0.62443833  1
  La3+  La27  1  0.36250071  -0.00079893  0.87454127  1
  La3+  La28  1  0.36210497  0.33413892  0.12612043  1
  La3+  La29  1  0.35940524  0.33281103  0.37361516  1
  La3+  La30  1  0.36173947  0.33207786  0.62471957  1
  La3+  La31  1  0.36372305  0.33408277  0.87608783  1
  La3+  La32  1  0.35911360  0.66625407  0.12524076  1
  La3+  La33  1  0.36009386  0.66640477  0.37242300  1
  La3+  La34  1  0.36299164  0.66646761  0.62857519  1
  La3+  La35  1  0.36113453  0.66682369  0.87363913  1
  La3+  La36  1  0.86372760  0.00144859  0.12516983  1
  La3+  La37  1  0.86162985  0.00108666  0.37579485  1
  La3+  La38  1  0.86073190  0.00040279  0.62546247  1
  La3+  La39  1  0.86281643  0.00133519  0.87346499  1
  La3+  La40  1  0.85992948  0.33458645  0.12610502  1
  La3+  La41  1  0.86074564  0.33314931  0.37431619  1
  La3+  La42  1  0.86114381  0.33442513  0.62640694  1
  La3+  La43  1  0.86152203  0.33511193  0.87316632  1
  La3+  La44  1  0.86224120  0.66517987  0.12465058  1
  La3+  La45  1  0.86230260  0.66727314  0.37496557  1
  La3+  La46  1  0.86330433  0.66684231  0.62673353  1
  La3+  La47  1  0.86301895  0.66463305  0.87437168  1
  La3+  La48  1  0.00292661  0.16545302  0.13157604  1
  La3+  La49  1  0.49732335  0.16137804  0.37581997  1
  La3+  La50  1  0.50345793  0.49760099  0.37720646  1
  La3+  La51  1  0.00255458  0.50343847  0.61903862  1
  La3+  La52  1  0.00040464  0.49916387  0.13617647  1
  La3+  La53  1  0.00054880  0.16605113  0.63265451  1
  La3+  La54  1  0.00061185  0.83389308  0.11358226  1
  La3+  La55  1  0.49601623  0.49760093  0.13422484  1
  La3+  La56  1  -0.00046653  0.83274969  0.86359761  1
  La3+  La57  1  0.50018259  0.83251801  0.86446189  1
  La3+  La58  1  0.00027688  0.83300676  0.38618806  1
  La3+  La59  1  0.50092724  0.83313567  0.38594259  1
  La3+  La60  1  0.49912513  0.50744232  0.61684830  1
  La3+  La61  1  0.49966467  0.83396771  0.11290616  1
  La3+  La62  1  0.49895438  0.16516182  0.63979222  1
  La3+  La63  1  0.00076923  0.83312130  0.63252148  1
  La3+  La64  1  0.50047023  0.49563771  0.63531736  1
  La3+  La65  1  0.00061758  0.83395614  0.13390520  1
  La3+  La66  1  0.49954375  0.50210330  0.86705319  1
  La3+  La67  1  0.00144562  0.16702513  0.86331051  1
  La3+  La68  1  0.50035948  0.83506085  0.36356773  1
  La3+  La69  1  0.00023113  0.50093573  0.86372051  1
  La3+  La70  1  0.00113437  0.16712732  0.38661081  1
  La3+  La71  1  0.50086140  0.49663630  0.11322688  1
  La3+  La72  1  0.75007716  0.12932350  0.48906173  1
  La3+  La73  1  0.24991565  0.79972055  0.73130656  1
  La3+  La74  1  0.75001478  0.86206607  0.74781638  1
  La3+  La75  1  0.74990947  0.46979813  0.53619616  1
  La3+  La76  1  0.74993980  0.83361606  0.50183513  1
  La3+  La77  1  0.24993219  0.86673114  0.51959119  1
  La3+  La78  1  0.74964021  0.17916827  -0.00986223  1
  La3+  La79  1  0.74991253  0.83134328  0.30292478  1
  La3+  La80  1  0.24987611  0.16642368  0.72867474  1
  La3+  La81  1  0.24992781  0.17111308  0.00397608  1
  La3+  La82  1  0.75026833  0.81919429  -0.05672104  1
  La3+  La83  1  0.25000297  0.53073104  0.72262713  1
  Ru4+  Ru84  1  0.00099811  -0.01063416  -0.00146308  1
  Ru4+  Ru85  1  -0.00059893  -0.00126488  0.25147569  1
  Ru4+  Ru86  1  0.00009129  -0.00028089  0.50062716  1
  Ru4+  Ru87  1  0.00059621  0.00081375  0.75081727  1
  Ru4+  Ru88  1  0.00115491  0.33536401  0.00100343  1
  Ru4+  Ru89  1  0.00228675  0.33570498  0.25029006  1
  Ru4+  Ru90  1  -0.00076595  0.33568494  0.49750210  1
  Ru4+  Ru91  1  -0.00085404  0.33292732  0.75028920  1
  Ru4+  Ru92  1  -0.00052820  0.66539025  -0.00231476  1
  Ru4+  Ru93  1  0.00064669  0.66353625  0.25199778  1
  Ru4+  Ru94  1  -0.00042803  0.66653346  0.49922917  1
  Ru4+  Ru95  1  -0.00111113  0.66727522  0.74869527  1
  Ru4+  Ru96  1  0.49847213  0.00098344  -0.00248625  1
  Ru4+  Ru97  1  0.49842675  0.00305375  0.25216850  1
  Ru4+  Ru98  1  0.50106080  0.00112704  0.49973662  1
  Ru4+  Ru99  1  0.50030073  -0.00057286  0.75171722  1
  Ru4+  Ru100  1  0.50490421  0.33070526  -0.00287662  1
  Ru4+  Ru101  1  0.49599406  0.32835334  0.25060188  1
  Ru4+  Ru102  1  0.49527014  0.33929461  0.49547844  1
  Ru4+  Ru103  1  0.50028525  0.33115275  0.75307732  1
  Ru4+  Ru104  1  0.49911364  0.66754115  -0.00108619  1
  Ru4+  Ru105  1  0.49596287  0.67045563  0.25159302  1
  Ru4+  Ru106  1  0.50129548  0.66974608  0.49982370  1
  Ru4+  Ru107  1  0.50214494  0.67195701  0.75129423  1
  Ru4+  Ru108  1  0.11288992  0.17117157  -0.00053534  1
  Ru4+  Ru109  1  0.11362792  0.16864351  0.24948580  1
  Ru4+  Ru110  1  0.11541619  0.16444512  0.50066828  1
  Ru4+  Ru111  1  0.11190764  0.16588574  0.75025293  1
  Ru4+  Ru112  1  0.11350437  0.50156570  0.00005389  1
  Ru4+  Ru113  1  0.11402959  0.49935624  0.25007161  1
  Ru4+  Ru114  1  0.11282150  0.50048416  0.50029819  1
  Ru4+  Ru115  1  0.11408474  0.49766966  0.75016695  1
  Ru4+  Ru116  1  0.11338228  0.83444117  -0.00004310  1
  Ru4+  Ru117  1  0.11449615  0.83099930  0.25002246  1
  Ru4+  Ru118  1  0.11177457  0.83459463  0.50044557  1
  Ru4+  Ru119  1  0.11154011  0.83248697  0.75001264  1
  Ru4+  Ru120  1  0.60961259  0.16894176  0.00050505  1
  Ru4+  Ru121  1  0.61417458  0.16549167  0.25043891  1
  Ru4+  Ru122  1  0.61634247  0.16088741  0.50095435  1
  Ru4+  Ru123  1  0.61298948  0.16546746  0.74933532  1
  Ru4+  Ru124  1  0.61492784  0.49844718  -0.00080527  1
  Ru4+  Ru125  1  0.61756362  0.49971299  0.25234891  1
  Ru4+  Ru126  1  0.61226404  0.50064079  0.49929449  1
  Ru4+  Ru127  1  0.61718727  0.49775782  0.75078383  1
  Ru4+  Ru128  1  0.61216037  0.83259202  -0.00021021  1
  Ru4+  Ru129  1  0.61515222  0.83117004  0.25013085  1
  Ru4+  Ru130  1  0.61118684  0.83318379  0.49944330  1
  Ru4+  Ru131  1  0.61141938  0.83454185  0.74948733  1
  Ru4+  Ru132  1  0.38626403  0.16347433  0.00083579  1
  Ru4+  Ru133  1  0.38627419  0.16890145  0.24948538  1
  Ru4+  Ru134  1  0.38720986  0.16764497  0.50017023  1
  Ru4+  Ru135  1  0.38821736  0.16717755  0.74897041  1
  Ru4+  Ru136  1  0.38416269  0.50400747  -0.00009572  1
  Ru4+  Ru137  1  0.38484741  0.49940444  0.25070689  1
  Ru4+  Ru138  1  0.38599321  0.49774256  0.49943028  1
  Ru4+  Ru139  1  0.38503836  0.49808592  0.75068919  1
  Ru4+  Ru140  1  0.38673400  0.83370413  0.00000547  1
  Ru4+  Ru141  1  0.38618386  0.83292582  0.25003397  1
  Ru4+  Ru142  1  0.38763766  0.83222400  0.50010061  1
  Ru4+  Ru143  1  0.38608341  0.83603880  0.74945713  1
  Ru4+  Ru144  1  0.88256856  0.17062279  0.00057506  1
  Ru4+  Ru145  1  0.88458340  0.16671943  0.25003110  1
  Ru4+  Ru146  1  0.88831317  0.16633017  0.50004153  1
  Ru4+  Ru147  1  0.88711114  0.16583791  0.75038520  1
  Ru4+  Ru148  1  0.88611601  0.50067287  -0.00017259  1
  Ru4+  Ru149  1  0.88797559  0.49960349  0.25011512  1
  Ru4+  Ru150  1  0.88795508  0.50103067  0.49949734  1
  Ru4+  Ru151  1  0.88567711  0.49883429  0.74966543  1
  Ru4+  Ru152  1  0.88895640  0.83453965  -0.00006606  1
  Ru4+  Ru153  1  0.88743185  0.83535000  0.25056161  1
  Ru4+  Ru154  1  0.88889109  0.83339556  0.49919044  1
  Ru4+  Ru155  1  0.88614064  0.83616033  0.75021426  1
  Ru4+  Ru156  1  0.75023930  0.58320903  0.24672836  1
  Ru4+  Ru157  1  0.75014313  0.25076831  0.75205237  1
  Ru4+  Ru158  1  0.75031266  0.27085975  0.49555483  1
  Ru4+  Ru159  1  0.75007270  0.70081595  0.00802086  1
  Ru4+  Ru160  1  0.75003925  0.95520816  0.26413927  1
  Ru4+  Ru161  1  0.75016663  0.41123064  0.24492800  1
  Ru4+  Ru162  1  0.25001415  0.73029069  0.50727728  1
  Ru4+  Ru163  1  0.25003841  0.57997514  0.50037608  1
  Ru4+  Ru164  1  0.24990027  0.41840666  0.49818734  1
  Ru4+  Ru165  1  0.74979724  0.70968358  0.25282164  1
  Ru4+  Ru166  1  0.25011119  0.42636716  0.00720168  1
  Ru4+  Ru167  1  0.24987770  0.39383506  0.75169882  1
  Ru4+  Ru168  1  0.74996482  0.60432915  0.50293297  1
  Ru4+  Ru169  1  0.24994232  0.09082352  0.25665359  1
  Ru4+  Ru170  1  0.25009294  0.90838752  0.25023162  1
  Ru4+  Ru171  1  0.74992406  0.72553074  0.74952168  1
  Ru4+  Ru172  1  0.24989249  0.75156207  -0.00254844  1
  Ru4+  Ru173  1  0.25017444  0.08401555  0.49730761  1
  Ru4+  Ru174  1  0.74956160  0.06236289  -0.00778786  1
  Ru4+  Ru175  1  0.75006361  0.93719162  -0.00208103  1
  Ru4+  Ru176  1  0.74989006  0.29654258  0.00255618  1
  Ru4+  Ru177  1  0.24986433  0.93420482  0.74118890  1
  Ru4+  Ru178  1  0.24998174  0.04982046  0.00027111  1
  Ru4+  Ru179  1  0.24988530  0.29548019  -0.00073520  1
  O2-  O180  1  0.16553677  0.07913519  0.00017051  1
  O2-  O181  1  0.16769547  0.08055549  0.24978851  1
  O2-  O182  1  0.16811604  0.08193626  0.50007497  1
  O2-  O183  1  0.16832263  0.08040555  0.74950401  1
  O2-  O184  1  0.16662210  0.41370687  -0.00046632  1
  O2-  O185  1  0.16673088  0.41506839  0.24946414  1
  O2-  O186  1  0.16700473  0.41423003  0.50039048  1
  O2-  O187  1  0.16700928  0.41362043  0.75034853  1
  O2-  O188  1  0.16880872  0.74745712  -0.00072079  1
  O2-  O189  1  0.16686033  0.74908489  0.25057891  1
  O2-  O190  1  0.16636117  0.74605997  0.50031292  1
  O2-  O191  1  0.16551260  0.74635128  0.74924566  1
  O2-  O192  1  0.66515020  0.07926068  0.00024246  1
  O2-  O193  1  0.66720155  0.08175435  0.25004548  1
  O2-  O194  1  0.66675406  0.07897302  0.49889628  1
  O2-  O195  1  0.66665502  0.08146111  0.75089938  1
  O2-  O196  1  0.66800750  0.41448579  -0.00051696  1
  O2-  O197  1  0.66758871  0.41420270  0.25049545  1
  O2-  O198  1  0.66654029  0.41285963  0.49925875  1
  O2-  O199  1  0.66631288  0.41423602  0.75056740  1
  O2-  O200  1  0.66617103  0.74572076  0.00004964  1
  O2-  O201  1  0.66646052  0.74630222  0.25012292  1
  O2-  O202  1  0.66858447  0.74710213  0.50080932  1
  O2-  O203  1  0.66763839  0.74693303  0.75015308  1
  O2-  O204  1  0.33339110  0.25449169  -0.00079085  1
  O2-  O205  1  0.33394735  0.25135088  0.24895466  1
  O2-  O206  1  0.33277696  0.25234352  0.50059978  1
  O2-  O207  1  0.33118755  0.25357560  0.75037895  1
  O2-  O208  1  0.33397798  0.58502572  0.00026967  1
  O2-  O209  1  0.33347119  0.58519499  0.25012494  1
  O2-  O210  1  0.33210900  0.58658058  0.49995801  1
  O2-  O211  1  0.33359566  0.58588170  0.74895527  1
  O2-  O212  1  0.33345565  0.91869796  -0.00009207  1
  O2-  O213  1  0.33226342  0.91947776  0.25045641  1
  O2-  O214  1  0.33354282  0.92033489  0.50063552  1
  O2-  O215  1  0.33370994  0.91989671  0.74928882  1
  O2-  O216  1  0.83344274  0.25458137  -0.00056038  1
  O2-  O217  1  0.83287487  0.25122534  0.25003264  1
  O2-  O218  1  0.83301701  0.25336170  0.49954349  1
  O2-  O219  1  0.83093125  0.25324263  0.75035197  1
  O2-  O220  1  0.83190612  0.58599071  -0.00006431  1
  O2-  O221  1  0.83293358  0.58642613  0.25011274  1
  O2-  O222  1  0.83350626  0.58647192  0.50053977  1
  O2-  O223  1  0.83386067  0.58608572  0.75036292  1
  O2-  O224  1  0.83411572  0.92074071  -0.00003900  1
  O2-  O225  1  0.83397807  0.92076018  0.25065386  1
  O2-  O226  1  0.83141799  0.91995479  0.49896900  1
  O2-  O227  1  0.83337146  0.91977432  0.75156960  1
  O2-  O228  1  0.16519676  0.25329866  -0.00021016  1
  O2-  O229  1  0.16738793  0.25132156  0.24939172  1
  O2-  O230  1  0.16734222  0.25191980  0.50105264  1
  O2-  O231  1  0.16760964  0.25378293  0.74963207  1
  O2-  O232  1  0.16629240  0.58516296  -0.00062426  1
  O2-  O233  1  0.16605557  0.58458987  0.25022779  1
  O2-  O234  1  0.16786092  0.58606802  0.50015445  1
  O2-  O235  1  0.16627903  0.58613648  0.74971363  1
  O2-  O236  1  0.16658524  0.91887450  -0.00009658  1
  O2-  O237  1  0.16736242  0.91997255  0.25079162  1
  O2-  O238  1  0.16631612  0.91996255  0.49945261  1
  O2-  O239  1  0.16685684  0.92100610  0.74964809  1
  O2-  O240  1  0.66628065  0.25401701  -0.00016567  1
  O2-  O241  1  0.66715325  0.25157317  0.25058788  1
  O2-  O242  1  0.66782546  0.25327053  0.49918939  1
  O2-  O243  1  0.66800397  0.25297418  0.75035190  1
  O2-  O244  1  0.66684996  0.58663516  0.00011742  1
  O2-  O245  1  0.66760045  0.58594101  0.25007002  1
  O2-  O246  1  0.66690216  0.58686602  0.50042195  1
  O2-  O247  1  0.66705729  0.58580371  0.75035146  1
  O2-  O248  1  0.66641532  0.92091453  0.00040357  1
  O2-  O249  1  0.66664287  0.92046551  0.25006619  1
  O2-  O250  1  0.66873009  0.91947647  0.49919911  1
  O2-  O251  1  0.66773067  0.91947197  0.75133160  1
  O2-  O252  1  0.33503405  0.07948975  -0.00040225  1
  O2-  O253  1  0.33212224  0.08091044  0.24955682  1
  O2-  O254  1  0.33202685  0.08090799  0.50049831  1
  O2-  O255  1  0.33288843  0.08030880  0.74988549  1
  O2-  O256  1  0.33296451  0.41318971  -0.00039568  1
  O2-  O257  1  0.33352288  0.41490360  0.24976054  1
  O2-  O258  1  0.33293453  0.41434682  0.50005178  1
  O2-  O259  1  0.33290657  0.41326683  0.75076729  1
  O2-  O260  1  0.33123826  0.74790087  0.00012194  1
  O2-  O261  1  0.33364230  0.74809305  0.25035646  1
  O2-  O262  1  0.33362913  0.74655314  0.50039782  1
  O2-  O263  1  0.33364962  0.74680721  0.74902903  1
  O2-  O264  1  0.83384786  0.07921481  -0.00054339  1
  O2-  O265  1  0.83248646  0.08113934  0.25114095  1
  O2-  O266  1  0.83443715  0.07856538  0.49928242  1
  O2-  O267  1  0.83362862  0.08095405  0.75104643  1
  O2-  O268  1  0.83345652  0.41418936  -0.00031169  1
  O2-  O269  1  0.83272207  0.41478968  0.25021087  1
  O2-  O270  1  0.83288160  0.41351648  0.49960736  1
  O2-  O271  1  0.83231652  0.41419717  0.75085091  1
  O2-  O272  1  0.83320675  0.74521961  0.00010072  1
  O2-  O273  1  0.83207452  0.74496203  0.25029663  1
  O2-  O274  1  0.83147491  0.74687671  0.50047827  1
  O2-  O275  1  0.83242879  0.74712058  0.75011634  1
  O2-  O276  1  0.54774714  0.43094137  0.76432737  1
  O2-  O277  1  0.04699963  0.57045436  0.73383060  1
  O2-  O278  1  0.45305687  0.43118645  0.98358394  1
  O2-  O279  1  0.45194398  0.43045757  0.76549691  1
  O2-  O280  1  0.54611019  0.56930805  0.01106216  1
  O2-  O281  1  0.04773565  0.23561942  0.98520394  1
  O2-  O282  1  0.96132491  0.10642749  0.28201280  1
  O2-  O283  1  0.95961296  0.22908840  0.22274841  1
  O2-  O284  1  0.95964425  0.43703811  0.52464536  1
  O2-  O285  1  0.54119196  0.77339272  0.22147096  1
  O2-  O286  1  0.54991293  0.23451640  0.01619359  1
  O2-  O287  1  0.53761795  0.22317769  0.50231182  1
  O2-  O288  1  0.96049785  0.77473923  0.23620073  1
  O2-  O289  1  0.04575604  0.43188261  0.73665353  1
  O2-  O290  1  0.54589131  0.90426037  0.23426123  1
  O2-  O291  1  0.95492367  0.90218777  0.73771019  1
  O2-  O292  1  0.95354997  0.56976620  0.51195661  1
  O2-  O293  1  0.45064038  0.56989915  0.73495162  1
  O2-  O294  1  0.95273483  0.10037709  0.51333496  1
  O2-  O295  1  0.04476802  0.56966672  0.98527747  1
  O2-  O296  1  0.45485284  0.23510396  0.23655448  1
  O2-  O297  1  0.45376738  0.56919319  0.26663442  1
  O2-  O298  1  0.06117578  0.08215278  0.52909768  1
  O2-  O299  1  0.54668596  0.56743891  0.22218287  1
  O2-  O300  1  0.04423411  0.43120423  0.98531268  1
  O2-  O301  1  0.45986604  0.55951595  0.47009315  1
  O2-  O302  1  0.45301745  0.76510224  0.23501088  1
  O2-  O303  1  0.04442261  0.43355188  0.26294280  1
  O2-  O304  1  0.95564106  0.56806946  0.26432862  1
  O2-  O305  1  0.95784403  0.22961010  0.97304531  1
  O2-  O306  1  0.45241226  0.76270378  0.76389903  1
  O2-  O307  1  0.04983855  0.09722725  0.98181321  1
  O2-  O308  1  0.54574167  0.43196232  0.51269693  1
  O2-  O309  1  0.53758477  0.22319877  0.50224756  1
  O2-  O310  1  0.54787823  0.56986186  0.73630302  1
  O2-  O311  1  0.04468649  0.90098052  0.26532799  1
  O2-  O312  1  0.95504730  0.76632796  0.98553940  1
  O2-  O313  1  0.45902272  0.22718867  0.97260652  1
  O2-  O314  1  0.04808154  0.09678328  0.02086411  1
  O2-  O315  1  0.95651622  0.10448441  -0.00270868  1
  O2-  O316  1  0.96152315  0.77494122  0.26519368  1
  O2-  O317  1  0.95510960  0.10252887  0.98985139  1
  O2-  O318  1  0.54510009  0.76640944  0.98420856  1
  O2-  O319  1  0.04723548  0.23572688  0.48661149  1
  O2-  O320  1  0.54723847  0.42867949  0.23616873  1
  O2-  O321  1  0.46149701  0.88983979  0.52991986  1
  O2-  O322  1  0.95365774  0.76187009  0.73666096  1
  O2-  O323  1  0.46332971  0.21725335  0.00892517  1
  O2-  O324  1  0.04997231  0.08881988  0.52055696  1
  O2-  O325  1  0.06429244  0.07149895  0.77796394  1
  O2-  O326  1  0.56278438  0.59472752  0.72030932  1
  O2-  O327  1  0.06320714  0.92807490  0.53288284  1
  O2-  O328  1  0.56247589  0.58847276  0.20276921  1
  O2-  O329  1  0.43384410  0.07316709  0.20486464  1
  O2-  O330  1  0.43866977  0.59641890  0.71629553  1
  O2-  O331  1  0.56446816  0.73673680  0.78381281  1
  O2-  O332  1  0.06580336  0.26141301  0.22041139  1
  O2-  O333  1  0.56390419  0.93121727  0.94709393  1
  O2-  O334  1  0.56512345  0.07331267  0.28080139  1
  O2-  O335  1  0.06169080  0.59678887  0.71931156  1
  O2-  O336  1  0.92965420  0.72427905  0.19188472  1
  O2-  O337  1  0.56663521  0.92683597  0.04771789  1
  O2-  O338  1  0.92985280  0.72563970  0.30748536  1
  O2-  O339  1  0.57427550  0.27269572  0.55673701  1
  O2-  O340  1  0.42216435  0.28814447  0.05102870  1
  O2-  O341  1  0.56421271  0.26239239  0.20101244  1
  O2-  O342  1  0.06279368  0.25978089  0.47021266  1
  O2-  O343  1  0.43482913  0.73883039  0.97215212  1
  O2-  O344  1  0.56507420  0.07216117  0.52897909  1
  O2-  O345  1  0.06480810  0.59775983  0.53251520  1
  O2-  O346  1  0.06343165  0.73501304  0.21709091  1
  O2-  O347  1  0.93072660  0.05923741  0.20217124  1
  O2-  O348  1  0.43627866  0.06969286  0.30103234  1
  O2-  O349  1  0.06391913  0.73523964  0.03278687  1
  O2-  O350  1  0.93475862  0.59512294  0.97144098  1
  O2-  O351  1  0.43526472  0.26074939  0.72159316  1
  O2-  O352  1  0.06454045  0.06924138  0.21654770  1
  O2-  O353  1  0.93073932  0.39362677  0.45494714  1
  O2-  O354  1  0.42909633  0.60945372  0.54889693  1
  O2-  O355  1  0.56530760  0.92813051  0.72249287  1
  O2-  O356  1  0.56984161  0.72874478  0.29767601  1
  O2-  O357  1  0.56265980  0.40634013  0.21730871  1
  O2-  O358  1  0.56447130  0.40396248  0.97139986  1
  O2-  O359  1  0.43033779  0.94181625  0.45127966  1
  O2-  O360  1  0.57228178  0.27855201  0.43809132  1
  O2-  O361  1  0.56836842  0.60260823  0.31459967  1
  O2-  O362  1  0.93614531  0.73928709  0.72222291  1
  O2-  O363  1  0.92706077  0.05253035  0.04513418  1
  O2-  O364  1  0.56441124  0.92604789  0.22207554  1
  O2-  O365  1  0.93424092  0.40681242  0.72014531  1
  O2-  O366  1  0.93512502  0.25995171  0.77960869  1
  O2-  O367  1  0.43677839  0.73816993  0.77918048  1
  O2-  O368  1  0.93088947  0.27312427  0.04654688  1
  O2-  O369  1  0.93070324  0.27384666  0.29659479  1
  O2-  O370  1  0.43752871  0.40638231  0.96878944  1
  O2-  O371  1  0.56385869  0.26385126  0.29899794  1
  O2-  O372  1  0.25010469  -0.01756829  0.09053150  1
  O2-  O373  1  0.25006608  0.00137062  0.40723784  1
  O2-  O374  1  0.74988577  0.01548198  0.17204198  1
  O2-  O375  1  0.25016162  0.33436849  0.33156764  1
  O2-  O376  1  0.75008021  0.33427412  0.15691610  1
  O2-  O377  1  0.74999336  0.66159047  0.14611501  1
  O2-  O378  1  0.74998901  -0.00082481  0.57923847  1
  O2-  O379  1  0.24998999  -0.01908655  0.91142113  1
  O2-  O380  1  0.25009258  0.00078860  0.17743655  1
  O2-  O381  1  0.74989318  0.33474617  0.59606903  1
  O2-  O382  1  0.25013426  0.00120954  0.59345321  1
  O2-  O383  1  0.74992781  -0.00112898  0.67023675  1
  O2-  O384  1  0.25007434  0.33971713  0.89438339  1
  O2-  O385  1  0.25015223  0.33246816  0.42030657  1
  O2-  O386  1  0.25023123  0.66628504  0.32690588  1
  O2-  O387  1  0.25008795  0.66143763  0.41432273  1
  O2-  O388  1  0.25016176  0.66768855  0.16797941  1
  O2-  O389  1  0.25021802  0.33834292  0.10628627  1
  O2-  O390  1  0.74995635  0.00412213  0.09393468  1
  O2-  O391  1  0.25008347  0.66647041  0.07927168  1
  O2-  O392  1  0.25000859  0.00980209  0.82775030  1
  O2-  O393  1  0.75003745  0.67004411  0.40359780  1
  O2-  O394  1  0.75013406  0.00112169  0.89041278  1
  O2-  O395  1  0.24973619  0.66783524  0.84456548  1
  O2-  O396  1  0.25002792  0.83572626  0.86177235  1
  O2-  O397  1  0.25006699  0.83197903  0.38823532  1
  O2-  O398  1  0.75006754  0.16510918  0.10992103  1
  O2-  O399  1  0.75000310  0.49999040  0.08252255  1
  O2-  O400  1  0.74999387  0.49879083  0.32027652  1
  O2-  O401  1  0.74984466  0.83517686  0.08079151  1
  O2-  O402  1  0.75005909  0.16543543  0.86911207  1
  O2-  O403  1  0.24999918  0.83618773  0.16261577  1
  O2-  O404  1  0.75008622  0.83408114  0.16720160  1
  O2-  O405  1  0.25005833  0.49963835  0.40918247  1
  O2-  O406  1  0.75005825  0.50164443  0.65785068  1
  O2-  O407  1  0.75008531  0.50296315  0.40744330  1
  O2-  O408  1  0.75000406  0.17331109  0.60528568  1
  O2-  O409  1  0.25000635  0.16679766  0.85951253  1
  O2-  O410  1  0.25004454  0.49848238  0.58828743  1
  O2-  O411  1  0.75004341  0.49945023  0.16629137  1
  O2-  O412  1  0.25007250  0.16224475  0.33826529  1
  O2-  O413  1  0.25000895  0.50473476  0.93044029  1
  O2-  O414  1  0.25004141  0.49550569  0.84538243  1
  O2-  O415  1  0.74999638  0.16193889  0.68815624  1
  O2-  O416  1  0.25000904  0.49690916  0.08782429  1
  O2-  O417  1  0.75009526  0.17352660  0.37703150  1
  O2-  O418  1  0.75002129  0.49985048  0.84003619  1
  O2-  O419  1  0.75004766  0.16645039  0.18726556  1
  O2-  O420  1  0.52634407  0.67017565  0.12061278  1
  O2-  O421  1  0.53322050  0.33636348  0.63246035  1
  O2-  O422  1  0.52809173  0.00687010  0.12501917  1
  O2-  O423  1  0.46854379  0.00163638  0.62639285  1
  O2-  O424  1  0.97407344  0.66882270  0.86957531  1
  O2-  O425  1  0.97220795  0.00030138  0.62581101  1
  O2-  O426  1  0.02585067  0.33610129  0.12284753  1
  O2-  O427  1  0.02845330  0.66729986  0.37597721  1
  O2-  O428  1  0.97372338  0.66503481  0.62161449  1
  O2-  O429  1  0.52677365  0.33033266  0.87054155  1
  O2-  O430  1  0.47238331  -0.00014317  0.87488089  1
  O2-  O431  1  0.03208116  0.33311251  0.87254765  1
  O2-  O432  1  0.52657238  -0.00317337  0.37793923  1
  O2-  O433  1  0.96999207  0.33779988  0.87717437  1
  O2-  O434  1  0.47540203  0.66019901  0.87447307  1
  O2-  O435  1  0.46986121  -0.00419634  0.11943564  1
  O2-  O436  1  0.96921756  0.32885237  0.62255335  1
  O2-  O437  1  0.46580949  0.33572093  0.62123867  1
  O2-  O438  1  0.52720990  0.66961962  0.62188825  1
  O2-  O439  1  0.02603962  0.33452307  0.37281404  1
  O2-  O440  1  0.03257072  0.33204847  0.62496206  1
  O2-  O441  1  0.02795874  0.00005816  0.37591569  1
  O2-  O442  1  0.02612459  -0.00456489  0.87710282  1
  O2-  O443  1  0.52769825  0.00047970  0.62507110  1
