# generated using pymatgen
data_La7(Ru4O11)2
_symmetry_space_group_name_H-M   'P 1'
_cell_length_a   23.99509602
_cell_length_b   16.83423761
_cell_length_c   15.43115511
_cell_angle_alpha   89.99390344
_cell_angle_beta   90.00337900
_cell_angle_gamma   89.99857953
_symmetry_Int_Tables_number   1
_chemical_formula_structural   La7(Ru4O11)2
_chemical_formula_sum   'La84 Ru96 O264'
_cell_volume   6233.24760170
_cell_formula_units_Z   12
loop_
 _symmetry_equiv_pos_site_id
 _symmetry_equiv_pos_as_xyz
  1  'x, y, z'
loop_
 _atom_type_symbol
 _atom_type_oxidation_number
  La3+  3.0
  Ru4+  4.0
  O2-  -2.0
loop_
 _atom_site_type_symbol
 _atom_site_label
 _atom_site_symmetry_multiplicity
 _atom_site_fract_x
 _atom_site_fract_y
 _atom_site_fract_z
 _atom_site_occupancy
  La3+  La0  1  0.14928870  0.00249335  0.12287774  1
  La3+  La1  1  0.14697434  0.00668484  0.37608189  1
  La3+  La2  1  0.13837743  0.00174875  0.62440779  1
  La3+  La3  1  0.14268607  0.00260855  0.87580320  1
  La3+  La4  1  0.14259371  0.33060401  0.12579513  1
  La3+  La5  1  0.14348917  0.33378690  0.38025490  1
  La3+  La6  1  0.13773802  0.32918036  0.62214201  1
  La3+  La7  1  0.13828764  0.32844071  0.87384924  1
  La3+  La8  1  0.14697691  0.66546226  0.11963992  1
  La3+  La9  1  0.13554237  0.66526762  0.37231246  1
  La3+  La10  1  0.13314858  0.66464896  0.62813772  1
  La3+  La11  1  0.13488268  0.66511825  0.87463798  1
  La3+  La12  1  0.63199228  -0.00475255  0.12366272  1
  La3+  La13  1  0.63352684  -0.00514944  0.37998784  1
  La3+  La14  1  0.63428252  -0.00358275  0.62144447  1
  La3+  La15  1  0.63660891  -0.00254012  0.87204807  1
  La3+  La16  1  0.64741560  0.34539951  0.13112073  1
  La3+  La17  1  0.65186173  0.33715450  0.37196761  1
  La3+  La18  1  0.64644153  0.32485243  0.62181570  1
  La3+  La19  1  0.63765588  0.33523864  0.87739040  1
  La3+  La20  1  0.63508255  0.66214359  0.12104581  1
  La3+  La21  1  0.63944861  0.66357681  0.37586038  1
  La3+  La22  1  0.63610873  0.67298137  0.62251097  1
  La3+  La23  1  0.64608922  0.67026751  0.87176988  1
  La3+  La24  1  0.35928682  0.00206741  0.12951771  1
  La3+  La25  1  0.35546936  0.00395408  0.37726605  1
  La3+  La26  1  0.35425721  -0.00462485  0.62562808  1
  La3+  La27  1  0.35912551  -0.00470151  0.87597264  1
  La3+  La28  1  0.35569105  0.32755417  0.12653539  1
  La3+  La29  1  0.35517300  0.33248290  0.37964311  1
  La3+  La30  1  0.35116093  0.32636324  0.62717225  1
  La3+  La31  1  0.36408008  0.32922960  0.87956580  1
  La3+  La32  1  0.35905755  0.67085690  0.12330378  1
  La3+  La33  1  0.36734310  0.66312389  0.37558644  1
  La3+  La34  1  0.36765353  0.66615940  0.62194908  1
  La3+  La35  1  0.36173383  0.67203803  0.88046160  1
  La3+  La36  1  0.86454681  0.00117911  0.12595967  1
  La3+  La37  1  0.85888033  -0.00292117  0.37830126  1
  La3+  La38  1  0.85166805  -0.01032982  0.62680622  1
  La3+  La39  1  0.86194096  0.00393944  0.87333899  1
  La3+  La40  1  0.85664614  0.33874885  0.12437093  1
  La3+  La41  1  0.86280576  0.33130181  0.37913618  1
  La3+  La42  1  0.85545808  0.32794151  0.62309656  1
  La3+  La43  1  0.85184413  0.33693432  0.87872260  1
  La3+  La44  1  0.86235721  0.66419589  0.12326874  1
  La3+  La45  1  0.85671138  0.66435059  0.37474406  1
  La3+  La46  1  0.86751279  0.66564630  0.63092000  1
  La3+  La47  1  0.84545593  0.66785307  0.86789369  1
  La3+  La48  1  0.50127524  0.17749939  0.35977624  1
  La3+  La49  1  0.49278759  0.17622376  0.84975955  1
  La3+  La50  1  0.49891708  0.84024173  0.36878913  1
  La3+  La51  1  0.50131600  0.82820890  0.38708639  1
  La3+  La52  1  0.50270252  0.51503418  0.89083709  1
  La3+  La53  1  -0.00187593  0.82533766  0.87637742  1
  La3+  La54  1  0.50439282  0.82169206  0.11381100  1
  La3+  La55  1  0.49321674  0.16493093  0.86904755  1
  La3+  La56  1  -0.00957212  0.84699326  0.38550073  1
  La3+  La57  1  0.00904348  0.83745920  0.12538499  1
  La3+  La58  1  0.00227705  0.48815968  0.62456831  1
  La3+  La59  1  0.49235089  0.16414737  0.11510300  1
  La3+  La60  1  0.50022422  0.49821309  0.62669268  1
  La3+  La61  1  0.49842550  0.17281527  0.13348269  1
  La3+  La62  1  0.50425678  0.49073817  0.60653606  1
  La3+  La63  1  0.00135313  0.49769061  0.11503098  1
  La3+  La64  1  0.49770973  0.51639385  0.87645015  1
  La3+  La65  1  -0.00289399  0.82885777  0.85435110  1
  La3+  La66  1  0.00350670  0.83460557  0.14561715  1
  La3+  La67  1  0.00362971  0.49718739  0.60482708  1
  La3+  La68  1  0.50104413  0.83365379  0.61078466  1
  La3+  La69  1  -0.00341892  0.17192001  0.11791986  1
  La3+  La70  1  -0.00958067  0.83707977  0.40518999  1
  La3+  La71  1  0.50096449  0.83788965  0.62723717  1
  La3+  La72  1  0.75088489  0.12446662  0.70956940  1
  La3+  La73  1  0.75199292  0.83210222  0.50450527  1
  La3+  La74  1  0.75130955  0.80555194  0.23560299  1
  La3+  La75  1  0.75009130  0.49111032  0.23863962  1
  La3+  La76  1  0.24897824  0.88135730  0.45926134  1
  La3+  La77  1  0.24890927  0.49322307  0.25558423  1
  La3+  La78  1  0.24862688  0.45910291  0.53095530  1
  La3+  La79  1  0.25108799  0.54869053  0.05076947  1
  La3+  La80  1  0.75047941  0.16449925  0.15941514  1
  La3+  La81  1  0.75021186  0.44891331  0.49815953  1
  La3+  La82  1  0.74946294  0.50422794  0.75825056  1
  La3+  La83  1  0.24795093  0.17210973  0.50174646  1
  Ru4+  Ru84  1  0.00768539  0.01187390  -0.00378931  1
  Ru4+  Ru85  1  0.00135779  0.01162276  0.26080317  1
  Ru4+  Ru86  1  -0.00273858  0.02639230  0.51886664  1
  Ru4+  Ru87  1  0.00309303  -0.00100238  0.74225169  1
  Ru4+  Ru88  1  0.00327220  0.32571918  0.02295113  1
  Ru4+  Ru89  1  -0.00324476  0.33358808  0.24193194  1
  Ru4+  Ru90  1  -0.00117205  0.32143082  0.49467276  1
  Ru4+  Ru91  1  -0.00444600  0.31671633  0.74687920  1
  Ru4+  Ru92  1  0.00056933  0.66299272  0.00003553  1
  Ru4+  Ru93  1  0.00614895  0.65393515  0.25290989  1
  Ru4+  Ru94  1  -0.00097623  0.67069653  0.49803075  1
  Ru4+  Ru95  1  -0.01050270  0.66489560  0.74711254  1
  Ru4+  Ru96  1  0.49813876  -0.01105662  -0.00497778  1
  Ru4+  Ru97  1  0.49789703  -0.01056573  0.24352262  1
  Ru4+  Ru98  1  0.49305880  0.01761065  0.51481607  1
  Ru4+  Ru99  1  0.50293016  -0.00751385  0.75396643  1
  Ru4+  Ru100  1  0.50928089  0.33942256  -0.00040929  1
  Ru4+  Ru101  1  0.49917718  0.34642700  0.25044992  1
  Ru4+  Ru102  1  0.50818251  0.31262526  0.49288503  1
  Ru4+  Ru103  1  0.50542648  0.33186978  0.75438022  1
  Ru4+  Ru104  1  0.50490609  0.67077276  0.01368711  1
  Ru4+  Ru105  1  0.49870995  0.66065764  0.24943020  1
  Ru4+  Ru106  1  0.50546116  0.66032096  0.49603459  1
  Ru4+  Ru107  1  0.49890563  0.67461777  0.75419419  1
  Ru4+  Ru108  1  0.10701587  0.15839828  -0.00451505  1
  Ru4+  Ru109  1  0.11317817  0.16425543  0.25017173  1
  Ru4+  Ru110  1  0.10478490  0.16452826  0.49838361  1
  Ru4+  Ru111  1  0.11053732  0.16246212  0.75182531  1
  Ru4+  Ru112  1  0.10911852  0.49900273  0.00084260  1
  Ru4+  Ru113  1  0.10828118  0.50406356  0.24969232  1
  Ru4+  Ru114  1  0.11432658  0.50713202  0.49545225  1
  Ru4+  Ru115  1  0.11323962  0.49286478  0.75688601  1
  Ru4+  Ru116  1  0.11646083  0.83145565  -0.00261232  1
  Ru4+  Ru117  1  0.11529052  0.83052478  0.25033826  1
  Ru4+  Ru118  1  0.11171739  0.83253193  0.50498169  1
  Ru4+  Ru119  1  0.11263764  0.83548384  0.75279316  1
  Ru4+  Ru120  1  0.61808771  0.17619767  0.00342758  1
  Ru4+  Ru121  1  0.61345292  0.16116947  0.25889127  1
  Ru4+  Ru122  1  0.61464138  0.17266586  0.50032430  1
  Ru4+  Ru123  1  0.61126563  0.16501590  0.74901709  1
  Ru4+  Ru124  1  0.61687539  0.50059314  0.00262034  1
  Ru4+  Ru125  1  0.60352831  0.50415420  0.25155672  1
  Ru4+  Ru126  1  0.60927558  0.50387987  0.50052440  1
  Ru4+  Ru127  1  0.61455152  0.49578226  0.74748000  1
  Ru4+  Ru128  1  0.61128179  0.82929177  -0.00840184  1
  Ru4+  Ru129  1  0.61483490  0.83098619  0.24610238  1
  Ru4+  Ru130  1  0.62266872  0.83313983  0.50271979  1
  Ru4+  Ru131  1  0.60960190  0.83916593  0.76041570  1
  Ru4+  Ru132  1  0.37997586  0.15914669  -0.00442177  1
  Ru4+  Ru133  1  0.37816721  0.16597562  0.25365213  1
  Ru4+  Ru134  1  0.39053527  0.15183031  0.50310449  1
  Ru4+  Ru135  1  0.38630095  0.16841446  0.74655122  1
  Ru4+  Ru136  1  0.39076148  0.49204783  0.01198492  1
  Ru4+  Ru137  1  0.38790663  0.49745166  0.25090218  1
  Ru4+  Ru138  1  0.38539647  0.49085558  0.49641333  1
  Ru4+  Ru139  1  0.38521168  0.50819680  0.75184097  1
  Ru4+  Ru140  1  0.38928279  0.83282209  0.00053144  1
  Ru4+  Ru141  1  0.38591589  0.84166361  0.24719012  1
  Ru4+  Ru142  1  0.38053698  0.82870036  0.50168757  1
  Ru4+  Ru143  1  0.39049992  0.84341442  0.75298663  1
  Ru4+  Ru144  1  0.88953660  0.16527107  0.00404888  1
  Ru4+  Ru145  1  0.89096002  0.16655581  0.24335907  1
  Ru4+  Ru146  1  0.89828230  0.16018928  0.50438500  1
  Ru4+  Ru147  1  0.89638409  0.17731024  0.75320130  1
  Ru4+  Ru148  1  0.88826762  0.50036139  0.00155560  1
  Ru4+  Ru149  1  0.89254511  0.49967212  0.24744486  1
  Ru4+  Ru150  1  0.88742897  0.50380665  0.49425904  1
  Ru4+  Ru151  1  0.88963870  0.50839424  0.76609497  1
  Ru4+  Ru152  1  0.88625153  0.83202307  -0.00705044  1
  Ru4+  Ru153  1  0.89371214  0.83207564  0.24718736  1
  Ru4+  Ru154  1  0.88895828  0.83148360  0.50245618  1
  Ru4+  Ru155  1  0.89086069  0.83473425  0.74484722  1
  Ru4+  Ru156  1  0.24856426  0.24719876  0.24072013  1
  Ru4+  Ru157  1  0.74982718  0.91585329  -0.00050484  1
  Ru4+  Ru158  1  0.25012808  0.07718175  0.74541952  1
  Ru4+  Ru159  1  0.75013676  0.59757633  0.49667386  1
  Ru4+  Ru160  1  0.25014244  0.59937339  0.73655146  1
  Ru4+  Ru161  1  0.75124278  0.58056474  0.00121990  1
  Ru4+  Ru162  1  0.74819612  0.66118093  0.23653057  1
  Ru4+  Ru163  1  0.75028628  0.07399833  0.28911087  1
  Ru4+  Ru164  1  0.24820510  0.40850099  -0.00964390  1
  Ru4+  Ru165  1  0.75064675  0.06948915  0.00176920  1
  Ru4+  Ru166  1  0.74944550  0.75432613  -0.00693946  1
  Ru4+  Ru167  1  0.75010544  0.08603247  0.50402454  1
  Ru4+  Ru168  1  0.25153984  0.76057148  0.23874632  1
  Ru4+  Ru169  1  0.24862818  0.73485688  0.51907483  1
  Ru4+  Ru170  1  0.25066480  0.91867261  -0.01100831  1
  Ru4+  Ru171  1  0.75090341  0.94575913  0.24283008  1
  Ru4+  Ru172  1  0.25020724  0.41715582  0.74187825  1
  Ru4+  Ru173  1  0.74995002  0.27284445  0.74443130  1
  Ru4+  Ru174  1  0.75301344  0.24860409  0.00301019  1
  Ru4+  Ru175  1  0.75169982  0.26892446  0.26531783  1
  Ru4+  Ru176  1  0.74969390  0.90523793  0.73964516  1
  Ru4+  Ru177  1  0.25054480  0.74457284  0.75670298  1
  Ru4+  Ru178  1  0.25151973  0.59872708  0.48859973  1
  Ru4+  Ru179  1  0.24874612  0.22559011  0.01334689  1
  O2-  O180  1  0.16492451  0.08390113  0.00007948  1
  O2-  O181  1  0.16072082  0.08254990  0.24772662  1
  O2-  O182  1  0.16739789  0.08474041  0.50675757  1
  O2-  O183  1  0.16839139  0.07993048  0.75238503  1
  O2-  O184  1  0.16245375  0.41190802  -0.00136810  1
  O2-  O185  1  0.16102488  0.41637881  0.25223643  1
  O2-  O186  1  0.16055593  0.41348591  0.49884999  1
  O2-  O187  1  0.16539303  0.41303691  0.74837709  1
  O2-  O188  1  0.16758582  0.74762083  -0.00985420  1
  O2-  O189  1  0.17118571  0.74468251  0.25711576  1
  O2-  O190  1  0.16825958  0.74672089  0.50356971  1
  O2-  O191  1  0.16863225  0.74419795  0.75269899  1
  O2-  O192  1  0.66545510  0.07942851  0.00334473  1
  O2-  O193  1  0.66984479  0.07800470  0.25219626  1
  O2-  O194  1  0.66314520  0.07798618  0.49789652  1
  O2-  O195  1  0.66666874  0.07637984  0.75365844  1
  O2-  O196  1  0.66684654  0.41667667  -0.00639766  1
  O2-  O197  1  0.66535141  0.42316204  0.25336674  1
  O2-  O198  1  0.65695468  0.41264566  0.50334506  1
  O2-  O199  1  0.67418474  0.41510272  0.75738872  1
  O2-  O200  1  0.66846034  0.74940559  0.00034488  1
  O2-  O201  1  0.66571897  0.74069373  0.24885013  1
  O2-  O202  1  0.67142517  0.74304236  0.50029537  1
  O2-  O203  1  0.65890123  0.75076340  0.74642091  1
  O2-  O204  1  0.33017400  0.24550719  0.00078074  1
  O2-  O205  1  0.33254098  0.25561185  0.25470633  1
  O2-  O206  1  0.33631741  0.24237448  0.49904440  1
  O2-  O207  1  0.33801207  0.25019132  0.75384837  1
  O2-  O208  1  0.33808837  0.58560758  -0.00347149  1
  O2-  O209  1  0.33594494  0.58322879  0.24839637  1
  O2-  O210  1  0.33388692  0.58646490  0.50207318  1
  O2-  O211  1  0.33305511  0.59226843  0.74668148  1
  O2-  O212  1  0.33307443  0.91702985  0.00014494  1
  O2-  O213  1  0.33330057  0.91869191  0.24651699  1
  O2-  O214  1  0.33586967  0.92120686  0.50321875  1
  O2-  O215  1  0.33098386  0.91688519  0.75405536  1
  O2-  O216  1  0.83590776  0.25128197  0.00134907  1
  O2-  O217  1  0.83717690  0.25324159  0.25173432  1
  O2-  O218  1  0.84384782  0.24468921  0.49743464  1
  O2-  O219  1  0.83031466  0.24880365  0.74601929  1
  O2-  O220  1  0.83427977  0.58615175  0.00223741  1
  O2-  O221  1  0.83536383  0.58756504  0.24588540  1
  O2-  O222  1  0.83240748  0.58972233  0.50177911  1
  O2-  O223  1  0.82745730  0.58677965  0.73930166  1
  O2-  O224  1  0.83413139  0.91806314  -0.00088037  1
  O2-  O225  1  0.83452605  0.92128247  0.24298778  1
  O2-  O226  1  0.83503334  0.91824780  0.49743099  1
  O2-  O227  1  0.82956986  0.91916306  0.76067732  1
  O2-  O228  1  0.16363278  0.24323576  -0.00037632  1
  O2-  O229  1  0.16347717  0.25318059  0.25106698  1
  O2-  O230  1  0.16171117  0.25174183  0.50143994  1
  O2-  O231  1  0.15704603  0.24923612  0.75035944  1
  O2-  O232  1  0.16666567  0.58756871  -0.00948890  1
  O2-  O233  1  0.17059633  0.58493884  0.25237842  1
  O2-  O234  1  0.16947946  0.58802448  0.49987789  1
  O2-  O235  1  0.16594866  0.58692159  0.74573627  1
  O2-  O236  1  0.16730720  0.91949460  -0.00175304  1
  O2-  O237  1  0.16243619  0.91738436  0.24922131  1
  O2-  O238  1  0.16187220  0.92293329  0.50606470  1
  O2-  O239  1  0.16165662  0.91844789  0.74947511  1
  O2-  O240  1  0.67368622  0.25011424  -0.00563755  1
  O2-  O241  1  0.66766972  0.24899775  0.24730767  1
  O2-  O242  1  0.66857351  0.24602840  0.49884381  1
  O2-  O243  1  0.67023517  0.25199174  0.75219717  1
  O2-  O244  1  0.67086741  0.58714726  -0.00296760  1
  O2-  O245  1  0.66579884  0.58636065  0.24643428  1
  O2-  O246  1  0.66779532  0.58813760  0.50251365  1
  O2-  O247  1  0.66540649  0.58626256  0.74609914  1
  O2-  O248  1  0.66796698  0.91836346  -0.00040252  1
  O2-  O249  1  0.66778876  0.92196286  0.24843878  1
  O2-  O250  1  0.67032081  0.92191797  0.49792220  1
  O2-  O251  1  0.67115802  0.92049464  0.75049675  1
  O2-  O252  1  0.33213605  0.07779632  0.00164648  1
  O2-  O253  1  0.33396649  0.08126709  0.24916887  1
  O2-  O254  1  0.32824771  0.07990670  0.50117305  1
  O2-  O255  1  0.33427095  0.07975861  0.75650084  1
  O2-  O256  1  0.33125232  0.41319182  -0.00064564  1
  O2-  O257  1  0.33076692  0.41984572  0.24953319  1
  O2-  O258  1  0.33491593  0.40948631  0.50033093  1
  O2-  O259  1  0.33462258  0.41412941  0.74994969  1
  O2-  O260  1  0.33742036  0.74813692  -0.00346622  1
  O2-  O261  1  0.33558333  0.74765291  0.25094173  1
  O2-  O262  1  0.32939559  0.74307514  0.50236337  1
  O2-  O263  1  0.33629131  0.74794745  0.75284990  1
  O2-  O264  1  0.83417415  0.07574324  0.00107478  1
  O2-  O265  1  0.83101751  0.08235172  0.24833361  1
  O2-  O266  1  0.83179074  0.08081411  0.50068808  1
  O2-  O267  1  0.84240448  0.08194148  0.75443925  1
  O2-  O268  1  0.83689894  0.41744825  0.00052673  1
  O2-  O269  1  0.83965416  0.41562479  0.25188921  1
  O2-  O270  1  0.84443554  0.40861504  0.50186663  1
  O2-  O271  1  0.83487993  0.42023394  0.75086140  1
  O2-  O272  1  0.82772145  0.74899435  0.00853688  1
  O2-  O273  1  0.83708501  0.74026176  0.24735933  1
  O2-  O274  1  0.83542495  0.74339933  0.50029877  1
  O2-  O275  1  0.83849020  0.74992716  0.74299315  1
  O2-  O276  1  0.04443082  0.57738912  0.76225356  1
  O2-  O277  1  0.45637419  0.23207045  0.72975473  1
  O2-  O278  1  0.04574657  0.90488792  0.49637008  1
  O2-  O279  1  0.44908212  0.76401203  0.26422460  1
  O2-  O280  1  0.05067723  0.91494246  0.23461322  1
  O2-  O281  1  0.54366670  0.43767091  0.78790365  1
  O2-  O282  1  0.45566348  0.55424688  0.48656470  1
  O2-  O283  1  0.54890702  0.58015354  0.75201023  1
  O2-  O284  1  0.04436872  0.42123866  0.76726900  1
  O2-  O285  1  0.05474668  0.56853235  0.72790827  1
  O2-  O286  1  0.54053428  0.20309496  0.98085206  1
  O2-  O287  1  0.44947592  0.57733504  0.51468343  1
  O2-  O288  1  0.53911920  0.19057063  -0.00804882  1
  O2-  O289  1  0.54434526  0.20809623  0.52921677  1
  O2-  O290  1  0.44831292  0.43477758  0.74923599  1
  O2-  O291  1  0.96021272  0.77707628  0.02787552  1
  O2-  O292  1  0.45692703  0.76871340  0.75890153  1
  O2-  O293  1  0.45209360  0.89899502  0.19650836  1
  O2-  O294  1  0.96501768  0.21001786  0.72051401  1
  O2-  O295  1  0.44775663  0.22760205  0.50993037  1
  O2-  O296  1  0.44997068  0.89756024  0.49859564  1
  O2-  O297  1  0.54265883  0.20664773  0.50939316  1
  O2-  O298  1  0.54435827  0.91055755  0.50377481  1
  O2-  O299  1  0.94918265  0.91387119  0.73695925  1
  O2-  O300  1  0.55052742  0.76072165  0.24799332  1
  O2-  O301  1  0.55108305  0.90221787  0.00529230  1
  O2-  O302  1  0.55636615  0.91078038  0.24506099  1
  O2-  O303  1  0.55738501  0.42259050  0.24000476  1
  O2-  O304  1  0.94798373  0.56816362  0.70307813  1
  O2-  O305  1  0.44621120  0.23695051  0.98631631  1
  O2-  O306  1  0.45131312  0.10202943  0.23933704  1
  O2-  O307  1  0.45115307  0.75925456  0.00219323  1
  O2-  O308  1  0.94344061  0.25302253  0.51740771  1
  O2-  O309  1  0.55068810  0.43717624  0.98880937  1
  O2-  O310  1  0.98405592  0.12991264  0.52274381  1
  O2-  O311  1  0.96925013  0.20801057  0.73257189  1
  O2-  O312  1  0.45300376  0.43243590  0.96093925  1
  O2-  O313  1  0.54984286  0.90110451  0.98506605  1
  O2-  O314  1  0.45142534  0.09340998  0.99208730  1
  O2-  O315  1  0.03867617  0.43121551  0.48954877  1
  O2-  O316  1  0.03946748  0.77785189  0.29136700  1
  O2-  O317  1  0.54530584  0.57467407  0.25935286  1
  O2-  O318  1  0.05699905  0.42161063  0.51430477  1
  O2-  O319  1  0.05230291  0.24047375  0.47856807  1
  O2-  O320  1  0.44799315  0.58503228  0.99063041  1
  O2-  O321  1  0.46616025  0.45724067  0.25881269  1
  O2-  O322  1  0.55156196  0.76742426  0.51598494  1
  O2-  O323  1  0.45913590  0.09714214  0.44289273  1
  O2-  O324  1  0.41957272  0.38234630  0.27206594  1
  O2-  O325  1  0.05904214  0.58501165  0.02009251  1
  O2-  O326  1  0.94068309  0.07454128  0.21002642  1
  O2-  O327  1  0.08403490  0.74020439  0.18006887  1
  O2-  O328  1  0.06130873  0.06864710  0.77379606  1
  O2-  O329  1  0.06920506  0.06617333  0.47837840  1
  O2-  O330  1  0.05904293  0.74409779  0.78251788  1
  O2-  O331  1  0.91313856  0.73424019  0.93014495  1
  O2-  O332  1  0.42614476  0.06262300  0.56951060  1
  O2-  O333  1  0.92766283  0.03534832  0.57732282  1
  O2-  O334  1  0.57205770  0.90641718  0.67560199  1
  O2-  O335  1  0.43230749  0.74126637  0.47697167  1
  O2-  O336  1  0.57365628  0.32120984  0.43121789  1
  O2-  O337  1  0.06380204  0.92476755  0.03325871  1
  O2-  O338  1  0.06263977  0.74439927  0.01849893  1
  O2-  O339  1  0.05999190  0.26187871  0.96873329  1
  O2-  O340  1  0.56430386  0.73463081  0.96384994  1
  O2-  O341  1  0.57326075  0.09325328  0.17954671  1
  O2-  O342  1  0.55809845  0.74584392  0.54567039  1
  O2-  O343  1  0.43545906  0.92156060  0.67090337  1
  O2-  O344  1  0.56202711  0.07202444  0.33155122  1
  O2-  O345  1  0.56494258  0.58784241  0.01629802  1
  O2-  O346  1  0.43158409  0.26441946  0.98130770  1
  O2-  O347  1  0.06692627  0.57565195  0.17693420  1
  O2-  O348  1  0.43172798  0.93128226  0.03255947  1
  O2-  O349  1  0.43624494  0.95332323  0.32184379  1
  O2-  O350  1  0.06065265  0.08104071  0.08190351  1
  O2-  O351  1  0.58784179  0.30045441  0.04261945  1
  O2-  O352  1  0.44381177  0.91900057  0.46884103  1
  O2-  O353  1  0.56054949  0.25625533  0.23356123  1
  O2-  O354  1  0.94533685  0.91807556  0.73076000  1
  O2-  O355  1  0.94132996  0.57919472  0.69526968  1
  O2-  O356  1  0.56345402  0.25350663  0.72777799  1
  O2-  O357  1  0.93038504  0.32008516  0.81685464  1
  O2-  O358  1  0.06536858  0.74344119  0.47597284  1
  O2-  O359  1  0.58580537  0.41182854  0.67222217  1
  O2-  O360  1  0.42844949  0.29985749  0.54298997  1
  O2-  O361  1  0.42048415  0.39696069  0.07832790  1
  O2-  O362  1  0.91917912  0.09298365  0.41930762  1
  O2-  O363  1  0.05973460  0.07262067  0.92990512  1
  O2-  O364  1  0.91499582  0.58165227  0.84840198  1
  O2-  O365  1  0.56033838  0.07765747  0.73873427  1
  O2-  O366  1  0.06733521  0.58458515  0.31561903  1
  O2-  O367  1  0.56525484  0.91626061  0.52407594  1
  O2-  O368  1  0.43243277  0.91377439  0.81932396  1
  O2-  O369  1  0.06542976  0.59831458  0.53512364  1
  O2-  O370  1  0.44065165  0.08267526  0.21067599  1
  O2-  O371  1  0.56467094  0.92580517  0.81980945  1
  O2-  O372  1  0.75079144  0.67040358  0.09916706  1
  O2-  O373  1  0.75266197  0.67037372  0.36628846  1
  O2-  O374  1  0.24838391  0.00290238  0.65765801  1
  O2-  O375  1  0.24975872  -0.01405147  0.09059390  1
  O2-  O376  1  0.74913575  0.00411464  0.60225185  1
  O2-  O377  1  0.25013041  0.33030094  0.80314615  1
  O2-  O378  1  0.25132410  0.65453782  0.17263478  1
  O2-  O379  1  0.25061186  -0.00668592  0.33414734  1
  O2-  O380  1  0.25060151  0.67811954  0.08323059  1
  O2-  O381  1  0.74594323  0.66120934  0.88018126  1
  O2-  O382  1  0.75099691  0.33861396  0.07756553  1
  O2-  O383  1  0.25050249  0.32690081  0.57073509  1
  O2-  O384  1  0.75189670  0.35073436  0.17092889  1
  O2-  O385  1  0.24887663  0.32533562  0.66241223  1
  O2-  O386  1  0.75410197  0.36334583  0.34331949  1
  O2-  O387  1  0.24881584  0.33871536  0.33255317  1
  O2-  O388  1  0.25019816  0.33105770  0.42557154  1
  O2-  O389  1  0.24781386  0.30926078  0.92869414  1
  O2-  O390  1  0.75220120  0.33161144  0.62608744  1
  O2-  O391  1  0.24923700  0.01402104  0.42393915  1
  O2-  O392  1  0.24886489  0.35022584  0.19341688  1
  O2-  O393  1  0.24941308  0.32306536  0.07174621  1
  O2-  O394  1  0.74988347  0.32706321  0.42686397  1
  O2-  O395  1  0.24997150  -0.00128062  0.90127637  1
  O2-  O396  1  0.25089910  0.17414209  0.36873698  1
  O2-  O397  1  0.25001343  0.50996210  0.80058372  1
  O2-  O398  1  0.75004204  0.83809288  0.09121171  1
  O2-  O399  1  0.75018466  0.17686062  0.33975172  1
  O2-  O400  1  0.25008814  0.83338400  0.68531285  1
  O2-  O401  1  0.74913510  0.16993523  0.57608195  1
  O2-  O402  1  0.24924816  0.14299467  0.28815848  1
  O2-  O403  1  0.75025363  0.83810597  0.65082582  1
  O2-  O404  1  0.75091650  0.52110751  0.37978482  1
  O2-  O405  1  0.75060637  0.51122292  0.09274725  1
  O2-  O406  1  0.74961536  0.52945046  0.61756262  1
  O2-  O407  1  0.74942637  0.17700599  0.43114566  1
  O2-  O408  1  0.25013121  0.82606731  0.59805404  1
  O2-  O409  1  0.25155120  0.16280183  0.63565545  1
  O2-  O410  1  0.75161463  0.15764766  0.93249767  1
  O2-  O411  1  0.25071979  0.82146477  0.33495689  1
  O2-  O412  1  0.25015491  0.83723959  0.91847037  1
  O2-  O413  1  0.75072106  0.18653728  0.83856732  1
  O2-  O414  1  0.25031815  0.18190147  0.72308502  1
  O2-  O415  1  0.25021251  0.49620185  0.92448188  1
  O2-  O416  1  0.25017298  0.51174035  0.39209083  1
  O2-  O417  1  0.24994860  0.82739857  0.15610992  1
  O2-  O418  1  0.24969577  0.17950031  0.13836889  1
  O2-  O419  1  0.75052332  0.85317580  0.36768113  1
  O2-  O420  1  0.45536556  0.32843666  0.85146984  1
  O2-  O421  1  0.03150177  -0.00206094  0.62379541  1
  O2-  O422  1  0.95238958  0.33520592  0.12435487  1
  O2-  O423  1  0.52051867  0.01162358  0.62222484  1
  O2-  O424  1  0.54264756  0.68041833  0.12777040  1
  O2-  O425  1  0.00564390  0.66605961  0.37769062  1
  O2-  O426  1  -0.00441020  0.66543339  0.12745332  1
  O2-  O427  1  0.02650716  0.33117041  0.62606988  1
  O2-  O428  1  0.99776458  0.67586573  0.87428295  1
  O2-  O429  1  0.51248721  0.34637274  0.61685018  1
  O2-  O430  1  0.95256760  -0.02767396  0.36057548  1
  O2-  O431  1  0.97731743  0.68925441  0.61534256  1
  O2-  O432  1  0.04991231  -0.00390425  0.35112698  1
  O2-  O433  1  0.54672796  0.67610249  0.38691119  1
  O2-  O434  1  0.47141071  0.66598682  0.62581219  1
  O2-  O435  1  0.48144011  0.02170231  0.87289129  1
  O2-  O436  1  0.54561349  0.32220390  0.87651135  1
  O2-  O437  1  0.51015380  0.33966322  0.12756767  1
  O2-  O438  1  0.04737148  0.33422224  0.13440457  1
  O2-  O439  1  0.45539382  0.64781823  0.35444589  1
  O2-  O440  1  0.47545085  0.32077511  0.37628060  1
  O2-  O441  1  0.45154954  0.65738705  0.14298521  1
  O2-  O442  1  0.52183514  -0.00018793  0.11670471  1
  O2-  O443  1  0.97448209  0.33224881  0.36566291  1
