# generated using pymatgen
data_La7(Ru4O11)2
_symmetry_space_group_name_H-M   'P 1'
_cell_length_a   23.99075386
_cell_length_b   16.83124000
_cell_length_c   15.42770979
_cell_angle_alpha   90.00176448
_cell_angle_beta   89.99852108
_cell_angle_gamma   90.00093098
_symmetry_Int_Tables_number   1
_chemical_formula_structural   La7(Ru4O11)2
_chemical_formula_sum   'La84 Ru96 O264'
_cell_volume   6229.61873956
_cell_formula_units_Z   12
loop_
 _symmetry_equiv_pos_site_id
 _symmetry_equiv_pos_as_xyz
  1  'x, y, z'
loop_
 _atom_type_symbol
 _atom_type_oxidation_number
  La3+  3.0
  Ru4+  4.0
  O2-  -2.0
loop_
 _atom_site_type_symbol
 _atom_site_label
 _atom_site_symmetry_multiplicity
 _atom_site_fract_x
 _atom_site_fract_y
 _atom_site_fract_z
 _atom_site_occupancy
  La3+  La0  1  0.14406269  -0.00012309  0.12536060  1
  La3+  La1  1  0.13954711  0.00176374  0.37200939  1
  La3+  La2  1  0.13333972  0.00245750  0.62844233  1
  La3+  La3  1  0.14166297  0.00029928  0.87584423  1
  La3+  La4  1  0.13849760  0.33265089  0.12431194  1
  La3+  La5  1  0.13576495  0.33331617  0.37403032  1
  La3+  La6  1  0.13616077  0.33271842  0.62927886  1
  La3+  La7  1  0.13734893  0.33208185  0.87421980  1
  La3+  La8  1  0.13130835  0.65709730  0.13523895  1
  La3+  La9  1  0.13010248  0.66191742  0.36604118  1
  La3+  La10  1  0.13965051  0.66770665  0.62885606  1
  La3+  La11  1  0.14200123  0.66328704  0.87553056  1
  La3+  La12  1  0.63858711  0.00141056  0.12234912  1
  La3+  La13  1  0.64233430  0.00165441  0.37821744  1
  La3+  La14  1  0.63913205  0.00009738  0.62073973  1
  La3+  La15  1  0.63847914  -0.00085831  0.87694124  1
  La3+  La16  1  0.64024401  0.33451864  0.12458327  1
  La3+  La17  1  0.64044537  0.33130716  0.37803617  1
  La3+  La18  1  0.64011487  0.33403871  0.61951203  1
  La3+  La19  1  0.63851588  0.33462113  0.87673227  1
  La3+  La20  1  0.63982210  0.66725227  0.12719232  1
  La3+  La21  1  0.64314761  0.66459643  0.37870910  1
  La3+  La22  1  0.64173948  0.66721001  0.61980199  1
  La3+  La23  1  0.63878308  0.66888437  0.87621154  1
  La3+  La24  1  0.35518618  -0.00052713  0.12629664  1
  La3+  La25  1  0.35698589  -0.00390305  0.36918251  1
  La3+  La26  1  0.36087051  -0.00122494  0.62757944  1
  La3+  La27  1  0.35843061  -0.00085659  0.87691279  1
  La3+  La28  1  0.35652178  0.33274824  0.12252539  1
  La3+  La29  1  0.36282286  0.33411538  0.37148612  1
  La3+  La30  1  0.36284654  0.33759784  0.62261218  1
  La3+  La31  1  0.36464085  0.33215655  0.87470433  1
  La3+  La32  1  0.36331048  0.66631182  0.12861347  1
  La3+  La33  1  0.36450054  0.66820648  0.36815282  1
  La3+  La34  1  0.36226891  0.66784438  0.62647376  1
  La3+  La35  1  0.36112786  0.66828099  0.87440344  1
  La3+  La36  1  0.86114325  0.00143128  0.12270082  1
  La3+  La37  1  0.85761196  0.00125533  0.37920820  1
  La3+  La38  1  0.86315547  0.00081548  0.62259605  1
  La3+  La39  1  0.86187414  0.00103417  0.87585652  1
  La3+  La40  1  0.85954569  0.33534741  0.12439581  1
  La3+  La41  1  0.86061502  0.33408930  0.37801283  1
  La3+  La42  1  0.85935258  0.33568602  0.62004760  1
  La3+  La43  1  0.86071754  0.33531397  0.87630733  1
  La3+  La44  1  0.85918791  0.66584645  0.12331040  1
  La3+  La45  1  0.85707549  0.66471422  0.37844000  1
  La3+  La46  1  0.86007399  0.66608321  0.62105639  1
  La3+  La47  1  0.86267772  0.66751819  0.87771004  1
  La3+  La48  1  0.00273982  0.50514934  0.14292474  1
  La3+  La49  1  0.00249322  0.83556993  0.88164275  1
  La3+  La50  1  0.00170613  0.83884427  0.38819754  1
  La3+  La51  1  0.49989985  0.50530286  0.87963432  1
  La3+  La52  1  0.50167389  0.50711478  0.86336833  1
  La3+  La53  1  0.49541862  0.83536869  0.13268359  1
  La3+  La54  1  0.00109233  0.84098180  0.37141621  1
  La3+  La55  1  -0.00006686  0.82961161  0.86034637  1
  La3+  La56  1  -0.00113798  0.49760718  0.36274775  1
  La3+  La57  1  0.50141620  0.83271415  0.88229633  1
  La3+  La58  1  0.00472959  0.15736125  0.87012138  1
  La3+  La59  1  -0.00095370  0.83089778  0.13850607  1
  La3+  La60  1  0.49918330  0.83237264  0.36704171  1
  La3+  La61  1  -0.00150503  0.84112182  0.11879239  1
  La3+  La62  1  -0.00095701  0.16660700  0.63267099  1
  La3+  La63  1  0.49746613  0.17221641  0.12441726  1
  La3+  La64  1  0.00018843  0.16566810  0.13306005  1
  La3+  La65  1  0.49833885  0.83698618  0.62059085  1
  La3+  La66  1  0.00033151  0.50027131  0.63304012  1
  La3+  La67  1  0.49513907  0.50317638  0.62757749  1
  La3+  La68  1  0.49749521  0.50219667  0.36589016  1
  La3+  La69  1  0.00040341  0.50016984  0.88766064  1
  La3+  La70  1  0.50042432  0.49901500  0.38747448  1
  La3+  La71  1  -0.00176333  0.17048582  0.38287786  1
  La3+  La72  1  0.24928195  0.12700992  0.24784588  1
  La3+  La73  1  0.74986059  0.83381647  0.50901428  1
  La3+  La74  1  0.24981280  0.83427301  0.76358079  1
  La3+  La75  1  0.24965459  0.89726434  0.52843409  1
  La3+  La76  1  0.75003310  0.88180732  0.26088644  1
  La3+  La77  1  0.24945340  0.50756841  0.50207267  1
  La3+  La78  1  0.75027155  0.46255262  0.75037187  1
  La3+  La79  1  0.24992092  0.84024127  0.23336190  1
  La3+  La80  1  0.24970511  0.44509786  0.01751349  1
  La3+  La81  1  0.74955381  0.16922125  0.68733499  1
  La3+  La82  1  0.25020907  0.16242324  -0.02163298  1
  La3+  La83  1  0.25030737  0.14540479  0.55117244  1
  Ru4+  Ru84  1  -0.00044554  0.00466002  -0.00108517  1
  Ru4+  Ru85  1  0.00141275  0.00599438  0.25330620  1
  Ru4+  Ru86  1  0.00052081  -0.00057192  0.50483162  1
  Ru4+  Ru87  1  0.00031863  -0.01193988  0.74548374  1
  Ru4+  Ru88  1  0.00106637  0.33336813  -0.00289700  1
  Ru4+  Ru89  1  0.00148829  0.33391006  0.24948121  1
  Ru4+  Ru90  1  0.00037652  0.33288291  0.49796107  1
  Ru4+  Ru91  1  -0.00083396  0.33335059  0.75139643  1
  Ru4+  Ru92  1  -0.00532542  0.65949309  -0.00058620  1
  Ru4+  Ru93  1  0.00007304  0.66247065  0.24883742  1
  Ru4+  Ru94  1  0.00147661  0.66145807  0.50410502  1
  Ru4+  Ru95  1  -0.00020842  0.66484786  0.74196661  1
  Ru4+  Ru96  1  0.49778622  -0.00593907  -0.00358152  1
  Ru4+  Ru97  1  0.49845063  0.00178574  0.25433143  1
  Ru4+  Ru98  1  0.49696207  0.00883539  0.49814137  1
  Ru4+  Ru99  1  0.49849494  0.00446900  0.74915859  1
  Ru4+  Ru100  1  0.50039007  0.33402532  0.00434196  1
  Ru4+  Ru101  1  0.49966723  0.33528104  0.24601453  1
  Ru4+  Ru102  1  0.50622229  0.32773810  0.49332018  1
  Ru4+  Ru103  1  0.50294364  0.33087442  0.75070379  1
  Ru4+  Ru104  1  0.49840968  0.66515456  0.00319275  1
  Ru4+  Ru105  1  0.50526290  0.66256064  0.24422577  1
  Ru4+  Ru106  1  0.49623933  0.66258937  0.50086062  1
  Ru4+  Ru107  1  0.49978407  0.66641411  0.75114455  1
  Ru4+  Ru108  1  0.11087156  0.16484029  -0.00019792  1
  Ru4+  Ru109  1  0.10939101  0.16547546  0.24976989  1
  Ru4+  Ru110  1  0.11352027  0.17189218  0.49856474  1
  Ru4+  Ru111  1  0.11604349  0.17243907  0.75033278  1
  Ru4+  Ru112  1  0.11400782  0.49418569  0.00103681  1
  Ru4+  Ru113  1  0.11313239  0.50170817  0.25126193  1
  Ru4+  Ru114  1  0.10805652  0.50192318  0.49874833  1
  Ru4+  Ru115  1  0.11168032  0.49964443  0.74923752  1
  Ru4+  Ru116  1  0.11722569  0.83610281  -0.00189473  1
  Ru4+  Ru117  1  0.11415814  0.83342275  0.25061551  1
  Ru4+  Ru118  1  0.11254638  0.83261571  0.50303641  1
  Ru4+  Ru119  1  0.11140352  0.83152962  0.74816616  1
  Ru4+  Ru120  1  0.61567209  0.16718337  -0.00183894  1
  Ru4+  Ru121  1  0.61403866  0.16619678  0.24946125  1
  Ru4+  Ru122  1  0.61426279  0.16962653  0.49967910  1
  Ru4+  Ru123  1  0.60968001  0.16875486  0.74916976  1
  Ru4+  Ru124  1  0.61554948  0.49833022  0.00139193  1
  Ru4+  Ru125  1  0.61362833  0.50298993  0.25011958  1
  Ru4+  Ru126  1  0.61561901  0.49837239  0.49987837  1
  Ru4+  Ru127  1  0.61187842  0.50198691  0.74990528  1
  Ru4+  Ru128  1  0.61318080  0.83114238  -0.00081895  1
  Ru4+  Ru129  1  0.61095482  0.82946451  0.25150065  1
  Ru4+  Ru130  1  0.61482966  0.83799603  0.50060109  1
  Ru4+  Ru131  1  0.61256184  0.83547516  0.75052201  1
  Ru4+  Ru132  1  0.38738574  0.16665417  0.00011983  1
  Ru4+  Ru133  1  0.38864023  0.16252038  0.25112281  1
  Ru4+  Ru134  1  0.39116031  0.16071135  0.49957564  1
  Ru4+  Ru135  1  0.38588523  0.16697290  0.74810404  1
  Ru4+  Ru136  1  0.38907859  0.49903077  0.00404642  1
  Ru4+  Ru137  1  0.38673729  0.50250325  0.25124460  1
  Ru4+  Ru138  1  0.38522386  0.50709022  0.50086602  1
  Ru4+  Ru139  1  0.38659153  0.49783047  0.75002325  1
  Ru4+  Ru140  1  0.38752278  0.83606532  -0.00103281  1
  Ru4+  Ru141  1  0.38575667  0.83779531  0.25100651  1
  Ru4+  Ru142  1  0.38948162  0.83247975  0.50090649  1
  Ru4+  Ru143  1  0.38918671  0.83313800  0.75023184  1
  Ru4+  Ru144  1  0.88725746  0.16368718  0.00026719  1
  Ru4+  Ru145  1  0.88774965  0.16712048  0.25141763  1
  Ru4+  Ru146  1  0.88516708  0.16700521  0.49914088  1
  Ru4+  Ru147  1  0.88660009  0.17185228  0.74911118  1
  Ru4+  Ru148  1  0.88664353  0.49725844  -0.00041418  1
  Ru4+  Ru149  1  0.88730475  0.50180888  0.24896072  1
  Ru4+  Ru150  1  0.88467320  0.49765079  0.49928006  1
  Ru4+  Ru151  1  0.88954717  0.50017043  0.74984139  1
  Ru4+  Ru152  1  0.88030266  0.83678155  -0.00017328  1
  Ru4+  Ru153  1  0.88536824  0.83143348  0.24913686  1
  Ru4+  Ru154  1  0.88264868  0.83257927  0.50047851  1
  Ru4+  Ru155  1  0.88685905  0.83424175  0.74978301  1
  Ru4+  Ru156  1  0.75033974  0.74988612  0.74645865  1
  Ru4+  Ru157  1  0.75030422  0.24605166  0.00471355  1
  Ru4+  Ru158  1  0.75002192  0.42234009  0.25925044  1
  Ru4+  Ru159  1  0.74943361  0.91780695  -0.00448394  1
  Ru4+  Ru160  1  0.75021937  0.57067818  0.00027760  1
  Ru4+  Ru161  1  0.25010376  0.75121915  -0.00106763  1
  Ru4+  Ru162  1  0.75002214  0.90890393  0.75476334  1
  Ru4+  Ru163  1  0.74993289  0.08710480  0.25769038  1
  Ru4+  Ru164  1  0.24977412  0.08481488  0.75087848  1
  Ru4+  Ru165  1  0.25011385  0.02892227  0.48039035  1
  Ru4+  Ru166  1  0.75031877  0.29854119  0.72967435  1
  Ru4+  Ru167  1  0.24959461  0.59438120  0.00912183  1
  Ru4+  Ru168  1  0.25026790  0.42564271  0.24962179  1
  Ru4+  Ru169  1  0.74997856  0.24382897  0.25094529  1
  Ru4+  Ru170  1  0.25012530  0.38366401  0.52547441  1
  Ru4+  Ru171  1  0.24978086  0.62791940  0.45777011  1
  Ru4+  Ru172  1  0.24976612  0.40864486  0.74325544  1
  Ru4+  Ru173  1  0.25002875  0.26118124  0.48722675  1
  Ru4+  Ru174  1  0.24955777  0.27442716  0.25556337  1
  Ru4+  Ru175  1  0.75011055  0.60777263  0.73862266  1
  Ru4+  Ru176  1  0.24969467  0.74749107  0.50948666  1
  Ru4+  Ru177  1  0.74981095  0.05674188  0.76636040  1
  Ru4+  Ru178  1  0.24975772  0.58171857  0.74352105  1
  Ru4+  Ru179  1  0.75000307  0.72266734  0.26266942  1
  O2-  O180  1  0.16566835  0.08197918  -0.00057613  1
  O2-  O181  1  0.16143574  0.07974036  0.25147757  1
  O2-  O182  1  0.16535657  0.07868324  0.50148900  1
  O2-  O183  1  0.16776215  0.08154918  0.74991152  1
  O2-  O184  1  0.16209007  0.40849466  -0.00206134  1
  O2-  O185  1  0.16522597  0.41486086  0.24922473  1
  O2-  O186  1  0.16372684  0.41311397  0.50072167  1
  O2-  O187  1  0.16799511  0.41187712  0.74987609  1
  O2-  O188  1  0.16726584  0.74730032  0.00131390  1
  O2-  O189  1  0.16915140  0.74584744  0.25013353  1
  O2-  O190  1  0.16732593  0.74663463  0.49892896  1
  O2-  O191  1  0.16859219  0.74934811  0.75074266  1
  O2-  O192  1  0.66911550  0.08010999  0.00338389  1
  O2-  O193  1  0.66739569  0.07966835  0.24815357  1
  O2-  O194  1  0.66336802  0.08369767  0.50100809  1
  O2-  O195  1  0.66494817  0.07881337  0.74892679  1
  O2-  O196  1  0.66743541  0.41642193  -0.00206400  1
  O2-  O197  1  0.66816373  0.41472387  0.25070212  1
  O2-  O198  1  0.66709870  0.41549773  0.50063998  1
  O2-  O199  1  0.66225120  0.41019527  0.75005270  1
  O2-  O200  1  0.66480522  0.74662682  -0.00066695  1
  O2-  O201  1  0.66917873  0.74704782  0.24857201  1
  O2-  O202  1  0.66639020  0.74847572  0.50143566  1
  O2-  O203  1  0.66675115  0.74565535  0.75085633  1
  O2-  O204  1  0.33250015  0.25306941  -0.00396455  1
  O2-  O205  1  0.33192510  0.25136076  0.25377069  1
  O2-  O206  1  0.33449702  0.25203270  0.50099673  1
  O2-  O207  1  0.32959598  0.24937344  0.75306655  1
  O2-  O208  1  0.33356542  0.58595442  0.00014218  1
  O2-  O209  1  0.33526495  0.58666415  0.25081923  1
  O2-  O210  1  0.33314595  0.58961592  0.49850420  1
  O2-  O211  1  0.33417045  0.58660098  0.75038386  1
  O2-  O212  1  0.33589808  0.91789437  -0.00107997  1
  O2-  O213  1  0.33296842  0.91664789  0.24726893  1
  O2-  O214  1  0.33834027  0.92129689  0.49952919  1
  O2-  O215  1  0.33376524  0.91898467  0.75197763  1
  O2-  O216  1  0.83507358  0.25118233  0.00079219  1
  O2-  O217  1  0.83189350  0.25252924  0.24975006  1
  O2-  O218  1  0.83479185  0.25202813  0.49824000  1
  O2-  O219  1  0.83145584  0.25317218  0.75080472  1
  O2-  O220  1  0.83211857  0.58612409  -0.00176224  1
  O2-  O221  1  0.83544019  0.58383995  0.25102339  1
  O2-  O222  1  0.83683256  0.58391625  0.49999918  1
  O2-  O223  1  0.83092991  0.58823563  0.75103206  1
  O2-  O224  1  0.83062331  0.92074058  -0.00112992  1
  O2-  O225  1  0.83784554  0.92301031  0.24976947  1
  O2-  O226  1  0.83397063  0.91821581  0.50073184  1
  O2-  O227  1  0.83462274  0.91901526  0.74888509  1
  O2-  O228  1  0.16756221  0.25481161  -0.00094106  1
  O2-  O229  1  0.16618840  0.25524217  0.25087560  1
  O2-  O230  1  0.16664500  0.25400837  0.50114700  1
  O2-  O231  1  0.16743861  0.25384114  0.75044617  1
  O2-  O232  1  0.16680806  0.58650501  0.00213543  1
  O2-  O233  1  0.16973789  0.58553983  0.24912872  1
  O2-  O234  1  0.16665800  0.58680846  0.49889497  1
  O2-  O235  1  0.16578816  0.58399823  0.75057129  1
  O2-  O236  1  0.16722445  0.91803691  -0.00139163  1
  O2-  O237  1  0.16638459  0.91858862  0.25181632  1
  O2-  O238  1  0.16049254  0.92317088  0.49841279  1
  O2-  O239  1  0.16507339  0.91793196  0.75049278  1
  O2-  O240  1  0.66580854  0.25195589  0.00052313  1
  O2-  O241  1  0.66673175  0.25179329  0.25010775  1
  O2-  O242  1  0.66808708  0.24997579  0.50014294  1
  O2-  O243  1  0.66662570  0.25427188  0.74956098  1
  O2-  O244  1  0.66682622  0.58581662  -0.00152163  1
  O2-  O245  1  0.66497974  0.58396697  0.24913318  1
  O2-  O246  1  0.66347842  0.58410075  0.50220215  1
  O2-  O247  1  0.66672049  0.58766824  0.75011194  1
  O2-  O248  1  0.66847987  0.92098565  0.00119676  1
  O2-  O249  1  0.66124514  0.92261608  0.24836246  1
  O2-  O250  1  0.66570635  0.91848131  0.50033816  1
  O2-  O251  1  0.66588419  0.91833666  0.74869462  1
  O2-  O252  1  0.33435272  0.08123696  -0.00074034  1
  O2-  O253  1  0.33563631  0.08100099  0.24945115  1
  O2-  O254  1  0.33176817  0.08038977  0.50192293  1
  O2-  O255  1  0.33320604  0.08264059  0.75106619  1
  O2-  O256  1  0.33601721  0.41102284  -0.00599777  1
  O2-  O257  1  0.33240328  0.41455126  0.25070731  1
  O2-  O258  1  0.33453219  0.41365339  0.49770992  1
  O2-  O259  1  0.33163597  0.41274863  0.75114108  1
  O2-  O260  1  0.33454378  0.74594785  -0.00061077  1
  O2-  O261  1  0.33288815  0.74704281  0.25024373  1
  O2-  O262  1  0.33465655  0.74687789  0.50002440  1
  O2-  O263  1  0.33421285  0.74664443  0.75048478  1
  O2-  O264  1  0.83148601  0.08027881  0.00004990  1
  O2-  O265  1  0.83324024  0.08098626  0.24903316  1
  O2-  O266  1  0.83615082  0.08230187  0.50107180  1
  O2-  O267  1  0.83510520  0.07948105  0.74924347  1
  O2-  O268  1  0.83599496  0.41541976  0.00013499  1
  O2-  O269  1  0.83100374  0.41463271  0.25111735  1
  O2-  O270  1  0.83362102  0.41635622  0.49904804  1
  O2-  O271  1  0.83858864  0.41166720  0.75081407  1
  O2-  O272  1  0.83331155  0.74717000  -0.00203393  1
  O2-  O273  1  0.83016224  0.74702238  0.25214040  1
  O2-  O274  1  0.83284094  0.74877993  0.50018081  1
  O2-  O275  1  0.83153618  0.74605536  0.75089834  1
  O2-  O276  1  0.94783802  0.90396604  0.48262036  1
  O2-  O277  1  0.54846495  0.75789752  0.20534953  1
  O2-  O278  1  0.96418512  0.22474557  0.78381482  1
  O2-  O279  1  0.95681107  0.76195002  0.51720381  1
  O2-  O280  1  0.45443889  0.23597687  0.01181960  1
  O2-  O281  1  0.53931323  0.10478959  1.00482004  1
  O2-  O282  1  0.54360679  0.76774448  0.75220407  1
  O2-  O283  1  0.46761866  0.21674796  0.24903195  1
  O2-  O284  1  0.04655993  0.10140182  0.51959954  1
  O2-  O285  1  0.04350154  0.56029488  0.25752905  1
  O2-  O286  1  0.54636605  0.76145124  0.51795134  1
  O2-  O287  1  0.44734263  0.42551620  0.95378107  1
  O2-  O288  1  0.96234840  0.77229028  0.28228466  1
  O2-  O289  1  0.55372109  0.23423490  0.73574099  1
  O2-  O290  1  0.45362459  0.57128644  0.75878077  1
  O2-  O291  1  0.03446806  0.55728829  0.46549221  1
  O2-  O292  1  0.45489065  0.08732242  0.73609245  1
  O2-  O293  1  0.54283318  0.44893971  0.53539480  1
  O2-  O294  1  0.04840684  0.09945947  0.73727048  1
  O2-  O295  1  0.04592484  0.42944391  0.48932369  1
  O2-  O296  1  0.04471411  0.57059493  0.01740604  1
  O2-  O297  1  0.54708585  0.76430718  0.47862092  1
  O2-  O298  1  0.95981056  0.90432561  0.51717040  1
  O2-  O299  1  0.95246380  0.90386465  0.24075673  1
  O2-  O300  1  0.46529811  0.22961898  0.49652720  1
  O2-  O301  1  0.45965499  0.22266883  0.78520973  1
  O2-  O302  1  0.94825329  0.76457141  0.48073896  1
  O2-  O303  1  0.54583566  0.90508783  0.25923861  1
  O2-  O304  1  0.04606790  0.76368212  0.70759347  1
  O2-  O305  1  0.04890564  0.56699084  0.23148377  1
  O2-  O306  1  0.04569821  0.09291476  0.48134561  1
  O2-  O307  1  0.94902632  0.09563870  0.73566508  1
  O2-  O308  1  0.46408409  0.22010645  0.74774359  1
  O2-  O309  1  0.45620062  0.89984166  0.48748639  1
  O2-  O310  1  0.44957501  0.76425278  0.26446299  1
  O2-  O311  1  0.54521371  0.42988686  0.26433979  1
  O2-  O312  1  0.48073063  0.11479203  0.48071942  1
  O2-  O313  1  0.54216119  0.44611498  0.97081262  1
  O2-  O314  1  0.46365262  0.22282965  0.28678300  1
  O2-  O315  1  0.95194143  0.76279535  0.97842315  1
  O2-  O316  1  0.54595395  0.43365276  0.75926740  1
  O2-  O317  1  0.54386440  0.76723867  0.74883810  1
  O2-  O318  1  0.45037651  0.43163004  0.51069249  1
  O2-  O319  1  0.05215781  0.76219085  0.45933825  1
  O2-  O320  1  0.04433409  0.23122362  0.98894543  1
  O2-  O321  1  0.95042763  0.76596430  0.01743433  1
  O2-  O322  1  0.53965807  0.10515347  0.00571209  1
  O2-  O323  1  0.04742203  0.77844385  0.02974380  1
  O2-  O324  1  0.43795437  0.06893877  0.18578868  1
  O2-  O325  1  0.44272606  0.41559098  0.94739665  1
  O2-  O326  1  0.06562983  0.74615836  0.28039445  1
  O2-  O327  1  0.57856812  0.06092003  0.95653561  1
  O2-  O328  1  0.07055291  0.59567372  0.27643304  1
  O2-  O329  1  0.93820090  0.06891740  0.92979349  1
  O2-  O330  1  0.06308056  0.75351919  0.45881879  1
  O2-  O331  1  0.06443299  0.26090031  0.47404807  1
  O2-  O332  1  0.93543891  0.58968191  0.72432217  1
  O2-  O333  1  0.92286003  0.27349080  0.69863483  1
  O2-  O334  1  0.43021643  0.05905602  0.57404700  1
  O2-  O335  1  0.56442667  0.25829933  0.46697144  1
  O2-  O336  1  0.43119758  0.39324653  0.08155366  1
  O2-  O337  1  0.42069395  0.29563100  0.19325970  1
  O2-  O338  1  0.93321178  0.92676291  0.02634585  1
  O2-  O339  1  0.57570197  0.39264509  0.04929866  1
  O2-  O340  1  0.93735627  0.40629954  0.21560252  1
  O2-  O341  1  0.05442768  0.75173981  0.70072064  1
  O2-  O342  1  0.06921243  0.73512357  0.57283009  1
  O2-  O343  1  0.57687579  0.73703222  0.32863655  1
  O2-  O344  1  0.93858316  0.06723060  0.71768266  1
  O2-  O345  1  0.07206548  0.72235845  0.94965260  1
  O2-  O346  1  0.93248410  0.74227599  0.80443997  1
  O2-  O347  1  0.55735690  0.74855144  0.19427853  1
  O2-  O348  1  0.93702978  0.26085638  0.28446869  1
  O2-  O349  1  0.41406531  0.28076867  0.69884597  1
  O2-  O350  1  0.93303606  0.74544042  0.69519188  1
  O2-  O351  1  0.43717531  0.07390638  0.30745025  1
  O2-  O352  1  0.43469710  0.59230878  0.02329852  1
  O2-  O353  1  0.92219814  0.72608067  0.20266805  1
  O2-  O354  1  0.06538406  0.92714067  0.22474427  1
  O2-  O355  1  0.43583075  0.92531380  0.28273720  1
  O2-  O356  1  0.43715424  0.73792581  0.28333617  1
  O2-  O357  1  0.42551563  0.05019765  0.43364359  1
  O2-  O358  1  0.06626009  0.58848605  0.02485251  1
  O2-  O359  1  0.43664496  0.41158363  0.72438926  1
  O2-  O360  1  0.93662006  0.40294368  0.46541415  1
  O2-  O361  1  0.07269973  0.60329136  0.55788784  1
  O2-  O362  1  0.43719553  0.59671804  0.53321485  1
  O2-  O363  1  0.06241335  0.40329168  0.71618078  1
  O2-  O364  1  0.42647816  0.28031971  0.45800110  1
  O2-  O365  1  0.56416093  0.92223310  0.97424258  1
  O2-  O366  1  0.43487135  0.40716687  0.52630582  1
  O2-  O367  1  0.06537621  0.92884143  0.02385130  1
  O2-  O368  1  0.06373472  0.07318644  0.72492308  1
  O2-  O369  1  0.57088936  0.39236780  0.43769664  1
  O2-  O370  1  0.06894349  0.72672070  0.82636172  1
  O2-  O371  1  0.93429675  0.08304690  0.05976655  1
  O2-  O372  1  0.74969442  0.66611445  0.15398656  1
  O2-  O373  1  0.25006897  0.67187880  0.10163907  1
  O2-  O374  1  0.25038362  0.67021732  0.91729131  1
  O2-  O375  1  0.75015274  0.00070609  0.57226900  1
  O2-  O376  1  0.75026653  0.33577758  0.93120838  1
  O2-  O377  1  0.25024515  0.67789895  0.68309799  1
  O2-  O378  1  0.25018616  0.67278547  0.81663477  1
  O2-  O379  1  0.75061990  0.67200572  0.39138159  1
  O2-  O380  1  0.75027201  -0.00025098  0.39284289  1
  O2-  O381  1  0.75015141  0.33646730  0.06744707  1
  O2-  O382  1  0.25032401  0.33346240  0.38562283  1
  O2-  O383  1  0.25037739  -0.00017804  0.15542031  1
  O2-  O384  1  0.24877530  0.00068334  0.35386986  1
  O2-  O385  1  0.24994347  0.00421676  0.91802604  1
  O2-  O386  1  0.74964471  0.33481411  0.18482769  1
  O2-  O387  1  0.25025722  0.66458439  0.59058352  1
  O2-  O388  1  0.74941481  0.67002777  0.61159341  1
  O2-  O389  1  0.74963802  0.32755644  0.60594543  1
  O2-  O390  1  0.75026442  -0.01283312  0.86536232  1
  O2-  O391  1  0.24979718  0.00222858  0.65194064  1
  O2-  O392  1  0.74992392  0.34435414  0.83853821  1
  O2-  O393  1  0.25001106  -0.00282708  0.82762286  1
  O2-  O394  1  0.75015673  -0.01087224  0.66431704  1
  O2-  O395  1  0.24921230  0.33908272  0.14955613  1
  O2-  O396  1  0.24993946  0.17034906  0.39313507  1
  O2-  O397  1  0.25022915  0.81765204  0.42283321  1
  O2-  O398  1  0.75020642  0.82448859  0.14205070  1
  O2-  O399  1  0.74993259  0.83129481  0.84266517  1
  O2-  O400  1  0.74986281  0.51531844  0.88278271  1
  O2-  O401  1  0.75012065  0.16495552  0.84216043  1
  O2-  O402  1  0.25011336  0.49837510  0.65515392  1
  O2-  O403  1  0.25009838  0.49611910  0.33981585  1
  O2-  O404  1  0.74995083  0.50501944  0.08513840  1
  O2-  O405  1  0.25014590  0.49441576  0.81567058  1
  O2-  O406  1  0.74997456  0.83224154  0.65762342  1
  O2-  O407  1  0.74997693  0.81901183  0.37409552  1
  O2-  O408  1  0.25006033  0.85220419  0.03810505  1
  O2-  O409  1  0.74988485  0.51158286  0.62873891  1
  O2-  O410  1  0.25008087  0.51467656  0.90240656  1
  O2-  O411  1  0.74998752  0.15945805  0.93199068  1
  O2-  O412  1  0.75003950  0.49406318  0.39821527  1
  O2-  O413  1  0.24998218  0.17103430  0.11079326  1
  O2-  O414  1  0.75002675  0.16633673  0.34267654  1
  O2-  O415  1  0.24966915  0.82580541  0.11623273  1
  O2-  O416  1  0.25034476  0.50975010  0.13323600  1
  O2-  O417  1  0.75019330  0.82627907  0.05435494  1
  O2-  O418  1  0.24992766  0.84672003  0.35100187  1
  O2-  O419  1  0.25018933  0.81716748  0.63152014  1
  O2-  O420  1  0.97700862  0.34073125  0.61685781  1
  O2-  O421  1  0.52919800  -0.00176464  0.37905345  1
  O2-  O422  1  0.52547029  0.32353338  0.13220235  1
  O2-  O423  1  0.97659602  0.65680589  0.61741660  1
  O2-  O424  1  0.96076682  0.66019988  0.37383838  1
  O2-  O425  1  0.52809620  -0.00395134  0.62500930  1
  O2-  O426  1  0.02699970  0.33427199  0.12412776  1
  O2-  O427  1  0.03983415  0.67566875  0.13228300  1
  O2-  O428  1  0.97194036  0.00277707  0.37490760  1
  O2-  O429  1  0.02513382  0.33650228  0.36638157  1
  O2-  O430  1  0.02734330  0.66330850  0.37578624  1
  O2-  O431  1  0.97626213  0.65649645  0.87869243  1
  O2-  O432  1  0.52779038  0.33206355  0.87535423  1
  O2-  O433  1  0.95647718  0.33739764  0.87987436  1
  O2-  O434  1  0.53486614  0.33434165  0.62544227  1
  O2-  O435  1  0.47577941  0.33171247  0.62409077  1
  O2-  O436  1  0.96130834  0.65189873  0.11452974  1
  O2-  O437  1  0.96618326  -0.00244073  0.14112381  1
  O2-  O438  1  0.02648979  -0.00635188  0.62158461  1
  O2-  O439  1  0.04338857  0.33624601  0.87227195  1
  O2-  O440  1  0.47310902  0.67058519  0.13084290  1
  O2-  O441  1  0.52216408  0.65238206  0.38004351  1
  O2-  O442  1  0.03559873  0.01440798  0.12390181  1
  O2-  O443  1  0.52169014  -0.00258840  0.86199059  1
