# generated using pymatgen
data_La7(Ru4O11)2
_symmetry_space_group_name_H-M   'P 1'
_cell_length_a   23.99212126
_cell_length_b   16.83385542
_cell_length_c   15.42892753
_cell_angle_alpha   90.00156663
_cell_angle_beta   90.00000794
_cell_angle_gamma   89.99659861
_symmetry_Int_Tables_number   1
_chemical_formula_structural   La7(Ru4O11)2
_chemical_formula_sum   'La84 Ru96 O264'
_cell_volume   6231.43370339
_cell_formula_units_Z   12
loop_
 _symmetry_equiv_pos_site_id
 _symmetry_equiv_pos_as_xyz
  1  'x, y, z'
loop_
 _atom_type_symbol
 _atom_type_oxidation_number
  La3+  3.0
  Ru4+  4.0
  O2-  -2.0
loop_
 _atom_site_type_symbol
 _atom_site_label
 _atom_site_symmetry_multiplicity
 _atom_site_fract_x
 _atom_site_fract_y
 _atom_site_fract_z
 _atom_site_occupancy
  La3+  La0  1  0.14353327  0.00102220  0.13276202  1
  La3+  La1  1  0.14447313  0.00359452  0.37431456  1
  La3+  La2  1  0.13859056  0.00350983  0.62023106  1
  La3+  La3  1  0.13861968  -0.00230328  0.87105834  1
  La3+  La4  1  0.14262397  0.33295289  0.13033096  1
  La3+  La5  1  0.13879946  0.33038836  0.37342176  1
  La3+  La6  1  0.14675479  0.33231716  0.62763516  1
  La3+  La7  1  0.14275295  0.33402293  0.87064825  1
  La3+  La8  1  0.14091846  0.66474025  0.12799737  1
  La3+  La9  1  0.13788290  0.66746288  0.37424569  1
  La3+  La10  1  0.13981341  0.66378140  0.62941194  1
  La3+  La11  1  0.13852656  0.66886159  0.86558714  1
  La3+  La12  1  0.64640261  0.00417769  0.13069338  1
  La3+  La13  1  0.63747928  0.00530196  0.37772782  1
  La3+  La14  1  0.63873123  -0.00139940  0.62353253  1
  La3+  La15  1  0.63652404  -0.00632775  0.88091014  1
  La3+  La16  1  0.63433727  0.33789670  0.12074117  1
  La3+  La17  1  0.64160582  0.33056536  0.37705796  1
  La3+  La18  1  0.63857507  0.33297500  0.62162497  1
  La3+  La19  1  0.63964314  0.34014709  0.88368376  1
  La3+  La20  1  0.64098910  0.66913504  0.12046914  1
  La3+  La21  1  0.63453150  0.66588245  0.37626695  1
  La3+  La22  1  0.63969169  0.66721178  0.62480549  1
  La3+  La23  1  0.63858317  0.67121433  0.87772654  1
  La3+  La24  1  0.35661114  0.00083630  0.13149914  1
  La3+  La25  1  0.35201838  0.00083733  0.37402441  1
  La3+  La26  1  0.35612362  0.00280253  0.62114881  1
  La3+  La27  1  0.36026926  -0.00084516  0.87079749  1
  La3+  La28  1  0.35954691  0.33059131  0.12960245  1
  La3+  La29  1  0.35992581  0.33008847  0.37633563  1
  La3+  La30  1  0.36587272  0.32258695  0.63411806  1
  La3+  La31  1  0.35795096  0.33071545  0.86485641  1
  La3+  La32  1  0.36630557  0.65785486  0.13501269  1
  La3+  La33  1  0.37178040  0.65515552  0.36077771  1
  La3+  La34  1  0.36294285  0.66522576  0.62735833  1
  La3+  La35  1  0.36227405  0.66488786  0.87082292  1
  La3+  La36  1  0.85744322  0.00051209  0.12481199  1
  La3+  La37  1  0.86303825  0.00716501  0.37581919  1
  La3+  La38  1  0.86038809  -0.00106430  0.62248473  1
  La3+  La39  1  0.85759252  -0.00793623  0.87605752  1
  La3+  La40  1  0.85927600  0.33262058  0.12513989  1
  La3+  La41  1  0.86014973  0.33133610  0.37591297  1
  La3+  La42  1  0.85814061  0.33059010  0.62343618  1
  La3+  La43  1  0.86726167  0.33309021  0.87353876  1
  La3+  La44  1  0.86001443  0.66807281  0.12061261  1
  La3+  La45  1  0.86463718  0.66652843  0.37625381  1
  La3+  La46  1  0.86140797  0.66547753  0.62646843  1
  La3+  La47  1  0.86232227  0.66946549  0.87731059  1
  La3+  La48  1  0.49925975  0.83494508  0.37233574  1
  La3+  La49  1  0.49973645  0.83273890  0.13603815  1
  La3+  La50  1  0.50068450  0.49744590  0.87253258  1
  La3+  La51  1  0.50415471  0.16806992  0.37775733  1
  La3+  La52  1  0.49762680  0.17302145  0.85018714  1
  La3+  La53  1  0.49131535  0.83416652  0.87370677  1
  La3+  La54  1  0.00214861  0.82589071  0.13300700  1
  La3+  La55  1  0.00126801  0.16001979  0.85771296  1
  La3+  La56  1  0.00297408  0.17283830  0.60976969  1
  La3+  La57  1  0.00847293  0.18037503  0.13010583  1
  La3+  La58  1  0.00330777  0.82911201  0.64045244  1
  La3+  La59  1  0.49871919  0.50009311  0.61468902  1
  La3+  La60  1  0.00063137  0.50565173  0.87578968  1
  La3+  La61  1  0.50918789  0.15735674  0.12278268  1
  La3+  La62  1  0.00113460  0.16728319  0.87892099  1
  La3+  La63  1  -0.00082996  0.15900716  0.38434099  1
  La3+  La64  1  0.49900942  0.17183944  0.86745030  1
  La3+  La65  1  0.49629054  0.50353673  0.35344647  1
  La3+  La66  1  0.00446914  0.83528171  0.11314671  1
  La3+  La67  1  0.00495802  0.50195400  0.37797400  1
  La3+  La68  1  0.49633118  0.50841695  0.11558280  1
  La3+  La69  1  0.00268361  0.17451477  0.14948466  1
  La3+  La70  1  -0.00702974  0.49281735  0.12718986  1
  La3+  La71  1  0.00064536  0.49740587  0.14574858  1
  La3+  La72  1  0.24980983  0.49999604  0.27674355  1
  La3+  La73  1  0.24909907  0.84123580  0.71311916  1
  La3+  La74  1  0.74959018  0.47037545  0.30017175  1
  La3+  La75  1  0.25136403  0.45319681  0.02152195  1
  La3+  La76  1  0.75008767  0.13786958  0.75826120  1
  La3+  La77  1  0.75018347  0.85446908  0.22166652  1
  La3+  La78  1  0.24894376  0.82055488  0.06119256  1
  La3+  La79  1  0.74963774  0.86919207  0.47168627  1
  La3+  La80  1  0.74986363  0.52182080  0.71556166  1
  La3+  La81  1  0.24931919  0.18478287  -0.00766236  1
  La3+  La82  1  0.74991951  0.83258037  0.75223371  1
  La3+  La83  1  0.74950369  0.22485792  0.00300100  1
  Ru4+  Ru84  1  -0.00214988  -0.00051414  -0.00843043  1
  Ru4+  Ru85  1  0.00178340  0.00071764  0.25196603  1
  Ru4+  Ru86  1  -0.00063296  -0.00972514  0.50645363  1
  Ru4+  Ru87  1  0.00143440  -0.00852116  0.75026316  1
  Ru4+  Ru88  1  0.00331722  0.33262379  0.00285414  1
  Ru4+  Ru89  1  0.00166319  0.33088679  0.25972617  1
  Ru4+  Ru90  1  -0.00082548  0.34058280  0.49102777  1
  Ru4+  Ru91  1  0.00536834  0.34275830  0.75322013  1
  Ru4+  Ru92  1  0.00259952  0.66573859  0.00001405  1
  Ru4+  Ru93  1  -0.00084110  0.66921747  0.24998029  1
  Ru4+  Ru94  1  0.00512115  0.66871860  0.49365387  1
  Ru4+  Ru95  1  0.00067149  0.66941994  0.75374151  1
  Ru4+  Ru96  1  0.50349456  0.00030317  -0.00177735  1
  Ru4+  Ru97  1  0.50136413  0.00205163  0.24087514  1
  Ru4+  Ru98  1  0.50080883  -0.00197048  0.49933608  1
  Ru4+  Ru99  1  0.50196976  -0.00480724  0.75302341  1
  Ru4+  Ru100  1  0.49344532  0.32915438  -0.00188347  1
  Ru4+  Ru101  1  0.50235109  0.33889475  0.26375443  1
  Ru4+  Ru102  1  0.49997990  0.33541638  0.49961878  1
  Ru4+  Ru103  1  0.50598347  0.32378982  0.74294143  1
  Ru4+  Ru104  1  0.49683536  0.66215073  0.00402573  1
  Ru4+  Ru105  1  0.50048186  0.66555662  0.25141675  1
  Ru4+  Ru106  1  0.49745091  0.66371369  0.50183709  1
  Ru4+  Ru107  1  0.50157999  0.66744185  0.74157912  1
  Ru4+  Ru108  1  0.10692747  0.16684740  0.00179712  1
  Ru4+  Ru109  1  0.11539251  0.16613567  0.24951124  1
  Ru4+  Ru110  1  0.11795465  0.16981075  0.49922197  1
  Ru4+  Ru111  1  0.11556111  0.16930337  0.75000883  1
  Ru4+  Ru112  1  0.11172102  0.50202777  -0.00428996  1
  Ru4+  Ru113  1  0.11460307  0.49797618  0.25259305  1
  Ru4+  Ru114  1  0.10960869  0.49889514  0.50180240  1
  Ru4+  Ru115  1  0.11318461  0.50373405  0.74576950  1
  Ru4+  Ru116  1  0.10953281  0.83488999  -0.00334234  1
  Ru4+  Ru117  1  0.11528134  0.83680599  0.25228408  1
  Ru4+  Ru118  1  0.10907044  0.83235547  0.49741689  1
  Ru4+  Ru119  1  0.10782895  0.83493659  0.75317265  1
  Ru4+  Ru120  1  0.60820399  0.16669494  0.00027593  1
  Ru4+  Ru121  1  0.61580428  0.16874033  0.24986417  1
  Ru4+  Ru122  1  0.61485369  0.16142705  0.49936769  1
  Ru4+  Ru123  1  0.60665766  0.16766462  0.74836483  1
  Ru4+  Ru124  1  0.61558747  0.49943418  0.00044543  1
  Ru4+  Ru125  1  0.60905737  0.49523145  0.25070750  1
  Ru4+  Ru126  1  0.61170363  0.49241591  0.50063685  1
  Ru4+  Ru127  1  0.60893120  0.49689416  0.75142801  1
  Ru4+  Ru128  1  0.61528601  0.83512871  0.00131871  1
  Ru4+  Ru129  1  0.60922467  0.82878069  0.24878326  1
  Ru4+  Ru130  1  0.60830713  0.83639546  0.50159766  1
  Ru4+  Ru131  1  0.60699240  0.83044459  0.74636194  1
  Ru4+  Ru132  1  0.39176609  0.16895382  -0.00033550  1
  Ru4+  Ru133  1  0.38384713  0.16548582  0.25107725  1
  Ru4+  Ru134  1  0.38499782  0.16910117  0.50129856  1
  Ru4+  Ru135  1  0.38313521  0.16860328  0.75108259  1
  Ru4+  Ru136  1  0.39191557  0.50339527  -0.00012643  1
  Ru4+  Ru137  1  0.38770793  0.49951449  0.24999467  1
  Ru4+  Ru138  1  0.38946069  0.50088567  0.49742355  1
  Ru4+  Ru139  1  0.38461128  0.49895092  0.74847816  1
  Ru4+  Ru140  1  0.39032220  0.83188954  0.00080297  1
  Ru4+  Ru141  1  0.38716208  0.83437131  0.25043569  1
  Ru4+  Ru142  1  0.38808175  0.83329355  0.49780826  1
  Ru4+  Ru143  1  0.38875014  0.83306190  0.74965870  1
  Ru4+  Ru144  1  0.88728971  0.16118501  0.00027225  1
  Ru4+  Ru145  1  0.88509652  0.16638605  0.25015099  1
  Ru4+  Ru146  1  0.88462573  0.16280035  0.49983401  1
  Ru4+  Ru147  1  0.88582713  0.15901322  0.74947390  1
  Ru4+  Ru148  1  0.88398694  0.49963695  -0.00308776  1
  Ru4+  Ru149  1  0.88680359  0.49736309  0.25426668  1
  Ru4+  Ru150  1  0.88665961  0.49376389  0.50319001  1
  Ru4+  Ru151  1  0.89113666  0.50199091  0.74613539  1
  Ru4+  Ru152  1  0.88551915  0.83355894  -0.00228213  1
  Ru4+  Ru153  1  0.88995686  0.83257967  0.25409211  1
  Ru4+  Ru154  1  0.88884101  0.83268820  0.49775385  1
  Ru4+  Ru155  1  0.89228970  0.82774055  0.74975273  1
  Ru4+  Ru156  1  0.25048183  0.75632530  0.49041041  1
  Ru4+  Ru157  1  0.74952848  0.27089828  0.73714975  1
  Ru4+  Ru158  1  0.24972087  0.09271696  0.74800485  1
  Ru4+  Ru159  1  0.74972023  0.59571608  0.24301836  1
  Ru4+  Ru160  1  0.24976635  0.90887308  0.49434312  1
  Ru4+  Ru161  1  0.74967634  0.39881472  0.77084415  1
  Ru4+  Ru162  1  0.25056435  0.71879322  -0.04313037  1
  Ru4+  Ru163  1  0.25131816  0.42083368  0.50140773  1
  Ru4+  Ru164  1  0.25072885  0.58122260  0.49851659  1
  Ru4+  Ru165  1  0.74984692  0.57839505  0.50254183  1
  Ru4+  Ru166  1  0.25021638  0.58563178  -0.02084034  1
  Ru4+  Ru167  1  0.74918995  0.00150082  0.76458703  1
  Ru4+  Ru168  1  0.74999268  0.72751429  0.51721667  1
  Ru4+  Ru169  1  0.74938743  0.57622659  0.00811961  1
  Ru4+  Ru170  1  0.25043700  0.75691797  0.26147030  1
  Ru4+  Ru171  1  0.25012840  0.31536365  0.02185758  1
  Ru4+  Ru172  1  0.24960094  0.05889033  0.03123259  1
  Ru4+  Ru173  1  0.74987577  0.72859979  0.28388471  1
  Ru4+  Ru174  1  0.74949787  0.65614448  0.75785099  1
  Ru4+  Ru175  1  0.75066435  0.99595076  0.24812300  1
  Ru4+  Ru176  1  0.74993325  0.34133023  0.24066280  1
  Ru4+  Ru177  1  0.25111728  0.93705246  -0.02898111  1
  Ru4+  Ru178  1  0.74867418  0.06916420  0.00779973  1
  Ru4+  Ru179  1  0.74991436  0.24726150  0.48327542  1
  O2-  O180  1  0.16545446  0.07779984  -0.00073141  1
  O2-  O181  1  0.16639374  0.08210476  0.24987848  1
  O2-  O182  1  0.16508010  0.08274549  0.49984290  1
  O2-  O183  1  0.16597709  0.08020978  0.74833386  1
  O2-  O184  1  0.16206923  0.41223302  -0.00168387  1
  O2-  O185  1  0.17015564  0.41431516  0.25286429  1
  O2-  O186  1  0.16722119  0.41557881  0.49834308  1
  O2-  O187  1  0.16341767  0.41565680  0.75167431  1
  O2-  O188  1  0.16382606  0.74605886  0.00009541  1
  O2-  O189  1  0.16734854  0.74751272  0.25370389  1
  O2-  O190  1  0.16657717  0.74790264  0.49984750  1
  O2-  O191  1  0.16871361  0.74847369  0.74578990  1
  O2-  O192  1  0.66672523  0.08080787  -0.00168708  1
  O2-  O193  1  0.66908274  0.08096980  0.25645649  1
  O2-  O194  1  0.66731631  0.08102813  0.50115986  1
  O2-  O195  1  0.66574608  0.07800795  0.74774495  1
  O2-  O196  1  0.66629334  0.41506226  0.00442206  1
  O2-  O197  1  0.67030517  0.41092078  0.24637121  1
  O2-  O198  1  0.66763355  0.41591603  0.50171942  1
  O2-  O199  1  0.66445887  0.41274472  0.74927502  1
  O2-  O200  1  0.66511541  0.74890118  -0.00257006  1
  O2-  O201  1  0.66714947  0.74527704  0.25295207  1
  O2-  O202  1  0.66506757  0.74661961  0.49871912  1
  O2-  O203  1  0.66971613  0.74872146  0.75279647  1
  O2-  O204  1  0.33392507  0.25556993  0.00117474  1
  O2-  O205  1  0.33719831  0.25336111  0.25216594  1
  O2-  O206  1  0.33377429  0.25023538  0.49814108  1
  O2-  O207  1  0.32920998  0.24973246  0.74793563  1
  O2-  O208  1  0.33305631  0.58679182  -0.00155233  1
  O2-  O209  1  0.32946710  0.58560830  0.25554593  1
  O2-  O210  1  0.33361795  0.58754377  0.49978666  1
  O2-  O211  1  0.33496913  0.58728510  0.75016409  1
  O2-  O212  1  0.33504925  0.92138684  -0.00083906  1
  O2-  O213  1  0.33770506  0.91783007  0.24750836  1
  O2-  O214  1  0.33137314  0.91792425  0.50131704  1
  O2-  O215  1  0.33388386  0.91927930  0.74810805  1
  O2-  O216  1  0.84070940  0.25697815  -0.00171884  1
  O2-  O217  1  0.83303899  0.25368501  0.24866816  1
  O2-  O218  1  0.83338375  0.25271862  0.50007633  1
  O2-  O219  1  0.83457626  0.25206362  0.75177081  1
  O2-  O220  1  0.83124082  0.58626062  -0.00000224  1
  O2-  O221  1  0.83360051  0.58815095  0.25361802  1
  O2-  O222  1  0.83427163  0.58445727  0.49767799  1
  O2-  O223  1  0.83600285  0.58762133  0.75213821  1
  O2-  O224  1  0.83582048  0.91691614  0.00230889  1
  O2-  O225  1  0.83432888  0.92292376  0.25084955  1
  O2-  O226  1  0.83138655  0.92279896  0.50261309  1
  O2-  O227  1  0.83160662  0.91713246  0.74877043  1
  O2-  O228  1  0.16412292  0.25565348  -0.00025161  1
  O2-  O229  1  0.16304515  0.25332485  0.25268799  1
  O2-  O230  1  0.16480006  0.25400794  0.49861380  1
  O2-  O231  1  0.16675652  0.25174145  0.74937126  1
  O2-  O232  1  0.16945498  0.58456702  0.00087641  1
  O2-  O233  1  0.16525110  0.58662346  0.25417252  1
  O2-  O234  1  0.16637287  0.58551196  0.49922114  1
  O2-  O235  1  0.16821408  0.58498298  0.74807431  1
  O2-  O236  1  0.16835389  0.92131542  -0.00082349  1
  O2-  O237  1  0.16592886  0.91743533  0.25111987  1
  O2-  O238  1  0.16613831  0.91796301  0.50034397  1
  O2-  O239  1  0.16564235  0.91896161  0.74904266  1
  O2-  O240  1  0.65837393  0.25893836  0.00259690  1
  O2-  O241  1  0.66714482  0.25382194  0.24676051  1
  O2-  O242  1  0.66606851  0.25262527  0.50273820  1
  O2-  O243  1  0.66488006  0.25219547  0.74947537  1
  O2-  O244  1  0.66544378  0.58498665  -0.00224433  1
  O2-  O245  1  0.66451752  0.58607491  0.25194974  1
  O2-  O246  1  0.66535617  0.58317308  0.49939825  1
  O2-  O247  1  0.66444629  0.58919084  0.75028917  1
  O2-  O248  1  0.66976580  0.90997820  -0.00369365  1
  O2-  O249  1  0.66701778  0.92140061  0.25599653  1
  O2-  O250  1  0.66678140  0.92370999  0.49865965  1
  O2-  O251  1  0.66793132  0.91730854  0.75058773  1
  O2-  O252  1  0.33634862  0.08071931  -0.00003221  1
  O2-  O253  1  0.33603813  0.08190082  0.25022545  1
  O2-  O254  1  0.33263656  0.08326419  0.50208375  1
  O2-  O255  1  0.33575300  0.08214669  0.74776526  1
  O2-  O256  1  0.34301903  0.41208364  0.00137372  1
  O2-  O257  1  0.33574764  0.41480883  0.25429969  1
  O2-  O258  1  0.33328745  0.41444814  0.49916401  1
  O2-  O259  1  0.33672587  0.41512545  0.74881893  1
  O2-  O260  1  0.33584832  0.74453746  -0.00187993  1
  O2-  O261  1  0.33380858  0.74660645  0.25250826  1
  O2-  O262  1  0.33471813  0.74733024  0.50048991  1
  O2-  O263  1  0.33384636  0.74655529  0.74779547  1
  O2-  O264  1  0.82925394  0.08018855  0.00312172  1
  O2-  O265  1  0.82838093  0.07824054  0.24884071  1
  O2-  O266  1  0.83293887  0.08089541  0.50185030  1
  O2-  O267  1  0.83213330  0.07490114  0.74443869  1
  O2-  O268  1  0.83578584  0.41346568  0.00069992  1
  O2-  O269  1  0.82990209  0.40956404  0.25143211  1
  O2-  O270  1  0.83274145  0.41789715  0.49781939  1
  O2-  O271  1  0.83345417  0.41395318  0.75332870  1
  O2-  O272  1  0.83583181  0.74791139  -0.00330619  1
  O2-  O273  1  0.83495789  0.74589008  0.25343334  1
  O2-  O274  1  0.83462553  0.74611557  0.49938030  1
  O2-  O275  1  0.83087487  0.74817039  0.75220050  1
  O2-  O276  1  0.44475040  0.24100667  0.05452301  1
  O2-  O277  1  0.95339612  0.76306696  0.26687771  1
  O2-  O278  1  0.54886863  0.57009044  0.76530896  1
  O2-  O279  1  0.94325606  0.91087484  0.72800999  1
  O2-  O280  1  0.45500834  0.23312074  0.74510189  1
  O2-  O281  1  0.95327733  0.90142663  0.99067455  1
  O2-  O282  1  0.04754389  0.56918192  0.25912760  1
  O2-  O283  1  0.05185870  0.09966307  0.50783932  1
  O2-  O284  1  0.45464518  0.56119760  0.24581833  1
  O2-  O285  1  0.44971632  0.56889582  0.27204820  1
  O2-  O286  1  0.95111605  0.90930037  0.23393589  1
  O2-  O287  1  0.05173502  0.42611184  0.51878017  1
  O2-  O288  1  0.52531344  0.87126408  0.00197485  1
  O2-  O289  1  0.55164262  0.90742000  0.75661240  1
  O2-  O290  1  0.45237386  0.56638591  0.73778910  1
  O2-  O291  1  0.04627009  0.57329330  0.49404799  1
  O2-  O292  1  0.95540808  0.24654296  0.75786839  1
  O2-  O293  1  0.96573984  0.10281217  0.04351529  1
  O2-  O294  1  0.44881791  0.22698550  0.77129376  1
  O2-  O295  1  0.05314390  0.90432813  0.51403841  1
  O2-  O296  1  0.95260080  0.43334230  0.98945289  1
  O2-  O297  1  0.54257492  0.88354792  0.97687357  1
  O2-  O298  1  0.53351430  0.76023853  0.79307762  1
  O2-  O299  1  0.55297863  0.57739991  0.22882089  1
  O2-  O300  1  0.55115370  0.10267665  0.24602450  1
  O2-  O301  1  0.96240222  0.44494027  0.74105369  1
  O2-  O302  1  0.46432629  0.11508945  0.50429866  1
  O2-  O303  1  0.96438963  0.11045960  0.70744066  1
  O2-  O304  1  0.95503676  0.44922239  0.46821259  1
  O2-  O305  1  0.44654909  0.90332087  0.76160718  1
  O2-  O306  1  0.95262770  0.57603538  0.73916101  1
  O2-  O307  1  0.04923664  0.90640351  0.75084212  1
  O2-  O308  1  0.04521480  0.23865389  0.49245510  1
  O2-  O309  1  0.04520741  0.76139138  0.49044847  1
  O2-  O310  1  0.54967991  0.90774788  0.73797429  1
  O2-  O311  1  0.54689707  0.42854522  0.00913439  1
  O2-  O312  1  0.95829685  0.88706518  0.53930362  1
  O2-  O313  1  0.03483417  0.55137515  0.02501105  1
  O2-  O314  1  0.95400334  0.76232543  0.00552428  1
  O2-  O315  1  0.53152868  0.43247845  0.20618677  1
  O2-  O316  1  0.95590386  0.77564024  0.80020229  1
  O2-  O317  1  0.95113453  0.23777603  0.98721552  1
  O2-  O318  1  0.05350592  0.42898048  0.76741275  1
  O2-  O319  1  0.52730804  0.09782900  0.70393583  1
  O2-  O320  1  0.54344608  0.22923023  0.69911297  1
  O2-  O321  1  0.05458202  0.75350137  0.75820877  1
  O2-  O322  1  0.45090026  0.09948698  0.23667389  1
  O2-  O323  1  0.05001775  0.90745562  0.75519891  1
  O2-  O324  1  0.58548637  0.96910518  0.04372284  1
  O2-  O325  1  0.06150326  0.26473684  0.78396669  1
  O2-  O326  1  0.06198923  0.06885360  0.52037234  1
  O2-  O327  1  0.06002282  0.08130830  0.27603973  1
  O2-  O328  1  0.93455491  0.59665318  0.96216088  1
  O2-  O329  1  0.92129339  0.06386242  0.80201926  1
  O2-  O330  1  0.56537580  0.75029518  0.31708839  1
  O2-  O331  1  0.06420290  0.93121886  0.97223253  1
  O2-  O332  1  0.56472707  0.74220875  0.17483266  1
  O2-  O333  1  0.06652200  0.74358105  0.22939698  1
  O2-  O334  1  0.06417666  0.40852826  0.02178150  1
  O2-  O335  1  0.42908048  0.27567534  0.77577610  1
  O2-  O336  1  0.56827419  0.28222205  0.81920233  1
  O2-  O337  1  0.93471424  0.59006333  0.23321135  1
  O2-  O338  1  0.56312329  0.42314025  0.43850748  1
  O2-  O339  1  0.43859509  0.28309243  0.91727753  1
  O2-  O340  1  0.57953922  0.39750447  0.30049980  1
  O2-  O341  1  0.93166916  0.72208194  0.68499684  1
  O2-  O342  1  0.44908638  0.24784141  0.05306519  1
  O2-  O343  1  0.42999449  0.59892102  0.22464932  1
  O2-  O344  1  0.93148438  0.38084120  0.56065613  1
  O2-  O345  1  0.56207940  0.40283576  0.57512946  1
  O2-  O346  1  0.43845947  0.91753178  0.47670132  1
  O2-  O347  1  0.44075169  0.74467490  0.28718492  1
  O2-  O348  1  0.93992014  0.07920232  0.47684443  1
  O2-  O349  1  0.44109528  0.59674271  0.92146700  1
  O2-  O350  1  0.93579623  0.07709178  0.27291646  1
  O2-  O351  1  0.08207334  0.60624944  0.94550488  1
  O2-  O352  1  0.56324424  0.07695112  0.47217363  1
  O2-  O353  1  0.06440190  0.59129583  0.80524487  1
  O2-  O354  1  0.55856421  0.40356422  0.03043258  1
  O2-  O355  1  0.91965628  0.06085341  0.94891718  1
  O2-  O356  1  0.56199556  0.92062401  0.22492003  1
  O2-  O357  1  0.93139840  0.41980353  0.31791431  1
  O2-  O358  1  0.57198671  0.72036221  0.68791471  1
  O2-  O359  1  0.93405489  0.25144667  0.77823970  1
  O2-  O360  1  0.06299402  0.93034228  0.21323540  1
  O2-  O361  1  0.92338084  0.93456638  0.45067639  1
  O2-  O362  1  0.55977448  0.92853362  0.53075753  1
  O2-  O363  1  0.43655246  0.26252681  0.52250574  1
  O2-  O364  1  0.56036111  0.73241353  0.96891653  1
  O2-  O365  1  0.92511369  0.41680647  0.18164953  1
  O2-  O366  1  0.06465829  0.41132469  0.27351032  1
  O2-  O367  1  0.92811867  0.38191603  0.71392044  1
  O2-  O368  1  0.57754796  0.07228258  0.80130686  1
  O2-  O369  1  0.42583672  0.06165237  0.46801064  1
  O2-  O370  1  0.43109652  0.58706899  0.06065278  1
  O2-  O371  1  0.06224201  0.59718607  0.68496999  1
  O2-  O372  1  0.74972591  0.32536992  0.87091933  1
  O2-  O373  1  0.25024899  0.00105680  0.42229444  1
  O2-  O374  1  0.24999691  0.32899779  0.57766338  1
  O2-  O375  1  0.25131321  0.33469574  0.14360332  1
  O2-  O376  1  0.25005589  -0.00259786  0.33254389  1
  O2-  O377  1  0.75016001  0.67600004  0.87493236  1
  O2-  O378  1  0.74974510  0.67656159  0.15824671  1
  O2-  O379  1  0.75115380  -0.00616310  0.10613034  1
  O2-  O380  1  0.24986134  0.66699339  0.19943917  1
  O2-  O381  1  0.74967161  -0.00202876  0.89693379  1
  O2-  O382  1  0.25065097  -0.00394172  0.67183031  1
  O2-  O383  1  0.25024658  0.66641750  0.07223164  1
  O2-  O384  1  0.75022732  -0.00453848  0.64111567  1
  O2-  O385  1  0.24959220  0.00351512  0.84467998  1
  O2-  O386  1  0.24919514  0.33483740  0.89556504  1
  O2-  O387  1  0.75026094  0.67134397  0.63381007  1
  O2-  O388  1  0.25031292  0.66736163  0.40422850  1
  O2-  O389  1  0.25033064  0.00068496  0.57893460  1
  O2-  O390  1  0.74969970  0.33792407  0.63143281  1
  O2-  O391  1  0.75040876  0.66314934  0.40295137  1
  O2-  O392  1  0.25063455  -0.00239277  0.13455836  1
  O2-  O393  1  0.24930221  0.33629080  0.66599202  1
  O2-  O394  1  0.74979985  0.67544990  0.06206253  1
  O2-  O395  1  0.75017257  0.33835106  0.39738596  1
  O2-  O396  1  0.25024864  0.51663076  0.88610867  1
  O2-  O397  1  0.25047055  0.83699302  0.18611393  1
  O2-  O398  1  0.75027469  0.50172500  0.58263502  1
  O2-  O399  1  0.74957904  0.17751876  0.63214211  1
  O2-  O400  1  0.75029620  0.49691174  0.85959911  1
  O2-  O401  1  0.25034994  0.50253181  0.58191648  1
  O2-  O402  1  0.24965844  0.50919805  0.14539962  1
  O2-  O403  1  0.24994718  0.16789310  0.41017899  1
  O2-  O404  1  0.24998556  0.49958771  0.66866946  1
  O2-  O405  1  0.75014527  0.48394483  0.94761426  1
  O2-  O406  1  0.75029025  0.83245983  0.09935724  1
  O2-  O407  1  0.25014015  0.82758109  0.34965527  1
  O2-  O408  1  0.24967670  0.83088290  0.83720058  1
  O2-  O409  1  0.25048694  0.83077508  0.92176256  1
  O2-  O410  1  0.25023876  0.16193857  0.13661856  1
  O2-  O411  1  0.75002829  0.82368806  0.60807220  1
  O2-  O412  1  0.75025208  0.50744089  0.13859272  1
  O2-  O413  1  0.74961435  0.15289005  0.89334165  1
  O2-  O414  1  0.74994285  0.17122167  0.40883159  1
  O2-  O415  1  0.24991813  0.15917403  0.60944720  1
  O2-  O416  1  0.74974267  0.14822253  0.11319927  1
  O2-  O417  1  0.75006399  0.15384522  0.54825062  1
  O2-  O418  1  0.24963660  0.16133499  0.83824663  1
  O2-  O419  1  0.25004542  0.82923773  0.58228399  1
  O2-  O420  1  0.97678448  0.33808432  0.87839514  1
  O2-  O421  1  0.04408267  0.32803471  0.37733144  1
  O2-  O422  1  0.45198368  0.00724158  0.88428136  1
  O2-  O423  1  0.53951154  0.00218722  0.89337318  1
  O2-  O424  1  0.04553820  0.66586148  0.11318590  1
  O2-  O425  1  0.02301171  0.00149109  0.62728937  1
  O2-  O426  1  0.95670997  0.67141953  0.12036595  1
  O2-  O427  1  0.47877600  0.68818357  0.12523830  1
  O2-  O428  1  0.45113061  0.33894566  0.37143876  1
  O2-  O429  1  0.04530936  0.31959319  0.13779924  1
  O2-  O430  1  0.95697769  0.31306769  0.11308610  1
  O2-  O431  1  0.95730621  0.30778251  0.38486481  1
  O2-  O432  1  0.03503669  -0.00479628  0.38635629  1
  O2-  O433  1  0.52243382  0.65391198  0.38569187  1
  O2-  O434  1  0.47170399  -0.00380050  0.35957887  1
  O2-  O435  1  0.01544488  0.68020159  0.88187010  1
  O2-  O436  1  0.47185778  0.66738124  0.61835039  1
  O2-  O437  1  0.98573408  -0.01002005  0.87227092  1
  O2-  O438  1  0.51259993  0.01205432  0.12269331  1
  O2-  O439  1  0.53097539  -0.00755938  0.36786781  1
  O2-  O440  1  0.97598145  0.00119409  0.36779658  1
  O2-  O441  1  0.47243751  0.34713678  0.63179086  1
  O2-  O442  1  0.02570302  0.66660391  0.36837117  1
  O2-  O443  1  0.53633785  0.29900488  0.37752628  1
