# generated using pymatgen
data_La7(Ru4O11)2
_symmetry_space_group_name_H-M   'P 1'
_cell_length_a   23.99529648
_cell_length_b   16.83544198
_cell_length_c   15.43148873
_cell_angle_alpha   90.00139450
_cell_angle_beta   89.99746781
_cell_angle_gamma   89.99956214
_symmetry_Int_Tables_number   1
_chemical_formula_structural   La7(Ru4O11)2
_chemical_formula_sum   'La84 Ru96 O264'
_cell_volume   6233.88043249
_cell_formula_units_Z   12
loop_
 _symmetry_equiv_pos_site_id
 _symmetry_equiv_pos_as_xyz
  1  'x, y, z'
loop_
 _atom_type_symbol
 _atom_type_oxidation_number
  La3+  3.0
  Ru4+  4.0
  O2-  -2.0
loop_
 _atom_site_type_symbol
 _atom_site_label
 _atom_site_symmetry_multiplicity
 _atom_site_fract_x
 _atom_site_fract_y
 _atom_site_fract_z
 _atom_site_occupancy
  La3+  La0  1  0.14561598  -0.00637318  0.12846286  1
  La3+  La1  1  0.13686678  -0.00170022  0.37716948  1
  La3+  La2  1  0.14100567  -0.00843170  0.62778762  1
  La3+  La3  1  0.13826156  -0.00504795  0.86538748  1
  La3+  La4  1  0.13658403  0.32878291  0.12647294  1
  La3+  La5  1  0.13297785  0.33824568  0.37618400  1
  La3+  La6  1  0.14007371  0.33747624  0.61949111  1
  La3+  La7  1  0.14007858  0.33698589  0.87403744  1
  La3+  La8  1  0.13936550  0.66592998  0.12395428  1
  La3+  La9  1  0.14009013  0.67403955  0.38598655  1
  La3+  La10  1  0.13666683  0.66995035  0.61838786  1
  La3+  La11  1  0.14263366  0.66888736  0.87026370  1
  La3+  La12  1  0.63986010  0.00379307  0.12465099  1
  La3+  La13  1  0.63730152  0.00450658  0.37713089  1
  La3+  La14  1  0.63911720  0.00058377  0.62645013  1
  La3+  La15  1  0.62953880  -0.00015109  0.87053983  1
  La3+  La16  1  0.63897134  0.33362379  0.12291854  1
  La3+  La17  1  0.63846820  0.33804079  0.37547650  1
  La3+  La18  1  0.64958578  0.34107810  0.62437406  1
  La3+  La19  1  0.64156650  0.33593355  0.88172784  1
  La3+  La20  1  0.63792318  0.65947222  0.12823657  1
  La3+  La21  1  0.64322168  0.66363888  0.37520742  1
  La3+  La22  1  0.64563048  0.65614147  0.63087589  1
  La3+  La23  1  0.63747557  0.66031373  0.86970913  1
  La3+  La24  1  0.35333069  -0.00602019  0.12785091  1
  La3+  La25  1  0.36116911  0.00011330  0.38042565  1
  La3+  La26  1  0.35808621  -0.00632250  0.62164034  1
  La3+  La27  1  0.35285204  -0.00126894  0.87235055  1
  La3+  La28  1  0.36377970  0.33800207  0.11674540  1
  La3+  La29  1  0.36137841  0.33208740  0.37079500  1
  La3+  La30  1  0.36073632  0.33567663  0.61850956  1
  La3+  La31  1  0.36600549  0.33972566  0.88036470  1
  La3+  La32  1  0.36150718  0.66466993  0.12325399  1
  La3+  La33  1  0.35860753  0.66858103  0.38400422  1
  La3+  La34  1  0.36330326  0.67035238  0.62571473  1
  La3+  La35  1  0.34853004  0.67060829  0.86324241  1
  La3+  La36  1  0.86094333  0.00131627  0.12645289  1
  La3+  La37  1  0.86766726  -0.00057184  0.37647418  1
  La3+  La38  1  0.86594463  0.00465266  0.63233449  1
  La3+  La39  1  0.85187879  -0.00524810  0.87975696  1
  La3+  La40  1  0.86544973  0.32925909  0.11873866  1
  La3+  La41  1  0.86235815  0.33758652  0.37039466  1
  La3+  La42  1  0.85754716  0.33840463  0.62547164  1
  La3+  La43  1  0.85689506  0.33681466  0.87781324  1
  La3+  La44  1  0.86464196  0.66496603  0.12486307  1
  La3+  La45  1  0.86656721  0.66425235  0.37336588  1
  La3+  La46  1  0.85734384  0.66347980  0.62747826  1
  La3+  La47  1  0.86913836  0.66344604  0.86981582  1
  La3+  La48  1  -0.00637814  0.49991421  0.39029480  1
  La3+  La49  1  0.50027057  0.50718652  0.38534380  1
  La3+  La50  1  -0.00089274  0.17313017  0.12675820  1
  La3+  La51  1  0.49792789  0.17396330  0.12393339  1
  La3+  La52  1  0.48998638  0.84131533  0.36290289  1
  La3+  La53  1  0.48787314  0.83981140  0.37926110  1
  La3+  La54  1  -0.00213802  0.83024637  0.38098896  1
  La3+  La55  1  0.49302311  0.84430380  0.12609317  1
  La3+  La56  1  0.49805821  0.17836027  0.62023552  1
  La3+  La57  1  0.49853397  0.83707113  0.87180346  1
  La3+  La58  1  0.50598194  0.82454714  0.63236214  1
  La3+  La59  1  0.49748216  0.13930001  0.38391947  1
  La3+  La60  1  0.50140562  0.49955070  0.63066764  1
  La3+  La61  1  0.50274412  0.50960076  0.36927823  1
  La3+  La62  1  0.49791365  0.83044741  0.11192053  1
  La3+  La63  1  -0.00145777  0.17454748  0.86787930  1
  La3+  La64  1  0.49446427  0.50479026  0.87428266  1
  La3+  La65  1  -0.00568604  0.49009793  0.14684452  1
  La3+  La66  1  0.00165394  0.16986180  0.37865769  1
  La3+  La67  1  0.00533088  0.83430582  0.61153283  1
  La3+  La68  1  0.00088373  0.83313426  0.11202379  1
  La3+  La69  1  -0.00283129  0.82650564  0.13233799  1
  La3+  La70  1  0.01208289  0.18405061  0.61836654  1
  La3+  La71  1  -0.00001797  0.83537218  0.86422431  1
  La3+  La72  1  0.75157758  0.21980600  0.49589683  1
  La3+  La73  1  0.75083491  0.78498423  0.75240265  1
  La3+  La74  1  0.24962033  0.49994776  0.49197159  1
  La3+  La75  1  0.24884947  0.46781415  0.02188042  1
  La3+  La76  1  0.74933953  0.49208866  0.22252830  1
  La3+  La77  1  0.25127745  0.17173654  0.07700774  1
  La3+  La78  1  0.25086969  0.11587722  0.26202452  1
  La3+  La79  1  0.24789683  0.46295110  0.25298928  1
  La3+  La80  1  0.25278712  0.23754526  0.72912429  1
  La3+  La81  1  0.74610302  0.13371049  0.76025109  1
  La3+  La82  1  0.74804599  0.81056750  0.00506622  1
  La3+  La83  1  0.75290292  0.80983497  0.23214823  1
  Ru4+  Ru84  1  0.00043109  0.00258175  0.00195003  1
  Ru4+  Ru85  1  -0.00606804  0.00336520  0.25168123  1
  Ru4+  Ru86  1  -0.00189096  0.00636989  0.49933413  1
  Ru4+  Ru87  1  -0.00319239  0.00198723  0.75451850  1
  Ru4+  Ru88  1  -0.00036310  0.33156334  -0.01651124  1
  Ru4+  Ru89  1  -0.00111403  0.33448772  0.25975070  1
  Ru4+  Ru90  1  0.00223628  0.33583778  0.50141468  1
  Ru4+  Ru91  1  -0.00475146  0.34039990  0.75238315  1
  Ru4+  Ru92  1  0.00450379  0.65219454  0.00303727  1
  Ru4+  Ru93  1  0.00002815  0.66081144  0.25167735  1
  Ru4+  Ru94  1  0.00681509  0.64509516  0.49707129  1
  Ru4+  Ru95  1  -0.01048162  0.65401424  0.76137854  1
  Ru4+  Ru96  1  0.50041641  0.01000679  0.00154019  1
  Ru4+  Ru97  1  0.50367292  -0.00156202  0.22995403  1
  Ru4+  Ru98  1  0.50056193  -0.00128053  0.49837587  1
  Ru4+  Ru99  1  0.49340967  -0.00798289  0.76359699  1
  Ru4+  Ru100  1  0.49834802  0.32466531  -0.01677496  1
  Ru4+  Ru101  1  0.49536478  0.33062186  0.25377354  1
  Ru4+  Ru102  1  0.49939669  0.32919286  0.49593262  1
  Ru4+  Ru103  1  0.50188777  0.33077398  0.76385935  1
  Ru4+  Ru104  1  0.49511002  0.65312678  -0.00468908  1
  Ru4+  Ru105  1  0.50023927  0.66166842  0.25786363  1
  Ru4+  Ru106  1  0.50493766  0.67199630  0.49390491  1
  Ru4+  Ru107  1  0.49963720  0.66781231  0.73929538  1
  Ru4+  Ru108  1  0.11075604  0.16160054  0.00041438  1
  Ru4+  Ru109  1  0.10924455  0.16196174  0.25333963  1
  Ru4+  Ru110  1  0.11332949  0.16509268  0.49974589  1
  Ru4+  Ru111  1  0.11042384  0.16809504  0.74994959  1
  Ru4+  Ru112  1  0.10312602  0.51160554  -0.00671831  1
  Ru4+  Ru113  1  0.10568735  0.49281256  0.25058968  1
  Ru4+  Ru114  1  0.10714894  0.50814076  0.50328881  1
  Ru4+  Ru115  1  0.11559259  0.50319996  0.75054736  1
  Ru4+  Ru116  1  0.11331507  0.83397988  -0.01099624  1
  Ru4+  Ru117  1  0.11494393  0.83382307  0.25343620  1
  Ru4+  Ru118  1  0.11603397  0.83777297  0.49715879  1
  Ru4+  Ru119  1  0.11618601  0.83087001  0.74650595  1
  Ru4+  Ru120  1  0.61109739  0.17077453  -0.00313346  1
  Ru4+  Ru121  1  0.61140846  0.16967674  0.24862371  1
  Ru4+  Ru122  1  0.60505760  0.17467957  0.50371612  1
  Ru4+  Ru123  1  0.60738726  0.17008555  0.75066728  1
  Ru4+  Ru124  1  0.61349040  0.49587313  0.00384850  1
  Ru4+  Ru125  1  0.61158536  0.50216572  0.24474573  1
  Ru4+  Ru126  1  0.61355298  0.49679002  0.50035245  1
  Ru4+  Ru127  1  0.61448306  0.50226625  0.75055165  1
  Ru4+  Ru128  1  0.60889462  0.82674315  -0.00211669  1
  Ru4+  Ru129  1  0.61321144  0.83891538  0.25950467  1
  Ru4+  Ru130  1  0.61291489  0.82783065  0.50829288  1
  Ru4+  Ru131  1  0.61357872  0.82857597  0.75298912  1
  Ru4+  Ru132  1  0.38965407  0.16579838  -0.00282975  1
  Ru4+  Ru133  1  0.39288376  0.17018505  0.25169551  1
  Ru4+  Ru134  1  0.38546398  0.16321775  0.50171591  1
  Ru4+  Ru135  1  0.39422519  0.16561822  0.74777647  1
  Ru4+  Ru136  1  0.38975292  0.51094438  0.00661873  1
  Ru4+  Ru137  1  0.39356640  0.49138107  0.24585080  1
  Ru4+  Ru138  1  0.38647493  0.50022670  0.50201670  1
  Ru4+  Ru139  1  0.38615144  0.50144686  0.74619878  1
  Ru4+  Ru140  1  0.38861772  0.83573672  0.00161876  1
  Ru4+  Ru141  1  0.38498186  0.84108291  0.25132315  1
  Ru4+  Ru142  1  0.38246481  0.83668596  0.50402625  1
  Ru4+  Ru143  1  0.38750112  0.83945581  0.75194776  1
  Ru4+  Ru144  1  0.88365004  0.17068851  -0.00117368  1
  Ru4+  Ru145  1  0.88544838  0.16782295  0.24876930  1
  Ru4+  Ru146  1  0.88861516  0.15886920  0.49935883  1
  Ru4+  Ru147  1  0.89032215  0.16269556  0.75278064  1
  Ru4+  Ru148  1  0.88945865  0.49374647  -0.00218045  1
  Ru4+  Ru149  1  0.88481499  0.49995667  0.24942382  1
  Ru4+  Ru150  1  0.88720638  0.49609622  0.50310039  1
  Ru4+  Ru151  1  0.89442673  0.50373093  0.74534434  1
  Ru4+  Ru152  1  0.88344143  0.83901921  -0.00177063  1
  Ru4+  Ru153  1  0.89051633  0.84132764  0.25531245  1
  Ru4+  Ru154  1  0.89127967  0.83529867  0.50176231  1
  Ru4+  Ru155  1  0.89130667  0.83474898  0.74872179  1
  Ru4+  Ru156  1  0.74956256  0.10460382  0.25776407  1
  Ru4+  Ru157  1  0.75141959  0.55299650  -0.00619791  1
  Ru4+  Ru158  1  0.74923447  0.10407163  -0.00598995  1
  Ru4+  Ru159  1  0.74918606  0.24911688  0.25412729  1
  Ru4+  Ru160  1  0.75090465  0.58537421  0.50568359  1
  Ru4+  Ru161  1  0.24866494  0.26826701  0.26589265  1
  Ru4+  Ru162  1  0.24942708  0.25022929  0.48590545  1
  Ru4+  Ru163  1  0.75029040  0.95521551  0.30672783  1
  Ru4+  Ru164  1  0.74610599  0.94948215  -0.02566606  1
  Ru4+  Ru165  1  0.75065448  0.93596157  0.74567931  1
  Ru4+  Ru166  1  0.25089268  0.75433892  0.25390976  1
  Ru4+  Ru167  1  0.24891173  0.29822007  0.01197395  1
  Ru4+  Ru168  1  0.75084183  0.67879501  -0.02063752  1
  Ru4+  Ru169  1  0.24881957  0.05956563  -0.01003714  1
  Ru4+  Ru170  1  0.75141839  0.73476846  0.51108755  1
  Ru4+  Ru171  1  0.25018660  0.60509772  -0.02361317  1
  Ru4+  Ru172  1  0.25021549  0.43375903  0.73335525  1
  Ru4+  Ru173  1  0.75098744  0.92344161  0.52252688  1
  Ru4+  Ru174  1  0.74923532  0.06491087  0.49081897  1
  Ru4+  Ru175  1  0.75101882  0.28660384  0.77224890  1
  Ru4+  Ru176  1  0.25174727  0.75109369  0.00158784  1
  Ru4+  Ru177  1  0.25085547  0.07016256  0.74456546  1
  Ru4+  Ru178  1  0.75066224  0.66871244  0.26883281  1
  Ru4+  Ru179  1  0.24914398  0.61690305  0.26285122  1
  O2-  O180  1  0.16387141  0.07683103  0.00211089  1
  O2-  O181  1  0.16260976  0.07590763  0.25306847  1
  O2-  O182  1  0.15974562  0.07991878  0.49614117  1
  O2-  O183  1  0.16542028  0.07930226  0.74756156  1
  O2-  O184  1  0.15674051  0.41849923  0.00089560  1
  O2-  O185  1  0.16472121  0.40989664  0.25181501  1
  O2-  O186  1  0.16526165  0.42126048  0.49779882  1
  O2-  O187  1  0.16689738  0.41626196  0.74457643  1
  O2-  O188  1  0.17234920  0.74657163  -0.00095569  1
  O2-  O189  1  0.16940028  0.74932766  0.24866709  1
  O2-  O190  1  0.16678451  0.75083057  0.50317916  1
  O2-  O191  1  0.16510596  0.74681334  0.74706316  1
  O2-  O192  1  0.66670965  0.08474183  -0.00571449  1
  O2-  O193  1  0.66707770  0.08570078  0.25321680  1
  O2-  O194  1  0.66308086  0.08186699  0.50121761  1
  O2-  O195  1  0.65591666  0.07687437  0.74871782  1
  O2-  O196  1  0.67012414  0.41588451  0.00088770  1
  O2-  O197  1  0.66675789  0.41354614  0.24577410  1
  O2-  O198  1  0.66572094  0.41724425  0.49677268  1
  O2-  O199  1  0.66089323  0.41491129  0.75580812  1
  O2-  O200  1  0.66134507  0.73955253  -0.00058822  1
  O2-  O201  1  0.66491792  0.74380889  0.24947614  1
  O2-  O202  1  0.66934510  0.74693442  0.49887522  1
  O2-  O203  1  0.66235767  0.74125201  0.74855982  1
  O2-  O204  1  0.32913903  0.25251766  -0.00149043  1
  O2-  O205  1  0.32950064  0.25232633  0.25186102  1
  O2-  O206  1  0.33250263  0.25436007  0.49242059  1
  O2-  O207  1  0.34692871  0.25947350  0.75183874  1
  O2-  O208  1  0.33087295  0.58659955  0.00535576  1
  O2-  O209  1  0.32928430  0.58478704  0.24744775  1
  O2-  O210  1  0.32925653  0.58578823  0.50347713  1
  O2-  O211  1  0.33475209  0.58569104  0.74434664  1
  O2-  O212  1  0.33749758  0.91582744  0.00160671  1
  O2-  O213  1  0.33229087  0.92044400  0.25562706  1
  O2-  O214  1  0.33122420  0.91988998  0.49167610  1
  O2-  O215  1  0.33310710  0.91745912  0.74898647  1
  O2-  O216  1  0.83021248  0.25276406  0.00533434  1
  O2-  O217  1  0.83035496  0.25260649  0.24458573  1
  O2-  O218  1  0.84198181  0.26159633  0.49697339  1
  O2-  O219  1  0.83356431  0.25139255  0.75184534  1
  O2-  O220  1  0.83577850  0.58270259  -0.00132772  1
  O2-  O221  1  0.82707094  0.58823313  0.25197076  1
  O2-  O222  1  0.83562443  0.58725002  0.49706574  1
  O2-  O223  1  0.83635322  0.58300581  0.75427059  1
  O2-  O224  1  0.82781902  0.92081234  0.00389223  1
  O2-  O225  1  0.83384286  0.92345533  0.25287249  1
  O2-  O226  1  0.83513006  0.92206751  0.50425701  1
  O2-  O227  1  0.83342787  0.91855270  0.74444745  1
  O2-  O228  1  0.16776731  0.25471471  -0.00043963  1
  O2-  O229  1  0.16568110  0.25022940  0.25044723  1
  O2-  O230  1  0.16724917  0.25572551  0.49760846  1
  O2-  O231  1  0.15968334  0.25826953  0.75023673  1
  O2-  O232  1  0.17075329  0.58361848  0.00365928  1
  O2-  O233  1  0.16651432  0.58453634  0.25107249  1
  O2-  O234  1  0.16926251  0.58594960  0.50388135  1
  O2-  O235  1  0.16370154  0.58607540  0.74534699  1
  O2-  O236  1  0.16095550  0.91761148  0.00086239  1
  O2-  O237  1  0.16557941  0.91911315  0.25336592  1
  O2-  O238  1  0.16534813  0.92003970  0.49675153  1
  O2-  O239  1  0.16451756  0.91667314  0.75064429  1
  O2-  O240  1  0.66418491  0.25186943  0.00539075  1
  O2-  O241  1  0.66859111  0.25037549  0.24755393  1
  O2-  O242  1  0.66301360  0.26180064  0.49151842  1
  O2-  O243  1  0.67109028  0.25409527  0.75329707  1
  O2-  O244  1  0.66833206  0.58203435  0.00023454  1
  O2-  O245  1  0.67174308  0.58720686  0.24974197  1
  O2-  O246  1  0.66524865  0.58675002  0.49973988  1
  O2-  O247  1  0.66832065  0.58155684  0.75621665  1
  O2-  O248  1  0.66356784  0.92492848  -0.00584207  1
  O2-  O249  1  0.66951616  0.92300645  0.25558264  1
  O2-  O250  1  0.66462810  0.91783583  0.50292800  1
  O2-  O251  1  0.67013984  0.92070918  0.74687687  1
  O2-  O252  1  0.33430851  0.07767164  0.00444082  1
  O2-  O253  1  0.34057194  0.07855173  0.25437597  1
  O2-  O254  1  0.33491904  0.08137098  0.49184212  1
  O2-  O255  1  0.33731149  0.08147031  0.74629400  1
  O2-  O256  1  0.33712126  0.41954942  -0.00324721  1
  O2-  O257  1  0.33039486  0.41745184  0.25727191  1
  O2-  O258  1  0.33378478  0.41370942  0.49479142  1
  O2-  O259  1  0.33191854  0.41627047  0.74629659  1
  O2-  O260  1  0.33325475  0.74690968  0.00253027  1
  O2-  O261  1  0.33096809  0.74678604  0.24761394  1
  O2-  O262  1  0.33137492  0.74764824  0.50521500  1
  O2-  O263  1  0.33342416  0.75375609  0.74456657  1
  O2-  O264  1  0.83414926  0.08282069  0.00058006  1
  O2-  O265  1  0.83125618  0.08463120  0.25379678  1
  O2-  O266  1  0.83343569  0.07862325  0.49745236  1
  O2-  O267  1  0.83194395  0.08337038  0.73943982  1
  O2-  O268  1  0.83707424  0.41299863  0.00559082  1
  O2-  O269  1  0.83107860  0.41224499  0.24237543  1
  O2-  O270  1  0.83698135  0.41482055  0.49714891  1
  O2-  O271  1  0.84096357  0.41764335  0.75160617  1
  O2-  O272  1  0.83693643  0.74130848  -0.00461695  1
  O2-  O273  1  0.83663154  0.74061089  0.25339636  1
  O2-  O274  1  0.83558827  0.74550766  0.49861553  1
  O2-  O275  1  0.83844341  0.74232025  0.74810193  1
  O2-  O276  1  0.45444492  0.42980444  0.75549518  1
  O2-  O277  1  0.45686504  0.55684394  0.03344770  1
  O2-  O278  1  0.95505687  0.76426024  0.25783465  1
  O2-  O279  1  0.45610006  0.43222891  0.50795510  1
  O2-  O280  1  0.44598154  0.91755370  0.68310287  1
  O2-  O281  1  0.54438677  0.44965177  0.96340841  1
  O2-  O282  1  0.54282759  0.89952626  0.00213010  1
  O2-  O283  1  0.55542110  0.09788721  0.00512829  1
  O2-  O284  1  0.47463466  0.47026677  0.24547661  1
  O2-  O285  1  0.96866756  0.55744241  0.79382228  1
  O2-  O286  1  0.55438011  0.24192641  0.44254508  1
  O2-  O287  1  0.95243406  0.23035396  0.51317437  1
  O2-  O288  1  0.44696884  0.08114474  0.26688146  1
  O2-  O289  1  0.97557188  0.10868179  0.73065758  1
  O2-  O290  1  0.55813180  0.42298510  0.27658579  1
  O2-  O291  1  0.44920105  0.09543906  0.00373985  1
  O2-  O292  1  0.45304051  0.57343335  0.73988023  1
  O2-  O293  1  0.94828625  0.24255732  0.74110865  1
  O2-  O294  1  0.55214457  0.90534059  0.76401700  1
  O2-  O295  1  0.55406271  0.24659317  0.24533239  1
  O2-  O296  1  0.96005247  0.76475530  0.98413474  1
  O2-  O297  1  0.04577585  0.89643982  0.73643797  1
  O2-  O298  1  0.54113647  0.78739856  0.47101582  1
  O2-  O299  1  0.95365857  0.22930299  0.49251179  1
  O2-  O300  1  0.95694168  0.10778721  0.70414452  1
  O2-  O301  1  0.04785764  0.22837281  0.98865425  1
  O2-  O302  1  0.95562201  0.43302729  0.99828634  1
  O2-  O303  1  0.94661921  0.76960219  0.01658710  1
  O2-  O304  1  0.04911050  0.76331000  0.48685603  1
  O2-  O305  1  0.05286124  0.41783442  0.30907095  1
  O2-  O306  1  0.04616137  0.90783942  0.48901715  1
  O2-  O307  1  0.46160146  0.55845502  1.02474097  1
  O2-  O308  1  0.94509182  0.24910463  0.03193165  1
  O2-  O309  1  0.44847884  0.76544096  0.25067156  1
  O2-  O310  1  0.56385411  0.59317187  0.97620235  1
  O2-  O311  1  0.95157727  0.43194660  0.51529150  1
  O2-  O312  1  0.54689528  0.24224552  0.00802515  1
  O2-  O313  1  0.54840211  0.76176178  0.23814943  1
  O2-  O314  1  0.45816301  0.23743068  0.31035187  1
  O2-  O315  1  0.03232703  0.54383842  0.03627491  1
  O2-  O316  1  0.45579792  0.09607135  0.73397390  1
  O2-  O317  1  0.44118491  0.42316288  0.01362432  1
  O2-  O318  1  0.04740259  0.23630593  0.24729656  1
  O2-  O319  1  0.04390113  0.90233366  0.26386746  1
  O2-  O320  1  0.55231505  0.09163605  0.24774985  1
  O2-  O321  1  0.04468959  0.56802612  0.26528097  1
  O2-  O322  1  0.95180716  0.42763801  0.74164695  1
  O2-  O323  1  0.44546947  0.41227547  0.97726166  1
  O2-  O324  1  0.94392070  0.25143290  0.03109871  1
  O2-  O325  1  0.07054779  0.76147920  0.91125969  1
  O2-  O326  1  0.43244790  0.93024942  0.85943412  1
  O2-  O327  1  0.43639745  0.25466273  0.52414934  1
  O2-  O328  1  0.44191338  0.07989323  0.53370243  1
  O2-  O329  1  0.93194519  0.60924238  0.67823803  1
  O2-  O330  1  0.06287885  0.25472256  0.46491555  1
  O2-  O331  1  0.55843406  0.41058542  0.45836907  1
  O2-  O332  1  0.44386504  0.91914876  0.70352218  1
  O2-  O333  1  0.94241073  0.75016862  0.77414963  1
  O2-  O334  1  0.93591564  0.08051225  0.22548948  1
  O2-  O335  1  0.56098971  0.91915556  0.76834671  1
  O2-  O336  1  0.06540212  0.07680682  0.79343363  1
  O2-  O337  1  0.43750585  0.75527455  0.47939779  1
  O2-  O338  1  0.56001813  0.25080736  0.76856577  1
  O2-  O339  1  0.57119968  0.70902736  0.57071703  1
  O2-  O340  1  0.42042864  0.24490887  0.17709482  1
  O2-  O341  1  0.55599971  0.74048512  0.78928773  1
  O2-  O342  1  0.56113301  0.93107662  0.33397279  1
  O2-  O343  1  0.05778402  0.59464811  0.57830751  1
  O2-  O344  1  0.06282110  0.73569843  0.47359088  1
  O2-  O345  1  0.06084415  0.06783439  0.28729101  1
  O2-  O346  1  0.58166903  0.24231680  0.59852004  1
  O2-  O347  1  0.56853893  0.90770601  0.18385716  1
  O2-  O348  1  0.07431926  0.60512647  0.93200822  1
  O2-  O349  1  0.08197584  0.43095166  0.15038076  1
  O2-  O350  1  0.43381899  0.25759831  0.01940099  1
  O2-  O351  1  0.54960688  0.24793344  0.44436074  1
  O2-  O352  1  0.05637726  0.41238423  0.30027314  1
  O2-  O353  1  0.43936755  0.74592766  0.73171738  1
  O2-  O354  1  0.43335819  0.59051977  0.27049050  1
  O2-  O355  1  0.56207067  0.59164027  0.71300683  1
  O2-  O356  1  0.57903012  0.39540339  0.05133034  1
  O2-  O357  1  0.06668754  0.59045133  0.42704050  1
  O2-  O358  1  0.06037444  0.26215166  0.71714722  1
  O2-  O359  1  0.91714310  0.02907263  0.80077021  1
  O2-  O360  1  0.42860688  0.66054873  0.92549738  1
  O2-  O361  1  0.93232304  0.92747301  0.02598270  1
  O2-  O362  1  0.44074366  0.58473568  0.47511418  1
  O2-  O363  1  0.07573991  0.76344087  0.06916423  1
  O2-  O364  1  0.93736986  0.41503198  0.27022710  1
  O2-  O365  1  0.05718752  0.92658521  0.72476780  1
  O2-  O366  1  0.44233463  0.91951404  0.51761494  1
  O2-  O367  1  0.56017629  0.59639979  0.21496969  1
  O2-  O368  1  0.41688620  0.38090539  0.22326001  1
  O2-  O369  1  0.93442455  0.58810690  0.23363409  1
  O2-  O370  1  0.06060058  0.41342517  0.48228841  1
  O2-  O371  1  0.93742109  0.25237090  0.26804261  1
  O2-  O372  1  0.25183679  0.66879995  0.10135170  1
  O2-  O373  1  0.75006666  0.32376193  0.34829327  1
  O2-  O374  1  0.75077006  0.33283483  0.58054438  1
  O2-  O375  1  0.24825725  -0.01902805  0.66249957  1
  O2-  O376  1  0.25027497  0.34990583  0.36252007  1
  O2-  O377  1  0.24865353  -0.02082981  0.08251508  1
  O2-  O378  1  0.24873017  0.00130628  0.57580134  1
  O2-  O379  1  0.24860673  -0.03056968  0.91302847  1
  O2-  O380  1  0.24834639  -0.01967141  0.82373498  1
  O2-  O381  1  0.75124689  0.66245187  0.61290688  1
  O2-  O382  1  0.75025723  0.32654905  0.88128067  1
  O2-  O383  1  0.24922464  0.34407657  0.81785486  1
  O2-  O384  1  0.24941863  0.65624659  0.38273719  1
  O2-  O385  1  0.24948451  0.35944540  0.91323651  1
  O2-  O386  1  0.24972210  0.32338712  0.59643351  1
  O2-  O387  1  0.74930435  0.67415227  0.85469540  1
  O2-  O388  1  0.75079685  0.00694075  0.19746533  1
  O2-  O389  1  0.24900732  0.00686089  0.16940903  1
  O2-  O390  1  0.75163327  0.34881279  0.67034413  1
  O2-  O391  1  0.24968114  0.33763340  0.14483847  1
  O2-  O392  1  0.74812201  0.66775839  0.13578710  1
  O2-  O393  1  0.74953373  0.00176162  0.61987078  1
  O2-  O394  1  0.74828024  0.01621566  0.86252254  1
  O2-  O395  1  0.74965830  0.01875958  0.07104910  1
  O2-  O396  1  0.24990035  0.49200400  0.63478603  1
  O2-  O397  1  0.75008371  0.84775572  0.62018692  1
  O2-  O398  1  0.24946293  0.13243238  0.64984788  1
  O2-  O399  1  0.24969216  0.15818804  0.52758892  1
  O2-  O400  1  0.74948250  0.51164848  0.36040171  1
  O2-  O401  1  0.74970790  0.15358926  0.61730707  1
  O2-  O402  1  0.75078087  0.83140753  0.45473134  1
  O2-  O403  1  0.74971837  0.48130388  0.90766209  1
  O2-  O404  1  0.75029715  0.48950185  0.44314707  1
  O2-  O405  1  0.24973156  0.16469403  0.93070554  1
  O2-  O406  1  0.24930017  0.14435462  0.83727122  1
  O2-  O407  1  0.74956679  0.50549362  0.82909900  1
  O2-  O408  1  0.74969283  0.49590377  0.58473153  1
  O2-  O409  1  0.24942795  0.19217591  0.37486729  1
  O2-  O410  1  0.75067392  0.49020981  0.08638949  1
  O2-  O411  1  0.24959766  0.83432220  0.58578217  1
  O2-  O412  1  0.24915134  0.83208687  0.66572118  1
  O2-  O413  1  0.25016504  0.52209126  0.88699872  1
  O2-  O414  1  0.74780211  0.87800748  0.11756287  1
  O2-  O415  1  0.74792724  0.85010785  0.36630066  1
  O2-  O416  1  0.74971108  0.14433643  0.37229490  1
  O2-  O417  1  0.75043997  0.86893392  0.86920277  1
  O2-  O418  1  0.75027850  0.17270263  0.90649516  1
  O2-  O419  1  0.74941913  0.50657934  0.66659837  1
  O2-  O420  1  0.53223025  0.33182813  0.14504471  1
  O2-  O421  1  0.52949737  0.35885242  0.64216078  1
  O2-  O422  1  0.45592926  0.31020517  0.86818086  1
  O2-  O423  1  0.98508716  0.33174469  0.62664566  1
  O2-  O424  1  0.53984464  0.01459294  0.11303333  1
  O2-  O425  1  0.54411817  0.34797623  0.87285612  1
  O2-  O426  1  0.04477704  0.65901314  0.14679434  1
  O2-  O427  1  0.98857822  0.00105403  0.12552880  1
  O2-  O428  1  0.98697552  -0.01395068  0.88671773  1
  O2-  O429  1  0.04645348  0.34249005  0.87129691  1
  O2-  O430  1  0.44943735  -0.01727436  0.12876461  1
  O2-  O431  1  0.97567247  0.33492445  0.38337676  1
  O2-  O432  1  0.97474701  0.65981392  0.89031748  1
  O2-  O433  1  0.95351695  0.32342751  0.87033799  1
  O2-  O434  1  0.01665853  0.32713853  0.11770773  1
  O2-  O435  1  0.48001004  0.33427852  0.10600138  1
  O2-  O436  1  0.46283034  0.68114194  0.36943145  1
  O2-  O437  1  0.52482781  0.01568250  0.88162375  1
  O2-  O438  1  0.46759647  0.32992912  0.64149459  1
  O2-  O439  1  0.96732148  0.66501415  0.38200276  1
  O2-  O440  1  0.97087530  -0.00203148  0.37541896  1
  O2-  O441  1  0.55266397  0.65084100  0.38205559  1
  O2-  O442  1  0.95566161  0.66606685  0.10439699  1
  O2-  O443  1  0.47202178  0.66108465  0.61141149  1
