# generated using pymatgen
data_La7(Ru4O11)2
_symmetry_space_group_name_H-M   'P 1'
_cell_length_a   23.99103363
_cell_length_b   16.83086819
_cell_length_c   15.42840332
_cell_angle_alpha   89.99846295
_cell_angle_beta   90.00019077
_cell_angle_gamma   90.00081596
_symmetry_Int_Tables_number   1
_chemical_formula_structural   La7(Ru4O11)2
_chemical_formula_sum   'La84 Ru96 O264'
_cell_volume   6229.83381322
_cell_formula_units_Z   12
loop_
 _symmetry_equiv_pos_site_id
 _symmetry_equiv_pos_as_xyz
  1  'x, y, z'
loop_
 _atom_type_symbol
 _atom_type_oxidation_number
  La3+  3.0
  Ru4+  4.0
  O2-  -2.0
loop_
 _atom_site_type_symbol
 _atom_site_label
 _atom_site_symmetry_multiplicity
 _atom_site_fract_x
 _atom_site_fract_y
 _atom_site_fract_z
 _atom_site_occupancy
  La3+  La0  1  0.14186359  -0.00263432  0.12286987  1
  La3+  La1  1  0.13852664  0.00108907  0.37682027  1
  La3+  La2  1  0.13922388  0.00017078  0.62384229  1
  La3+  La3  1  0.14130272  -0.00202841  0.87663377  1
  La3+  La4  1  0.13772075  0.33150088  0.12467914  1
  La3+  La5  1  0.14040939  0.33380328  0.37770087  1
  La3+  La6  1  0.13843766  0.33553847  0.62260533  1
  La3+  La7  1  0.13903416  0.33398762  0.87457138  1
  La3+  La8  1  0.13668363  0.66813458  0.11660601  1
  La3+  La9  1  0.14315447  0.66742921  0.37313462  1
  La3+  La10  1  0.14032759  0.66544243  0.62230804  1
  La3+  La11  1  0.13583983  0.66582458  0.88304010  1
  La3+  La12  1  0.63820972  -0.00282135  0.12425145  1
  La3+  La13  1  0.64333611  0.00022517  0.36658340  1
  La3+  La14  1  0.63718928  0.00249939  0.62355036  1
  La3+  La15  1  0.63609385  -0.00134443  0.87674170  1
  La3+  La16  1  0.64334924  0.33465398  0.12780466  1
  La3+  La17  1  0.64316613  0.33236455  0.36959996  1
  La3+  La18  1  0.64361793  0.33518788  0.62631258  1
  La3+  La19  1  0.63787927  0.33460960  0.87874001  1
  La3+  La20  1  0.64128576  0.66761750  0.12611841  1
  La3+  La21  1  0.64137798  0.66543198  0.37478681  1
  La3+  La22  1  0.64431878  0.66265558  0.62525399  1
  La3+  La23  1  0.64255372  0.66807685  0.87711747  1
  La3+  La24  1  0.36003700  -0.00121408  0.12214604  1
  La3+  La25  1  0.36065791  0.00029667  0.37500007  1
  La3+  La26  1  0.36308259  -0.00059252  0.62373604  1
  La3+  La27  1  0.35976601  -0.00257887  0.87799507  1
  La3+  La28  1  0.35990480  0.33590372  0.12304323  1
  La3+  La29  1  0.36030685  0.33428585  0.37761589  1
  La3+  La30  1  0.36028433  0.33553676  0.62250628  1
  La3+  La31  1  0.36069482  0.33414931  0.87381242  1
  La3+  La32  1  0.35784271  0.67209961  0.12562881  1
  La3+  La33  1  0.35639368  0.66841030  0.37374997  1
  La3+  La34  1  0.35666122  0.66352038  0.62158802  1
  La3+  La35  1  0.36014594  0.66944355  0.87306940  1
  La3+  La36  1  0.85933522  -0.00297342  0.12314992  1
  La3+  La37  1  0.86508832  -0.00193082  0.37354317  1
  La3+  La38  1  0.86530730  -0.00210435  0.62594477  1
  La3+  La39  1  0.86111835  -0.00169766  0.87929315  1
  La3+  La40  1  0.85819971  0.33366517  0.12399059  1
  La3+  La41  1  0.86478946  0.33451005  0.37191491  1
  La3+  La42  1  0.85987322  0.33879516  0.62257899  1
  La3+  La43  1  0.86366879  0.33211294  0.88000360  1
  La3+  La44  1  0.85819506  0.66734989  0.12535867  1
  La3+  La45  1  0.85748488  0.66483937  0.37536906  1
  La3+  La46  1  0.85883490  0.66327838  0.62580622  1
  La3+  La47  1  0.85622639  0.66917444  0.87613137  1
  La3+  La48  1  0.49965005  0.83305075  0.63112912  1
  La3+  La49  1  0.49854471  0.49945177  0.87990926  1
  La3+  La50  1  0.00017737  0.50113179  0.38802734  1
  La3+  La51  1  0.00252288  0.16181233  0.87351290  1
  La3+  La52  1  0.00100151  0.17368674  0.11964130  1
  La3+  La53  1  0.50175134  0.49610034  0.37323995  1
  La3+  La54  1  0.50149508  0.49722382  0.35654801  1
  La3+  La55  1  0.49947892  0.16628844  0.87146482  1
  La3+  La56  1  0.00410293  0.82975407  0.86511526  1
  La3+  La57  1  0.50376522  0.83688003  0.87780644  1
  La3+  La58  1  0.00486145  0.50644619  0.86230148  1
  La3+  La59  1  0.00043270  0.49730970  0.11564792  1
  La3+  La60  1  0.49988966  0.16542921  0.64019277  1
  La3+  La61  1  0.49382193  0.17185055  0.62126300  1
  La3+  La62  1  0.00046195  0.16283702  0.13881420  1
  La3+  La63  1  0.00384230  0.82787098  0.61803363  1
  La3+  La64  1  0.00130211  0.50927151  0.13371906  1
  La3+  La65  1  0.00145729  0.82777411  0.88116838  1
  La3+  La66  1  -0.00151747  0.16768458  0.61151436  1
  La3+  La67  1  0.50337164  0.16509316  0.11875488  1
  La3+  La68  1  -0.00406015  0.50154181  0.87926938  1
  La3+  La69  1  0.00179503  0.16378947  0.89020776  1
  La3+  La70  1  0.50127792  0.16770525  0.37509700  1
  La3+  La71  1  0.50544668  0.50845105  0.12467233  1
  La3+  La72  1  0.74984283  0.17810169  0.81749648  1
  La3+  La73  1  0.24974079  0.17061123  0.80086482  1
  La3+  La74  1  0.25037821  0.87495090  0.76581843  1
  La3+  La75  1  0.25009978  0.16661832  0.49927377  1
  La3+  La76  1  0.75030109  0.18986429  0.49811236  1
  La3+  La77  1  0.25044344  0.50029358  0.69653981  1
  La3+  La78  1  0.25193921  0.55663490  0.01392227  1
  La3+  La79  1  0.75031494  0.21975902  0.19677611  1
  La3+  La80  1  0.74953299  0.78665305  0.71869690  1
  La3+  La81  1  0.74992029  0.50039916  0.27041767  1
  La3+  La82  1  0.74992706  0.50508156  0.73679080  1
  La3+  La83  1  0.24979818  0.55331076  0.23359822  1
  Ru4+  Ru84  1  0.00708414  -0.00134124  0.00542251  1
  Ru4+  Ru85  1  -0.00247427  -0.00058698  0.25387190  1
  Ru4+  Ru86  1  -0.00100713  0.00324647  0.49739795  1
  Ru4+  Ru87  1  0.00383457  0.00034719  0.74421838  1
  Ru4+  Ru88  1  0.00220127  0.33742171  -0.00203590  1
  Ru4+  Ru89  1  0.00377466  0.33714285  0.25294220  1
  Ru4+  Ru90  1  -0.00082287  0.33491118  0.50267135  1
  Ru4+  Ru91  1  -0.00111468  0.33276848  0.74835885  1
  Ru4+  Ru92  1  -0.00146329  0.66357563  0.00394009  1
  Ru4+  Ru93  1  -0.00029848  0.67257708  0.25126744  1
  Ru4+  Ru94  1  0.00046322  0.66765836  0.50303076  1
  Ru4+  Ru95  1  -0.00253505  0.66410979  0.74348857  1
  Ru4+  Ru96  1  0.50110519  -0.00066066  0.00177161  1
  Ru4+  Ru97  1  0.50354192  -0.00788978  0.24721314  1
  Ru4+  Ru98  1  0.50108700  -0.01098330  0.49835037  1
  Ru4+  Ru99  1  0.50013615  -0.00172650  0.75167957  1
  Ru4+  Ru100  1  0.49701777  0.33202725  -0.00451017  1
  Ru4+  Ru101  1  0.49956704  0.33295611  0.24229101  1
  Ru4+  Ru102  1  0.49884923  0.33651516  0.50000381  1
  Ru4+  Ru103  1  0.50160175  0.34030366  0.74972712  1
  Ru4+  Ru104  1  0.50064847  0.66712604  0.00459921  1
  Ru4+  Ru105  1  0.50051849  0.67464047  0.24734648  1
  Ru4+  Ru106  1  0.49841544  0.66456879  0.50401179  1
  Ru4+  Ru107  1  0.49765233  0.66868511  0.74433020  1
  Ru4+  Ru108  1  0.11322094  0.16493239  -0.00071807  1
  Ru4+  Ru109  1  0.11229302  0.16536230  0.25178872  1
  Ru4+  Ru110  1  0.10904120  0.16436885  0.49672991  1
  Ru4+  Ru111  1  0.10987496  0.16803099  0.75067444  1
  Ru4+  Ru112  1  0.11267421  0.50195692  -0.00142294  1
  Ru4+  Ru113  1  0.11066009  0.50350516  0.24998245  1
  Ru4+  Ru114  1  0.11454295  0.50091476  0.49904142  1
  Ru4+  Ru115  1  0.11138414  0.50142102  0.75056194  1
  Ru4+  Ru116  1  0.11714549  0.83878800  0.00367014  1
  Ru4+  Ru117  1  0.11395499  0.82772665  0.24818952  1
  Ru4+  Ru118  1  0.11320333  0.83230446  0.50060163  1
  Ru4+  Ru119  1  0.11210353  0.83712541  0.74720420  1
  Ru4+  Ru120  1  0.61212069  0.16933505  -0.00158428  1
  Ru4+  Ru121  1  0.61182090  0.16565929  0.25027150  1
  Ru4+  Ru122  1  0.61479516  0.17040209  0.49558889  1
  Ru4+  Ru123  1  0.61045882  0.16769972  0.75303316  1
  Ru4+  Ru124  1  0.61413232  0.49922481  -0.00088533  1
  Ru4+  Ru125  1  0.61353898  0.50126903  0.24831641  1
  Ru4+  Ru126  1  0.61527801  0.49513908  0.50080908  1
  Ru4+  Ru127  1  0.60947062  0.49978721  0.74979947  1
  Ru4+  Ru128  1  0.61498543  0.82994705  0.00117186  1
  Ru4+  Ru129  1  0.60705563  0.83325624  0.24817229  1
  Ru4+  Ru130  1  0.61003551  0.83885595  0.49899103  1
  Ru4+  Ru131  1  0.61086165  0.82972855  0.75075556  1
  Ru4+  Ru132  1  0.38717911  0.17046894  0.00168039  1
  Ru4+  Ru133  1  0.38771344  0.16739622  0.24870085  1
  Ru4+  Ru134  1  0.38689895  0.16988338  0.49854608  1
  Ru4+  Ru135  1  0.38738608  0.16754818  0.74957459  1
  Ru4+  Ru136  1  0.38965931  0.49970138  -0.00167413  1
  Ru4+  Ru137  1  0.38789020  0.49852115  0.24917402  1
  Ru4+  Ru138  1  0.38528032  0.50017633  0.50177365  1
  Ru4+  Ru139  1  0.38904775  0.50092828  0.75082499  1
  Ru4+  Ru140  1  0.38412602  0.83341192  0.00001315  1
  Ru4+  Ru141  1  0.39017564  0.83117944  0.25061471  1
  Ru4+  Ru142  1  0.38876272  0.83164535  0.49944576  1
  Ru4+  Ru143  1  0.39051574  0.82761528  0.74938791  1
  Ru4+  Ru144  1  0.88021138  0.16565185  -0.00081945  1
  Ru4+  Ru145  1  0.88521725  0.16082882  0.25242747  1
  Ru4+  Ru146  1  0.89075027  0.16813428  0.50251014  1
  Ru4+  Ru147  1  0.88895064  0.17031089  0.74659098  1
  Ru4+  Ru148  1  0.88415188  0.49482539  -0.00034953  1
  Ru4+  Ru149  1  0.88836453  0.50012307  0.25143333  1
  Ru4+  Ru150  1  0.88515170  0.49920678  0.49967204  1
  Ru4+  Ru151  1  0.88927026  0.50285969  0.74874050  1
  Ru4+  Ru152  1  0.88299241  0.83308205  0.00210902  1
  Ru4+  Ru153  1  0.89042101  0.83145800  0.25181851  1
  Ru4+  Ru154  1  0.88902761  0.83221970  0.50003842  1
  Ru4+  Ru155  1  0.88944944  0.83231311  0.75012487  1
  Ru4+  Ru156  1  0.75041456  0.75142173  0.49916888  1
  Ru4+  Ru157  1  0.25013825  0.90663658  0.24701364  1
  Ru4+  Ru158  1  0.75005439  0.06176385  0.22381990  1
  Ru4+  Ru159  1  0.24990401  0.29670237  0.74191002  1
  Ru4+  Ru160  1  0.74975596  0.29833743  0.73718738  1
  Ru4+  Ru161  1  0.74970098  0.92387205  0.76313155  1
  Ru4+  Ru162  1  0.24954383  0.09341149  0.00428010  1
  Ru4+  Ru163  1  0.25001538  0.74111396  0.48887428  1
  Ru4+  Ru164  1  0.75029330  0.05432471  0.73907753  1
  Ru4+  Ru165  1  0.74982144  0.75591799  0.23877176  1
  Ru4+  Ru166  1  0.25011117  0.09130296  0.25366410  1
  Ru4+  Ru167  1  0.25012098  0.39209182  -0.00060198  1
  Ru4+  Ru168  1  0.74895399  0.08032672  0.00513959  1
  Ru4+  Ru169  1  0.24975258  0.39516564  0.24440239  1
  Ru4+  Ru170  1  0.75015871  0.90025776  0.49713801  1
  Ru4+  Ru171  1  0.74975487  0.90010118  0.23285697  1
  Ru4+  Ru172  1  0.24991492  0.24446755  0.00161507  1
  Ru4+  Ru173  1  0.75071219  0.32075493  0.48618531  1
  Ru4+  Ru174  1  0.24945022  0.72921916  0.74881400  1
  Ru4+  Ru175  1  0.25001043  0.91955698  0.49183741  1
  Ru4+  Ru176  1  0.25020502  0.24453077  0.24989688  1
  Ru4+  Ru177  1  0.75086087  0.05353727  0.51265797  1
  Ru4+  Ru178  1  0.75021737  0.58042985  0.00627424  1
  Ru4+  Ru179  1  0.24999374  0.05207511  0.73127463  1
  O2-  O180  1  0.16675625  0.08280409  0.00032519  1
  O2-  O181  1  0.16666609  0.08120276  0.25140031  1
  O2-  O182  1  0.17028053  0.08002059  0.49865307  1
  O2-  O183  1  0.16834383  0.07858617  0.74877247  1
  O2-  O184  1  0.16619131  0.41265889  0.00097676  1
  O2-  O185  1  0.16698286  0.41141121  0.24991074  1
  O2-  O186  1  0.16494434  0.41293162  0.50027517  1
  O2-  O187  1  0.16656020  0.41387103  0.74833248  1
  O2-  O188  1  0.16377360  0.74922840  -0.00067080  1
  O2-  O189  1  0.16618423  0.75025744  0.24973065  1
  O2-  O190  1  0.16843588  0.74780719  0.49845467  1
  O2-  O191  1  0.16568321  0.74620206  0.74930809  1
  O2-  O192  1  0.66558106  0.07933174  -0.00109356  1
  O2-  O193  1  0.66846979  0.08114685  0.24575181  1
  O2-  O194  1  0.67019180  0.07952343  0.50316100  1
  O2-  O195  1  0.66833529  0.07793600  0.75139864  1
  O2-  O196  1  0.66616854  0.41385696  -0.00283661  1
  O2-  O197  1  0.66732578  0.41589085  0.24973470  1
  O2-  O198  1  0.66995975  0.41686714  0.50019002  1
  O2-  O199  1  0.66878861  0.41369343  0.75421134  1
  O2-  O200  1  0.66580198  0.74864890  -0.00130976  1
  O2-  O201  1  0.66648159  0.74975313  0.25035087  1
  O2-  O202  1  0.66609189  0.75029132  0.49895613  1
  O2-  O203  1  0.66228219  0.74467881  0.75358235  1
  O2-  O204  1  0.33093454  0.25116765  -0.00075437  1
  O2-  O205  1  0.33143678  0.25050254  0.25057647  1
  O2-  O206  1  0.33134842  0.25326793  0.50109778  1
  O2-  O207  1  0.33291414  0.25475066  0.74976764  1
  O2-  O208  1  0.34107939  0.58862469  -0.00296794  1
  O2-  O209  1  0.33888815  0.58847514  0.24987612  1
  O2-  O210  1  0.33199803  0.58144064  0.49710979  1
  O2-  O211  1  0.33331438  0.58354804  0.74913588  1
  O2-  O212  1  0.33647692  0.91862099  0.00004811  1
  O2-  O213  1  0.33394015  0.91909402  0.25032694  1
  O2-  O214  1  0.33209281  0.92035956  0.49789471  1
  O2-  O215  1  0.33948206  0.92204827  0.74861328  1
  O2-  O216  1  0.83249455  0.25259902  -0.00088713  1
  O2-  O217  1  0.83661963  0.25496847  0.25520037  1
  O2-  O218  1  0.83376255  0.25711565  0.49701434  1
  O2-  O219  1  0.83082023  0.25536285  0.75209915  1
  O2-  O220  1  0.83041454  0.58573930  0.00172957  1
  O2-  O221  1  0.83553177  0.58724600  0.25013917  1
  O2-  O222  1  0.83399443  0.58464447  0.50124104  1
  O2-  O223  1  0.83161739  0.58409829  0.75081061  1
  O2-  O224  1  0.83150557  0.91855551  -0.00200954  1
  O2-  O225  1  0.83373502  0.91690068  0.24976569  1
  O2-  O226  1  0.83486209  0.91885420  0.49987175  1
  O2-  O227  1  0.83093483  0.91988046  0.74778695  1
  O2-  O228  1  0.17022782  0.25322866  -0.00031197  1
  O2-  O229  1  0.16770993  0.25306179  0.25021901  1
  O2-  O230  1  0.16686871  0.25225422  0.50013270  1
  O2-  O231  1  0.16544441  0.25569512  0.74924550  1
  O2-  O232  1  0.16333211  0.58863445  -0.00210056  1
  O2-  O233  1  0.16139751  0.58915348  0.24895941  1
  O2-  O234  1  0.16385256  0.58460398  0.50071699  1
  O2-  O235  1  0.16627869  0.58457002  0.74790339  1
  O2-  O236  1  0.16818000  0.91721813  0.00203988  1
  O2-  O237  1  0.16513539  0.91861628  0.25196118  1
  O2-  O238  1  0.16687075  0.91981462  0.49779398  1
  O2-  O239  1  0.16427735  0.92252549  0.74794344  1
  O2-  O240  1  0.66411854  0.25391108  -0.00191170  1
  O2-  O241  1  0.66574976  0.25200387  0.25193961  1
  O2-  O242  1  0.66743206  0.25681295  0.50079365  1
  O2-  O243  1  0.66674007  0.25553256  0.75235583  1
  O2-  O244  1  0.66794008  0.58438194  0.00107608  1
  O2-  O245  1  0.66677434  0.58572018  0.25177939  1
  O2-  O246  1  0.66298480  0.58547667  0.49992756  1
  O2-  O247  1  0.66571643  0.58400615  0.75358493  1
  O2-  O248  1  0.66269952  0.91887339  -0.00220077  1
  O2-  O249  1  0.66773218  0.91550883  0.24655789  1
  O2-  O250  1  0.66876743  0.91670261  0.50198221  1
  O2-  O251  1  0.66636705  0.92092580  0.75050074  1
  O2-  O252  1  0.33309021  0.08310695  -0.00118169  1
  O2-  O253  1  0.33397826  0.08186889  0.25136290  1
  O2-  O254  1  0.33075033  0.07868022  0.49951390  1
  O2-  O255  1  0.33286358  0.07798460  0.75205683  1
  O2-  O256  1  0.32975879  0.41313756  0.00057912  1
  O2-  O257  1  0.33101369  0.41325938  0.25039749  1
  O2-  O258  1  0.33238063  0.41678912  0.50232819  1
  O2-  O259  1  0.33304992  0.41476660  0.74716281  1
  O2-  O260  1  0.33662892  0.74886787  -0.00120786  1
  O2-  O261  1  0.33480688  0.75158458  0.24815158  1
  O2-  O262  1  0.33077643  0.74901851  0.49657521  1
  O2-  O263  1  0.33087704  0.74685678  0.75145046  1
  O2-  O264  1  0.83238821  0.07890757  0.00069698  1
  O2-  O265  1  0.83331695  0.07904188  0.25003494  1
  O2-  O266  1  0.83585595  0.07717602  0.49951291  1
  O2-  O267  1  0.83461755  0.08010494  0.74906643  1
  O2-  O268  1  0.83345325  0.41356448  -0.00232133  1
  O2-  O269  1  0.83578003  0.41249167  0.25343880  1
  O2-  O270  1  0.83611975  0.41430506  0.49638382  1
  O2-  O271  1  0.83258326  0.41504840  0.75215873  1
  O2-  O272  1  0.83543995  0.74808210  0.00215819  1
  O2-  O273  1  0.83239461  0.74906771  0.24956511  1
  O2-  O274  1  0.83289604  0.74813408  0.50042307  1
  O2-  O275  1  0.83533955  0.74664629  0.75358364  1
  O2-  O276  1  0.96454848  0.88609113  0.71919187  1
  O2-  O277  1  0.44841322  0.90389172  0.23659671  1
  O2-  O278  1  0.45618445  0.56698227  0.24063749  1
  O2-  O279  1  0.94666526  0.91302521  0.96960477  1
  O2-  O280  1  0.95704700  0.23610527  0.98679987  1
  O2-  O281  1  0.46343867  0.21900037  0.25102857  1
  O2-  O282  1  0.45089102  0.90563587  0.76428834  1
  O2-  O283  1  0.54178131  0.09956368  0.52881200  1
  O2-  O284  1  0.54946654  0.42787713  0.98306813  1
  O2-  O285  1  0.05212945  0.57575762  0.01472122  1
  O2-  O286  1  0.94615605  0.57239595  0.01235654  1
  O2-  O287  1  0.04629158  0.76240720  0.73844985  1
  O2-  O288  1  0.04529470  0.43230896  0.24612836  1
  O2-  O289  1  0.45234814  0.08943469  0.26377205  1
  O2-  O290  1  0.46091837  0.56011645  0.46652554  1
  O2-  O291  1  0.44915732  0.08945579  0.01710465  1
  O2-  O292  1  0.04985198  0.23453370  0.26645332  1
  O2-  O293  1  0.04484134  0.43230632  0.73598282  1
  O2-  O294  1  0.04283673  0.56206757  0.99537405  1
  O2-  O295  1  0.54907562  0.43048023  0.73856624  1
  O2-  O296  1  0.53327739  0.12588867  0.50587962  1
  O2-  O297  1  0.56000656  0.25333012  0.22036478  1
  O2-  O298  1  0.95414272  0.09730370  0.73360835  1
  O2-  O299  1  0.96058004  0.55939160  0.52607071  1
  O2-  O300  1  0.04963832  0.42721460  0.98813961  1
  O2-  O301  1  0.95143733  0.76851553  0.50899259  1
  O2-  O302  1  0.96320047  0.22564107  0.77990458  1
  O2-  O303  1  0.95168539  0.23390268  0.27156036  1
  O2-  O304  1  0.45882929  0.44555981  0.03974695  1
  O2-  O305  1  0.05264196  0.08689305  0.48178549  1
  O2-  O306  1  0.52496321  0.87934551  0.47873110  1
  O2-  O307  1  0.55134427  0.90407834  0.23672777  1
  O2-  O308  1  0.95244219  0.76032270  0.98436558  1
  O2-  O309  1  0.96456354  0.54636226  0.71094454  1
  O2-  O310  1  0.54995591  0.90187519  0.76033922  1
  O2-  O311  1  0.54695092  0.75985520  0.23490040  1
  O2-  O312  1  0.95543483  0.42733857  0.51221531  1
  O2-  O313  1  0.95060000  0.24248917  0.23337817  1
  O2-  O314  1  0.44910407  0.75132710  0.79775024  1
  O2-  O315  1  0.54244145  0.76039661  0.47283491  1
  O2-  O316  1  0.05150862  0.76696097  0.98570899  1
  O2-  O317  1  0.44438053  0.90392691  0.51559888  1
  O2-  O318  1  0.53194278  0.45587918  0.50144784  1
  O2-  O319  1  0.44485880  0.09353390  0.48220627  1
  O2-  O320  1  0.95213160  0.09748693  0.01029478  1
  O2-  O321  1  0.45033707  0.43570723  0.76303700  1
  O2-  O322  1  0.95101791  0.77030245  0.26255632  1
  O2-  O323  1  0.52871317  0.46148727  0.51191385  1
  O2-  O324  1  0.44839847  0.74955976  0.80970183  1
  O2-  O325  1  0.43544284  0.73436991  0.28242948  1
  O2-  O326  1  0.43418727  0.24761894  0.93705888  1
  O2-  O327  1  0.43782083  0.26431809  0.06642857  1
  O2-  O328  1  0.93338196  0.74090218  0.72286489  1
  O2-  O329  1  0.06449921  0.73534987  0.21609369  1
  O2-  O330  1  0.43425709  0.74370659  0.52483203  1
  O2-  O331  1  0.43798355  0.41109188  0.21771533  1
  O2-  O332  1  0.56896926  0.93679808  0.58156179  1
  O2-  O333  1  0.93626705  0.24920673  0.96996117  1
  O2-  O334  1  0.56841369  0.72831429  0.54808979  1
  O2-  O335  1  0.56338291  0.07517780  0.77401696  1
  O2-  O336  1  0.06479820  0.93123373  0.67854608  1
  O2-  O337  1  0.56302728  0.73582341  0.02930620  1
  O2-  O338  1  0.92919292  0.60088649  0.46211989  1
  O2-  O339  1  0.56318467  0.40996945  0.27094852  1
  O2-  O340  1  0.92928840  0.61108462  0.81260786  1
  O2-  O341  1  0.92514361  0.92661524  0.05616204  1
  O2-  O342  1  0.58959999  0.05262324  0.44433836  1
  O2-  O343  1  0.91914492  0.93580112  0.80221599  1
  O2-  O344  1  0.58183835  0.92866427  0.43430980  1
  O2-  O345  1  0.56364336  0.59626455  0.21494255  1
  O2-  O346  1  0.55543197  0.24558062  0.22674839  1
  O2-  O347  1  0.57465821  0.38693130  0.58038686  1
  O2-  O348  1  0.06505573  0.07875286  0.77473732  1
  O2-  O349  1  0.56548997  0.07360252  0.22305081  1
  O2-  O350  1  0.42210558  0.60322611  0.55165740  1
  O2-  O351  1  0.05897787  0.74262576  0.95905720  1
  O2-  O352  1  0.92721144  0.28301453  0.68984578  1
  O2-  O353  1  0.06664815  0.91818154  0.80936011  1
  O2-  O354  1  0.06378398  0.73460456  0.53310600  1
  O2-  O355  1  0.42523972  0.27925562  0.20797825  1
  O2-  O356  1  0.94608606  0.91283290  0.96984833  1
  O2-  O357  1  0.56137351  0.25877245  0.57106525  1
  O2-  O358  1  0.42197174  0.74155757  0.67382198  1
  O2-  O359  1  0.06804980  0.91758727  0.94343011  1
  O2-  O360  1  0.93704156  0.26027779  0.52950543  1
  O2-  O361  1  0.44068885  0.07700466  0.02433963  1
  O2-  O362  1  0.43743376  0.26318959  0.71607783  1
  O2-  O363  1  0.56971483  0.24846033  0.43978310  1
  O2-  O364  1  0.43249493  0.40550805  0.47537927  1
  O2-  O365  1  0.58311516  0.39703923  0.42933832  1
  O2-  O366  1  0.06372467  0.92786660  0.06790966  1
  O2-  O367  1  0.42237961  0.39700766  0.94543055  1
  O2-  O368  1  0.06733598  0.25770048  0.02513550  1
  O2-  O369  1  0.06580471  0.59768887  0.96102037  1
  O2-  O370  1  0.43607288  0.07567371  0.72653376  1
  O2-  O371  1  0.05590849  0.08124487  0.47685074  1
  O2-  O372  1  0.25008023  0.00004593  0.93336118  1
  O2-  O373  1  0.24998006  0.00145198  0.18370849  1
  O2-  O374  1  0.75036862  -0.01282830  0.61377293  1
  O2-  O375  1  0.25014447  -0.00090565  0.34523089  1
  O2-  O376  1  0.75061706  0.66756811  0.32790001  1
  O2-  O377  1  0.75029955  0.33577502  0.60889251  1
  O2-  O378  1  0.25015191  0.34510977  0.63540919  1
  O2-  O379  1  0.24866446  0.66803061  0.59506614  1
  O2-  O380  1  0.24979401  0.66417733  0.84619599  1
  O2-  O381  1  0.24976333  0.66969330  0.35616428  1
  O2-  O382  1  0.75057918  -0.01571384  0.42140045  1
  O2-  O383  1  0.25024572  -0.00093241  0.06634353  1
  O2-  O384  1  0.74986910  0.66877609  0.64996751  1
  O2-  O385  1  0.74992747  0.66828345  0.42070524  1
  O2-  O386  1  0.75014154  -0.01011724  0.31102378  1
  O2-  O387  1  0.74956677  0.33553033  0.15387877  1
  O2-  O388  1  0.24967617  0.66086172  0.10033950  1
  O2-  O389  1  0.25038692  -0.00947860  0.83465363  1
  O2-  O390  1  0.74942091  0.65793957  0.90878328  1
  O2-  O391  1  0.75022907  0.67108638  0.15748208  1
  O2-  O392  1  0.74981343  0.00324040  0.10020520  1
  O2-  O393  1  0.24998736  0.33687821  0.86019519  1
  O2-  O394  1  0.24943059  0.32725504  0.35159801  1
  O2-  O395  1  0.25002655  -0.01399865  0.63377585  1
  O2-  O396  1  0.74995845  0.83426118  0.11823550  1
  O2-  O397  1  0.25008757  0.81527914  0.64705008  1
  O2-  O398  1  0.75022994  0.50991076  0.12359836  1
  O2-  O399  1  0.24976359  0.49954857  0.43652005  1
  O2-  O400  1  0.75018548  0.83399106  0.58906087  1
  O2-  O401  1  0.75007004  0.84007760  0.85012617  1
  O2-  O402  1  0.24986548  0.83845846  0.16497052  1
  O2-  O403  1  0.24977639  0.46816857  0.12199241  1
  O2-  O404  1  0.25015727  0.16460584  0.64186356  1
  O2-  O405  1  0.75034443  0.14755063  0.30275583  1
  O2-  O406  1  0.74880070  0.16481877  0.38031337  1
  O2-  O407  1  0.24987599  0.49018084  0.35324044  1
  O2-  O408  1  0.25010041  0.81830993  0.88068718  1
  O2-  O409  1  0.24980083  0.83256302  0.55976720  1
  O2-  O410  1  0.74982373  0.49960490  0.60206184  1
  O2-  O411  1  0.74985845  0.49690534  0.40471269  1
  O2-  O412  1  0.24919041  0.47830030  0.91008441  1
  O2-  O413  1  0.74992121  0.15958603  0.08115077  1
  O2-  O414  1  0.75010222  0.16694480  0.93750634  1
  O2-  O415  1  0.75036509  0.15127685  0.61337895  1
  O2-  O416  1  0.24983695  0.16788944  0.15577191  1
  O2-  O417  1  0.25003947  0.50442597  0.82641730  1
  O2-  O418  1  0.75039969  0.16989626  0.69145906  1
  O2-  O419  1  0.74988437  0.83500396  0.93387616  1
  O2-  O420  1  0.97326965  -0.00025721  0.37388194  1
  O2-  O421  1  0.02972486  0.32857250  0.62363941  1
  O2-  O422  1  0.52438403  -0.00265080  0.88279217  1
  O2-  O423  1  0.47144952  0.66631649  0.12211055  1
  O2-  O424  1  0.96476986  0.66859765  0.36464239  1
  O2-  O425  1  0.97269019  0.00178476  0.61687346  1
  O2-  O426  1  0.97620783  0.00731675  0.13818572  1
  O2-  O427  1  0.52733039  0.65863884  0.37411503  1
  O2-  O428  1  0.48309749  0.32966366  0.86397761  1
  O2-  O429  1  0.95728504  0.34844189  0.86803427  1
  O2-  O430  1  0.52460462  -0.00212026  0.11669863  1
  O2-  O431  1  0.51751998  0.00331036  0.36275299  1
  O2-  O432  1  0.03002198  0.01536632  0.88280153  1
  O2-  O433  1  0.95488417  0.33701057  0.11677530  1
  O2-  O434  1  0.04188332  0.33894632  0.13043277  1
  O2-  O435  1  0.04495169  0.32859597  0.87293915  1
  O2-  O436  1  0.97713743  0.66695146  0.61985030  1
  O2-  O437  1  0.97092912  0.66513128  0.13012063  1
  O2-  O438  1  0.52910283  0.32674230  0.36116466  1
  O2-  O439  1  0.04034792  0.66350355  0.37743181  1
  O2-  O440  1  0.45610557  0.32627532  0.37271110  1
  O2-  O441  1  0.47439148  -0.00217379  0.62184476  1
  O2-  O442  1  0.48808781  0.65921538  0.63075011  1
  O2-  O443  1  0.96392009  0.02441983  0.87188662  1
