# generated using pymatgen
data_La7(Ru4O11)2
_symmetry_space_group_name_H-M   'P 1'
_cell_length_a   23.99490467
_cell_length_b   16.83702530
_cell_length_c   15.43382027
_cell_angle_alpha   89.99726600
_cell_angle_beta   89.99847087
_cell_angle_gamma   90.00028559
_symmetry_Int_Tables_number   1
_chemical_formula_structural   La7(Ru4O11)2
_chemical_formula_sum   'La84 Ru96 O264'
_cell_volume   6235.30685987
_cell_formula_units_Z   12
loop_
 _symmetry_equiv_pos_site_id
 _symmetry_equiv_pos_as_xyz
  1  'x, y, z'
loop_
 _atom_type_symbol
 _atom_type_oxidation_number
  La3+  3.0
  Ru4+  4.0
  O2-  -2.0
loop_
 _atom_site_type_symbol
 _atom_site_label
 _atom_site_symmetry_multiplicity
 _atom_site_fract_x
 _atom_site_fract_y
 _atom_site_fract_z
 _atom_site_occupancy
  La3+  La0  1  0.13729940  0.01202039  0.12342291  1
  La3+  La1  1  0.13476744  0.00259881  0.37085453  1
  La3+  La2  1  0.13365769  0.00138759  0.62507699  1
  La3+  La3  1  0.13593011  0.00574251  0.87500702  1
  La3+  La4  1  0.14201116  0.34400686  0.12545977  1
  La3+  La5  1  0.13976914  0.33737036  0.37946397  1
  La3+  La6  1  0.15064051  0.33933013  0.62570052  1
  La3+  La7  1  0.14897008  0.33543557  0.87506800  1
  La3+  La8  1  0.13626411  0.65608957  0.12580479  1
  La3+  La9  1  0.13766588  0.65580780  0.36992421  1
  La3+  La10  1  0.13940430  0.66129108  0.62403798  1
  La3+  La11  1  0.13685715  0.66092308  0.87817752  1
  La3+  La12  1  0.64180783  0.00280962  0.12216212  1
  La3+  La13  1  0.64815747  0.00108583  0.38122301  1
  La3+  La14  1  0.64952832  0.00223330  0.62327605  1
  La3+  La15  1  0.64912811  0.00543140  0.87620212  1
  La3+  La16  1  0.64355551  0.33262171  0.12150781  1
  La3+  La17  1  0.63669726  0.32785615  0.37902628  1
  La3+  La18  1  0.63873168  0.32785915  0.62438034  1
  La3+  La19  1  0.64899792  0.32932536  0.88136531  1
  La3+  La20  1  0.63771325  0.66917510  0.12321424  1
  La3+  La21  1  0.64833598  0.67066791  0.36826720  1
  La3+  La22  1  0.64242374  0.67277853  0.63036236  1
  La3+  La23  1  0.63774056  0.67023194  0.87396593  1
  La3+  La24  1  0.36962621  0.00054577  0.12222090  1
  La3+  La25  1  0.36316971  0.00250164  0.37448447  1
  La3+  La26  1  0.36612498  0.00293539  0.62774834  1
  La3+  La27  1  0.36823617  0.00311970  0.87882274  1
  La3+  La28  1  0.36067726  0.34311493  0.12063472  1
  La3+  La29  1  0.35741586  0.33318734  0.37885115  1
  La3+  La30  1  0.35420513  0.33667990  0.62493662  1
  La3+  La31  1  0.35720866  0.33917481  0.87866377  1
  La3+  La32  1  0.35916019  0.65196586  0.12662475  1
  La3+  La33  1  0.36095356  0.66062266  0.37689672  1
  La3+  La34  1  0.36082308  0.66355941  0.62400929  1
  La3+  La35  1  0.36321604  0.66321307  0.87871555  1
  La3+  La36  1  0.85308014  -0.00069566  0.11910061  1
  La3+  La37  1  0.85238068  0.00081688  0.37686479  1
  La3+  La38  1  0.84186959  0.00780500  0.61866765  1
  La3+  La39  1  0.85212486  0.00333026  0.87004253  1
  La3+  La40  1  0.86311072  0.33248619  0.12045827  1
  La3+  La41  1  0.86269823  0.32909678  0.37499489  1
  La3+  La42  1  0.86506577  0.32934803  0.62965403  1
  La3+  La43  1  0.87441622  0.32709081  0.86455332  1
  La3+  La44  1  0.86426859  0.66846007  0.12436132  1
  La3+  La45  1  0.85192269  0.66923587  0.36779884  1
  La3+  La46  1  0.85513639  0.67380838  0.63366488  1
  La3+  La47  1  0.86675190  0.67609073  0.87355612  1
  La3+  La48  1  -0.00796670  0.83597684  0.63402912  1
  La3+  La49  1  -0.00737743  0.49669393  0.61620511  1
  La3+  La50  1  -0.01049231  0.14986894  0.86758761  1
  La3+  La51  1  0.49472262  0.49599354  0.12109798  1
  La3+  La52  1  0.50224966  0.49562169  0.62646693  1
  La3+  La53  1  0.00279429  0.16316735  0.35887325  1
  La3+  La54  1  0.49974036  0.83470327  0.37819031  1
  La3+  La55  1  0.00953449  0.82040183  0.13887735  1
  La3+  La56  1  0.50086538  0.16962825  0.10892462  1
  La3+  La57  1  0.00309956  0.16839400  0.12313222  1
  La3+  La58  1  0.49851808  0.49849301  0.87072364  1
  La3+  La59  1  -0.00124851  0.49492641  0.63650941  1
  La3+  La60  1  0.50542595  0.49459716  0.88998178  1
  La3+  La61  1  0.00197447  0.16599527  0.63659915  1
  La3+  La62  1  0.00016687  0.17241541  0.61531173  1
  La3+  La63  1  0.50267881  0.16105077  0.12943693  1
  La3+  La64  1  0.50091444  0.50163737  0.37937406  1
  La3+  La65  1  0.49661425  0.82692317  0.62323678  1
  La3+  La66  1  0.49702773  0.17065533  0.60537404  1
  La3+  La67  1  0.49367811  0.83751864  0.12063066  1
  La3+  La68  1  -0.00094291  0.82437141  0.89043679  1
  La3+  La69  1  0.51079103  0.84547692  0.85993767  1
  La3+  La70  1  -0.00556872  0.83063718  0.38052713  1
  La3+  La71  1  -0.00125052  0.82475860  0.61794572  1
  La3+  La72  1  0.25045946  0.17954367  -0.01725668  1
  La3+  La73  1  0.75147408  0.46408897  0.46307962  1
  La3+  La74  1  0.74889860  0.55080923  0.20569117  1
  La3+  La75  1  0.24792221  0.81706009  -0.05835381  1
  La3+  La76  1  0.25057689  0.21498442  0.23779852  1
  La3+  La77  1  0.75114574  0.16518314  -0.02465030  1
  La3+  La78  1  0.75194827  0.43124076  0.78214039  1
  La3+  La79  1  0.25108007  0.79682153  0.17268894  1
  La3+  La80  1  0.24520899  0.86971667  0.49093046  1
  La3+  La81  1  0.25038987  0.22705169  0.72700959  1
  La3+  La82  1  0.25000010  0.89729001  0.77423884  1
  La3+  La83  1  0.74746897  0.86773361  0.02986684  1
  Ru4+  Ru84  1  -0.00578032  -0.00767328  -0.00574838  1
  Ru4+  Ru85  1  -0.00387853  -0.00666509  0.24731404  1
  Ru4+  Ru86  1  -0.00088370  0.00204739  0.49091011  1
  Ru4+  Ru87  1  -0.01227818  -0.00923757  0.74857632  1
  Ru4+  Ru88  1  0.01428250  0.32285206  0.00710186  1
  Ru4+  Ru89  1  0.00023242  0.34609614  0.25766783  1
  Ru4+  Ru90  1  0.00795074  0.32668641  0.47927058  1
  Ru4+  Ru91  1  0.00744017  0.33587773  0.76989669  1
  Ru4+  Ru92  1  0.00267669  0.64473893  0.00329352  1
  Ru4+  Ru93  1  -0.00172683  0.65568894  0.25382062  1
  Ru4+  Ru94  1  -0.00436883  0.65361894  0.48827813  1
  Ru4+  Ru95  1  0.00798555  0.66016713  0.76275658  1
  Ru4+  Ru96  1  0.50033724  -0.00509360  -0.00911406  1
  Ru4+  Ru97  1  0.50347324  0.00112424  0.25322635  1
  Ru4+  Ru98  1  0.49302891  -0.00738308  0.49099482  1
  Ru4+  Ru99  1  0.49917605  0.00558311  0.75147924  1
  Ru4+  Ru100  1  0.49767782  0.31570023  0.01366863  1
  Ru4+  Ru101  1  0.49942909  0.33695168  0.23870773  1
  Ru4+  Ru102  1  0.49681100  0.34052898  0.51514020  1
  Ru4+  Ru103  1  0.50872224  0.31935966  0.74125713  1
  Ru4+  Ru104  1  0.49315360  0.67960186  -0.00073638  1
  Ru4+  Ru105  1  0.49954853  0.66459114  0.25125474  1
  Ru4+  Ru106  1  0.49674908  0.66400166  0.49941854  1
  Ru4+  Ru107  1  0.50261242  0.67267665  0.76355969  1
  Ru4+  Ru108  1  0.10724442  0.16727057  -0.00274981  1
  Ru4+  Ru109  1  0.11364858  0.17021635  0.25593960  1
  Ru4+  Ru110  1  0.11580472  0.16904477  0.50028565  1
  Ru4+  Ru111  1  0.10861676  0.16491523  0.75359098  1
  Ru4+  Ru112  1  0.10814160  0.51507475  -0.00482036  1
  Ru4+  Ru113  1  0.10793252  0.50024612  0.25254786  1
  Ru4+  Ru114  1  0.11391792  0.49915603  0.49224368  1
  Ru4+  Ru115  1  0.11325098  0.49835509  0.75782410  1
  Ru4+  Ru116  1  0.11082680  0.83547775  0.00241248  1
  Ru4+  Ru117  1  0.10910438  0.84146895  0.24862919  1
  Ru4+  Ru118  1  0.11268365  0.83435646  0.49961112  1
  Ru4+  Ru119  1  0.11312018  0.82466666  0.75825408  1
  Ru4+  Ru120  1  0.60998705  0.16337432  -0.00337607  1
  Ru4+  Ru121  1  0.60986584  0.16484675  0.24861188  1
  Ru4+  Ru122  1  0.61528204  0.16972728  0.49684451  1
  Ru4+  Ru123  1  0.61374657  0.17657981  0.75794877  1
  Ru4+  Ru124  1  0.61319837  0.50031426  0.00781473  1
  Ru4+  Ru125  1  0.60819997  0.49476614  0.24845111  1
  Ru4+  Ru126  1  0.60717962  0.50036043  0.49583341  1
  Ru4+  Ru127  1  0.61519456  0.49932204  0.74502038  1
  Ru4+  Ru128  1  0.60474789  0.83448887  0.00265657  1
  Ru4+  Ru129  1  0.61049743  0.83201560  0.24921033  1
  Ru4+  Ru130  1  0.61152149  0.83481417  0.50009040  1
  Ru4+  Ru131  1  0.61281002  0.82918234  0.74699153  1
  Ru4+  Ru132  1  0.39083728  0.16993186  -0.00673173  1
  Ru4+  Ru133  1  0.38998099  0.16634390  0.25162759  1
  Ru4+  Ru134  1  0.38979124  0.16565242  0.49660244  1
  Ru4+  Ru135  1  0.39369130  0.16672482  0.75236234  1
  Ru4+  Ru136  1  0.38257575  0.50305843  -0.00020090  1
  Ru4+  Ru137  1  0.38592687  0.49779685  0.25167113  1
  Ru4+  Ru138  1  0.39185334  0.49542183  0.49370897  1
  Ru4+  Ru139  1  0.38626016  0.49681390  0.74706965  1
  Ru4+  Ru140  1  0.39067089  0.82731931  0.00227723  1
  Ru4+  Ru141  1  0.38934781  0.82870028  0.24727865  1
  Ru4+  Ru142  1  0.39235157  0.84255056  0.50082797  1
  Ru4+  Ru143  1  0.38986899  0.83606120  0.74995839  1
  Ru4+  Ru144  1  0.88874261  0.16982520  0.00276771  1
  Ru4+  Ru145  1  0.88876004  0.16213112  0.24411906  1
  Ru4+  Ru146  1  0.88334756  0.17233293  0.49721333  1
  Ru4+  Ru147  1  0.88003945  0.16538086  0.75310275  1
  Ru4+  Ru148  1  0.89091847  0.50301685  -0.00395904  1
  Ru4+  Ru149  1  0.89520890  0.50431877  0.25234182  1
  Ru4+  Ru150  1  0.89206670  0.51251067  0.49315000  1
  Ru4+  Ru151  1  0.88621621  0.50364771  0.75436506  1
  Ru4+  Ru152  1  0.89269828  0.84058752  -0.00427365  1
  Ru4+  Ru153  1  0.88675714  0.82494259  0.25390303  1
  Ru4+  Ru154  1  0.88744198  0.83718105  0.50004435  1
  Ru4+  Ru155  1  0.88409155  0.83648018  0.75403794  1
  Ru4+  Ru156  1  0.74927000  0.90552271  0.25523964  1
  Ru4+  Ru157  1  0.74819414  0.60241404  0.50786977  1
  Ru4+  Ru158  1  0.75041681  0.39477765  0.24641422  1
  Ru4+  Ru159  1  0.25362726  1.00240758  0.54734226  1
  Ru4+  Ru160  1  0.74960018  0.72804930  -0.02416871  1
  Ru4+  Ru161  1  0.25116922  0.07264413  0.75826753  1
  Ru4+  Ru162  1  0.25041656  0.57075911  0.76517692  1
  Ru4+  Ru163  1  0.75022863  0.59978118  0.77799367  1
  Ru4+  Ru164  1  0.25065141  0.07161702  0.22587391  1
  Ru4+  Ru165  1  0.75028289  0.58426260  -0.00537629  1
  Ru4+  Ru166  1  0.25063085  0.72329635  0.49621845  1
  Ru4+  Ru167  1  0.25089333  0.93242183  0.23224335  1
  Ru4+  Ru168  1  0.74682193  0.91447733  0.74504032  1
  Ru4+  Ru169  1  0.74970478  0.24241266  0.24512001  1
  Ru4+  Ru170  1  0.25189309  0.71744852  0.78523983  1
  Ru4+  Ru171  1  0.75079539  0.31711386  0.49538830  1
  Ru4+  Ru172  1  0.25077630  0.43132367  0.50034091  1
  Ru4+  Ru173  1  0.25021566  0.96600638  0.00168026  1
  Ru4+  Ru174  1  0.24778266  0.42402588  -0.00679859  1
  Ru4+  Ru175  1  0.24972024  0.68173736  0.00426977  1
  Ru4+  Ru176  1  0.24922302  0.35984454  0.27336451  1
  Ru4+  Ru177  1  0.74853452  0.09481929  0.24070840  1
  Ru4+  Ru178  1  0.24889323  0.68611815  0.25506119  1
  Ru4+  Ru179  1  0.75052324  0.77690695  0.48933735  1
  O2-  O180  1  0.16842758  0.08538832  -0.00772040  1
  O2-  O181  1  0.16974450  0.08246665  0.25136606  1
  O2-  O182  1  0.16394162  0.08442859  0.50356414  1
  O2-  O183  1  0.16849282  0.07988003  0.74724682  1
  O2-  O184  1  0.16360805  0.41911468  -0.00239593  1
  O2-  O185  1  0.16818887  0.41563425  0.25348487  1
  O2-  O186  1  0.16931077  0.41384863  0.50039399  1
  O2-  O187  1  0.16458552  0.41626767  0.75129578  1
  O2-  O188  1  0.16993839  0.74445007  0.00126584  1
  O2-  O189  1  0.16155611  0.74687437  0.24890805  1
  O2-  O190  1  0.16515343  0.74371199  0.49771321  1
  O2-  O191  1  0.16860006  0.74218235  0.75766920  1
  O2-  O192  1  0.67147289  0.08016499  0.00354283  1
  O2-  O193  1  0.66473866  0.08026798  0.24836155  1
  O2-  O194  1  0.66152180  0.08271335  0.50244661  1
  O2-  O195  1  0.65348014  0.08411713  0.74801351  1
  O2-  O196  1  0.66535714  0.41546679  0.00323530  1
  O2-  O197  1  0.66480510  0.41211774  0.25017867  1
  O2-  O198  1  0.66670150  0.40626873  0.49959698  1
  O2-  O199  1  0.66498034  0.40717627  0.74587388  1
  O2-  O200  1  0.66665727  0.74696524  0.00167965  1
  O2-  O201  1  0.66169171  0.74809917  0.24509830  1
  O2-  O202  1  0.66700933  0.75152459  0.49897373  1
  O2-  O203  1  0.66495588  0.75012175  0.75482298  1
  O2-  O204  1  0.33136192  0.25485717  -0.00274906  1
  O2-  O205  1  0.34075246  0.25897912  0.24905749  1
  O2-  O206  1  0.33927104  0.25099434  0.50175309  1
  O2-  O207  1  0.34260424  0.25547351  0.75474714  1
  O2-  O208  1  0.33064166  0.58846781  -0.00143380  1
  O2-  O209  1  0.33475806  0.58102962  0.25291324  1
  O2-  O210  1  0.34533915  0.58239046  0.50044299  1
  O2-  O211  1  0.33382675  0.58501523  0.74994903  1
  O2-  O212  1  0.33154508  0.92119946  -0.00468167  1
  O2-  O213  1  0.33486088  0.92306919  0.24304892  1
  O2-  O214  1  0.33475589  0.92633953  0.50094751  1
  O2-  O215  1  0.33890779  0.92213233  0.75058861  1
  O2-  O216  1  0.83529872  0.25651154  -0.00292877  1
  O2-  O217  1  0.83501991  0.25148553  0.24438581  1
  O2-  O218  1  0.82668996  0.25587683  0.49724439  1
  O2-  O219  1  0.83492325  0.25771985  0.75493337  1
  O2-  O220  1  0.82940600  0.58273092  -0.00055207  1
  O2-  O221  1  0.83533047  0.58427134  0.24298384  1
  O2-  O222  1  0.83121391  0.58837569  0.49936534  1
  O2-  O223  1  0.83354174  0.58640076  0.75878743  1
  O2-  O224  1  0.83039259  0.91831312  0.00117405  1
  O2-  O225  1  0.83327651  0.91373474  0.25070425  1
  O2-  O226  1  0.83821334  0.91932457  0.49876177  1
  O2-  O227  1  0.82785050  0.91364661  0.75468667  1
  O2-  O228  1  0.16852519  0.25097327  -0.00234081  1
  O2-  O229  1  0.16161648  0.26265420  0.25067238  1
  O2-  O230  1  0.16584429  0.25067796  0.49784731  1
  O2-  O231  1  0.15659908  0.25482510  0.75090749  1
  O2-  O232  1  0.17206487  0.58537591  -0.00129933  1
  O2-  O233  1  0.16709239  0.58118883  0.24724196  1
  O2-  O234  1  0.16120177  0.58461766  0.49818973  1
  O2-  O235  1  0.16761894  0.58390176  0.74942814  1
  O2-  O236  1  0.16659723  0.92185036  -0.00580510  1
  O2-  O237  1  0.16777924  0.92456607  0.25193291  1
  O2-  O238  1  0.16082292  0.92731660  0.49747675  1
  O2-  O239  1  0.15951036  0.91785786  0.74749997  1
  O2-  O240  1  0.66544679  0.24975131  0.00404692  1
  O2-  O241  1  0.66563058  0.25262742  0.24805504  1
  O2-  O242  1  0.67349040  0.25366968  0.49445643  1
  O2-  O243  1  0.66774590  0.25017788  0.74632350  1
  O2-  O244  1  0.66937435  0.58681447  -0.00026400  1
  O2-  O245  1  0.65972041  0.58939691  0.24659949  1
  O2-  O246  1  0.66256858  0.58872556  0.50093149  1
  O2-  O247  1  0.66745347  0.58757167  0.75555792  1
  O2-  O248  1  0.66215833  0.92354597  0.00133640  1
  O2-  O249  1  0.66620067  0.91803578  0.24991378  1
  O2-  O250  1  0.66280203  0.91805558  0.50301976  1
  O2-  O251  1  0.66235822  0.91960852  0.75249521  1
  O2-  O252  1  0.33617751  0.08035225  -0.00096694  1
  O2-  O253  1  0.33272393  0.08225897  0.24495528  1
  O2-  O254  1  0.33713300  0.08157998  0.50378530  1
  O2-  O255  1  0.33495533  0.08085942  0.75238009  1
  O2-  O256  1  0.32959484  0.41673968  -0.00320490  1
  O2-  O257  1  0.32973446  0.41260793  0.25204442  1
  O2-  O258  1  0.33227412  0.41347818  0.49931704  1
  O2-  O259  1  0.33581904  0.41578418  0.75083575  1
  O2-  O260  1  0.32525381  0.74654176  -0.00241232  1
  O2-  O261  1  0.33515000  0.74238067  0.24934634  1
  O2-  O262  1  0.33389157  0.74492764  0.50228350  1
  O2-  O263  1  0.33739109  0.74457021  0.75672711  1
  O2-  O264  1  0.83220445  0.08236492  -0.00165160  1
  O2-  O265  1  0.82998456  0.08592390  0.25127897  1
  O2-  O266  1  0.83571142  0.08648313  0.49354301  1
  O2-  O267  1  0.83373294  0.08275380  0.74858265  1
  O2-  O268  1  0.83990441  0.41609887  -0.00077179  1
  O2-  O269  1  0.83756454  0.41361322  0.24421371  1
  O2-  O270  1  0.84024776  0.41186624  0.49952520  1
  O2-  O271  1  0.84056627  0.40864554  0.75427427  1
  O2-  O272  1  0.83163766  0.75028128  0.00137380  1
  O2-  O273  1  0.82889765  0.75095491  0.24570341  1
  O2-  O274  1  0.83380848  0.75053654  0.50046774  1
  O2-  O275  1  0.83597719  0.75319769  0.75394728  1
  O2-  O276  1  0.45688620  0.23471683  0.24529308  1
  O2-  O277  1  0.95719099  0.88700963  0.77957850  1
  O2-  O278  1  0.53963937  0.20599069  0.73231753  1
  O2-  O279  1  0.97035515  0.53013390  1.00131842  1
  O2-  O280  1  0.54804208  0.75679729  0.51252595  1
  O2-  O281  1  0.05494237  0.57446827  0.76272177  1
  O2-  O282  1  0.45348179  0.09874730  0.74765153  1
  O2-  O283  1  0.45181937  0.57061591  0.75192027  1
  O2-  O284  1  0.05338003  0.56929620  0.51389279  1
  O2-  O285  1  0.95073032  0.25227491  0.25114067  1
  O2-  O286  1  0.04082737  0.21500123  0.47100992  1
  O2-  O287  1  0.95353029  0.23639225  0.76428720  1
  O2-  O288  1  0.96364054  0.88275567  0.04105127  1
  O2-  O289  1  0.94521401  0.42263862  0.73224793  1
  O2-  O290  1  0.45240670  0.42717554  0.98810659  1
  O2-  O291  1  0.05956651  0.91255250  0.72641536  1
  O2-  O292  1  0.45502507  0.77022115  0.76035445  1
  O2-  O293  1  0.95080274  0.89690709  0.24138441  1
  O2-  O294  1  0.45727265  0.43120139  0.26648397  1
  O2-  O295  1  0.05024680  0.42623756  0.75992048  1
  O2-  O296  1  0.47742664  0.23192922  0.94185128  1
  O2-  O297  1  0.03160100  0.21391331  0.96494994  1
  O2-  O298  1  0.94963423  0.24256299  0.72617081  1
  O2-  O299  1  0.45479362  0.42067812  0.75934968  1
  O2-  O300  1  0.95169986  0.09880091  0.01190744  1
  O2-  O301  1  0.54956702  0.56915552  0.23457869  1
  O2-  O302  1  0.45245794  0.09113902  0.49168698  1
  O2-  O303  1  0.44670438  0.57259112  0.26238316  1
  O2-  O304  1  0.96245653  0.88333915  0.76430367  1
  O2-  O305  1  0.04578681  0.76130156  0.50252957  1
  O2-  O306  1  0.97044869  0.53268935  0.24596308  1
  O2-  O307  1  0.04831045  0.43425504  0.25898306  1
  O2-  O308  1  0.95234457  0.10506495  0.48659157  1
  O2-  O309  1  0.95994899  0.54347608  0.44703135  1
  O2-  O310  1  0.45044638  0.09456617  0.49500207  1
  O2-  O311  1  0.47221218  0.79134491  0.96840128  1
  O2-  O312  1  0.96051773  0.11808197  0.25149542  1
  O2-  O313  1  0.53730782  0.21403992  0.73659708  1
  O2-  O314  1  0.04973107  0.75682320  0.00829825  1
  O2-  O315  1  0.45104959  0.09319067  0.99620164  1
  O2-  O316  1  0.05899496  0.08958474  0.23356638  1
  O2-  O317  1  0.45266354  0.56938489  1.00126174  1
  O2-  O318  1  0.54621614  0.90610361  0.51470762  1
  O2-  O319  1  0.95342012  0.74698137  0.75079223  1
  O2-  O320  1  0.05580021  0.92124624  0.30753309  1
  O2-  O321  1  0.45072991  0.91545080  0.26827204  1
  O2-  O322  1  0.45099897  0.09364776  0.73581733  1
  O2-  O323  1  0.94709389  0.58112309  0.73534275  1
  O2-  O324  1  0.08641098  0.90309941  0.14851240  1
  O2-  O325  1  0.93026309  0.74938479  0.33129824  1
  O2-  O326  1  0.92422864  0.61318513  0.29697825  1
  O2-  O327  1  0.06179635  0.73657827  0.82439884  1
  O2-  O328  1  0.92819944  0.75440562  0.18072915  1
  O2-  O329  1  0.56194839  0.25181173  0.51296066  1
  O2-  O330  1  0.91197524  0.97995242  0.70089274  1
  O2-  O331  1  0.44039480  0.93204054  0.57158067  1
  O2-  O332  1  0.06493635  0.28402092  0.58466428  1
  O2-  O333  1  0.56879351  0.31507887  0.83126421  1
  O2-  O334  1  0.05763451  0.91271680  0.30416598  1
  O2-  O335  1  0.06067783  0.59462738  0.92245932  1
  O2-  O336  1  0.92155665  0.03193315  0.19490672  1
  O2-  O337  1  0.06342748  0.40879474  0.47530806  1
  O2-  O338  1  0.07151134  0.09498588  0.06907280  1
  O2-  O339  1  0.41774386  0.72997228  0.05715359  1
  O2-  O340  1  0.56087723  0.74004592  0.71108318  1
  O2-  O341  1  0.56380685  0.06918403  0.97512036  1
  O2-  O342  1  0.05676073  0.08136600  0.23697511  1
  O2-  O343  1  0.93838584  0.26508989  0.53605443  1
  O2-  O344  1  0.92028599  0.93986775  0.94129086  1
  O2-  O345  1  0.43169112  0.92519233  0.98173582  1
  O2-  O346  1  0.55927273  0.42461091  0.72439638  1
  O2-  O347  1  0.05896086  0.07282310  0.76507363  1
  O2-  O348  1  0.07322409  0.75584345  0.67619694  1
  O2-  O349  1  0.08032132  0.27337226  0.06031619  1
  O2-  O350  1  0.42258020  0.25416888  0.06259032  1
  O2-  O351  1  0.43250313  0.42683922  0.57283951  1
  O2-  O352  1  0.56105260  0.59170964  0.03395372  1
  O2-  O353  1  0.44152866  0.41187353  0.95672322  1
  O2-  O354  1  0.06164695  0.06680456  0.93095678  1
  O2-  O355  1  0.05846117  0.92240676  0.53297750  1
  O2-  O356  1  0.06359445  0.07628393  0.53845739  1
  O2-  O357  1  0.43705887  0.07471904  0.22251360  1
  O2-  O358  1  0.55952177  0.58324823  0.77143761  1
  O2-  O359  1  0.43586620  0.92545646  0.42949189  1
  O2-  O360  1  0.92167951  0.60868483  0.95209722  1
  O2-  O361  1  0.06711816  0.59437542  0.27510354  1
  O2-  O362  1  0.93679534  0.74545385  0.78031443  1
  O2-  O363  1  0.93931100  0.40257037  0.70104035  1
  O2-  O364  1  0.44100233  0.39840595  0.42576135  1
  O2-  O365  1  0.44040403  0.92760614  0.72523616  1
  O2-  O366  1  0.93809694  0.74434705  0.96368725  1
  O2-  O367  1  0.55910729  0.40964383  0.45701271  1
  O2-  O368  1  0.92848705  0.61464044  0.56447566  1
  O2-  O369  1  0.06374313  0.58148718  0.06669657  1
  O2-  O370  1  0.44657444  0.90769727  0.26840496  1
  O2-  O371  1  0.43544674  0.74913919  0.47585993  1
  O2-  O372  1  0.25063088  -0.00055117  0.32762611  1
  O2-  O373  1  0.74570685  -0.00413989  0.65648805  1
  O2-  O374  1  0.25121529  0.61323838  0.33985463  1
  O2-  O375  1  0.75104922  0.33384241  0.61697032  1
  O2-  O376  1  0.25107735  0.62926499  0.42911420  1
  O2-  O377  1  0.74912730  0.32653316  0.35752798  1
  O2-  O378  1  0.24953329  -0.00604545  0.66834425  1
  O2-  O379  1  0.74982694  0.69501374  0.57751512  1
  O2-  O380  1  0.24929203  0.32890667  0.87105745  1
  O2-  O381  1  0.25030097  0.65523698  0.12951993  1
  O2-  O382  1  0.74824057  0.66152838  0.10176867  1
  O2-  O383  1  0.25082558  0.00106332  0.87691677  1
  O2-  O384  1  0.24886054  0.03551808  0.44223494  1
  O2-  O385  1  0.74696820  -0.01430227  0.84930500  1
  O2-  O386  1  0.25110205  0.65823455  0.68431695  1
  O2-  O387  1  0.74867318  0.00307451  0.30880419  1
  O2-  O388  1  0.74936259  0.68393991  0.71066699  1
  O2-  O389  1  0.25030817  0.32925238  0.63370885  1
  O2-  O390  1  0.74839950  0.66073656  0.31733536  1
  O2-  O391  1  0.74837137  -0.00567605  0.15268737  1
  O2-  O392  1  0.25063558  0.33465646  0.39621938  1
  O2-  O393  1  0.75062633  0.00395180  0.42918959  1
  O2-  O394  1  0.25046091  0.63645232  0.56383680  1
  O2-  O395  1  0.74918211  0.68184722  0.41844086  1
  O2-  O396  1  0.24912819  0.87419129  0.06762567  1
  O2-  O397  1  0.25483108  0.84944372  0.62701650  1
  O2-  O398  1  0.75017450  0.48929833  0.32770625  1
  O2-  O399  1  0.74899972  0.17405457  0.84901673  1
  O2-  O400  1  0.75075184  0.52936256  0.68549279  1
  O2-  O401  1  0.74820593  0.83889597  0.66760274  1
  O2-  O402  1  0.74956741  0.83851375  0.39551191  1
  O2-  O403  1  0.24485556  0.85082971  0.30533017  1
  O2-  O404  1  0.25971194  0.77890664  0.39116971  1
  O2-  O405  1  0.25019960  0.50459820  0.85188540  1
  O2-  O406  1  0.74965725  0.50914085  0.59383240  1
  O2-  O407  1  0.24839990  0.79052202  0.69659330  1
  O2-  O408  1  0.74968115  0.17276511  0.14190331  1
  O2-  O409  1  0.25031832  0.49090160  0.40936778  1
  O2-  O410  1  0.25032472  0.48848400  0.59401102  1
  O2-  O411  1  0.25023631  0.15872718  0.36469682  1
  O2-  O412  1  0.75125900  0.16529140  0.65790679  1
  O2-  O413  1  0.24982634  0.14961796  0.84632914  1
  O2-  O414  1  0.74925023  0.52438079  0.88725066  1
  O2-  O415  1  0.25016686  0.17132841  0.44730643  1
  O2-  O416  1  0.24976535  0.13586190  0.11926516  1
  O2-  O417  1  0.74948940  0.16743259  0.33973880  1
  O2-  O418  1  0.24953923  0.48621375  0.08370654  1
  O2-  O419  1  0.74881629  0.81467956  0.89275232  1
  O2-  O420  1  0.45731456  0.36003659  0.13299248  1
  O2-  O421  1  0.02740709  0.33394947  0.88553156  1
  O2-  O422  1  0.97044301  -0.00136905  0.37407908  1
  O2-  O423  1  0.01020540  -0.00712380  0.11727399  1
  O2-  O424  1  0.48398841  0.66225984  0.37549499  1
  O2-  O425  1  0.54027432  0.35002799  0.61507285  1
  O2-  O426  1  0.48458911  0.66257119  0.13136154  1
  O2-  O427  1  0.53247877  0.00383241  0.37341537  1
  O2-  O428  1  0.04510579  0.31428770  0.35648961  1
  O2-  O429  1  0.04608225  0.69162905  0.16510193  1
  O2-  O430  1  0.02510656  0.67802578  0.37612022  1
  O2-  O431  1  0.48279032  -0.01122816  0.11915336  1
  O2-  O432  1  0.96101455  0.65024730  0.10322039  1
  O2-  O433  1  0.01826391  0.65311008  0.62176181  1
  O2-  O434  1  0.54993547  0.32676028  0.12163149  1
  O2-  O435  1  0.45394056  0.65730857  0.87436887  1
  O2-  O436  1  0.97658037  0.01731104  0.86646094  1
  O2-  O437  1  0.47377683  0.66388448  0.62482779  1
  O2-  O438  1  0.95418939  0.34830061  0.38492580  1
  O2-  O439  1  0.48001228  -0.00952114  0.87105380  1
  O2-  O440  1  0.01165713  0.34150339  0.13566362  1
  O2-  O441  1  0.54463474  0.68374675  0.88672088  1
  O2-  O442  1  0.98736205  0.01099343  0.61710882  1
  O2-  O443  1  0.45131146  0.29824453  0.64229059  1
