# generated using pymatgen
data_La7(Ru4O11)2
_symmetry_space_group_name_H-M   'P 1'
_cell_length_a   23.99439595
_cell_length_b   16.83429310
_cell_length_c   15.43160790
_cell_angle_alpha   89.99546297
_cell_angle_beta   90.00212526
_cell_angle_gamma   90.00116655
_symmetry_Int_Tables_number   1
_chemical_formula_structural   La7(Ru4O11)2
_chemical_formula_sum   'La84 Ru96 O264'
_cell_volume   6233.26920172
_cell_formula_units_Z   12
loop_
 _symmetry_equiv_pos_site_id
 _symmetry_equiv_pos_as_xyz
  1  'x, y, z'
loop_
 _atom_type_symbol
 _atom_type_oxidation_number
  La3+  3.0
  Ru4+  4.0
  O2-  -2.0
loop_
 _atom_site_type_symbol
 _atom_site_label
 _atom_site_symmetry_multiplicity
 _atom_site_fract_x
 _atom_site_fract_y
 _atom_site_fract_z
 _atom_site_occupancy
  La3+  La0  1  0.13786547  -0.00332133  0.12493516  1
  La3+  La1  1  0.13949391  0.00157093  0.36899408  1
  La3+  La2  1  0.13435241  0.00210980  0.62743154  1
  La3+  La3  1  0.13673837  0.00250040  0.87812802  1
  La3+  La4  1  0.13131268  0.33954186  0.13173174  1
  La3+  La5  1  0.13320440  0.33596127  0.36893222  1
  La3+  La6  1  0.14079544  0.33534563  0.62322887  1
  La3+  La7  1  0.14424657  0.33665727  0.87768449  1
  La3+  La8  1  0.15057578  0.66505523  0.12977603  1
  La3+  La9  1  0.13357848  0.66553877  0.36918207  1
  La3+  La10  1  0.14906241  0.66644705  0.63082240  1
  La3+  La11  1  0.13995223  0.66793210  0.87064143  1
  La3+  La12  1  0.64618121  -0.00108794  0.12719203  1
  La3+  La13  1  0.64549952  -0.00391241  0.37989411  1
  La3+  La14  1  0.64751994  -0.00665998  0.62065323  1
  La3+  La15  1  0.63679622  -0.00528365  0.88011874  1
  La3+  La16  1  0.64387772  0.33268060  0.13006368  1
  La3+  La17  1  0.64397282  0.33226475  0.36868210  1
  La3+  La18  1  0.63437242  0.33263775  0.62807270  1
  La3+  La19  1  0.63946356  0.32797374  0.87189066  1
  La3+  La20  1  0.63711263  0.66556693  0.12370804  1
  La3+  La21  1  0.64203162  0.66292961  0.37019059  1
  La3+  La22  1  0.64395918  0.67382064  0.62583922  1
  La3+  La23  1  0.64578051  0.66176177  0.87290909  1
  La3+  La24  1  0.35650895  -0.00367282  0.12361684  1
  La3+  La25  1  0.36321666  -0.00271385  0.37070843  1
  La3+  La26  1  0.37064131  -0.00448146  0.63129614  1
  La3+  La27  1  0.36039923  -0.01026149  0.87905502  1
  La3+  La28  1  0.35740907  0.33655205  0.12760732  1
  La3+  La29  1  0.36347598  0.32936959  0.37210377  1
  La3+  La30  1  0.35969438  0.33158632  0.62468047  1
  La3+  La31  1  0.35091159  0.34251433  0.87421694  1
  La3+  La32  1  0.35417402  0.66859186  0.13209201  1
  La3+  La33  1  0.35896904  0.67049158  0.37407117  1
  La3+  La34  1  0.35858301  0.66366202  0.63725652  1
  La3+  La35  1  0.36644283  0.66873950  0.87398006  1
  La3+  La36  1  0.85976589  -0.00297824  0.12611892  1
  La3+  La37  1  0.85269312  0.00028711  0.37947752  1
  La3+  La38  1  0.85379779  -0.00140276  0.62259384  1
  La3+  La39  1  0.86261416  -0.00207536  0.87620850  1
  La3+  La40  1  0.85436409  0.33152128  0.12974650  1
  La3+  La41  1  0.85246611  0.33527858  0.36557985  1
  La3+  La42  1  0.86836745  0.33214941  0.62274039  1
  La3+  La43  1  0.86159288  0.33329471  0.87544734  1
  La3+  La44  1  0.85805729  0.67055386  0.12677409  1
  La3+  La45  1  0.85525856  0.66035869  0.37241501  1
  La3+  La46  1  0.86187424  0.66516761  0.62554160  1
  La3+  La47  1  0.85924224  0.66243240  0.87284590  1
  La3+  La48  1  -0.00298938  0.83417175  0.86806370  1
  La3+  La49  1  0.48946764  0.49471217  0.36384220  1
  La3+  La50  1  0.50860841  0.18437636  0.61447558  1
  La3+  La51  1  0.48910531  0.83478745  0.62688697  1
  La3+  La52  1  0.50272136  0.49807807  0.12242696  1
  La3+  La53  1  -0.00499852  0.48491653  0.37356030  1
  La3+  La54  1  0.49594797  0.50140776  0.63209670  1
  La3+  La55  1  0.49679717  0.84083412  0.14892590  1
  La3+  La56  1  0.49329530  0.84754066  0.12811135  1
  La3+  La57  1  0.49707323  0.51134910  0.61251714  1
  La3+  La58  1  0.00450157  0.50583788  0.12179214  1
  La3+  La59  1  0.51260411  0.49358803  0.86348009  1
  La3+  La60  1  -0.00104674  0.83590309  0.89015409  1
  La3+  La61  1  -0.01082570  0.83783617  0.37556150  1
  La3+  La62  1  0.49373466  0.82170084  0.85912838  1
  La3+  La63  1  -0.00150768  0.50039053  0.87727094  1
  La3+  La64  1  0.00012481  0.83183892  0.13323924  1
  La3+  La65  1  -0.00369720  0.49823235  0.13837877  1
  La3+  La66  1  0.00950888  0.83899899  0.63706565  1
  La3+  La67  1  0.49901936  0.16844638  0.13492494  1
  La3+  La68  1  -0.01308587  0.83304547  0.39086222  1
  La3+  La69  1  0.50417369  0.49832536  0.12442254  1
  La3+  La70  1  0.00632296  0.84020806  0.62139351  1
  La3+  La71  1  -0.00175259  0.16622276  0.87859638  1
  La3+  La72  1  0.24996071  0.42571537  0.47621226  1
  La3+  La73  1  0.24875932  0.20121169  0.32068554  1
  La3+  La74  1  0.75003250  0.43486748  0.49696816  1
  La3+  La75  1  0.25071506  0.86043976  0.43755226  1
  La3+  La76  1  0.25140083  0.16089466  -0.03598471  1
  La3+  La77  1  0.75168785  0.12508072  0.49151993  1
  La3+  La78  1  0.24942925  0.49301285  0.25894750  1
  La3+  La79  1  0.75189837  0.20417168  0.74611272  1
  La3+  La80  1  0.75035546  0.12686137  0.02604550  1
  La3+  La81  1  0.24838040  0.50488230  0.78912641  1
  La3+  La82  1  0.74937868  0.83658784  0.24849392  1
  La3+  La83  1  0.25144178  0.15226002  0.68653084  1
  Ru4+  Ru84  1  -0.00154552  0.00666959  0.00438481  1
  Ru4+  Ru85  1  -0.00028346  0.01217739  0.24857467  1
  Ru4+  Ru86  1  -0.00448833  0.00594913  0.49804094  1
  Ru4+  Ru87  1  -0.00177299  0.01023843  0.74384279  1
  Ru4+  Ru88  1  -0.00519986  0.32672211  -0.01307485  1
  Ru4+  Ru89  1  -0.00211232  0.31808187  0.26219171  1
  Ru4+  Ru90  1  -0.00334148  0.31984916  0.49192691  1
  Ru4+  Ru91  1  0.00122650  0.34409011  0.76402850  1
  Ru4+  Ru92  1  -0.00040845  0.66780085  -0.00016041  1
  Ru4+  Ru93  1  -0.00388971  0.66828122  0.25145260  1
  Ru4+  Ru94  1  0.00209116  0.65558052  0.50634886  1
  Ru4+  Ru95  1  -0.00350392  0.66128462  0.74493770  1
  Ru4+  Ru96  1  0.50499403  -0.01474944  0.02147898  1
  Ru4+  Ru97  1  0.49608298  0.00813015  0.24859862  1
  Ru4+  Ru98  1  0.50167409  0.00931003  0.50087509  1
  Ru4+  Ru99  1  0.49250861  0.01714833  0.75431285  1
  Ru4+  Ru100  1  0.49085740  0.31197300  -0.00429728  1
  Ru4+  Ru101  1  0.50064748  0.32683032  0.25823482  1
  Ru4+  Ru102  1  0.50078804  0.32608906  0.49583663  1
  Ru4+  Ru103  1  0.49786277  0.32845310  0.75015394  1
  Ru4+  Ru104  1  0.49621824  0.67482666  -0.00098286  1
  Ru4+  Ru105  1  0.48929185  0.67102419  0.25697435  1
  Ru4+  Ru106  1  0.51245764  0.67378976  0.49264645  1
  Ru4+  Ru107  1  0.50130994  0.67477478  0.75528459  1
  Ru4+  Ru108  1  0.10703611  0.16722430  0.00081683  1
  Ru4+  Ru109  1  0.10624220  0.16619302  0.25066095  1
  Ru4+  Ru110  1  0.11309845  0.16949296  0.50070482  1
  Ru4+  Ru111  1  0.10841264  0.16549686  0.75105449  1
  Ru4+  Ru112  1  0.11564159  0.49948269  -0.00351076  1
  Ru4+  Ru113  1  0.11505429  0.50229487  0.25136314  1
  Ru4+  Ru114  1  0.10160288  0.50692915  0.50743750  1
  Ru4+  Ru115  1  0.10534896  0.49945303  0.74573241  1
  Ru4+  Ru116  1  0.11554209  0.84022936  0.00029882  1
  Ru4+  Ru117  1  0.11240258  0.82668044  0.25056952  1
  Ru4+  Ru118  1  0.11248186  0.83061425  0.49899236  1
  Ru4+  Ru119  1  0.11548368  0.82747745  0.74492503  1
  Ru4+  Ru120  1  0.60898084  0.16698842  0.00128278  1
  Ru4+  Ru121  1  0.60982154  0.16736670  0.25251102  1
  Ru4+  Ru122  1  0.60765729  0.16827455  0.49735703  1
  Ru4+  Ru123  1  0.60789103  0.16507517  0.75189419  1
  Ru4+  Ru124  1  0.61695002  0.49546494  0.00104846  1
  Ru4+  Ru125  1  0.61688119  0.49451343  0.25222982  1
  Ru4+  Ru126  1  0.60884820  0.50616802  0.50257337  1
  Ru4+  Ru127  1  0.61746394  0.50220526  0.75259667  1
  Ru4+  Ru128  1  0.60955477  0.83442499  -0.00682672  1
  Ru4+  Ru129  1  0.61003664  0.83303984  0.24977205  1
  Ru4+  Ru130  1  0.60822011  0.82865139  0.49493380  1
  Ru4+  Ru131  1  0.61500221  0.83762126  0.75090523  1
  Ru4+  Ru132  1  0.39922704  0.18465637  0.00182767  1
  Ru4+  Ru133  1  0.39060232  0.16781304  0.25365322  1
  Ru4+  Ru134  1  0.39015196  0.16779575  0.50070943  1
  Ru4+  Ru135  1  0.39618563  0.15947553  0.75642761  1
  Ru4+  Ru136  1  0.38636331  0.50579311  -0.00024016  1
  Ru4+  Ru137  1  0.38604405  0.50415392  0.25296384  1
  Ru4+  Ru138  1  0.38831065  0.50662550  0.49424108  1
  Ru4+  Ru139  1  0.38261100  0.49676884  0.75410223  1
  Ru4+  Ru140  1  0.38482256  0.83614960  -0.00349221  1
  Ru4+  Ru141  1  0.38571467  0.83576089  0.25523013  1
  Ru4+  Ru142  1  0.39215903  0.83363572  0.49814045  1
  Ru4+  Ru143  1  0.38368401  0.82620890  0.74533198  1
  Ru4+  Ru144  1  0.88974356  0.16406968  0.00047753  1
  Ru4+  Ru145  1  0.89107639  0.16498681  0.24827214  1
  Ru4+  Ru146  1  0.90201580  0.17602616  0.49222440  1
  Ru4+  Ru147  1  0.89279141  0.16860658  0.74796702  1
  Ru4+  Ru148  1  0.88258290  0.49785169  -0.00025233  1
  Ru4+  Ru149  1  0.88299911  0.49322155  0.25467439  1
  Ru4+  Ru150  1  0.89158338  0.50129727  0.50137043  1
  Ru4+  Ru151  1  0.88399351  0.50037961  0.74703186  1
  Ru4+  Ru152  1  0.88244717  0.83664312  0.00437475  1
  Ru4+  Ru153  1  0.88914302  0.83627865  0.24798490  1
  Ru4+  Ru154  1  0.88506825  0.83320510  0.49374434  1
  Ru4+  Ru155  1  0.88342263  0.83797626  0.74902484  1
  Ru4+  Ru156  1  0.74966795  0.59903243  0.50196047  1
  Ru4+  Ru157  1  0.75048122  0.41749715  0.75509406  1
  Ru4+  Ru158  1  0.74949780  0.27718258  0.49186946  1
  Ru4+  Ru159  1  0.25023885  0.95808829  0.55642689  1
  Ru4+  Ru160  1  0.24984671  0.76931128  0.02078281  1
  Ru4+  Ru161  1  0.24997301  0.88555511  0.73559304  1
  Ru4+  Ru162  1  0.75041673  0.08431446  0.24993217  1
  Ru4+  Ru163  1  0.74978017  0.58912162  0.00158621  1
  Ru4+  Ru164  1  0.25011660  0.10208205  0.50870033  1
  Ru4+  Ru165  1  0.25086060  0.05841255  0.23734732  1
  Ru4+  Ru166  1  0.74969629  0.75426969  0.00329377  1
  Ru4+  Ru167  1  0.74935629  0.42255481  0.00047179  1
  Ru4+  Ru168  1  0.25091073  0.01698204  0.00598892  1
  Ru4+  Ru169  1  0.24938814  0.01896946  0.75597417  1
  Ru4+  Ru170  1  0.74996335  0.58291413  0.23407255  1
  Ru4+  Ru171  1  0.24882076  0.27936176  0.75101463  1
  Ru4+  Ru172  1  0.74969765  0.75976982  0.49449606  1
  Ru4+  Ru173  1  0.74933374  0.06230292  0.76731393  1
  Ru4+  Ru174  1  0.75077559  0.75793829  0.75091509  1
  Ru4+  Ru175  1  0.25181342  0.72503389  0.48959032  1
  Ru4+  Ru176  1  0.25014359  0.58998152  0.00817939  1
  Ru4+  Ru177  1  0.24916838  0.58803151  0.49144191  1
  Ru4+  Ru178  1  0.24781929  0.29456231  0.04869831  1
  Ru4+  Ru179  1  0.74892962  0.28047754  0.00651338  1
  O2-  O180  1  0.16906583  0.07803083  0.00242301  1
  O2-  O181  1  0.16866495  0.08122717  0.25339772  1
  O2-  O182  1  0.16455610  0.08250971  0.50259070  1
  O2-  O183  1  0.16930482  0.07647292  0.74401247  1
  O2-  O184  1  0.16121922  0.41485322  0.00529207  1
  O2-  O185  1  0.16634694  0.41302802  0.24766946  1
  O2-  O186  1  0.15421215  0.41353500  0.49923358  1
  O2-  O187  1  0.16120408  0.41746708  0.74875205  1
  O2-  O188  1  0.16522850  0.74838902  0.00154569  1
  O2-  O189  1  0.17216289  0.75044668  0.26674714  1
  O2-  O190  1  0.16965053  0.74652531  0.49335348  1
  O2-  O191  1  0.17025805  0.75033468  0.75404275  1
  O2-  O192  1  0.66210617  0.07791149  -0.00424329  1
  O2-  O193  1  0.66744904  0.08144679  0.25522315  1
  O2-  O194  1  0.66459163  0.07942995  0.50380246  1
  O2-  O195  1  0.66563838  0.08132062  0.75220516  1
  O2-  O196  1  0.66728814  0.41219992  -0.00403694  1
  O2-  O197  1  0.66649556  0.41280733  0.24996009  1
  O2-  O198  1  0.65399779  0.41050939  0.50201055  1
  O2-  O199  1  0.66714776  0.41060445  0.74957939  1
  O2-  O200  1  0.66940277  0.74785086  0.00727532  1
  O2-  O201  1  0.66406289  0.74576182  0.24847425  1
  O2-  O202  1  0.66664679  0.75007620  0.49677253  1
  O2-  O203  1  0.66653769  0.74827696  0.75258599  1
  O2-  O204  1  0.32779080  0.25349337  0.00545618  1
  O2-  O205  1  0.33034578  0.25188590  0.25014623  1
  O2-  O206  1  0.33796551  0.24940432  0.49753194  1
  O2-  O207  1  0.33342139  0.25134791  0.74711490  1
  O2-  O208  1  0.33003242  0.59103440  -0.00508534  1
  O2-  O209  1  0.32894176  0.58714263  0.25326898  1
  O2-  O210  1  0.33307310  0.58650504  0.50014937  1
  O2-  O211  1  0.33400598  0.58571954  0.75870126  1
  O2-  O212  1  0.33066706  0.91775888  0.00656151  1
  O2-  O213  1  0.33334232  0.91567960  0.25050165  1
  O2-  O214  1  0.33491152  0.92254657  0.50036671  1
  O2-  O215  1  0.33125897  0.91625526  0.74757565  1
  O2-  O216  1  0.82876135  0.25295987  0.00214162  1
  O2-  O217  1  0.84002203  0.24855172  0.24878020  1
  O2-  O218  1  0.83018934  0.24788151  0.50735009  1
  O2-  O219  1  0.84117526  0.25609542  0.74613330  1
  O2-  O220  1  0.83017288  0.58810801  0.00089143  1
  O2-  O221  1  0.83226304  0.58546792  0.24396605  1
  O2-  O222  1  0.83155765  0.58605458  0.50350791  1
  O2-  O223  1  0.83302818  0.58536105  0.74929899  1
  O2-  O224  1  0.83401848  0.92149620  -0.00045233  1
  O2-  O225  1  0.83615128  0.92073674  0.25027246  1
  O2-  O226  1  0.83769891  0.91940776  0.50108820  1
  O2-  O227  1  0.83531479  0.92177349  0.75338610  1
  O2-  O228  1  0.16447737  0.25451344  0.00603150  1
  O2-  O229  1  0.16328917  0.25292037  0.25056813  1
  O2-  O230  1  0.16227964  0.25215554  0.49778668  1
  O2-  O231  1  0.16308714  0.25440938  0.74599562  1
  O2-  O232  1  0.16586466  0.58900045  -0.00153772  1
  O2-  O233  1  0.16840010  0.58667614  0.25719805  1
  O2-  O234  1  0.16510196  0.58504554  0.49110132  1
  O2-  O235  1  0.16396687  0.58229786  0.75733786  1
  O2-  O236  1  0.16989727  0.92047990  -0.00035324  1
  O2-  O237  1  0.15979866  0.91510839  0.25217775  1
  O2-  O238  1  0.16499003  0.92212803  0.49742236  1
  O2-  O239  1  0.16904280  0.91735056  0.74658154  1
  O2-  O240  1  0.66660787  0.25436938  0.00065250  1
  O2-  O241  1  0.66065951  0.25021844  0.24999123  1
  O2-  O242  1  0.66596313  0.25298631  0.50230528  1
  O2-  O243  1  0.66537231  0.25697807  0.74388851  1
  O2-  O244  1  0.66763602  0.58476673  0.00099828  1
  O2-  O245  1  0.66746848  0.58429445  0.24408493  1
  O2-  O246  1  0.66747987  0.58558698  0.49858372  1
  O2-  O247  1  0.66530678  0.58513066  0.74692476  1
  O2-  O248  1  0.66845935  0.91576276  -0.01006437  1
  O2-  O249  1  0.66398762  0.91962513  0.25233058  1
  O2-  O250  1  0.66419330  0.91062206  0.50474762  1
  O2-  O251  1  0.66397608  0.92037240  0.75367047  1
  O2-  O252  1  0.33994421  0.08429615  -0.00130685  1
  O2-  O253  1  0.33590126  0.07937554  0.25018497  1
  O2-  O254  1  0.33427645  0.08325588  0.50442957  1
  O2-  O255  1  0.33317109  0.07693152  0.74362394  1
  O2-  O256  1  0.34076072  0.41924294  0.00416665  1
  O2-  O257  1  0.33470583  0.41382451  0.25344044  1
  O2-  O258  1  0.34410380  0.40851714  0.50023847  1
  O2-  O259  1  0.33304399  0.41541436  0.74422407  1
  O2-  O260  1  0.33031860  0.74562920  0.00260680  1
  O2-  O261  1  0.33595394  0.74946989  0.25548390  1
  O2-  O262  1  0.33468124  0.74692502  0.50183366  1
  O2-  O263  1  0.33111714  0.74795605  0.75751418  1
  O2-  O264  1  0.83813385  0.07619488  -0.00048146  1
  O2-  O265  1  0.83306166  0.08046114  0.25254072  1
  O2-  O266  1  0.84191308  0.08700017  0.50442215  1
  O2-  O267  1  0.83248833  0.08054084  0.75291029  1
  O2-  O268  1  0.82990480  0.41296213  0.00040524  1
  O2-  O269  1  0.83049061  0.41542956  0.24259697  1
  O2-  O270  1  0.84391120  0.40964674  0.50526178  1
  O2-  O271  1  0.83216475  0.41239133  0.74678108  1
  O2-  O272  1  0.83239541  0.74594176  -0.00003067  1
  O2-  O273  1  0.82986313  0.74832292  0.24929187  1
  O2-  O274  1  0.82918881  0.74645036  0.50270053  1
  O2-  O275  1  0.83465490  0.74450965  0.74917067  1
  O2-  O276  1  0.55491992  0.41951787  0.73697176  1
  O2-  O277  1  0.54601804  0.10796497  0.25900603  1
  O2-  O278  1  0.04274855  0.41739003  0.50070282  1
  O2-  O279  1  0.45355129  0.09704252  0.51882627  1
  O2-  O280  1  0.95258641  0.10238371  0.73801914  1
  O2-  O281  1  0.04613273  0.23446599  0.25467173  1
  O2-  O282  1  0.54515890  0.42644745  0.00733106  1
  O2-  O283  1  0.05140598  0.57452006  0.26595210  1
  O2-  O284  1  0.44365730  0.57341515  0.21121864  1
  O2-  O285  1  0.05719908  0.07981593  0.97199046  1
  O2-  O286  1  0.45412653  0.43370836  0.49150606  1
  O2-  O287  1  0.53700064  0.90577353  0.53146701  1
  O2-  O288  1  0.44843041  0.90543994  0.73122076  1
  O2-  O289  1  0.95163228  0.09904182  0.24417637  1
  O2-  O290  1  0.55008418  0.76550809  0.74863207  1
  O2-  O291  1  0.04673299  0.42369599  0.72428626  1
  O2-  O292  1  0.54412935  0.57053318  0.25965302  1
  O2-  O293  1  0.94846145  0.76164545  1.00051390  1
  O2-  O294  1  0.94729653  0.56817108  0.25953464  1
  O2-  O295  1  0.44976986  0.91291102  0.76989285  1
  O2-  O296  1  0.55306755  0.57154623  0.01857968  1
  O2-  O297  1  0.54165575  0.55564843  0.45330586  1
  O2-  O298  1  0.04153842  0.56686380  0.45291958  1
  O2-  O299  1  0.04711911  0.42429099  0.00984840  1
  O2-  O300  1  0.97900845  0.20596708  0.51308533  1
  O2-  O301  1  0.04570444  0.90755224  0.49079576  1
  O2-  O302  1  0.94635476  0.57430655  0.98246944  1
  O2-  O303  1  0.04882555  0.42671596  0.23636848  1
  O2-  O304  1  0.54945951  0.57603825  0.73928672  1
  O2-  O305  1  0.44648043  0.56998158  0.73713242  1
  O2-  O306  1  0.04602351  0.57158491  0.76057300  1
  O2-  O307  1  0.95316536  0.90206383  0.01317352  1
  O2-  O308  1  0.48446277  0.18710344  0.98764195  1
  O2-  O309  1  0.55332729  0.57452264  0.22321584  1
  O2-  O310  1  0.55745381  0.75598174  0.55362797  1
  O2-  O311  1  0.04176095  0.90701386  0.24870205  1
  O2-  O312  1  0.95258951  0.76883565  0.73095151  1
  O2-  O313  1  0.44183602  0.75689824  0.97278643  1
  O2-  O314  1  0.53880230  0.89879850  0.94480017  1
  O2-  O315  1  0.55059856  0.42495558  0.25881228  1
  O2-  O316  1  0.45827145  0.54204907  0.95537579  1
  O2-  O317  1  0.94939846  0.76687724  0.54210856  1
  O2-  O318  1  0.46707621  0.11052042  0.70362503  1
  O2-  O319  1  0.54762415  0.77068731  0.05062381  1
  O2-  O320  1  0.44796612  0.42675952  0.76034726  1
  O2-  O321  1  0.04251791  0.76901510  0.29677623  1
  O2-  O322  1  0.04792287  0.24353744  0.99434783  1
  O2-  O323  1  0.45146370  0.42601732  0.23649023  1
  O2-  O324  1  0.05901869  0.74529463  0.51964667  1
  O2-  O325  1  0.44716526  0.57719881  0.20386783  1
  O2-  O326  1  0.05912141  0.92148703  0.76469743  1
  O2-  O327  1  0.58027714  0.92877828  0.05952187  1
  O2-  O328  1  0.57148719  0.92818083  0.45324589  1
  O2-  O329  1  0.56243964  0.08240008  0.47926950  1
  O2-  O330  1  0.93319680  0.41207053  0.76667024  1
  O2-  O331  1  0.43772316  0.93364183  0.96552411  1
  O2-  O332  1  0.93316712  0.57970020  0.81210655  1
  O2-  O333  1  0.58471731  0.74186318  0.92858687  1
  O2-  O334  1  0.94768739  0.57458150  0.98071925  1
  O2-  O335  1  0.93811838  0.74743553  0.26171054  1
  O2-  O336  1  0.44051236  0.74970633  0.96628915  1
  O2-  O337  1  0.56033028  0.25366786  0.76268798  1
  O2-  O338  1  0.43528569  0.27184470  0.08730629  1
  O2-  O339  1  0.44016087  0.60134854  0.48799754  1
  O2-  O340  1  0.93704191  0.39719047  0.28001914  1
  O2-  O341  1  0.05736838  0.40823541  0.20520792  1
  O2-  O342  1  0.41908897  0.60092154  0.05800578  1
  O2-  O343  1  0.43486146  0.25560224  0.72584259  1
  O2-  O344  1  0.42914402  0.05647016  0.81951831  1
  O2-  O345  1  0.94416256  0.76033670  0.54991927  1
  O2-  O346  1  0.43909944  0.61850090  0.33967167  1
  O2-  O347  1  0.91278682  0.75780165  0.40463651  1
  O2-  O348  1  0.07134791  0.90298653  0.07840367  1
  O2-  O349  1  0.93618650  0.40916903  0.97876312  1
  O2-  O350  1  0.06493519  0.73950383  0.67943014  1
  O2-  O351  1  0.43731287  0.73916300  0.71587108  1
  O2-  O352  1  0.55256465  0.75000717  0.55779124  1
  O2-  O353  1  0.57245527  0.60204037  0.57631540  1
  O2-  O354  1  0.92099324  0.29880557  0.45699468  1
  O2-  O355  1  0.43838533  0.25546177  0.26707709  1
  O2-  O356  1  0.06210174  0.07740578  0.78346303  1
  O2-  O357  1  0.93709267  0.06971039  0.46553305  1
  O2-  O358  1  0.93475297  0.25046881  0.98330300  1
  O2-  O359  1  0.44057783  0.59390992  0.70926872  1
  O2-  O360  1  0.56232532  0.72212694  0.40464163  1
  O2-  O361  1  0.06915489  0.07138393  0.23365029  1
  O2-  O362  1  0.41846272  0.27214592  0.93713233  1
  O2-  O363  1  0.06991223  0.75780836  0.82389789  1
  O2-  O364  1  0.05356587  0.08536710  0.97765622  1
  O2-  O365  1  0.07864046  0.59798057  0.57378178  1
  O2-  O366  1  0.93438239  0.59071252  0.47608538  1
  O2-  O367  1  0.44102129  0.92256222  0.26766982  1
  O2-  O368  1  0.08395175  0.74139638  0.17873434  1
  O2-  O369  1  0.55789946  0.59290054  0.04989950  1
  O2-  O370  1  0.93281480  0.58462524  0.69308602  1
  O2-  O371  1  0.06585055  0.92455140  0.92693324  1
  O2-  O372  1  0.74734811  0.32679361  0.37303400  1
  O2-  O373  1  0.24943980  0.31770583  0.57635418  1
  O2-  O374  1  0.74789397  0.66368923  0.14966170  1
  O2-  O375  1  0.25003686  -0.02774754  0.30838829  1
  O2-  O376  1  0.74996205  0.67297171  0.39881019  1
  O2-  O377  1  0.74921838  -0.01173491  0.67135015  1
  O2-  O378  1  0.24972824  0.30618324  0.41255138  1
  O2-  O379  1  0.24901783  0.35857044  0.65602572  1
  O2-  O380  1  0.25018104  0.34319640  0.94711033  1
  O2-  O381  1  0.75007891  0.67446421  0.85763719  1
  O2-  O382  1  0.75062763  0.67622177  0.59944627  1
  O2-  O383  1  0.25150649  0.66192487  0.12029548  1
  O2-  O384  1  0.24997674  -0.00253919  0.88310167  1
  O2-  O385  1  0.25158609  0.65868439  0.59191687  1
  O2-  O386  1  0.74967341  0.33361800  0.84761067  1
  O2-  O387  1  0.75001379  0.32904574  0.12447473  1
  O2-  O388  1  0.75144431  0.00433975  0.15485580  1
  O2-  O389  1  0.24976309  0.01305789  0.43724070  1
  O2-  O390  1  0.24962285  0.34555424  0.32839017  1
  O2-  O391  1  0.24866347  0.36767471  0.82113233  1
  O2-  O392  1  0.75063920  0.02138218  0.38139163  1
  O2-  O393  1  0.24850851  -0.00305760  0.12639567  1
  O2-  O394  1  0.74991193  0.01106794  0.58232143  1
  O2-  O395  1  0.25104144  0.66669311  0.68350871  1
  O2-  O396  1  0.74980592  0.50266598  0.09220829  1
  O2-  O397  1  0.24948399  0.18623432  0.10311813  1
  O2-  O398  1  0.24883711  0.51325953  0.57757613  1
  O2-  O399  1  0.75086014  0.82079938  0.10061148  1
  O2-  O400  1  0.75070652  0.83660473  0.92130025  1
  O2-  O401  1  0.24985125  0.16194088  0.18693876  1
  O2-  O402  1  0.25073280  0.53435304  0.38590491  1
  O2-  O403  1  0.25029369  0.48332643  0.04474378  1
  O2-  O404  1  0.75019437  0.83657844  0.83244812  1
  O2-  O405  1  0.24965776  0.85194738  0.61784102  1
  O2-  O406  1  0.74902625  0.50876566  0.69855863  1
  O2-  O407  1  0.25074787  0.50147947  0.12871166  1
  O2-  O408  1  0.75012724  0.82134654  0.65854332  1
  O2-  O409  1  0.25076562  0.49796878  0.66159268  1
  O2-  O410  1  0.74989032  0.16547958  0.17298892  1
  O2-  O411  1  0.74989636  0.49228653  0.30623056  1
  O2-  O412  1  0.75023174  0.52380166  0.39124478  1
  O2-  O413  1  0.24917439  0.51705129  0.91893257  1
  O2-  O414  1  0.74944842  0.52108184  0.60653658  1
  O2-  O415  1  0.24990187  0.81714142  0.12030308  1
  O2-  O416  1  0.74980644  0.16000036  0.88052912  1
  O2-  O417  1  0.24951329  0.81882048  0.92043882  1
  O2-  O418  1  0.24909720  0.18124898  0.82760219  1
  O2-  O419  1  0.75064362  0.82478913  0.39733671  1
  O2-  O420  1  0.95497447  0.66899211  0.13007496  1
  O2-  O421  1  0.96273077  0.69701734  0.86686596  1
  O2-  O422  1  0.97387137  -0.00992609  0.62451744  1
  O2-  O423  1  0.54272808  0.01493055  0.14288288  1
  O2-  O424  1  0.98772273  0.65506763  0.62453809  1
  O2-  O425  1  0.46321995  0.01041578  0.38269251  1
  O2-  O426  1  0.47907173  0.33352796  0.38021359  1
  O2-  O427  1  0.47988136  0.33539440  0.61955405  1
  O2-  O428  1  0.02882491  0.33325550  0.37715817  1
  O2-  O429  1  0.96933328  0.00214250  0.87535252  1
  O2-  O430  1  0.99153841  0.66583717  0.37499527  1
  O2-  O431  1  0.96060066  0.31517721  0.86456443  1
  O2-  O432  1  0.04968039  0.64032008  0.90844901  1
  O2-  O433  1  0.45060195  0.00554683  0.12273384  1
  O2-  O434  1  0.47637507  0.34826857  0.87134755  1
  O2-  O435  1  0.53038942  -0.00356288  0.35492032  1
  O2-  O436  1  0.53552531  0.33993378  0.88564776  1
  O2-  O437  1  0.48055143  0.70132250  0.12880196  1
  O2-  O438  1  0.02550651  0.00968561  0.12545864  1
  O2-  O439  1  0.52748915  0.32746049  0.12811264  1
  O2-  O440  1  0.04732065  0.63411199  0.09904443  1
  O2-  O441  1  0.05303457  0.33806566  0.86382869  1
  O2-  O442  1  0.95874111  -0.00283777  0.11983284  1
  O2-  O443  1  0.51955966  0.64920778  0.87513822  1
