# generated using pymatgen
data_La7(Ru4O11)2
_symmetry_space_group_name_H-M   'P 1'
_cell_length_a   23.99400226
_cell_length_b   16.83443061
_cell_length_c   15.43057611
_cell_angle_alpha   90.00121679
_cell_angle_beta   90.00067352
_cell_angle_gamma   89.99815883
_symmetry_Int_Tables_number   1
_chemical_formula_structural   La7(Ru4O11)2
_chemical_formula_sum   'La84 Ru96 O264'
_cell_volume   6232.80109992
_cell_formula_units_Z   12
loop_
 _symmetry_equiv_pos_site_id
 _symmetry_equiv_pos_as_xyz
  1  'x, y, z'
loop_
 _atom_type_symbol
 _atom_type_oxidation_number
  La3+  3.0
  Ru4+  4.0
  O2-  -2.0
loop_
 _atom_site_type_symbol
 _atom_site_label
 _atom_site_symmetry_multiplicity
 _atom_site_fract_x
 _atom_site_fract_y
 _atom_site_fract_z
 _atom_site_occupancy
  La3+  La0  1  0.13692939  -0.00312357  0.12848111  1
  La3+  La1  1  0.13432626  -0.00199360  0.37274298  1
  La3+  La2  1  0.14299932  -0.00163977  0.62747176  1
  La3+  La3  1  0.13997558  -0.00629846  0.87109177  1
  La3+  La4  1  0.14265491  0.33908027  0.12472913  1
  La3+  La5  1  0.14303926  0.34178229  0.37575424  1
  La3+  La6  1  0.14643903  0.33065346  0.62279387  1
  La3+  La7  1  0.13972134  0.33325423  0.87340404  1
  La3+  La8  1  0.15028828  0.65875779  0.13130165  1
  La3+  La9  1  0.14616248  0.67020929  0.37618369  1
  La3+  La10  1  0.13762005  0.66470325  0.62968894  1
  La3+  La11  1  0.15114150  0.66399937  0.87334059  1
  La3+  La12  1  0.64138249  0.00508950  0.11997379  1
  La3+  La13  1  0.63942203  -0.00004360  0.37328109  1
  La3+  La14  1  0.63753758  0.00714261  0.62990502  1
  La3+  La15  1  0.63113535  0.00485430  0.87395674  1
  La3+  La16  1  0.64513436  0.33151476  0.12513308  1
  La3+  La17  1  0.64454227  0.33085855  0.37827621  1
  La3+  La18  1  0.63587125  0.33035411  0.62049885  1
  La3+  La19  1  0.64650175  0.33311720  0.87420658  1
  La3+  La20  1  0.64992261  0.65484302  0.11847904  1
  La3+  La21  1  0.65193395  0.65268280  0.38203804  1
  La3+  La22  1  0.63679334  0.66535444  0.62489199  1
  La3+  La23  1  0.63031226  0.66668380  0.87804590  1
  La3+  La24  1  0.37168842  -0.00108259  0.13339347  1
  La3+  La25  1  0.37230698  -0.01636466  0.35510184  1
  La3+  La26  1  0.36272146  -0.00015698  0.62742062  1
  La3+  La27  1  0.35876702  -0.00225939  0.87356428  1
  La3+  La28  1  0.35908027  0.34685475  0.12114470  1
  La3+  La29  1  0.36691979  0.34011215  0.37898630  1
  La3+  La30  1  0.35922231  0.33235520  0.62723373  1
  La3+  La31  1  0.36690123  0.33028480  0.86864145  1
  La3+  La32  1  0.35131364  0.66425373  0.13508705  1
  La3+  La33  1  0.34046211  0.65942310  0.37871170  1
  La3+  La34  1  0.34972449  0.66840161  0.63065125  1
  La3+  La35  1  0.35031215  0.66308102  0.87522789  1
  La3+  La36  1  0.86720310  -0.00219825  0.12532352  1
  La3+  La37  1  0.86738939  0.00253393  0.36745967  1
  La3+  La38  1  0.86138875  0.00538019  0.62768073  1
  La3+  La39  1  0.87127563  0.00636980  0.87473051  1
  La3+  La40  1  0.86121270  0.31437855  0.12977179  1
  La3+  La41  1  0.86852994  0.31530477  0.36197180  1
  La3+  La42  1  0.86452525  0.32937478  0.62151911  1
  La3+  La43  1  0.86607419  0.33105849  0.88229456  1
  La3+  La44  1  0.86069972  0.66842882  0.12139185  1
  La3+  La45  1  0.86068417  0.66454177  0.37947642  1
  La3+  La46  1  0.86412627  0.66664386  0.62424816  1
  La3+  La47  1  0.86044424  0.67190560  0.88036224  1
  La3+  La48  1  -0.00478642  0.84242171  0.13227788  1
  La3+  La49  1  0.50015167  0.17221513  0.13185608  1
  La3+  La50  1  -0.00712628  0.17616591  0.13607890  1
  La3+  La51  1  0.49363125  0.84549624  0.12122019  1
  La3+  La52  1  0.50101518  0.50533516  0.38452121  1
  La3+  La53  1  0.00494141  0.48627404  0.61298404  1
  La3+  La54  1  0.49867444  0.83645279  0.62482327  1
  La3+  La55  1  0.49835721  0.50515563  0.12675509  1
  La3+  La56  1  -0.00898554  0.17385998  0.11933696  1
  La3+  La57  1  0.51054430  0.15426988  0.38918947  1
  La3+  La58  1  -0.00746037  0.16592530  0.87852045  1
  La3+  La59  1  0.49530689  0.16202196  0.87155506  1
  La3+  La60  1  -0.00899463  0.15147703  0.63073913  1
  La3+  La61  1  -0.00360255  0.48726097  0.10917340  1
  La3+  La62  1  -0.00665107  0.84078380  0.11532253  1
  La3+  La63  1  0.50098798  0.84801703  0.13238044  1
  La3+  La64  1  0.49235761  0.83836025  0.37211528  1
  La3+  La65  1  -0.00066768  0.18192713  0.36962599  1
  La3+  La66  1  0.51196339  0.49084878  0.89038656  1
  La3+  La67  1  -0.00058203  0.49573424  0.38286832  1
  La3+  La68  1  0.00213197  0.50574159  0.87033340  1
  La3+  La69  1  0.00220364  0.50843060  0.85431498  1
  La3+  La70  1  -0.00692594  0.16315715  0.64904924  1
  La3+  La71  1  0.49303464  0.16818162  0.63390810  1
  La3+  La72  1  0.74980550  0.49329194  0.68658677  1
  La3+  La73  1  0.24991781  0.83676462  0.74199702  1
  La3+  La74  1  0.75481818  0.78272168  0.26145724  1
  La3+  La75  1  0.75283394  0.57292149  0.22637045  1
  La3+  La76  1  0.75009672  0.78304015  0.51223051  1
  La3+  La77  1  0.75048943  0.86252323  0.72756309  1
  La3+  La78  1  0.75230529  0.51363189  0.51870967  1
  La3+  La79  1  0.75066457  0.49443775  0.02328787  1
  La3+  La80  1  0.25178602  0.18647004  0.02766870  1
  La3+  La81  1  0.24993222  0.75791635  0.00363381  1
  La3+  La82  1  0.24835383  0.82201424  0.25536436  1
  La3+  La83  1  0.24982263  0.15442763  0.30830557  1
  Ru4+  Ru84  1  0.00871645  0.00491658  0.00490412  1
  Ru4+  Ru85  1  0.00886350  0.00242001  0.25324209  1
  Ru4+  Ru86  1  -0.00241431  -0.00868059  0.49336644  1
  Ru4+  Ru87  1  0.00255423  -0.00858209  0.75003419  1
  Ru4+  Ru88  1  0.00121820  0.33711210  -0.01320829  1
  Ru4+  Ru89  1  -0.00559029  0.33208328  0.25932942  1
  Ru4+  Ru90  1  -0.00106947  0.33362372  0.50468431  1
  Ru4+  Ru91  1  -0.00238608  0.33529496  0.74055711  1
  Ru4+  Ru92  1  0.00473131  0.67310709  -0.00093285  1
  Ru4+  Ru93  1  0.00853141  0.65275310  0.26007994  1
  Ru4+  Ru94  1  0.01076894  0.67313936  0.50286593  1
  Ru4+  Ru95  1  -0.00162245  0.67450573  0.74724970  1
  Ru4+  Ru96  1  0.50137784  0.00111589  -0.01856980  1
  Ru4+  Ru97  1  0.49591131  -0.00099029  0.25289981  1
  Ru4+  Ru98  1  0.50146888  -0.00278105  0.49411269  1
  Ru4+  Ru99  1  0.50163224  -0.00945817  0.75583873  1
  Ru4+  Ru100  1  0.50361489  0.33133146  -0.01761214  1
  Ru4+  Ru101  1  0.49120450  0.32959479  0.24687214  1
  Ru4+  Ru102  1  0.50666701  0.32455767  0.50424155  1
  Ru4+  Ru103  1  0.50517061  0.34055100  0.76962052  1
  Ru4+  Ru104  1  0.50082495  0.66515843  0.00938814  1
  Ru4+  Ru105  1  0.49941335  0.66995609  0.24498321  1
  Ru4+  Ru106  1  0.49693050  0.64953206  0.51332285  1
  Ru4+  Ru107  1  0.49571138  0.65601149  0.75633049  1
  Ru4+  Ru108  1  0.10902764  0.16110900  0.00077001  1
  Ru4+  Ru109  1  0.10891484  0.17058517  0.24909298  1
  Ru4+  Ru110  1  0.11502380  0.17482283  0.49483665  1
  Ru4+  Ru111  1  0.11617336  0.17014787  0.75391905  1
  Ru4+  Ru112  1  0.11415243  0.49953080  -0.00186929  1
  Ru4+  Ru113  1  0.10878972  0.51241232  0.25095648  1
  Ru4+  Ru114  1  0.11189987  0.50768776  0.50247076  1
  Ru4+  Ru115  1  0.11617943  0.50670666  0.74916905  1
  Ru4+  Ru116  1  0.10552082  0.83620145  -0.00365986  1
  Ru4+  Ru117  1  0.11053625  0.83418126  0.24897076  1
  Ru4+  Ru118  1  0.10771878  0.82369809  0.49991742  1
  Ru4+  Ru119  1  0.10594874  0.82890185  0.75030698  1
  Ru4+  Ru120  1  0.61467846  0.16511479  0.00289284  1
  Ru4+  Ru121  1  0.61157410  0.16972025  0.24904008  1
  Ru4+  Ru122  1  0.61094692  0.17188123  0.50025734  1
  Ru4+  Ru123  1  0.61897892  0.17326703  0.74863257  1
  Ru4+  Ru124  1  0.61154585  0.49758831  0.00012123  1
  Ru4+  Ru125  1  0.60723816  0.49735618  0.25012485  1
  Ru4+  Ru126  1  0.61077189  0.49348732  0.50055557  1
  Ru4+  Ru127  1  0.60665313  0.49836829  0.75029391  1
  Ru4+  Ru128  1  0.61277475  0.83431047  -0.00074980  1
  Ru4+  Ru129  1  0.61048585  0.81895636  0.25318010  1
  Ru4+  Ru130  1  0.60741226  0.83567048  0.50109401  1
  Ru4+  Ru131  1  0.60470981  0.83802382  0.74670019  1
  Ru4+  Ru132  1  0.39305854  0.16590403  -0.00128975  1
  Ru4+  Ru133  1  0.39006788  0.17608526  0.24966562  1
  Ru4+  Ru134  1  0.38599551  0.16990721  0.49939073  1
  Ru4+  Ru135  1  0.38171056  0.16534388  0.75168113  1
  Ru4+  Ru136  1  0.38364295  0.50243232  -0.00051718  1
  Ru4+  Ru137  1  0.38525863  0.49896369  0.24933878  1
  Ru4+  Ru138  1  0.39152579  0.51005449  0.50145730  1
  Ru4+  Ru139  1  0.39103594  0.51474919  0.74831578  1
  Ru4+  Ru140  1  0.39380790  0.83560313  0.00803043  1
  Ru4+  Ru141  1  0.38748078  0.83295763  0.25145755  1
  Ru4+  Ru142  1  0.39002720  0.83501698  0.49364758  1
  Ru4+  Ru143  1  0.39180738  0.83395005  0.74819831  1
  Ru4+  Ru144  1  0.88130646  0.15632495  0.00750204  1
  Ru4+  Ru145  1  0.88247260  0.17175289  0.24721733  1
  Ru4+  Ru146  1  0.88292308  0.16918532  0.48996294  1
  Ru4+  Ru147  1  0.87662752  0.16911577  0.75676201  1
  Ru4+  Ru148  1  0.89005739  0.49300999  0.01044066  1
  Ru4+  Ru149  1  0.89151825  0.49583686  0.25047006  1
  Ru4+  Ru150  1  0.88770981  0.49925562  0.49921036  1
  Ru4+  Ru151  1  0.89046904  0.50382948  0.75347127  1
  Ru4+  Ru152  1  0.88303368  0.82782483  0.00199403  1
  Ru4+  Ru153  1  0.88751405  0.82916666  0.25059012  1
  Ru4+  Ru154  1  0.89335449  0.83803514  0.50417926  1
  Ru4+  Ru155  1  0.89345691  0.83354806  0.75188510  1
  Ru4+  Ru156  1  0.25079099  0.42285686  0.74966014  1
  Ru4+  Ru157  1  0.25118512  0.91080881  0.00127612  1
  Ru4+  Ru158  1  0.75092849  0.38992196  0.25268288  1
  Ru4+  Ru159  1  0.25101801  0.41618275  0.49772806  1
  Ru4+  Ru160  1  0.74979465  0.93805091  0.25407428  1
  Ru4+  Ru161  1  0.74840683  0.59604443  0.78883769  1
  Ru4+  Ru162  1  0.25120431  0.08730385  0.49518329  1
  Ru4+  Ru163  1  0.75068859  0.92332922  -0.01925850  1
  Ru4+  Ru164  1  0.25122265  0.90142547  0.49396184  1
  Ru4+  Ru165  1  0.24963456  0.09105310  0.76562139  1
  Ru4+  Ru166  1  0.25184851  0.29938587  0.27917058  1
  Ru4+  Ru167  1  0.24960712  0.02771463  0.23588529  1
  Ru4+  Ru168  1  0.25098168  0.04932063  -0.00437368  1
  Ru4+  Ru169  1  0.74976000  0.73197240  0.78552143  1
  Ru4+  Ru170  1  0.74995277  0.23762279  0.00509236  1
  Ru4+  Ru171  1  0.25096771  0.31205860  -0.05047792  1
  Ru4+  Ru172  1  0.74947055  0.08394309  0.25148934  1
  Ru4+  Ru173  1  0.74808028  0.74457854  -0.00102715  1
  Ru4+  Ru174  1  0.75060863  0.99337241  0.80394650  1
  Ru4+  Ru175  1  0.75053874  0.92481204  0.48299114  1
  Ru4+  Ru176  1  0.75021247  0.35269695  0.73621045  1
  Ru4+  Ru177  1  0.24891206  0.59036677  0.50296044  1
  Ru4+  Ru178  1  0.25098778  0.75742811  0.50135112  1
  Ru4+  Ru179  1  0.74957931  0.10238868  0.48889278  1
  O2-  O180  1  0.16621232  0.07693710  0.00303161  1
  O2-  O181  1  0.17054916  0.07536012  0.25135947  1
  O2-  O182  1  0.16627255  0.08280059  0.49412926  1
  O2-  O183  1  0.16753738  0.08199805  0.75311565  1
  O2-  O184  1  0.16615974  0.41705249  -0.00136109  1
  O2-  O185  1  0.15441730  0.42103630  0.24719393  1
  O2-  O186  1  0.16610244  0.41888414  0.50100731  1
  O2-  O187  1  0.16591845  0.41416479  0.75328099  1
  O2-  O188  1  0.15208520  0.74501707  0.00386090  1
  O2-  O189  1  0.16316580  0.74960487  0.25322210  1
  O2-  O190  1  0.17210935  0.75026261  0.50318675  1
  O2-  O191  1  0.16721394  0.75267172  0.74958182  1
  O2-  O192  1  0.66877331  0.07953904  -0.00049632  1
  O2-  O193  1  0.66659685  0.08174323  0.25064423  1
  O2-  O194  1  0.66372628  0.08251583  0.49832856  1
  O2-  O195  1  0.66381049  0.08250105  0.75304021  1
  O2-  O196  1  0.66267787  0.41362240  0.00061634  1
  O2-  O197  1  0.66397810  0.41103205  0.24883990  1
  O2-  O198  1  0.67282394  0.41389469  0.50906126  1
  O2-  O199  1  0.66767168  0.41158897  0.74221828  1
  O2-  O200  1  0.66521710  0.74770458  -0.00380834  1
  O2-  O201  1  0.67002730  0.74492435  0.24834316  1
  O2-  O202  1  0.65854299  0.74679291  0.50423990  1
  O2-  O203  1  0.66471730  0.75027201  0.75371676  1
  O2-  O204  1  0.33739793  0.25498057  -0.00133902  1
  O2-  O205  1  0.33029225  0.25604168  0.26124199  1
  O2-  O206  1  0.33620548  0.25266910  0.49749350  1
  O2-  O207  1  0.33265581  0.25090399  0.74689172  1
  O2-  O208  1  0.33560341  0.58579941  0.00045051  1
  O2-  O209  1  0.33499378  0.58077771  0.24995713  1
  O2-  O210  1  0.33019023  0.58208303  0.50885812  1
  O2-  O211  1  0.33070578  0.58126607  0.75386614  1
  O2-  O212  1  0.33540214  0.91846749  0.00240148  1
  O2-  O213  1  0.32357491  0.92008203  0.24911505  1
  O2-  O214  1  0.33209097  0.91826933  0.49821384  1
  O2-  O215  1  0.33730708  0.91870544  0.74812632  1
  O2-  O216  1  0.83286038  0.24975934  -0.00386027  1
  O2-  O217  1  0.82703848  0.24727787  0.25408420  1
  O2-  O218  1  0.83159832  0.25213647  0.49678709  1
  O2-  O219  1  0.83010107  0.25508892  0.74878477  1
  O2-  O220  1  0.83514205  0.58441665  0.00118312  1
  O2-  O221  1  0.84654707  0.58792166  0.25209248  1
  O2-  O222  1  0.83842473  0.58557148  0.50191243  1
  O2-  O223  1  0.83195357  0.58649903  0.75177504  1
  O2-  O224  1  0.83428487  0.91975532  -0.00509779  1
  O2-  O225  1  0.83359886  0.92193755  0.25389319  1
  O2-  O226  1  0.83288895  0.91983474  0.49659915  1
  O2-  O227  1  0.83803734  0.91930713  0.75229759  1
  O2-  O228  1  0.16388122  0.25452993  -0.00045443  1
  O2-  O229  1  0.16640139  0.25450757  0.25104270  1
  O2-  O230  1  0.17426373  0.24702346  0.50088937  1
  O2-  O231  1  0.16581141  0.25191851  0.75065427  1
  O2-  O232  1  0.16217190  0.58553170  0.00123356  1
  O2-  O233  1  0.16806362  0.58358663  0.25232956  1
  O2-  O234  1  0.16807852  0.58875621  0.50258502  1
  O2-  O235  1  0.17042256  0.58405016  0.75279150  1
  O2-  O236  1  0.16802377  0.91825259  0.00374894  1
  O2-  O237  1  0.17067520  0.92046387  0.25408030  1
  O2-  O238  1  0.16380459  0.91404105  0.49690598  1
  O2-  O239  1  0.16756284  0.91377737  0.75219685  1
  O2-  O240  1  0.66471489  0.25045707  -0.00053996  1
  O2-  O241  1  0.66163613  0.25155491  0.24986635  1
  O2-  O242  1  0.66290990  0.25434886  0.50283709  1
  O2-  O243  1  0.66666492  0.25746977  0.74382248  1
  O2-  O244  1  0.67176112  0.58572012  -0.01312876  1
  O2-  O245  1  0.65941896  0.58448812  0.25020585  1
  O2-  O246  1  0.66588520  0.57961241  0.51150062  1
  O2-  O247  1  0.66438460  0.58673539  0.75484718  1
  O2-  O248  1  0.67050259  0.92293394  -0.00080970  1
  O2-  O249  1  0.66636905  0.92000765  0.25078683  1
  O2-  O250  1  0.66717805  0.91754089  0.49929579  1
  O2-  O251  1  0.66698605  0.92239788  0.75242477  1
  O2-  O252  1  0.33497511  0.07671705  0.00426956  1
  O2-  O253  1  0.33174971  0.07952788  0.25468674  1
  O2-  O254  1  0.33255190  0.08014478  0.49547804  1
  O2-  O255  1  0.33188848  0.08130957  0.75121078  1
  O2-  O256  1  0.33428903  0.41916511  -0.00780575  1
  O2-  O257  1  0.33485900  0.41368815  0.25745954  1
  O2-  O258  1  0.33794780  0.41718769  0.50013504  1
  O2-  O259  1  0.33941188  0.41791930  0.75016681  1
  O2-  O260  1  0.34708411  0.74513912  0.00030145  1
  O2-  O261  1  0.32711365  0.75593537  0.24742646  1
  O2-  O262  1  0.33108030  0.75275785  0.50270854  1
  O2-  O263  1  0.33268302  0.74989244  0.75314507  1
  O2-  O264  1  0.83396065  0.07267003  -0.00083351  1
  O2-  O265  1  0.83380344  0.08043566  0.25318108  1
  O2-  O266  1  0.83210833  0.07990909  0.49526611  1
  O2-  O267  1  0.83496886  0.07662563  0.75605827  1
  O2-  O268  1  0.83247308  0.41398813  -0.00150921  1
  O2-  O269  1  0.83665863  0.40940761  0.25102501  1
  O2-  O270  1  0.82779309  0.41385536  0.50243835  1
  O2-  O271  1  0.83031643  0.41283484  0.74626760  1
  O2-  O272  1  0.82954093  0.74652771  0.00150962  1
  O2-  O273  1  0.84370191  0.73683598  0.25165645  1
  O2-  O274  1  0.84371752  0.74659404  0.50137727  1
  O2-  O275  1  0.83339374  0.74786906  0.74905471  1
  O2-  O276  1  0.94365576  0.09392164  0.23424211  1
  O2-  O277  1  0.45172704  0.90259868  0.24794662  1
  O2-  O278  1  0.05014213  0.09333171  0.74993171  1
  O2-  O279  1  0.04670280  0.57260533  0.19031366  1
  O2-  O280  1  0.53383555  0.79066349  0.24547852  1
  O2-  O281  1  0.53464814  0.78283505  0.26084520  1
  O2-  O282  1  0.54847372  0.09268704  0.02221464  1
  O2-  O283  1  0.04713122  0.43337005  0.75008683  1
  O2-  O284  1  0.95745621  0.57408151  0.99060695  1
  O2-  O285  1  0.95288108  0.90921312  0.23873006  1
  O2-  O286  1  0.95498874  0.23428671  0.24328833  1
  O2-  O287  1  0.44111940  0.76257357  0.21151856  1
  O2-  O288  1  0.54489338  0.41585691  0.26161454  1
  O2-  O289  1  0.03720313  0.20398473  0.52567802  1
  O2-  O290  1  0.94218029  0.24497528  0.25971853  1
  O2-  O291  1  0.55856661  0.92601406  0.25445415  1
  O2-  O292  1  0.96554198  0.55046224  0.71941705  1
  O2-  O293  1  0.94921156  0.22666328  0.99968410  1
  O2-  O294  1  0.02865782  0.88443083  0.74138346  1
  O2-  O295  1  0.47451584  0.53987604  0.52687021  1
  O2-  O296  1  0.55001521  0.57481310  0.26058102  1
  O2-  O297  1  0.96197180  0.44213983  0.25779444  1
  O2-  O298  1  0.44897343  0.09532513  0.74077052  1
  O2-  O299  1  0.55331510  0.10424832  0.76146022  1
  O2-  O300  1  0.04167907  0.76374720  0.22921416  1
  O2-  O301  1  0.55173849  0.09269611  0.72429734  1
  O2-  O302  1  0.45172503  0.09379199  0.23382005  1
  O2-  O303  1  0.95484799  0.09269812  0.26943904  1
  O2-  O304  1  0.45047663  0.40827379  0.51470523  1
  O2-  O305  1  0.45355167  0.56501515  0.25239617  1
  O2-  O306  1  0.05347365  0.74977182  0.76449712  1
  O2-  O307  1  0.45624705  0.24228648  0.75950663  1
  O2-  O308  1  0.45538243  0.10550684  0.50116350  1
  O2-  O309  1  0.94895805  0.76368875  0.76523984  1
  O2-  O310  1  0.54017773  0.76353204  0.51502669  1
  O2-  O311  1  0.95033063  0.90405414  0.01173655  1
  O2-  O312  1  0.45113342  0.43718465  0.99176567  1
  O2-  O313  1  0.94814823  0.10180321  0.76269123  1
  O2-  O314  1  0.46633552  0.23373899  0.30337663  1
  O2-  O315  1  0.56338553  0.57631201  0.52382831  1
  O2-  O316  1  0.44138690  0.91579595  0.26605977  1
  O2-  O317  1  0.44038102  0.41689308  0.47986939  1
  O2-  O318  1  0.44150150  0.76286499  0.21785693  1
  O2-  O319  1  0.46242235  0.54688617  0.79703631  1
  O2-  O320  1  0.04832987  0.24184840  0.77165630  1
  O2-  O321  1  0.45363829  0.42166384  0.02690075  1
  O2-  O322  1  0.94954596  0.43231972  0.95358698  1
  O2-  O323  1  0.04678596  0.23451755  0.99321933  1
  O2-  O324  1  0.56397572  0.92001885  0.98404319  1
  O2-  O325  1  0.06494846  0.58574856  0.57718506  1
  O2-  O326  1  0.55619077  0.08106549  0.03282519  1
  O2-  O327  1  0.42914669  0.26608670  0.17346286  1
  O2-  O328  1  0.55581901  0.73754834  0.71537048  1
  O2-  O329  1  0.06417759  0.74537850  0.57268604  1
  O2-  O330  1  0.06364734  0.08238873  0.27775890  1
  O2-  O331  1  0.05822520  0.41869650  0.47594094  1
  O2-  O332  1  0.93791182  0.92274343  0.21059467  1
  O2-  O333  1  0.93869240  0.92181146  0.04097321  1
  O2-  O334  1  0.07014316  0.60386656  0.32451868  1
  O2-  O335  1  0.93690717  0.73889060  0.03701185  1
  O2-  O336  1  0.08220480  0.26171604  0.43205336  1
  O2-  O337  1  0.93973480  0.41833813  0.51772029  1
  O2-  O338  1  0.93401410  0.07304976  0.53043119  1
  O2-  O339  1  0.05335726  0.58338137  0.18476979  1
  O2-  O340  1  0.43344424  0.25720098  0.76307452  1
  O2-  O341  1  0.93718810  0.25560694  0.98634322  1
  O2-  O342  1  0.06199311  0.92380821  0.21004453  1
  O2-  O343  1  0.59559602  0.74730737  0.15327411  1
  O2-  O344  1  0.93285998  0.26719706  0.20344702  1
  O2-  O345  1  0.93662481  0.25082057  0.52008281  1
  O2-  O346  1  0.56169889  0.58366955  0.01081657  1
  O2-  O347  1  0.06241549  0.59770349  0.72927131  1
  O2-  O348  1  0.94215646  0.42176792  0.94767331  1
  O2-  O349  1  0.93354725  0.41169555  0.72963387  1
  O2-  O350  1  0.56490455  0.90618016  0.81625489  1
  O2-  O351  1  0.43889925  0.41260539  0.21336941  1
  O2-  O352  1  0.59396503  0.73637249  0.34128447  1
  O2-  O353  1  0.56077437  0.93118366  0.52745488  1
  O2-  O354  1  0.44187656  0.08199625  0.22814527  1
  O2-  O355  1  0.43029596  0.62896289  0.70260226  1
  O2-  O356  1  0.56538265  0.39904839  0.46547720  1
  O2-  O357  1  0.93757883  0.92365052  0.53134903  1
  O2-  O358  1  0.06369020  0.93250106  0.96546112  1
  O2-  O359  1  0.42686444  0.64787985  0.55884921  1
  O2-  O360  1  0.93156248  0.61476244  0.82327700  1
  O2-  O361  1  0.06194208  0.58993116  0.44470398  1
  O2-  O362  1  0.40892418  0.70031992  0.31637813  1
  O2-  O363  1  0.06262808  0.41098687  0.95967364  1
  O2-  O364  1  0.56243612  0.92457706  0.67708845  1
  O2-  O365  1  0.42603030  0.93042367  0.21059490  1
  O2-  O366  1  0.06464600  0.74700185  0.42741609  1
  O2-  O367  1  0.93398458  0.25118377  0.73114277  1
  O2-  O368  1  0.07709966  0.94283389  0.72703674  1
  O2-  O369  1  0.41596031  0.57854054  0.41483711  1
  O2-  O370  1  0.94139008  0.07135653  0.78060698  1
  O2-  O371  1  0.92472270  0.40304159  0.10287200  1
  O2-  O372  1  0.74927893  0.66138285  0.67106884  1
  O2-  O373  1  0.74924124  0.34156519  0.92908501  1
  O2-  O374  1  0.25210169  0.32912379  0.57945945  1
  O2-  O375  1  0.24970536  0.67058067  0.89421021  1
  O2-  O376  1  0.75348678  0.67854482  0.12762922  1
  O2-  O377  1  0.74722625  0.32847910  0.35171113  1
  O2-  O378  1  0.74857236  0.33733172  0.07420983  1
  O2-  O379  1  0.24611849  0.68007534  0.14175950  1
  O2-  O380  1  0.25021674  0.00262836  0.69925188  1
  O2-  O381  1  0.75036553  0.01094638  0.69053019  1
  O2-  O382  1  0.74939520  0.00877333  0.56238235  1
  O2-  O383  1  0.24844695  -0.00381610  0.88386835  1
  O2-  O384  1  0.74844964  0.31351735  0.16397964  1
  O2-  O385  1  0.75257489  0.67121170  0.42684380  1
  O2-  O386  1  0.24789484  -0.00328372  0.56068859  1
  O2-  O387  1  0.75190006  0.01249600  0.39291552  1
  O2-  O388  1  0.75197169  0.66265780  0.33363031  1
  O2-  O389  1  0.74986446  0.30778248  0.84405873  1
  O2-  O390  1  0.24821948  0.35590227  0.18579383  1
  O2-  O391  1  0.25041764  0.34160977  0.06028413  1
  O2-  O392  1  0.25117311  0.33058621  0.67024638  1
  O2-  O393  1  0.24856257  0.34124270  0.83523816  1
  O2-  O394  1  0.75006664  0.01063391  0.14827762  1
  O2-  O395  1  0.75101521  0.65587703  0.56745676  1
  O2-  O396  1  0.24986429  0.50080457  0.33513222  1
  O2-  O397  1  0.24921721  0.86016628  0.11670312  1
  O2-  O398  1  0.74992688  0.16855415  0.83417352  1
  O2-  O399  1  0.24986990  0.50592644  0.66965615  1
  O2-  O400  1  0.24938748  0.50245292  0.42190719  1
  O2-  O401  1  0.74952203  0.47733055  0.31972382  1
  O2-  O402  1  0.75025522  0.15804503  0.91730877  1
  O2-  O403  1  0.74916416  0.46199950  0.15387376  1
  O2-  O404  1  0.74974217  0.17753175  0.58139587  1
  O2-  O405  1  0.25008179  0.49968419  0.58165284  1
  O2-  O406  1  0.25052949  0.84809751  0.88359651  1
  O2-  O407  1  0.75142630  0.51833313  0.89069725  1
  O2-  O408  1  0.75071693  0.83755287  0.06072474  1
  O2-  O409  1  0.25013131  0.15750020  0.16509225  1
  O2-  O410  1  0.74798604  0.51542668  0.39655693  1
  O2-  O411  1  0.74822207  0.85679379  0.14691652  1
  O2-  O412  1  0.25045963  0.50573145  0.15494809  1
  O2-  O413  1  0.74985458  0.82688726  0.89934958  1
  O2-  O414  1  0.74816034  0.46804286  0.81897553  1
  O2-  O415  1  0.74913857  0.16194145  0.39379236  1
  O2-  O416  1  0.24945901  0.15513388  0.86674212  1
  O2-  O417  1  0.75016829  0.16455194  0.66438774  1
  O2-  O418  1  0.74960583  0.85810485  0.37782066  1
  O2-  O419  1  0.74980973  0.17206626  0.09328724  1
  O2-  O420  1  0.03170153  0.33231064  0.13236368  1
  O2-  O421  1  0.53794001  0.64235560  0.40867407  1
  O2-  O422  1  0.54811069  0.01845815  0.38531789  1
  O2-  O423  1  0.53692097  0.02536426  0.87351798  1
  O2-  O424  1  0.96831527  0.66551286  0.37940511  1
  O2-  O425  1  0.46900810  -0.00963563  0.62177850  1
  O2-  O426  1  0.05366431  0.33550047  0.62084277  1
  O2-  O427  1  0.47844942  0.68510406  0.37182546  1
  O2-  O428  1  0.02516146  0.00621247  0.61179463  1
  O2-  O429  1  0.05004552  0.35252180  0.33479614  1
  O2-  O430  1  0.97983532  0.32037242  0.86200497  1
  O2-  O431  1  0.98352233  0.02136149  0.12603754  1
  O2-  O432  1  0.95953350  0.33176539  0.38394134  1
  O2-  O433  1  0.44299359  0.65741285  0.09347966  1
  O2-  O434  1  0.45624790  0.00031484  0.39174014  1
  O2-  O435  1  0.02717193  -0.00833894  0.38096923  1
  O2-  O436  1  0.44932920  -0.00374638  0.87980028  1
  O2-  O437  1  0.55167305  0.33005051  0.87422368  1
  O2-  O438  1  0.96802279  0.66982906  0.61287604  1
  O2-  O439  1  0.47959698  -0.00964855  0.10597083  1
  O2-  O440  1  0.45736711  0.33739653  0.88173770  1
  O2-  O441  1  0.96567802  0.33301640  0.62301491  1
  O2-  O442  1  0.52633668  0.66663109  0.87822553  1
  O2-  O443  1  0.53229040  0.65834781  0.12343295  1
