# generated using pymatgen
data_La7(Ru4O11)2
_symmetry_space_group_name_H-M   'P 1'
_cell_length_a   23.99035970
_cell_length_b   16.83021466
_cell_length_c   15.42751257
_cell_angle_alpha   89.99961777
_cell_angle_beta   89.99917088
_cell_angle_gamma   90.00000104
_symmetry_Int_Tables_number   1
_chemical_formula_structural   La7(Ru4O11)2
_chemical_formula_sum   'La84 Ru96 O264'
_cell_volume   6229.05726896
_cell_formula_units_Z   12
loop_
 _symmetry_equiv_pos_site_id
 _symmetry_equiv_pos_as_xyz
  1  'x, y, z'
loop_
 _atom_type_symbol
 _atom_type_oxidation_number
  La3+  3.0
  Ru4+  4.0
  O2-  -2.0
loop_
 _atom_site_type_symbol
 _atom_site_label
 _atom_site_symmetry_multiplicity
 _atom_site_fract_x
 _atom_site_fract_y
 _atom_site_fract_z
 _atom_site_occupancy
  La3+  La0  1  0.13764496  0.00170862  0.12496159  1
  La3+  La1  1  0.14019407  0.00100406  0.37589332  1
  La3+  La2  1  0.14245770  0.00200604  0.62404111  1
  La3+  La3  1  0.13958993  0.00064476  0.87552506  1
  La3+  La4  1  0.13743301  0.33150748  0.12720092  1
  La3+  La5  1  0.13826113  0.33297316  0.37937218  1
  La3+  La6  1  0.14208723  0.33441383  0.62194574  1
  La3+  La7  1  0.14118500  0.33429423  0.87020958  1
  La3+  La8  1  0.13767941  0.66706439  0.13103416  1
  La3+  La9  1  0.13865313  0.66562953  0.37572697  1
  La3+  La10  1  0.13928521  0.66400019  0.62464256  1
  La3+  La11  1  0.13850075  0.66762461  0.87089001  1
  La3+  La12  1  0.63758250  -0.00030725  0.12834117  1
  La3+  La13  1  0.64216159  0.00073136  0.37545829  1
  La3+  La14  1  0.64029963  0.00101300  0.62307701  1
  La3+  La15  1  0.63869459  0.00018532  0.87256188  1
  La3+  La16  1  0.64080131  0.33466476  0.12828169  1
  La3+  La17  1  0.63909082  0.32979252  0.37336643  1
  La3+  La18  1  0.63908460  0.32981575  0.62267921  1
  La3+  La19  1  0.64100336  0.33287060  0.87724891  1
  La3+  La20  1  0.63619351  0.66729685  0.12235547  1
  La3+  La21  1  0.63936400  0.67088993  0.37605378  1
  La3+  La22  1  0.63942928  0.66939168  0.62415563  1
  La3+  La23  1  0.63735018  0.66536739  0.87809029  1
  La3+  La24  1  0.36274240  0.00187522  0.12290805  1
  La3+  La25  1  0.36136780  0.00129758  0.37776091  1
  La3+  La26  1  0.35982275  0.00157721  0.62631963  1
  La3+  La27  1  0.36364275  0.00255171  0.87293202  1
  La3+  La28  1  0.36203215  0.33245366  0.12633548  1
  La3+  La29  1  0.35857411  0.33273459  0.37729460  1
  La3+  La30  1  0.35835182  0.33452252  0.62381474  1
  La3+  La31  1  0.36176155  0.33289192  0.87236884  1
  La3+  La32  1  0.36532001  0.66744959  0.12791313  1
  La3+  La33  1  0.36052566  0.66554984  0.37542200  1
  La3+  La34  1  0.36007412  0.66492876  0.62462602  1
  La3+  La35  1  0.36226768  0.66640285  0.87016405  1
  La3+  La36  1  0.86238602  0.00074646  0.13107151  1
  La3+  La37  1  0.85753821  -0.00072621  0.37183215  1
  La3+  La38  1  0.86037432  0.00078369  0.62353422  1
  La3+  La39  1  0.86294093  0.00055446  0.87243468  1
  La3+  La40  1  0.85510326  0.33060543  0.12737532  1
  La3+  La41  1  0.85994910  0.33156526  0.37023612  1
  La3+  La42  1  0.86277776  0.33157608  0.62326493  1
  La3+  La43  1  0.85854955  0.33199457  0.87739688  1
  La3+  La44  1  0.86146103  0.66598700  0.12537542  1
  La3+  La45  1  0.86162457  0.66833930  0.37556464  1
  La3+  La46  1  0.86268522  0.66730425  0.62359760  1
  La3+  La47  1  0.86400886  0.66655365  0.87564418  1
  La3+  La48  1  0.50190708  0.82984848  0.88569016  1
  La3+  La49  1  0.50174084  0.16525606  0.36738956  1
  La3+  La50  1  0.00048229  0.49626589  0.88174856  1
  La3+  La51  1  0.50105884  0.83359941  0.13176530  1
  La3+  La52  1  0.50105632  0.16387829  0.61327908  1
  La3+  La53  1  0.49777107  0.17246856  0.12278745  1
  La3+  La54  1  0.00101201  0.16798702  0.63563991  1
  La3+  La55  1  0.49880984  0.50334536  0.13076272  1
  La3+  La56  1  -0.00042586  0.83290540  0.64003654  1
  La3+  La57  1  0.50096064  0.16640270  0.38513119  1
  La3+  La58  1  0.49975968  0.49884411  0.88276710  1
  La3+  La59  1  -0.00086225  0.16624154  0.86720133  1
  La3+  La60  1  0.49781328  0.49782096  0.62223993  1
  La3+  La61  1  0.00005301  0.83442436  0.37879414  1
  La3+  La62  1  0.49768932  0.84484192  0.62768114  1
  La3+  La63  1  0.49685288  0.50142973  0.36807523  1
  La3+  La64  1  -0.00142055  0.50041448  0.12044803  1
  La3+  La65  1  0.00061070  0.16805844  0.36411233  1
  La3+  La66  1  0.50038247  0.16328187  0.63598779  1
  La3+  La67  1  0.49941164  0.16761005  0.86856100  1
  La3+  La68  1  -0.00248196  0.83014125  0.61770299  1
  La3+  La69  1  -0.00005708  0.49916674  0.13718851  1
  La3+  La70  1  0.49818154  0.82797354  0.36741142  1
  La3+  La71  1  -0.00588330  0.50060551  0.86231819  1
  La3+  La72  1  0.74964987  0.86399244  0.74309917  1
  La3+  La73  1  0.24955311  0.44506719  0.26877349  1
  La3+  La74  1  0.74954894  0.49157397  0.29093840  1
  La3+  La75  1  0.24988059  0.48792096  -0.04215363  1
  La3+  La76  1  0.74981990  0.49456128  -0.01250186  1
  La3+  La77  1  0.74964425  0.55162005  0.76937257  1
  La3+  La78  1  0.75016354  0.21314894  0.02578873  1
  La3+  La79  1  0.74969333  0.82473284  -0.05156568  1
  La3+  La80  1  0.24995416  0.88133479  0.02861769  1
  La3+  La81  1  0.75060830  0.50308197  0.45338269  1
  La3+  La82  1  0.24983740  0.80192821  0.23062683  1
  La3+  La83  1  0.25004270  0.83383798  0.76264849  1
  Ru4+  Ru84  1  -0.00070504  0.00002923  -0.00295999  1
  Ru4+  Ru85  1  0.00025413  -0.00236068  0.25290439  1
  Ru4+  Ru86  1  -0.00038079  -0.00327095  0.49825811  1
  Ru4+  Ru87  1  -0.00140582  0.00167588  0.75149781  1
  Ru4+  Ru88  1  -0.00059488  0.33017712  -0.00137805  1
  Ru4+  Ru89  1  -0.00023528  0.33535537  0.25910076  1
  Ru4+  Ru90  1  0.00166584  0.33754261  0.49787313  1
  Ru4+  Ru91  1  -0.00115326  0.33244467  0.74619627  1
  Ru4+  Ru92  1  -0.00177854  0.66539217  -0.00253804  1
  Ru4+  Ru93  1  0.00204448  0.66698323  0.25127755  1
  Ru4+  Ru94  1  0.00182886  0.66376078  0.50126730  1
  Ru4+  Ru95  1  -0.00085888  0.66684208  0.74812829  1
  Ru4+  Ru96  1  0.50234107  -0.00393132  -0.00058856  1
  Ru4+  Ru97  1  0.49906526  0.00059332  0.24961691  1
  Ru4+  Ru98  1  0.49379254  -0.00559504  0.49571370  1
  Ru4+  Ru99  1  0.50361724  -0.00616005  0.75088429  1
  Ru4+  Ru100  1  0.50008097  0.33375213  0.00015363  1
  Ru4+  Ru101  1  0.49689021  0.32890038  0.24744098  1
  Ru4+  Ru102  1  0.49664485  0.34015439  0.50246061  1
  Ru4+  Ru103  1  0.49894386  0.33494332  0.75178369  1
  Ru4+  Ru104  1  0.49526489  0.65975276  -0.00239435  1
  Ru4+  Ru105  1  0.50021041  0.66683278  0.24874450  1
  Ru4+  Ru106  1  0.49581286  0.67453058  0.49972401  1
  Ru4+  Ru107  1  0.50009625  0.66581821  0.75081366  1
  Ru4+  Ru108  1  0.11257512  0.16509040  -0.00039555  1
  Ru4+  Ru109  1  0.11246711  0.16676329  0.24888406  1
  Ru4+  Ru110  1  0.11506889  0.16734319  0.49935996  1
  Ru4+  Ru111  1  0.11194992  0.16672659  0.75000336  1
  Ru4+  Ru112  1  0.11130116  0.49657120  0.00108403  1
  Ru4+  Ru113  1  0.11054775  0.50167146  0.25141692  1
  Ru4+  Ru114  1  0.11324144  0.49920028  0.49881796  1
  Ru4+  Ru115  1  0.11566565  0.49996930  0.74855937  1
  Ru4+  Ru116  1  0.11340178  0.83579955  0.00126133  1
  Ru4+  Ru117  1  0.10875451  0.83142983  0.24840296  1
  Ru4+  Ru118  1  0.11307417  0.83079058  0.49933999  1
  Ru4+  Ru119  1  0.11174039  0.83468314  0.75101890  1
  Ru4+  Ru120  1  0.61140637  0.16661213  -0.00110054  1
  Ru4+  Ru121  1  0.61410323  0.16671704  0.25007299  1
  Ru4+  Ru122  1  0.61981942  0.16755756  0.50155488  1
  Ru4+  Ru123  1  0.61005710  0.16674684  0.74897978  1
  Ru4+  Ru124  1  0.61089442  0.50003737  -0.00025529  1
  Ru4+  Ru125  1  0.61496577  0.50603255  0.25039098  1
  Ru4+  Ru126  1  0.61370064  0.49638112  0.49937607  1
  Ru4+  Ru127  1  0.61034234  0.50198132  0.74966084  1
  Ru4+  Ru128  1  0.61405535  0.83840839  0.00104929  1
  Ru4+  Ru129  1  0.61414828  0.83455875  0.25046511  1
  Ru4+  Ru130  1  0.61616140  0.83292234  0.50131428  1
  Ru4+  Ru131  1  0.61096693  0.83415683  0.75083523  1
  Ru4+  Ru132  1  0.38422890  0.17307262  -0.00025182  1
  Ru4+  Ru133  1  0.38766109  0.16653106  0.25137977  1
  Ru4+  Ru134  1  0.38540071  0.16716849  0.50048058  1
  Ru4+  Ru135  1  0.38384068  0.17144681  0.74957706  1
  Ru4+  Ru136  1  0.39090110  0.49974302  -0.00092529  1
  Ru4+  Ru137  1  0.38877498  0.49833121  0.25064813  1
  Ru4+  Ru138  1  0.38472938  0.50182194  0.50003293  1
  Ru4+  Ru139  1  0.38527956  0.49954579  0.75031220  1
  Ru4+  Ru140  1  0.38893076  0.83237671  -0.00018729  1
  Ru4+  Ru141  1  0.38845153  0.83111958  0.25079763  1
  Ru4+  Ru142  1  0.38748344  0.83259645  0.49932496  1
  Ru4+  Ru143  1  0.38834190  0.83328243  0.74996485  1
  Ru4+  Ru144  1  0.89012608  0.16780661  0.00068859  1
  Ru4+  Ru145  1  0.88540940  0.16671305  0.24950036  1
  Ru4+  Ru146  1  0.88377468  0.17124162  0.49934910  1
  Ru4+  Ru147  1  0.88700617  0.16494528  0.74962747  1
  Ru4+  Ru148  1  0.88617958  0.50030566  0.00158443  1
  Ru4+  Ru149  1  0.88928273  0.49730360  0.25147409  1
  Ru4+  Ru150  1  0.89186520  0.49816433  0.50102804  1
  Ru4+  Ru151  1  0.88892074  0.49982029  0.74806868  1
  Ru4+  Ru152  1  0.88694949  0.83557191  0.00136744  1
  Ru4+  Ru153  1  0.88745016  0.83579657  0.25020556  1
  Ru4+  Ru154  1  0.88516401  0.83438927  0.49950550  1
  Ru4+  Ru155  1  0.88778985  0.83250723  0.75083854  1
  Ru4+  Ru156  1  0.75027217  0.08787850  0.49805874  1
  Ru4+  Ru157  1  0.24995364  0.76237839  0.50171835  1
  Ru4+  Ru158  1  0.74993831  0.38804934  0.75107057  1
  Ru4+  Ru159  1  0.25031356  0.60570729  0.00214058  1
  Ru4+  Ru160  1  0.24960216  0.90375366  0.50072805  1
  Ru4+  Ru161  1  0.75027615  0.69771864  0.00728367  1
  Ru4+  Ru162  1  0.24991887  0.94119431  0.24706571  1
  Ru4+  Ru163  1  0.75016070  0.07620600  0.00753688  1
  Ru4+  Ru164  1  0.75003437  0.94162107  0.02868179  1
  Ru4+  Ru165  1  0.24972036  0.08913051  0.74017934  1
  Ru4+  Ru166  1  0.75002435  0.72327831  0.75029999  1
  Ru4+  Ru167  1  0.24986238  0.23874682  0.25346068  1
  Ru4+  Ru168  1  0.75045925  0.63255567  0.50752735  1
  Ru4+  Ru169  1  0.75026998  0.36618572  0.49086034  1
  Ru4+  Ru170  1  0.25008595  0.74956399  -0.00584462  1
  Ru4+  Ru171  1  0.25035751  0.36335328  -0.02190188  1
  Ru4+  Ru172  1  0.74966544  0.24439498  0.75460653  1
  Ru4+  Ru173  1  0.24968465  0.23460250  -0.00156255  1
  Ru4+  Ru174  1  0.74985768  0.74961686  0.25453116  1
  Ru4+  Ru175  1  0.24950308  0.24823604  0.74245624  1
  Ru4+  Ru176  1  0.74974046  0.09419655  0.74776504  1
  Ru4+  Ru177  1  0.25016185  0.08531271  -0.00158852  1
  Ru4+  Ru178  1  0.24990358  0.09068983  0.24969452  1
  Ru4+  Ru179  1  0.25004082  0.59584102  0.26333695  1
  O2-  O180  1  0.16791440  0.08150382  0.00140428  1
  O2-  O181  1  0.16823401  0.08176715  0.24927726  1
  O2-  O182  1  0.16746257  0.08194832  0.49982028  1
  O2-  O183  1  0.16824221  0.08105854  0.75130748  1
  O2-  O184  1  0.16503671  0.41132478  0.00086392  1
  O2-  O185  1  0.16216976  0.41133141  0.24741527  1
  O2-  O186  1  0.16663326  0.41655060  0.50230987  1
  O2-  O187  1  0.16486847  0.41562918  0.74922047  1
  O2-  O188  1  0.16866444  0.74629632  -0.00151177  1
  O2-  O189  1  0.16597962  0.74747245  0.25081202  1
  O2-  O190  1  0.16836896  0.74798267  0.50028644  1
  O2-  O191  1  0.16551804  0.74730082  0.74981208  1
  O2-  O192  1  0.66717446  0.08069564  0.00176111  1
  O2-  O193  1  0.66521085  0.08077940  0.24763201  1
  O2-  O194  1  0.66723023  0.07977157  0.49970872  1
  O2-  O195  1  0.66771904  0.08089721  0.75070109  1
  O2-  O196  1  0.66478716  0.41418707  0.00048024  1
  O2-  O197  1  0.66580102  0.41662024  0.25061681  1
  O2-  O198  1  0.66728356  0.41104810  0.49975210  1
  O2-  O199  1  0.66775745  0.41182163  0.74976515  1
  O2-  O200  1  0.66663035  0.74632678  -0.00174343  1
  O2-  O201  1  0.66716808  0.74690291  0.24930518  1
  O2-  O202  1  0.66840852  0.74821230  0.50218184  1
  O2-  O203  1  0.66909128  0.74679072  0.74975420  1
  O2-  O204  1  0.33144320  0.25132977  0.00031379  1
  O2-  O205  1  0.33166288  0.25190116  0.24957208  1
  O2-  O206  1  0.33526571  0.25162906  0.50095680  1
  O2-  O207  1  0.33103431  0.25143218  0.74936959  1
  O2-  O208  1  0.33467827  0.58981063  0.00044134  1
  O2-  O209  1  0.33349223  0.58575036  0.24839303  1
  O2-  O210  1  0.33231843  0.58520269  0.50234083  1
  O2-  O211  1  0.33539393  0.58524219  0.74868024  1
  O2-  O212  1  0.33668168  0.92155075  -0.00039009  1
  O2-  O213  1  0.33388230  0.92102535  0.24785257  1
  O2-  O214  1  0.33219230  0.91806745  0.50009012  1
  O2-  O215  1  0.33432613  0.92031171  0.75150324  1
  O2-  O216  1  0.83493379  0.25350373  -0.00107642  1
  O2-  O217  1  0.83399342  0.24879978  0.24987768  1
  O2-  O218  1  0.83397683  0.25346881  0.49992967  1
  O2-  O219  1  0.83237177  0.25258513  0.74987069  1
  O2-  O220  1  0.83126024  0.58765498  -0.00105834  1
  O2-  O221  1  0.83273919  0.58558701  0.25116284  1
  O2-  O222  1  0.83397736  0.58711373  0.49897673  1
  O2-  O223  1  0.83576297  0.58954161  0.74959426  1
  O2-  O224  1  0.83512523  0.92078647  0.00026687  1
  O2-  O225  1  0.83418805  0.91763282  0.24693975  1
  O2-  O226  1  0.83482522  0.91789431  0.50057717  1
  O2-  O227  1  0.83262889  0.92025955  0.75146077  1
  O2-  O228  1  0.16784834  0.25157025  0.00104582  1
  O2-  O229  1  0.16782996  0.25090751  0.24953477  1
  O2-  O230  1  0.16666854  0.25018667  0.50168400  1
  O2-  O231  1  0.16747083  0.25183354  0.74992930  1
  O2-  O232  1  0.16594742  0.58991141  -0.00088184  1
  O2-  O233  1  0.16739955  0.58561237  0.25066758  1
  O2-  O234  1  0.16641621  0.58498804  0.50111173  1
  O2-  O235  1  0.16569313  0.58536861  0.74924626  1
  O2-  O236  1  0.16365153  0.92186147  -0.00101117  1
  O2-  O237  1  0.16591377  0.92022181  0.24869049  1
  O2-  O238  1  0.16913459  0.91952824  0.49979263  1
  O2-  O239  1  0.16759988  0.91883181  0.75234019  1
  O2-  O240  1  0.66381206  0.25398007  0.00073957  1
  O2-  O241  1  0.66419122  0.25140252  0.24964218  1
  O2-  O242  1  0.66678670  0.25393564  0.50020168  1
  O2-  O243  1  0.66840949  0.25337659  0.74959147  1
  O2-  O244  1  0.66902026  0.58744924  0.00007427  1
  O2-  O245  1  0.67023676  0.58580141  0.25065749  1
  O2-  O246  1  0.66904575  0.58660937  0.50034847  1
  O2-  O247  1  0.66362484  0.58782467  0.74922421  1
  O2-  O248  1  0.66689733  0.92053421  -0.00055023  1
  O2-  O249  1  0.66569742  0.91834981  0.24795884  1
  O2-  O250  1  0.66729768  0.91759780  0.49999055  1
  O2-  O251  1  0.66521950  0.91917364  0.74977792  1
  O2-  O252  1  0.33334626  0.08100677  0.00124546  1
  O2-  O253  1  0.33315523  0.08100545  0.24891265  1
  O2-  O254  1  0.33235855  0.08000173  0.49942663  1
  O2-  O255  1  0.33196259  0.08188256  0.75025860  1
  O2-  O256  1  0.33539556  0.41112240  0.00067393  1
  O2-  O257  1  0.33648847  0.41138218  0.24789040  1
  O2-  O258  1  0.33500883  0.41516403  0.50114142  1
  O2-  O259  1  0.33484610  0.41569610  0.74958449  1
  O2-  O260  1  0.33432527  0.74642269  0.00059750  1
  O2-  O261  1  0.33434930  0.74687169  0.24780174  1
  O2-  O262  1  0.33072505  0.74840754  0.50214846  1
  O2-  O263  1  0.33476314  0.74647931  0.74899525  1
  O2-  O264  1  0.83442490  0.07968858  0.00096335  1
  O2-  O265  1  0.83307545  0.08233108  0.24570925  1
  O2-  O266  1  0.83181031  0.08163371  0.49968055  1
  O2-  O267  1  0.83170984  0.08227090  0.75135485  1
  O2-  O268  1  0.83258714  0.41443643  -0.00037528  1
  O2-  O269  1  0.83121973  0.41644339  0.25204591  1
  O2-  O270  1  0.83347424  0.41250953  0.49976722  1
  O2-  O271  1  0.83242942  0.41288929  0.74998750  1
  O2-  O272  1  0.83177303  0.74511457  -0.00111706  1
  O2-  O273  1  0.83326028  0.74658258  0.25065962  1
  O2-  O274  1  0.83115710  0.74581954  0.49968828  1
  O2-  O275  1  0.83317920  0.74679342  0.75024339  1
  O2-  O276  1  0.04675556  0.90289866  0.51042082  1
  O2-  O277  1  0.03844085  0.78391210  0.00599520  1
  O2-  O278  1  0.54366149  0.10517123  0.03982539  1
  O2-  O279  1  0.04611602  0.42641421  0.76152575  1
  O2-  O280  1  0.04740010  0.57017447  0.99048618  1
  O2-  O281  1  0.54531512  0.23702232  0.48577818  1
  O2-  O282  1  0.45420704  0.90000785  0.98979671  1
  O2-  O283  1  0.45372537  0.09885024  0.76112954  1
  O2-  O284  1  0.53332082  0.55435504  0.49107585  1
  O2-  O285  1  0.95145710  0.77544195  0.96928201  1
  O2-  O286  1  0.04838638  0.43304692  0.23294472  1
  O2-  O287  1  0.95691355  0.10404334  0.50541789  1
  O2-  O288  1  0.95692236  0.88389319  0.78674676  1
  O2-  O289  1  0.04810743  0.90273040  0.23613181  1
  O2-  O290  1  0.44798150  0.09826955  0.01677335  1
  O2-  O291  1  0.45219180  0.09613726  0.97802528  1
  O2-  O292  1  0.55131010  0.75564183  0.48003588  1
  O2-  O293  1  0.55013666  0.42398841  0.48276142  1
  O2-  O294  1  0.54598539  0.42884657  0.23172820  1
  O2-  O295  1  0.95189013  0.89902615  0.26432419  1
  O2-  O296  1  0.95209406  0.56628401  0.73435629  1
  O2-  O297  1  0.03720074  0.22054862  0.99637649  1
  O2-  O298  1  0.54815899  0.43068075  0.27097140  1
  O2-  O299  1  0.05636388  0.08265374  0.97541195  1
  O2-  O300  1  0.95690263  0.10407313  0.50512735  1
  O2-  O301  1  0.94883363  0.43024018  0.29711227  1
  O2-  O302  1  0.44975727  0.90257441  0.48676860  1
  O2-  O303  1  0.45904338  0.77397595  0.54066474  1
  O2-  O304  1  0.04767739  0.11298226  0.53920429  1
  O2-  O305  1  0.94896432  0.23119795  0.01364053  1
  O2-  O306  1  0.95325970  0.23462471  0.73975367  1
  O2-  O307  1  0.54838670  0.43028094  0.73532727  1
  O2-  O308  1  0.04991435  0.57212311  0.76411429  1
  O2-  O309  1  0.45108326  0.43235101  0.51263313  1
  O2-  O310  1  0.95390768  0.24324692  0.51275400  1
  O2-  O311  1  0.04138398  0.78051366  0.96822154  1
  O2-  O312  1  0.53279078  0.55058890  0.50385226  1
  O2-  O313  1  0.44997056  0.90148383  0.25962846  1
  O2-  O314  1  0.04272726  0.89211410  0.79028869  1
  O2-  O315  1  0.04494046  0.76004782  0.76555805  1
  O2-  O316  1  0.95198498  0.43315888  0.51248306  1
  O2-  O317  1  0.54725438  0.76564654  0.01649605  1
  O2-  O318  1  0.54608661  0.09699196  0.48616990  1
  O2-  O319  1  0.53770357  0.77667760  0.71705111  1
  O2-  O320  1  0.45082764  0.43474201  0.73877384  1
  O2-  O321  1  0.54593068  0.23652972  0.01077691  1
  O2-  O322  1  0.54839292  0.90333774  0.26164354  1
  O2-  O323  1  0.54252182  0.89546547  0.47043360  1
  O2-  O324  1  0.57480006  0.61875543  0.57302916  1
  O2-  O325  1  0.56216153  0.73967236  0.03112489  1
  O2-  O326  1  0.57598123  0.61313151  0.43149503  1
  O2-  O327  1  0.56208069  0.07662766  0.46591046  1
  O2-  O328  1  0.05430255  0.07966218  0.97464731  1
  O2-  O329  1  0.06237762  0.59917841  0.46823519  1
  O2-  O330  1  0.56260119  0.59393507  0.03142003  1
  O2-  O331  1  0.07433491  0.28342518  0.95685716  1
  O2-  O332  1  0.92830420  0.73493072  0.04041442  1
  O2-  O333  1  0.56353646  0.92830172  0.03535856  1
  O2-  O334  1  0.06326113  0.59657057  0.28297569  1
  O2-  O335  1  0.43559906  0.25847031  0.77646932  1
  O2-  O336  1  0.57247190  0.93380338  0.54216522  1
  O2-  O337  1  0.92469957  0.93592330  0.70074691  1
  O2-  O338  1  0.06522636  0.74126022  0.22456483  1
  O2-  O339  1  0.56317917  0.59847081  0.31094545  1
  O2-  O340  1  0.93570944  0.07512821  0.72312691  1
  O2-  O341  1  0.57228811  0.05692650  0.93973805  1
  O2-  O342  1  0.06591458  0.40870508  0.47462819  1
  O2-  O343  1  0.43629881  0.59260168  0.28114298  1
  O2-  O344  1  0.56350391  0.59669546  0.18771557  1
  O2-  O345  1  0.55996000  0.74409407  0.47040270  1
  O2-  O346  1  0.07194762  0.94618315  0.69318569  1
  O2-  O347  1  0.93511988  0.73976024  0.52523625  1
  O2-  O348  1  0.93208737  0.40775786  0.94137788  1
  O2-  O349  1  0.43564820  0.07374145  0.47124897  1
  O2-  O350  1  0.43629936  0.07675223  0.77617977  1
  O2-  O351  1  0.43604085  0.59333029  0.46838294  1
  O2-  O352  1  0.08474543  0.71200129  0.04680447  1
  O2-  O353  1  0.93474125  0.59064662  0.02872229  1
  O2-  O354  1  0.93716429  0.26016753  0.28437051  1
  O2-  O355  1  0.07128401  0.05653623  0.44289472  1
  O2-  O356  1  0.43404589  0.25987645  0.97352240  1
  O2-  O357  1  0.93612491  0.07371717  0.27642366  1
  O2-  O358  1  0.93381372  0.41009091  0.05484025  1
  O2-  O359  1  0.57230175  0.71977000  0.80865282  1
  O2-  O360  1  0.92062130  0.05361386  0.45840262  1
  O2-  O361  1  0.43580550  0.40379992  0.18473499  1
  O2-  O362  1  0.92375168  0.40436456  0.17842140  1
  O2-  O363  1  0.43552740  0.40634590  0.31585121  1
  O2-  O364  1  0.42845185  0.72697821  0.44399455  1
  O2-  O365  1  0.06585451  0.25851064  0.27570172  1
  O2-  O366  1  0.94680800  0.42051872  0.29995118  1
  O2-  O367  1  0.56062071  0.25843155  0.46530634  1
  O2-  O368  1  0.06266215  0.06860888  0.21882350  1
  O2-  O369  1  0.43755768  0.73748841  0.28117866  1
  O2-  O370  1  0.06487357  0.25788892  0.47335379  1
  O2-  O371  1  0.43829974  0.25920013  0.28334003  1
  O2-  O372  1  0.24996878  0.00204963  0.09567531  1
  O2-  O373  1  0.74934277  0.00446182  0.35342072  1
  O2-  O374  1  0.24984320  0.00149178  0.90697705  1
  O2-  O375  1  0.24992387  0.67556344  0.09275688  1
  O2-  O376  1  0.24976383  0.32053047  0.08845666  1
  O2-  O377  1  0.24993366  0.32985178  0.84421405  1
  O2-  O378  1  0.75018592  0.00021554  0.91484353  1
  O2-  O379  1  0.24981655  0.33526804  0.18426274  1
  O2-  O380  1  0.25022363  0.33177214  0.42064971  1
  O2-  O381  1  0.74991111  -0.00239938  0.57622462  1
  O2-  O382  1  0.24981124  0.32866410  0.65944326  1
  O2-  O383  1  0.74974823  0.33224986  0.14993527  1
  O2-  O384  1  0.24970551  0.66845301  0.81426236  1
  O2-  O385  1  0.24989870  0.67113947  0.90333868  1
  O2-  O386  1  0.74969160  0.34209923  0.35443500  1
  O2-  O387  1  0.24974226  0.67901838  0.18353423  1
  O2-  O388  1  0.74974419  -0.00070312  0.67426746  1
  O2-  O389  1  0.74986887  0.33460131  0.89759115  1
  O2-  O390  1  0.25006892  0.00579014  0.35016738  1
  O2-  O391  1  0.24998640  0.00389960  0.65971953  1
  O2-  O392  1  0.74978311  -0.00359569  0.81350610  1
  O2-  O393  1  0.24982252  0.67170576  0.34979118  1
  O2-  O394  1  0.74974482  0.33082364  0.60664150  1
  O2-  O395  1  0.25031799  0.33122336  0.32923553  1
  O2-  O396  1  0.75025124  0.48826145  0.87092320  1
  O2-  O397  1  0.24974733  0.49774006  0.08900210  1
  O2-  O398  1  0.24992636  0.83131135  0.62284131  1
  O2-  O399  1  0.74996949  0.83041061  0.41578866  1
  O2-  O400  1  0.25000162  0.50037319  0.59111198  1
  O2-  O401  1  0.74997146  0.16510706  0.33298128  1
  O2-  O402  1  0.75014315  0.83807351  0.18463838  1
  O2-  O403  1  0.25013052  0.49869892  0.44848604  1
  O2-  O404  1  0.74978471  0.16913135  0.41628525  1
  O2-  O405  1  0.75006451  0.83575526  0.33300909  1
  O2-  O406  1  0.74985618  0.50314284  0.58030452  1
  O2-  O407  1  0.24990836  0.50264008  0.84092090  1
  O2-  O408  1  0.25020666  0.51565508  0.36503694  1
  O2-  O409  1  0.75024311  0.48439775  0.66512188  1
  O2-  O410  1  0.25007228  0.16678584  0.60527142  1
  O2-  O411  1  0.74992117  0.16198370  0.88192500  1
  O2-  O412  1  0.25006324  0.52335944  0.16869030  1
  O2-  O413  1  0.25003640  0.83844451  0.36984139  1
  O2-  O414  1  0.75025529  0.50032169  0.10137201  1
  O2-  O415  1  0.74990692  0.16126668  0.59089891  1
  O2-  O416  1  0.75013398  0.83409324  0.09648713  1
  O2-  O417  1  0.24992235  0.16585906  0.90510060  1
  O2-  O418  1  0.75007408  0.50354213  0.17678966  1
  O2-  O419  1  0.25011921  0.82728805  0.89829855  1
  O2-  O420  1  0.46401781  0.34557200  0.87597177  1
  O2-  O421  1  0.47542893  0.00084106  0.36897053  1
  O2-  O422  1  0.97618685  0.32722457  0.86760345  1
  O2-  O423  1  0.47322199  -0.00088592  0.12714814  1
  O2-  O424  1  0.96058766  0.66504532  0.63074834  1
  O2-  O425  1  0.97599494  0.31990619  0.12632330  1
  O2-  O426  1  0.47066059  0.66675649  0.12409017  1
  O2-  O427  1  0.47173468  0.66608220  0.87664049  1
  O2-  O428  1  0.03563161  0.33394215  0.12201590  1
  O2-  O429  1  0.03212704  0.65365364  0.12417065  1
  O2-  O430  1  0.97950436  -0.00995689  0.37515558  1
  O2-  O431  1  0.52772765  0.33325808  0.12409183  1
  O2-  O432  1  0.54266862  0.33299125  0.87481096  1
  O2-  O433  1  0.97236862  0.00282967  0.87659608  1
  O2-  O434  1  0.04245369  0.66761166  0.62409759  1
  O2-  O435  1  0.97098224  0.66400646  0.87229744  1
  O2-  O436  1  0.97804170  -0.00228797  0.61672544  1
  O2-  O437  1  0.47271071  0.32767255  0.62654736  1
  O2-  O438  1  0.97460902  0.33500014  0.62775644  1
  O2-  O439  1  0.96462926  0.66549140  0.14154252  1
  O2-  O440  1  0.53942038  0.00861134  0.63738542  1
  O2-  O441  1  0.45708013  0.00058717  0.62681261  1
  O2-  O442  1  0.02167175  0.33525707  0.37360265  1
  O2-  O443  1  0.47636949  -0.00517388  0.87453523  1
