# generated using pymatgen
data_La7(Ru4O11)2
_symmetry_space_group_name_H-M   'P 1'
_cell_length_a   23.98938334
_cell_length_b   16.82902693
_cell_length_c   15.42571805
_cell_angle_alpha   89.99999638
_cell_angle_beta   89.99963648
_cell_angle_gamma   90.00000579
_symmetry_Int_Tables_number   1
_chemical_formula_structural   La7(Ru4O11)2
_chemical_formula_sum   'La84 Ru96 O264'
_cell_volume   6227.63970409
_cell_formula_units_Z   12
loop_
 _symmetry_equiv_pos_site_id
 _symmetry_equiv_pos_as_xyz
  1  'x, y, z'
loop_
 _atom_type_symbol
 _atom_type_oxidation_number
  La3+  3.0
  Ru4+  4.0
  O2-  -2.0
loop_
 _atom_site_type_symbol
 _atom_site_label
 _atom_site_symmetry_multiplicity
 _atom_site_fract_x
 _atom_site_fract_y
 _atom_site_fract_z
 _atom_site_occupancy
  La3+  La0  1  0.13893899  -0.00094505  0.12410333  1
  La3+  La1  1  0.13774481  -0.00031458  0.37684777  1
  La3+  La2  1  0.13991070  0.00046477  0.62300164  1
  La3+  La3  1  0.13828939  -0.00028996  0.87559571  1
  La3+  La4  1  0.13738276  0.33409970  0.12367576  1
  La3+  La5  1  0.13842108  0.33355275  0.37624846  1
  La3+  La6  1  0.13986988  0.33313077  0.62407094  1
  La3+  La7  1  0.13909521  0.33447875  0.87502238  1
  La3+  La8  1  0.13859982  0.66558480  0.12437087  1
  La3+  La9  1  0.13694679  0.66615428  0.37534307  1
  La3+  La10  1  0.13908548  0.66548824  0.62463842  1
  La3+  La11  1  0.13867666  0.66520258  0.87547864  1
  La3+  La12  1  0.63940144  -0.00083209  0.12442624  1
  La3+  La13  1  0.63854370  -0.00007569  0.37698998  1
  La3+  La14  1  0.63951489  0.00103814  0.62303600  1
  La3+  La15  1  0.63890734  0.00001625  0.87582939  1
  La3+  La16  1  0.63935137  0.33396847  0.12553590  1
  La3+  La17  1  0.63977825  0.33366312  0.37425666  1
  La3+  La18  1  0.64037091  0.33124038  0.62520416  1
  La3+  La19  1  0.64059995  0.33086389  0.87439394  1
  La3+  La20  1  0.63870213  0.66801002  0.12566798  1
  La3+  La21  1  0.63890776  0.66785347  0.37332326  1
  La3+  La22  1  0.63705466  0.66669999  0.62395754  1
  La3+  La23  1  0.63840799  0.66669085  0.87731875  1
  La3+  La24  1  0.36104256  -0.00053233  0.12431172  1
  La3+  La25  1  0.36103491  -0.00056707  0.37665878  1
  La3+  La26  1  0.36008919  0.00085352  0.62381506  1
  La3+  La27  1  0.36188736  0.00093625  0.87449932  1
  La3+  La28  1  0.36270958  0.33436888  0.12389170  1
  La3+  La29  1  0.36155360  0.33357768  0.37597023  1
  La3+  La30  1  0.36173831  0.33346298  0.62552162  1
  La3+  La31  1  0.36123353  0.33429556  0.87445455  1
  La3+  La32  1  0.36308178  0.66415597  0.12663330  1
  La3+  La33  1  0.36384836  0.66436404  0.37377340  1
  La3+  La34  1  0.36156713  0.66615553  0.62497212  1
  La3+  La35  1  0.36140532  0.66599173  0.87466080  1
  La3+  La36  1  0.86129728  -0.00113466  0.12327124  1
  La3+  La37  1  0.86182707  0.00049605  0.37670927  1
  La3+  La38  1  0.86068030  0.00181171  0.62315058  1
  La3+  La39  1  0.86158190  -0.00060979  0.87638445  1
  La3+  La40  1  0.85940233  0.33418948  0.12443991  1
  La3+  La41  1  0.86000952  0.33363910  0.37625311  1
  La3+  La42  1  0.86079193  0.33180587  0.62527486  1
  La3+  La43  1  0.86012817  0.33260530  0.87427387  1
  La3+  La44  1  0.86139296  0.66747704  0.12406530  1
  La3+  La45  1  0.86196074  0.66714002  0.37454809  1
  La3+  La46  1  0.86402401  0.66603419  0.62376762  1
  La3+  La47  1  0.86224667  0.66742200  0.87794592  1
  La3+  La48  1  0.49938707  0.50021251  0.88820245  1
  La3+  La49  1  0.49960919  0.50093740  0.86587876  1
  La3+  La50  1  0.00049003  0.16694379  0.13419312  1
  La3+  La51  1  -0.00008106  0.83264108  0.13425834  1
  La3+  La52  1  -0.00038491  0.16783636  0.86100251  1
  La3+  La53  1  -0.00041186  0.83255899  0.61576264  1
  La3+  La54  1  -0.00147478  0.16721455  0.37067548  1
  La3+  La55  1  0.49918125  0.50128249  0.63637246  1
  La3+  La56  1  0.49879682  0.50021203  0.13515143  1
  La3+  La57  1  0.50102402  0.83163742  0.36607913  1
  La3+  La58  1  0.49781775  0.16953608  0.87803082  1
  La3+  La59  1  0.50259395  0.83695524  0.85790194  1
  La3+  La60  1  0.50015415  0.83391988  0.61449228  1
  La3+  La61  1  0.50098381  0.49860923  0.61443589  1
  La3+  La62  1  0.50101589  0.16612037  0.11805169  1
  La3+  La63  1  -0.00026948  0.16645114  0.88370860  1
  La3+  La64  1  0.50127629  0.49848485  0.36438032  1
  La3+  La65  1  0.49837810  0.83629326  0.13781039  1
  La3+  La66  1  0.50140919  0.50481309  0.38617173  1
  La3+  La67  1  0.50079265  0.16703156  0.36567225  1
  La3+  La68  1  0.50245649  0.82894301  0.11756793  1
  La3+  La69  1  0.49477725  0.83429178  0.87656171  1
  La3+  La70  1  0.49880998  0.16775794  0.38659605  1
  La3+  La71  1  0.50188374  0.16726077  0.13489967  1
  La3+  La72  1  0.25000790  0.16416627  0.22017578  1
  La3+  La73  1  0.25008423  0.13935375  0.73233109  1
  La3+  La74  1  0.74993512  0.45935569  0.48965338  1
  La3+  La75  1  0.74989815  0.83433567  0.49959688  1
  La3+  La76  1  0.24991091  0.83190352  0.00189600  1
  La3+  La77  1  0.74998729  0.49887592  0.01124494  1
  La3+  La78  1  0.75028346  0.84089786  0.75237867  1
  La3+  La79  1  0.74995666  0.20458457  0.24185377  1
  La3+  La80  1  0.24981898  0.86306780  0.25029731  1
  La3+  La81  1  0.24995368  0.83355012  0.49930447  1
  La3+  La82  1  0.24990975  0.83579462  0.75150547  1
  La3+  La83  1  0.24987984  0.16578792  0.48424468  1
  Ru4+  Ru84  1  0.00018657  -0.00286052  0.00308739  1
  Ru4+  Ru85  1  -0.00081399  -0.00243876  0.25173925  1
  Ru4+  Ru86  1  0.00045734  0.00158433  0.50026300  1
  Ru4+  Ru87  1  -0.00215851  -0.00319565  0.74623622  1
  Ru4+  Ru88  1  0.00158380  0.33593190  0.00421052  1
  Ru4+  Ru89  1  -0.00002390  0.33573067  0.24673985  1
  Ru4+  Ru90  1  0.00216065  0.32454725  0.50005438  1
  Ru4+  Ru91  1  -0.00279682  0.33304396  0.74864582  1
  Ru4+  Ru92  1  -0.00021309  0.66310061  -0.00253038  1
  Ru4+  Ru93  1  0.00093471  0.66658099  0.25368849  1
  Ru4+  Ru94  1  0.00108996  0.66512087  0.49760918  1
  Ru4+  Ru95  1  0.00094459  0.66534582  0.75130813  1
  Ru4+  Ru96  1  0.49730169  0.00260938  0.00003638  1
  Ru4+  Ru97  1  0.50080682  0.00007497  0.25121993  1
  Ru4+  Ru98  1  0.49959980  0.00038107  0.49901062  1
  Ru4+  Ru99  1  0.50038782  0.00071313  0.75003316  1
  Ru4+  Ru100  1  0.49999454  0.32592917  -0.00039628  1
  Ru4+  Ru101  1  0.49854386  0.32690599  0.24811393  1
  Ru4+  Ru102  1  0.50056572  0.33169429  0.49983878  1
  Ru4+  Ru103  1  0.49822702  0.33183926  0.74936359  1
  Ru4+  Ru104  1  0.49857534  0.66083205  -0.00029797  1
  Ru4+  Ru105  1  0.49684612  0.66363391  0.25470932  1
  Ru4+  Ru106  1  0.50118820  0.67123052  0.49815141  1
  Ru4+  Ru107  1  0.50282452  0.65984763  0.74923520  1
  Ru4+  Ru108  1  0.11340922  0.16678387  0.00040542  1
  Ru4+  Ru109  1  0.11259256  0.16769567  0.24986741  1
  Ru4+  Ru110  1  0.11219624  0.16539113  0.49961605  1
  Ru4+  Ru111  1  0.11325650  0.16829511  0.74961783  1
  Ru4+  Ru112  1  0.11201863  0.49991220  0.00081889  1
  Ru4+  Ru113  1  0.11275212  0.50288521  0.25046511  1
  Ru4+  Ru114  1  0.11121481  0.50219357  0.49943315  1
  Ru4+  Ru115  1  0.11331404  0.50155267  0.75045137  1
  Ru4+  Ru116  1  0.11180914  0.83445548  -0.00013101  1
  Ru4+  Ru117  1  0.11143442  0.83328286  0.24913247  1
  Ru4+  Ru118  1  0.11196471  0.83329856  0.50024865  1
  Ru4+  Ru119  1  0.11146449  0.83349153  0.74978144  1
  Ru4+  Ru120  1  0.61517526  0.16958151  0.00067301  1
  Ru4+  Ru121  1  0.61186439  0.16710932  0.25005570  1
  Ru4+  Ru122  1  0.61465661  0.16720709  0.49956066  1
  Ru4+  Ru123  1  0.61381115  0.16719852  0.74944858  1
  Ru4+  Ru124  1  0.61565185  0.50432852  -0.00110177  1
  Ru4+  Ru125  1  0.61629352  0.50104217  0.25038282  1
  Ru4+  Ru126  1  0.61219259  0.49924632  0.50046594  1
  Ru4+  Ru127  1  0.61288591  0.50115417  0.75017814  1
  Ru4+  Ru128  1  0.61788007  0.83324701  0.00076495  1
  Ru4+  Ru129  1  0.61543474  0.83507800  0.25066185  1
  Ru4+  Ru130  1  0.61192227  0.83375824  0.50052399  1
  Ru4+  Ru131  1  0.61148731  0.83439433  0.74962810  1
  Ru4+  Ru132  1  0.38664879  0.16460956  -0.00033874  1
  Ru4+  Ru133  1  0.38827619  0.16809990  0.24955042  1
  Ru4+  Ru134  1  0.38839500  0.16640896  0.49936110  1
  Ru4+  Ru135  1  0.38786798  0.16590551  0.75126585  1
  Ru4+  Ru136  1  0.38511643  0.50382963  0.00012089  1
  Ru4+  Ru137  1  0.38647795  0.50309217  0.24984855  1
  Ru4+  Ru138  1  0.38434096  0.49838592  0.49884513  1
  Ru4+  Ru139  1  0.38624491  0.50013345  0.75030198  1
  Ru4+  Ru140  1  0.38638853  0.83305146  -0.00019532  1
  Ru4+  Ru141  1  0.38830152  0.83169475  0.25057903  1
  Ru4+  Ru142  1  0.38799538  0.83235235  0.49971750  1
  Ru4+  Ru143  1  0.38622754  0.83691543  0.74941222  1
  Ru4+  Ru144  1  0.88533856  0.16773731  0.00037369  1
  Ru4+  Ru145  1  0.88669918  0.16532674  0.25047686  1
  Ru4+  Ru146  1  0.88650830  0.16656790  0.50048816  1
  Ru4+  Ru147  1  0.88657127  0.16891029  0.74881661  1
  Ru4+  Ru148  1  0.88868295  0.50120699  0.00046856  1
  Ru4+  Ru149  1  0.88605553  0.49840519  0.24971507  1
  Ru4+  Ru150  1  0.88320782  0.50237305  0.50116453  1
  Ru4+  Ru151  1  0.88825760  0.49748103  0.74990636  1
  Ru4+  Ru152  1  0.88522407  0.83457661  -0.00017498  1
  Ru4+  Ru153  1  0.88668925  0.83168757  0.25056075  1
  Ru4+  Ru154  1  0.88710033  0.83229361  0.50023808  1
  Ru4+  Ru155  1  0.88853980  0.83370371  0.74966789  1
  Ru4+  Ru156  1  0.74998794  0.08707676  0.00058118  1
  Ru4+  Ru157  1  0.24997262  0.73183828  0.24120459  1
  Ru4+  Ru158  1  0.24972498  0.57844434  0.24695112  1
  Ru4+  Ru159  1  0.25019215  0.24825413  -0.00156882  1
  Ru4+  Ru160  1  0.75008983  0.96560896  0.74869614  1
  Ru4+  Ru161  1  0.24992790  0.04411285  0.25418784  1
  Ru4+  Ru162  1  0.75002429  0.09247170  0.74936267  1
  Ru4+  Ru163  1  0.75009691  0.57902246  0.25014564  1
  Ru4+  Ru164  1  0.24976158  0.71690222  0.73947793  1
  Ru4+  Ru165  1  0.24994244  0.42153732  0.50087403  1
  Ru4+  Ru166  1  0.75001704  0.58349187  0.75305229  1
  Ru4+  Ru167  1  0.25000761  0.27218715  0.75147890  1
  Ru4+  Ru168  1  0.25005760  0.28873109  0.23709281  1
  Ru4+  Ru169  1  0.24977532  0.95618799  0.74757606  1
  Ru4+  Ru170  1  0.24990248  0.57793581  -0.00132091  1
  Ru4+  Ru171  1  0.25002019  0.42053879  -0.00270914  1
  Ru4+  Ru172  1  0.75002036  0.71835144  0.75885423  1
  Ru4+  Ru173  1  0.24985115  0.42413491  0.24751012  1
  Ru4+  Ru174  1  0.24981533  0.08668706  -0.00124975  1
  Ru4+  Ru175  1  0.74982496  0.40584467  0.75022495  1
  Ru4+  Ru176  1  0.74961712  0.59576677  0.49335228  1
  Ru4+  Ru177  1  0.24991797  0.57937553  0.50138864  1
  Ru4+  Ru178  1  0.75015253  0.91223979  0.24894300  1
  Ru4+  Ru179  1  0.74996548  0.06542419  0.25933603  1
  O2-  O180  1  0.16823151  0.08065587  -0.00042407  1
  O2-  O181  1  0.16643103  0.07968828  0.25002866  1
  O2-  O182  1  0.16760510  0.08075910  0.49963253  1
  O2-  O183  1  0.16723111  0.07892503  0.75007557  1
  O2-  O184  1  0.16821515  0.41427897  -0.00045245  1
  O2-  O185  1  0.16783445  0.41401125  0.24951295  1
  O2-  O186  1  0.16743824  0.41443369  0.50016630  1
  O2-  O187  1  0.16801409  0.41486376  0.75016811  1
  O2-  O188  1  0.16833391  0.74825738  -0.00062839  1
  O2-  O189  1  0.16763627  0.74650055  0.25029015  1
  O2-  O190  1  0.16761278  0.74817104  0.49995381  1
  O2-  O191  1  0.16598087  0.74547491  0.74970920  1
  O2-  O192  1  0.66834013  0.08101548  -0.00133540  1
  O2-  O193  1  0.66697714  0.07968162  0.25100719  1
  O2-  O194  1  0.66612906  0.08127574  0.49901089  1
  O2-  O195  1  0.66783475  0.08099901  0.75010142  1
  O2-  O196  1  0.66760051  0.41402946  -0.00022030  1
  O2-  O197  1  0.66711316  0.41567545  0.25026724  1
  O2-  O198  1  0.66560185  0.41286406  0.50036647  1
  O2-  O199  1  0.66794583  0.41422566  0.74983254  1
  O2-  O200  1  0.66745106  0.74773869  -0.00051622  1
  O2-  O201  1  0.66815515  0.74756927  0.25070387  1
  O2-  O202  1  0.66777400  0.74765783  0.49991776  1
  O2-  O203  1  0.66605286  0.74555386  0.74953884  1
  O2-  O204  1  0.33108776  0.25307250  -0.00016520  1
  O2-  O205  1  0.33317227  0.25390994  0.25053911  1
  O2-  O206  1  0.33254793  0.25403114  0.49995363  1
  O2-  O207  1  0.33241593  0.25314741  0.74939843  1
  O2-  O208  1  0.33291879  0.58553438  -0.00038775  1
  O2-  O209  1  0.33184255  0.58571331  0.24970946  1
  O2-  O210  1  0.33241048  0.58603764  0.50008514  1
  O2-  O211  1  0.33334032  0.58647128  0.74979324  1
  O2-  O212  1  0.33129858  0.91980041  0.00044178  1
  O2-  O213  1  0.33299214  0.92042712  0.24985393  1
  O2-  O214  1  0.33208536  0.91946123  0.49911056  1
  O2-  O215  1  0.33373054  0.92115053  0.75017551  1
  O2-  O216  1  0.83298746  0.25177078  -0.00021814  1
  O2-  O217  1  0.83380972  0.25378956  0.24983441  1
  O2-  O218  1  0.83278999  0.25120578  0.49928285  1
  O2-  O219  1  0.83308950  0.25052813  0.75073594  1
  O2-  O220  1  0.83251655  0.58660773  0.00015383  1
  O2-  O221  1  0.83155143  0.58612967  0.24990046  1
  O2-  O222  1  0.83285862  0.58717752  0.50018874  1
  O2-  O223  1  0.83235759  0.58574284  0.74955158  1
  O2-  O224  1  0.83306132  0.91865343  -0.00066762  1
  O2-  O225  1  0.83220291  0.91889419  0.25020424  1
  O2-  O226  1  0.83098112  0.91848729  0.49882557  1
  O2-  O227  1  0.83379349  0.92074931  0.75031324  1
  O2-  O228  1  0.16818578  0.25227913  -0.00012606  1
  O2-  O229  1  0.16606594  0.25369892  0.25028501  1
  O2-  O230  1  0.16725179  0.25280026  0.50004238  1
  O2-  O231  1  0.16732518  0.25299569  0.74986407  1
  O2-  O232  1  0.16759762  0.58526301  -0.00092439  1
  O2-  O233  1  0.16769465  0.58507720  0.24968889  1
  O2-  O234  1  0.16743143  0.58564308  0.50018718  1
  O2-  O235  1  0.16643773  0.58577477  0.74959751  1
  O2-  O236  1  0.16853840  0.91925588  0.00001308  1
  O2-  O237  1  0.16657510  0.91950309  0.25007720  1
  O2-  O238  1  0.16794423  0.91894044  0.49934388  1
  O2-  O239  1  0.16631573  0.92139966  0.75006425  1
  O2-  O240  1  0.66752143  0.25078636  -0.00026016  1
  O2-  O241  1  0.66625945  0.25345535  0.25059767  1
  O2-  O242  1  0.66700733  0.25160382  0.50027748  1
  O2-  O243  1  0.66685794  0.25080233  0.74946458  1
  O2-  O244  1  0.66859835  0.58683551  -0.00018169  1
  O2-  O245  1  0.66838289  0.58552304  0.25057575  1
  O2-  O246  1  0.66763299  0.58732634  0.49995875  1
  O2-  O247  1  0.66733190  0.58620552  0.74984985  1
  O2-  O248  1  0.66722091  0.91889025  -0.00132165  1
  O2-  O249  1  0.66794203  0.91869272  0.25105631  1
  O2-  O250  1  0.66892004  0.91862774  0.49865714  1
  O2-  O251  1  0.66610906  0.92056571  0.75036553  1
  O2-  O252  1  0.33228854  0.08072472  -0.00023257  1
  O2-  O253  1  0.33424948  0.07907306  0.25029841  1
  O2-  O254  1  0.33303006  0.07965196  0.49920017  1
  O2-  O255  1  0.33328921  0.07962371  0.74990559  1
  O2-  O256  1  0.33163640  0.41371455  -0.00025440  1
  O2-  O257  1  0.33229096  0.41395352  0.24990135  1
  O2-  O258  1  0.33234887  0.41384219  0.50020464  1
  O2-  O259  1  0.33324993  0.41351208  0.74958250  1
  O2-  O260  1  0.33199912  0.74783804  -0.00010082  1
  O2-  O261  1  0.33303535  0.74635884  0.24972876  1
  O2-  O262  1  0.33229160  0.74803852  0.49989150  1
  O2-  O263  1  0.33368283  0.74536467  0.74970813  1
  O2-  O264  1  0.83193729  0.08102062  -0.00038423  1
  O2-  O265  1  0.83298455  0.08011235  0.25048943  1
  O2-  O266  1  0.83314099  0.08207807  0.49852829  1
  O2-  O267  1  0.83232840  0.08058130  0.75025029  1
  O2-  O268  1  0.83309777  0.41408807  -0.00059089  1
  O2-  O269  1  0.83339186  0.41537472  0.24998433  1
  O2-  O270  1  0.83348293  0.41424020  0.49971663  1
  O2-  O271  1  0.83242134  0.41590440  0.75053050  1
  O2-  O272  1  0.83312539  0.74713447  0.00045408  1
  O2-  O273  1  0.83188758  0.74760858  0.24979782  1
  O2-  O274  1  0.83221057  0.74802229  0.50035601  1
  O2-  O275  1  0.83425352  0.74558341  0.74923422  1
  O2-  O276  1  0.45442561  0.09792803  0.23582266  1
  O2-  O277  1  0.95355506  0.76562789  1.00170210  1
  O2-  O278  1  0.96120764  0.55266053  0.75686256  1
  O2-  O279  1  0.45202608  0.76470045  0.76882592  1
  O2-  O280  1  0.96078598  0.43772894  0.50436029  1
  O2-  O281  1  0.04714059  0.90135451  0.51571988  1
  O2-  O282  1  0.54328135  0.77050859  0.97368948  1
  O2-  O283  1  0.95407009  0.09740538  0.01642780  1
  O2-  O284  1  0.45334301  0.76788673  0.72977228  1
  O2-  O285  1  0.45533270  0.56979152  0.50053708  1
  O2-  O286  1  0.55358716  0.42002399  0.03172404  1
  O2-  O287  1  0.54279310  0.89710864  0.97285274  1
  O2-  O288  1  0.95231770  0.57088390  0.51921997  1
  O2-  O289  1  0.45396820  0.42838221  0.48619182  1
  O2-  O290  1  0.54650155  0.76281817  0.23619611  1
  O2-  O291  1  0.04901930  0.57296010  0.76561002  1
  O2-  O292  1  0.04935165  0.56590395  0.48656725  1
  O2-  O293  1  0.04395004  0.76962721  0.97354698  1
  O2-  O294  1  0.96045386  0.43736146  0.48489086  1
  O2-  O295  1  0.04589332  0.23485086  0.26440298  1
  O2-  O296  1  0.45288635  0.43274272  0.01607064  1
  O2-  O297  1  0.45295681  0.90496939  0.01496185  1
  O2-  O298  1  0.45779135  0.43559012  0.27547800  1
  O2-  O299  1  0.45507861  0.90131759  0.48452134  1
  O2-  O300  1  0.53970394  0.10573596  0.97324330  1
  O2-  O301  1  0.54874717  0.56964991  0.26384293  1
  O2-  O302  1  0.95270914  0.76602290  0.00259895  1
  O2-  O303  1  0.02893559  0.45416991  0.73312939  1
  O2-  O304  1  0.45140809  0.57158643  0.23684598  1
  O2-  O305  1  0.04753762  0.09588748  0.98711190  1
  O2-  O306  1  0.45958860  0.22501062  0.02665169  1
  O2-  O307  1  0.55047448  0.24283985  0.77027001  1
  O2-  O308  1  0.04665676  0.23424006  0.01531635  1
  O2-  O309  1  0.45828862  0.56252261  0.26119057  1
  O2-  O310  1  0.95270936  0.57198766  0.48030930  1
  O2-  O311  1  0.54884309  0.43108183  0.23444634  1
  O2-  O312  1  0.45204411  0.76293887  0.98736051  1
  O2-  O313  1  0.04551390  0.90302904  0.98654078  1
  O2-  O314  1  0.54498076  0.09770453  0.48589189  1
  O2-  O315  1  0.54809833  0.76655033  0.73452871  1
  O2-  O316  1  0.95294402  0.23750389  0.98748474  1
  O2-  O317  1  0.04040327  0.10582224  0.27610857  1
  O2-  O318  1  0.95397523  0.56861368  0.01528228  1
  O2-  O319  1  0.04247633  0.10628100  0.72153357  1
  O2-  O320  1  0.95235638  0.10014544  0.73628816  1
  O2-  O321  1  0.45477178  0.56761912  0.50102497  1
  O2-  O322  1  0.45449795  0.90220515  0.26605477  1
  O2-  O323  1  0.95808221  0.89430403  0.47241324  1
  O2-  O324  1  0.43612665  0.06884420  0.78265813  1
  O2-  O325  1  0.56626355  0.39896279  0.95403777  1
  O2-  O326  1  0.07093527  0.06422509  0.79029432  1
  O2-  O327  1  0.92502903  0.60912807  0.78555628  1
  O2-  O328  1  0.93657426  0.73482112  0.28128175  1
  O2-  O329  1  0.43552876  0.26433481  0.78252987  1
  O2-  O330  1  0.56388216  0.06808698  0.71811154  1
  O2-  O331  1  0.56573904  0.59581720  0.52947166  1
  O2-  O332  1  0.55361455  0.42002079  0.03199197  1
  O2-  O333  1  0.57228331  0.73054509  0.04301906  1
  O2-  O334  1  0.56334912  0.26328949  0.21786687  1
  O2-  O335  1  0.06602355  0.40574300  0.29464883  1
  O2-  O336  1  0.06549926  0.40480511  0.02880583  1
  O2-  O337  1  0.93544520  0.26457745  0.20059322  1
  O2-  O338  1  0.92661140  0.39400553  0.53996271  1
  O2-  O339  1  0.07083797  0.39939549  0.80700507  1
  O2-  O340  1  0.56410007  0.26352728  0.03230103  1
  O2-  O341  1  0.93515746  0.26140428  0.72164495  1
  O2-  O342  1  0.93551660  0.06898101  0.28263412  1
  O2-  O343  1  0.56426554  0.93071002  0.53279185  1
  O2-  O344  1  0.06578304  0.40533913  0.20542339  1
  O2-  O345  1  0.07709829  0.38895009  0.69501834  1
  O2-  O346  1  0.42845942  0.39676508  0.20670991  1
  O2-  O347  1  0.43552641  0.26107856  0.22115056  1
  O2-  O348  1  0.56306964  0.74028819  0.22031745  1
  O2-  O349  1  0.57166878  0.06460944  0.04385715  1
  O2-  O350  1  0.06965635  0.05910458  0.20269785  1
  O2-  O351  1  0.56451335  0.40118436  0.69620410  1
  O2-  O352  1  0.06367450  0.73722205  0.21663342  1
  O2-  O353  1  0.93059007  0.93434187  0.53981313  1
  O2-  O354  1  0.56459800  0.59424685  0.96954468  1
  O2-  O355  1  0.42934099  0.27362203  0.95108279  1
  O2-  O356  1  0.55877054  0.25541967  0.77840603  1
  O2-  O357  1  0.06465886  0.59650968  0.03222484  1
  O2-  O358  1  0.93505450  0.26042204  0.52896719  1
  O2-  O359  1  0.56168465  0.40399500  0.21773731  1
  O2-  O360  1  0.93276043  0.40595878  0.72037375  1
  O2-  O361  1  0.06444648  0.07085655  0.47099429  1
  O2-  O362  1  0.93373904  0.26132212  0.29471017  1
  O2-  O363  1  0.56324722  0.26486510  0.46716142  1
  O2-  O364  1  0.06528096  0.59425115  0.27837803  1
  O2-  O365  1  0.57130709  0.93527165  0.04344769  1
  O2-  O366  1  0.93555377  0.07220252  0.52767667  1
  O2-  O367  1  0.43662155  0.40728200  0.02805227  1
  O2-  O368  1  0.93605922  0.93234341  0.03354134  1
  O2-  O369  1  0.56424220  0.40323098  0.80498882  1
  O2-  O370  1  0.43147877  0.60162016  0.28093996  1
  O2-  O371  1  0.06817062  0.73079285  0.04273028  1
  O2-  O372  1  0.74992097  -0.00536835  0.16702779  1
  O2-  O373  1  0.75003590  0.67634159  0.57638935  1
  O2-  O374  1  0.75018235  0.33306721  0.33110228  1
  O2-  O375  1  0.75000816  0.33333436  0.41887436  1
  O2-  O376  1  0.74986480  0.65941849  0.85450613  1
  O2-  O377  1  0.25001383  0.34302903  0.33779064  1
  O2-  O378  1  0.74994302  0.66994585  0.40340607  1
  O2-  O379  1  0.25021237  -0.00636833  0.35237888  1
  O2-  O380  1  0.75011274  0.33320393  0.16842430  1
  O2-  O381  1  0.25005566  -0.00505318  0.14957529  1
  O2-  O382  1  0.74999357  -0.00009523  0.07421964  1
  O2-  O383  1  0.24994935  0.66660819  0.59240178  1
  O2-  O384  1  0.25000006  0.33118513  0.42736396  1
  O2-  O385  1  0.74993757  -0.00197561  0.59776241  1
  O2-  O386  1  0.74969722  0.33585642  0.65776597  1
  O2-  O387  1  0.74992225  0.65604065  0.66151549  1
  O2-  O388  1  0.75005196  0.33610334  0.84186901  1
  O2-  O389  1  0.75015682  0.33335861  0.08163488  1
  O2-  O390  1  0.25021526  0.66119975  0.33327011  1
  O2-  O391  1  0.24996512  -0.00143051  0.59603855  1
  O2-  O392  1  0.25019293  0.66615698  0.09317159  1
  O2-  O393  1  0.25003624  0.66899631  0.92329255  1
  O2-  O394  1  0.25013746  0.66914751  0.42450814  1
  O2-  O395  1  0.25006008  0.65934363  0.83365367  1
  O2-  O396  1  0.74997058  0.50198304  0.12862917  1
  O2-  O397  1  0.25007787  0.83354319  0.87349205  1
  O2-  O398  1  0.74994751  0.50029813  0.89499407  1
  O2-  O399  1  0.24998710  0.49950064  0.09082036  1
  O2-  O400  1  0.75005475  0.50847462  0.60083591  1
  O2-  O401  1  0.75001477  0.16042453  0.12695998  1
  O2-  O402  1  0.24995385  0.50004792  0.66797994  1
  O2-  O403  1  0.75000820  0.50819670  0.37640399  1
  O2-  O404  1  0.74993975  0.83430304  0.09318251  1
  O2-  O405  1  0.25008472  0.49927321  0.58351433  1
  O2-  O406  1  0.75010292  0.16047788  0.35330991  1
  O2-  O407  1  0.24999904  0.16949776  0.86367853  1
  O2-  O408  1  0.74997064  0.16570124  0.59289226  1
  O2-  O409  1  0.75001351  0.49779079  0.81787082  1
  O2-  O410  1  0.25011216  0.49925565  0.84688448  1
  O2-  O411  1  0.24998366  0.16601172  0.35632046  1
  O2-  O412  1  0.25006186  0.83114341  0.62835488  1
  O2-  O413  1  0.25002683  0.16929735  0.60725765  1
  O2-  O414  1  0.74991735  0.49812226  0.68110003  1
  O2-  O415  1  0.24996712  0.16660728  0.08795244  1
  O2-  O416  1  0.74994470  0.83364265  0.90546587  1
  O2-  O417  1  0.75002851  0.16231463  0.83851164  1
  O2-  O418  1  0.74997855  0.16666903  0.43375852  1
  O2-  O419  1  0.25003299  0.50032802  0.34157156  1
  O2-  O420  1  0.46532552  0.66731394  0.12241176  1
  O2-  O421  1  0.53334314  0.66797713  0.87143796  1
  O2-  O422  1  0.53048053  0.65993356  0.12477401  1
  O2-  O423  1  0.96846362  -0.00029129  0.87392004  1
  O2-  O424  1  0.52475981  0.00062307  0.13190268  1
  O2-  O425  1  0.47576683  0.33032989  0.12347959  1
  O2-  O426  1  0.46524441  0.66645463  0.62435906  1
  O2-  O427  1  0.97574126  -0.00201814  0.63107219  1
  O2-  O428  1  0.97437625  0.66803626  0.87624095  1
  O2-  O429  1  0.02915992  -0.00248970  0.87637902  1
  O2-  O430  1  0.97402967  0.33249389  0.62589430  1
  O2-  O431  1  0.47321414  0.67056880  0.37806286  1
  O2-  O432  1  0.96722615  0.33409727  0.87439860  1
  O2-  O433  1  0.53312106  0.66841777  0.62756048  1
  O2-  O434  1  0.46503571  0.66455112  0.87503883  1
  O2-  O435  1  0.02960174  0.33076464  0.38151185  1
  O2-  O436  1  0.02913730  0.32943274  0.61923715  1
  O2-  O437  1  0.97271284  0.66889955  0.62648810  1
  O2-  O438  1  0.47141254  0.33369736  0.62489600  1
  O2-  O439  1  0.02412765  0.32785172  0.12412596  1
  O2-  O440  1  0.97115963  0.33469935  0.37817239  1
  O2-  O441  1  0.02654253  -0.00257188  0.37294531  1
  O2-  O442  1  0.03022114  0.32897889  0.87946872  1
  O2-  O443  1  0.02623092  0.67075448  0.37844356  1
