# generated using pymatgen
data_La7(Ru4O11)2
_symmetry_space_group_name_H-M   'P 1'
_cell_length_a   23.99016401
_cell_length_b   16.83040065
_cell_length_c   15.42650748
_cell_angle_alpha   90.00084959
_cell_angle_beta   89.99985352
_cell_angle_gamma   90.00067164
_symmetry_Int_Tables_number   1
_chemical_formula_structural   La7(Ru4O11)2
_chemical_formula_sum   'La84 Ru96 O264'
_cell_volume   6228.66947546
_cell_formula_units_Z   12
loop_
 _symmetry_equiv_pos_site_id
 _symmetry_equiv_pos_as_xyz
  1  'x, y, z'
loop_
 _atom_type_symbol
 _atom_type_oxidation_number
  La3+  3.0
  Ru4+  4.0
  O2-  -2.0
loop_
 _atom_site_type_symbol
 _atom_site_label
 _atom_site_symmetry_multiplicity
 _atom_site_fract_x
 _atom_site_fract_y
 _atom_site_fract_z
 _atom_site_occupancy
  La3+  La0  1  0.14186593  0.00193942  0.12142050  1
  La3+  La1  1  0.13890754  0.00042592  0.37708557  1
  La3+  La2  1  0.14327488  -0.00056419  0.62381339  1
  La3+  La3  1  0.14035498  -0.00160544  0.87343987  1
  La3+  La4  1  0.14063885  0.33420471  0.12671304  1
  La3+  La5  1  0.14121081  0.33300400  0.37598674  1
  La3+  La6  1  0.14035650  0.33358801  0.62403949  1
  La3+  La7  1  0.13938645  0.33316550  0.87462171  1
  La3+  La8  1  0.13720311  0.66536712  0.12458358  1
  La3+  La9  1  0.14180649  0.66390505  0.37475026  1
  La3+  La10  1  0.13673269  0.66709331  0.62402366  1
  La3+  La11  1  0.13865611  0.66644742  0.87334460  1
  La3+  La12  1  0.63767424  -0.00043420  0.12518751  1
  La3+  La13  1  0.63766710  0.00102249  0.37496494  1
  La3+  La14  1  0.64019083  0.00194418  0.62825558  1
  La3+  La15  1  0.63895238  0.00069753  0.87258150  1
  La3+  La16  1  0.64021694  0.33346682  0.12679003  1
  La3+  La17  1  0.63808734  0.32982240  0.37260292  1
  La3+  La18  1  0.63787048  0.33136110  0.62389752  1
  La3+  La19  1  0.63705461  0.33249204  0.87607356  1
  La3+  La20  1  0.63865125  0.66550068  0.12533564  1
  La3+  La21  1  0.63657632  0.66792554  0.37421686  1
  La3+  La22  1  0.63610878  0.66858221  0.62590155  1
  La3+  La23  1  0.63754507  0.66758842  0.87642992  1
  La3+  La24  1  0.35885159  -0.00031029  0.12380567  1
  La3+  La25  1  0.35987720  0.00122077  0.37623390  1
  La3+  La26  1  0.35844987  -0.00154781  0.62192620  1
  La3+  La27  1  0.36027772  -0.00074128  0.87540786  1
  La3+  La28  1  0.36092262  0.33367177  0.12692001  1
  La3+  La29  1  0.36446056  0.33877719  0.37752435  1
  La3+  La30  1  0.36380910  0.33818443  0.61821561  1
  La3+  La31  1  0.35838115  0.33473591  0.87441284  1
  La3+  La32  1  0.36372169  0.66681288  0.12745540  1
  La3+  La33  1  0.36122783  0.66707470  0.37477202  1
  La3+  La34  1  0.36066506  0.66498259  0.62362446  1
  La3+  La35  1  0.36005534  0.66608625  0.87513802  1
  La3+  La36  1  0.86267853  0.00101380  0.12551018  1
  La3+  La37  1  0.86272373  0.00104376  0.37335181  1
  La3+  La38  1  0.86023026  0.00123401  0.62822177  1
  La3+  La39  1  0.86052471  -0.00042240  0.87472685  1
  La3+  La40  1  0.86400683  0.33818163  0.12088081  1
  La3+  La41  1  0.86256612  0.33030615  0.37362811  1
  La3+  La42  1  0.85989016  0.33312197  0.62452998  1
  La3+  La43  1  0.86624275  0.33646149  0.87949492  1
  La3+  La44  1  0.86215737  0.66541837  0.12515612  1
  La3+  La45  1  0.86408057  0.66572571  0.37554917  1
  La3+  La46  1  0.86392624  0.66746069  0.62524303  1
  La3+  La47  1  0.86173910  0.66793634  0.87656733  1
  La3+  La48  1  0.50021567  0.83323774  0.11468643  1
  La3+  La49  1  0.50075390  0.49988615  0.88787713  1
  La3+  La50  1  0.49907542  0.50018960  0.11917520  1
  La3+  La51  1  -0.00064796  0.83548363  0.62147798  1
  La3+  La52  1  0.49779890  0.49531518  0.36634492  1
  La3+  La53  1  -0.00009268  0.49436009  0.87002588  1
  La3+  La54  1  -0.00085723  0.50464884  0.88911147  1
  La3+  La55  1  0.49903449  0.16972589  0.61822092  1
  La3+  La56  1  0.49665096  0.50056504  0.86689105  1
  La3+  La57  1  0.50023463  0.50333347  0.38712202  1
  La3+  La58  1  0.00246419  0.16042521  0.38024588  1
  La3+  La59  1  -0.00074540  0.16469812  0.11463360  1
  La3+  La60  1  0.49868427  0.49976257  0.61579540  1
  La3+  La61  1  0.50299355  0.83311099  0.62162422  1
  La3+  La62  1  0.49623913  0.16215240  0.37500505  1
  La3+  La63  1  0.00004325  0.49961299  0.63121119  1
  La3+  La64  1  -0.00173429  0.16834114  0.61674945  1
  La3+  La65  1  0.50013562  0.83326280  0.13563393  1
  La3+  La66  1  0.50168764  0.16226746  0.11755455  1
  La3+  La67  1  0.00446930  0.50184241  0.38500628  1
  La3+  La68  1  -0.00120426  0.82607989  0.37876247  1
  La3+  La69  1  -0.00060371  0.83687614  0.63846397  1
  La3+  La70  1  -0.00144837  0.50518001  0.36458463  1
  La3+  La71  1  0.00065015  0.16691366  0.35901017  1
  La3+  La72  1  0.74982017  0.48422408  0.49978434  1
  La3+  La73  1  0.74984655  0.84849866  0.48628999  1
  La3+  La74  1  0.75004164  0.87297740  0.00536200  1
  La3+  La75  1  0.74982358  0.50100191  -0.01961364  1
  La3+  La76  1  0.24989403  0.86561767  -0.03869241  1
  La3+  La77  1  0.75034613  0.17183193  0.02839352  1
  La3+  La78  1  0.75015286  0.51001902  0.74506303  1
  La3+  La79  1  0.25030911  0.12824808  0.03339728  1
  La3+  La80  1  0.25017711  0.50072634  0.25183338  1
  La3+  La81  1  0.74999203  0.83841379  0.75977470  1
  La3+  La82  1  0.75013364  0.50058304  0.24949041  1
  La3+  La83  1  0.24951037  0.54769507  0.73891491  1
  Ru4+  Ru84  1  -0.00271011  -0.00731890  -0.00841762  1
  Ru4+  Ru85  1  0.00101922  0.00214904  0.25189641  1
  Ru4+  Ru86  1  -0.00135726  -0.00002057  0.49977572  1
  Ru4+  Ru87  1  0.00025517  -0.00134731  0.75587361  1
  Ru4+  Ru88  1  -0.00087250  0.33353008  0.00314839  1
  Ru4+  Ru89  1  -0.00196408  0.33086515  0.24347989  1
  Ru4+  Ru90  1  0.00489808  0.33496513  0.49735567  1
  Ru4+  Ru91  1  0.00251061  0.33255171  0.75296121  1
  Ru4+  Ru92  1  -0.00081302  0.66724790  0.00203399  1
  Ru4+  Ru93  1  -0.00086753  0.66886513  0.24579567  1
  Ru4+  Ru94  1  0.00358089  0.67033574  0.50036755  1
  Ru4+  Ru95  1  -0.00186102  0.66265713  0.75128884  1
  Ru4+  Ru96  1  0.49992913  -0.00039106  -0.00041610  1
  Ru4+  Ru97  1  0.49988047  -0.00013542  0.24758460  1
  Ru4+  Ru98  1  0.49576736  -0.00361724  0.50648339  1
  Ru4+  Ru99  1  0.50246861  0.00016967  0.74699905  1
  Ru4+  Ru100  1  0.49917059  0.33158582  -0.00188895  1
  Ru4+  Ru101  1  0.50303113  0.32788555  0.25148022  1
  Ru4+  Ru102  1  0.49899349  0.33457362  0.50289461  1
  Ru4+  Ru103  1  0.49821866  0.33585548  0.74883245  1
  Ru4+  Ru104  1  0.50066552  0.66769127  -0.00192210  1
  Ru4+  Ru105  1  0.50344760  0.66370988  0.24794030  1
  Ru4+  Ru106  1  0.50301717  0.66377265  0.49896239  1
  Ru4+  Ru107  1  0.49987678  0.66941490  0.75002215  1
  Ru4+  Ru108  1  0.11129030  0.16571820  -0.00134239  1
  Ru4+  Ru109  1  0.11351220  0.16880318  0.24943029  1
  Ru4+  Ru110  1  0.11376309  0.16420949  0.50051965  1
  Ru4+  Ru111  1  0.11403403  0.16861885  0.74960975  1
  Ru4+  Ru112  1  0.11495322  0.50056990  0.00061695  1
  Ru4+  Ru113  1  0.11371767  0.50152862  0.24939957  1
  Ru4+  Ru114  1  0.11617621  0.50031073  0.50200911  1
  Ru4+  Ru115  1  0.11121849  0.50017537  0.74874177  1
  Ru4+  Ru116  1  0.10953837  0.83715401  -0.00101221  1
  Ru4+  Ru117  1  0.11682935  0.82719493  0.24935359  1
  Ru4+  Ru118  1  0.11421134  0.83518333  0.49886020  1
  Ru4+  Ru119  1  0.11546588  0.83867804  0.75162906  1
  Ru4+  Ru120  1  0.61002319  0.16550628  -0.00114099  1
  Ru4+  Ru121  1  0.61358918  0.16927935  0.25096457  1
  Ru4+  Ru122  1  0.61654287  0.17144980  0.50068749  1
  Ru4+  Ru123  1  0.61384071  0.16250190  0.75168147  1
  Ru4+  Ru124  1  0.61154585  0.49978101  -0.00002816  1
  Ru4+  Ru125  1  0.61333725  0.50030958  0.24869266  1
  Ru4+  Ru126  1  0.61187062  0.50125343  0.50071725  1
  Ru4+  Ru127  1  0.61186396  0.50009031  0.74940689  1
  Ru4+  Ru128  1  0.61047776  0.83397812  0.00094870  1
  Ru4+  Ru129  1  0.61173115  0.83325621  0.24940901  1
  Ru4+  Ru130  1  0.60936939  0.83195645  0.49894934  1
  Ru4+  Ru131  1  0.61095441  0.83448499  0.75076753  1
  Ru4+  Ru132  1  0.38799795  0.16597198  -0.00077803  1
  Ru4+  Ru133  1  0.38640522  0.16696790  0.25061849  1
  Ru4+  Ru134  1  0.38655681  0.16529728  0.49981652  1
  Ru4+  Ru135  1  0.38574015  0.16899716  0.75018335  1
  Ru4+  Ru136  1  0.38591778  0.49946937  0.00018981  1
  Ru4+  Ru137  1  0.38465014  0.50225627  0.24953309  1
  Ru4+  Ru138  1  0.38672487  0.49728312  0.50093769  1
  Ru4+  Ru139  1  0.38874398  0.49822607  0.74790958  1
  Ru4+  Ru140  1  0.38906373  0.83582763  -0.00203628  1
  Ru4+  Ru141  1  0.38411453  0.83767667  0.25043799  1
  Ru4+  Ru142  1  0.38518909  0.83717099  0.49991280  1
  Ru4+  Ru143  1  0.38606503  0.83480868  0.74965477  1
  Ru4+  Ru144  1  0.89017735  0.16564318  -0.00072721  1
  Ru4+  Ru145  1  0.88376286  0.17216222  0.24977444  1
  Ru4+  Ru146  1  0.88466879  0.16675081  0.50188208  1
  Ru4+  Ru147  1  0.88540027  0.16505494  0.75109388  1
  Ru4+  Ru148  1  0.88911003  0.49943966  -0.00010279  1
  Ru4+  Ru149  1  0.88791959  0.49993198  0.24723064  1
  Ru4+  Ru150  1  0.88533348  0.49684247  0.50163308  1
  Ru4+  Ru151  1  0.88851395  0.49810186  0.75128587  1
  Ru4+  Ru152  1  0.89339475  0.83410395  -0.00003813  1
  Ru4+  Ru153  1  0.88657455  0.83192866  0.24927017  1
  Ru4+  Ru154  1  0.88949614  0.83377513  0.49991818  1
  Ru4+  Ru155  1  0.88762313  0.83526902  0.75003250  1
  Ru4+  Ru156  1  0.74991678  0.04119504  0.01330081  1
  Ru4+  Ru157  1  0.74998156  0.63949971  0.76559447  1
  Ru4+  Ru158  1  0.74993601  0.35999145  0.46941175  1
  Ru4+  Ru159  1  0.74994009  0.10064539  0.50039041  1
  Ru4+  Ru160  1  0.75009566  0.97314604  0.52153258  1
  Ru4+  Ru161  1  0.24984510  0.72652500  0.00286200  1
  Ru4+  Ru162  1  0.74995898  0.23342892  0.75239847  1
  Ru4+  Ru163  1  0.25002505  0.92229695  0.25187963  1
  Ru4+  Ru164  1  0.25006596  0.40106514  0.74105738  1
  Ru4+  Ru165  1  0.24979023  0.08399371  0.24637474  1
  Ru4+  Ru166  1  0.74992590  0.73011517  0.52462971  1
  Ru4+  Ru167  1  0.74972138  0.91156994  0.24763688  1
  Ru4+  Ru168  1  0.25014562  0.26582157  0.00263085  1
  Ru4+  Ru169  1  0.25044295  0.74798600  0.25823305  1
  Ru4+  Ru170  1  0.74962373  0.75770455  0.24339197  1
  Ru4+  Ru171  1  0.75009858  0.60558842  0.51777792  1
  Ru4+  Ru172  1  0.24994687  0.25086003  0.49437521  1
  Ru4+  Ru173  1  0.25001328  0.75145107  0.75190814  1
  Ru4+  Ru174  1  0.74974111  0.29747693  -0.01387536  1
  Ru4+  Ru175  1  0.75026769  0.08894774  0.25017463  1
  Ru4+  Ru176  1  0.24979209  0.08213240  0.74379782  1
  Ru4+  Ru177  1  0.24971038  0.75681935  0.49283559  1
  Ru4+  Ru178  1  0.74999549  0.38389781  0.76261383  1
  Ru4+  Ru179  1  0.74982429  0.72756962  0.00446876  1
  O2-  O180  1  0.16615834  0.08105459  -0.00016449  1
  O2-  O181  1  0.16839300  0.07888303  0.25087365  1
  O2-  O182  1  0.16528227  0.08195509  0.49915504  1
  O2-  O183  1  0.16704066  0.08088989  0.74879819  1
  O2-  O184  1  0.16552544  0.41444745  -0.00014826  1
  O2-  O185  1  0.16870231  0.41328632  0.24781274  1
  O2-  O186  1  0.16684055  0.41573030  0.50102326  1
  O2-  O187  1  0.16757373  0.41261816  0.75088506  1
  O2-  O188  1  0.16831744  0.74628335  0.00046690  1
  O2-  O189  1  0.16752209  0.74748598  0.24915278  1
  O2-  O190  1  0.16908201  0.74674560  0.50218946  1
  O2-  O191  1  0.16803976  0.74838455  0.74878623  1
  O2-  O192  1  0.66708125  0.07912461  0.00118872  1
  O2-  O193  1  0.66690791  0.08009995  0.25055902  1
  O2-  O194  1  0.66667121  0.08124124  0.50031504  1
  O2-  O195  1  0.66556107  0.08336161  0.74963714  1
  O2-  O196  1  0.66656723  0.41339863  -0.00045912  1
  O2-  O197  1  0.66875481  0.41331995  0.25063103  1
  O2-  O198  1  0.66538236  0.41199391  0.49974996  1
  O2-  O199  1  0.66556551  0.41205210  0.75007140  1
  O2-  O200  1  0.66702879  0.74518395  0.00082488  1
  O2-  O201  1  0.66751948  0.74689286  0.24833211  1
  O2-  O202  1  0.66661022  0.74550074  0.50082430  1
  O2-  O203  1  0.66629167  0.74652905  0.75019923  1
  O2-  O204  1  0.33262888  0.25342628  0.00121754  1
  O2-  O205  1  0.33468606  0.25178059  0.24973700  1
  O2-  O206  1  0.33280092  0.25341739  0.50134495  1
  O2-  O207  1  0.33275381  0.25084542  0.74889370  1
  O2-  O208  1  0.33421127  0.58699106  -0.00004194  1
  O2-  O209  1  0.33311947  0.58678506  0.24863082  1
  O2-  O210  1  0.33499835  0.58614524  0.50032850  1
  O2-  O211  1  0.33665546  0.58951224  0.75101885  1
  O2-  O212  1  0.33374069  0.91900772  0.00062186  1
  O2-  O213  1  0.33224153  0.91921015  0.25020766  1
  O2-  O214  1  0.33239714  0.91777157  0.50062165  1
  O2-  O215  1  0.33394767  0.91814636  0.75044722  1
  O2-  O216  1  0.83489954  0.25501877  0.00058980  1
  O2-  O217  1  0.83377975  0.25361688  0.25051694  1
  O2-  O218  1  0.83213640  0.25228813  0.49768452  1
  O2-  O219  1  0.83262413  0.25149823  0.75119931  1
  O2-  O220  1  0.83431198  0.58590627  0.00072352  1
  O2-  O221  1  0.83249235  0.58619549  0.24865478  1
  O2-  O222  1  0.83506020  0.58758869  0.50072358  1
  O2-  O223  1  0.83479137  0.58874398  0.74949360  1
  O2-  O224  1  0.83618318  0.92101330  0.00107364  1
  O2-  O225  1  0.83152591  0.91906648  0.25048875  1
  O2-  O226  1  0.83386521  0.92110043  0.49972835  1
  O2-  O227  1  0.83466376  0.91796629  0.75008921  1
  O2-  O228  1  0.16553002  0.25277584  0.00039207  1
  O2-  O229  1  0.16555810  0.25201438  0.24937699  1
  O2-  O230  1  0.16908965  0.25246361  0.50177878  1
  O2-  O231  1  0.16534888  0.25124307  0.75030685  1
  O2-  O232  1  0.16597793  0.58596037  0.00049894  1
  O2-  O233  1  0.16758203  0.58549754  0.24734624  1
  O2-  O234  1  0.16768920  0.58525674  0.50059011  1
  O2-  O235  1  0.16261646  0.58886640  0.74991937  1
  O2-  O236  1  0.16517495  0.91863461  0.00020959  1
  O2-  O237  1  0.16960844  0.92020899  0.25133196  1
  O2-  O238  1  0.16490345  0.91766083  0.49899382  1
  O2-  O239  1  0.16771229  0.91732720  0.74932664  1
  O2-  O240  1  0.66560661  0.25468983  0.00041031  1
  O2-  O241  1  0.66731023  0.25210678  0.25006870  1
  O2-  O242  1  0.66784870  0.25169195  0.49818326  1
  O2-  O243  1  0.66753655  0.25249842  0.75053002  1
  O2-  O244  1  0.66840923  0.58733472  0.00102364  1
  O2-  O245  1  0.66771383  0.58585955  0.24882241  1
  O2-  O246  1  0.66581659  0.58775808  0.50028970  1
  O2-  O247  1  0.66586834  0.58794751  0.74995077  1
  O2-  O248  1  0.66339324  0.92234907  0.00097956  1
  O2-  O249  1  0.66768247  0.92028511  0.25012816  1
  O2-  O250  1  0.66457021  0.92113432  0.50028339  1
  O2-  O251  1  0.66502288  0.91851670  0.74949845  1
  O2-  O252  1  0.33664552  0.08054533  -0.00151550  1
  O2-  O253  1  0.33191527  0.08084163  0.24892101  1
  O2-  O254  1  0.33448530  0.08293476  0.49962295  1
  O2-  O255  1  0.33408957  0.08145887  0.74936795  1
  O2-  O256  1  0.33490573  0.41500015  0.00084103  1
  O2-  O257  1  0.33207840  0.41403758  0.24999263  1
  O2-  O258  1  0.33187031  0.41481683  0.50059600  1
  O2-  O259  1  0.33347539  0.41381357  0.74921987  1
  O2-  O260  1  0.33291770  0.74577446  0.00016970  1
  O2-  O261  1  0.33200914  0.74727593  0.24963254  1
  O2-  O262  1  0.33107703  0.74811901  0.50015947  1
  O2-  O263  1  0.33174246  0.74753058  0.74977059  1
  O2-  O264  1  0.83209794  0.07892331  0.00131485  1
  O2-  O265  1  0.83183029  0.08019540  0.25116881  1
  O2-  O266  1  0.83227531  0.08101031  0.50044413  1
  O2-  O267  1  0.83359885  0.08413370  0.74960043  1
  O2-  O268  1  0.83068106  0.41279195  -0.00058831  1
  O2-  O269  1  0.83120738  0.41337647  0.25018550  1
  O2-  O270  1  0.83413591  0.41203769  0.49959331  1
  O2-  O271  1  0.83340073  0.41212041  0.75058570  1
  O2-  O272  1  0.83327035  0.74633631  0.00069414  1
  O2-  O273  1  0.83340162  0.74802459  0.24879163  1
  O2-  O274  1  0.83437347  0.74552963  0.50027776  1
  O2-  O275  1  0.83308686  0.74507450  0.75047357  1
  O2-  O276  1  0.55063227  0.43131324  0.51375174  1
  O2-  O277  1  0.54987772  0.23443752  0.01481703  1
  O2-  O278  1  0.04043728  0.44293110  0.21335515  1
  O2-  O279  1  0.44771777  0.24321933  0.04293575  1
  O2-  O280  1  0.95218770  0.42980957  0.49127855  1
  O2-  O281  1  0.96713835  0.10950867  0.75499446  1
  O2-  O282  1  0.04898518  0.43034959  0.98662435  1
  O2-  O283  1  0.95426730  0.43743658  0.98783169  1
  O2-  O284  1  0.45156434  0.56720197  0.23384468  1
  O2-  O285  1  0.95440383  0.57005737  0.76146694  1
  O2-  O286  1  0.95128732  0.90305018  0.01519298  1
  O2-  O287  1  0.95263854  0.76407282  0.73600627  1
  O2-  O288  1  0.44939046  0.42758404  0.26325421  1
  O2-  O289  1  0.54636247  0.42876093  0.76144526  1
  O2-  O290  1  0.04296007  0.89170242  0.24516187  1
  O2-  O291  1  0.45484220  0.76484048  0.98478008  1
  O2-  O292  1  0.45895029  0.77069030  0.48938829  1
  O2-  O293  1  0.95985945  0.23329126  0.78030409  1
  O2-  O294  1  0.04387356  0.89245678  0.26188855  1
  O2-  O295  1  0.95210890  0.42511121  0.01269480  1
  O2-  O296  1  0.95227013  0.57120896  0.48601612  1
  O2-  O297  1  0.95428908  0.09731026  0.23474748  1
  O2-  O298  1  0.95006054  0.42889424  0.26056987  1
  O2-  O299  1  0.95080438  0.76070699  0.98322587  1
  O2-  O300  1  0.54680956  0.09435051  0.48117568  1
  O2-  O301  1  0.54665019  0.42820196  0.23194281  1
  O2-  O302  1  0.03341900  0.11999083  0.99480383  1
  O2-  O303  1  0.45894138  0.77061450  0.48914155  1
  O2-  O304  1  0.45212574  0.76399780  0.23557726  1
  O2-  O305  1  0.54465424  0.90128336  0.76428786  1
  O2-  O306  1  0.54816947  0.57088973  0.23280740  1
  O2-  O307  1  0.44839587  0.42520167  0.51193064  1
  O2-  O308  1  0.95038283  0.23582250  0.46088154  1
  O2-  O309  1  0.04921213  0.90318661  0.98464099  1
  O2-  O310  1  0.45252091  0.90780904  0.54115333  1
  O2-  O311  1  0.45452060  0.23518447  0.26359142  1
  O2-  O312  1  0.54835292  0.56989699  0.76169915  1
  O2-  O313  1  0.54690258  0.09561789  0.52037989  1
  O2-  O314  1  0.95179554  0.89620712  0.27777974  1
  O2-  O315  1  0.95453345  0.57062639  0.23289658  1
  O2-  O316  1  0.54640486  0.10026888  0.23901685  1
  O2-  O317  1  0.45274933  0.56702040  0.73708215  1
  O2-  O318  1  0.53650752  0.22892146  0.46704319  1
  O2-  O319  1  0.04328504  0.77156109  0.02794668  1
  O2-  O320  1  0.04994744  0.76486151  0.73364507  1
  O2-  O321  1  0.45433374  0.43858619  0.48943652  1
  O2-  O322  1  0.95471116  0.76012331  0.26370744  1
  O2-  O323  1  0.04857257  0.75989734  0.54204524  1
  O2-  O324  1  0.93545347  0.92430061  0.52956287  1
  O2-  O325  1  0.56385106  0.26545720  0.28241525  1
  O2-  O326  1  0.06957830  0.72384657  0.41913103  1
  O2-  O327  1  0.07383127  0.39802097  0.29364673  1
  O2-  O328  1  0.06564843  0.25686312  0.47260258  1
  O2-  O329  1  0.43012588  0.27375368  0.92572419  1
  O2-  O330  1  0.43280778  0.39694622  0.46542421  1
  O2-  O331  1  0.92445648  0.05663082  0.78230605  1
  O2-  O332  1  0.06561184  0.07727889  0.22065078  1
  O2-  O333  1  0.43734084  0.93294699  0.96851388  1
  O2-  O334  1  0.56245576  0.06904328  0.78088148  1
  O2-  O335  1  0.06617494  0.40786777  0.47295336  1
  O2-  O336  1  0.42481712  0.93334985  0.43059001  1
  O2-  O337  1  0.92384947  0.26512170  0.57230145  1
  O2-  O338  1  0.07884628  0.94110643  0.20639443  1
  O2-  O339  1  0.07079622  0.73277862  0.96158293  1
  O2-  O340  1  0.56651599  0.25832613  0.79560864  1
  O2-  O341  1  0.93335370  0.07409609  0.97329822  1
  O2-  O342  1  0.56521163  0.59254803  0.47254715  1
  O2-  O343  1  0.92698397  0.93425327  0.20814209  1
  O2-  O344  1  0.93822896  0.59441865  0.46558706  1
  O2-  O345  1  0.93653576  0.73925334  0.46665726  1
  O2-  O346  1  0.56853973  0.74193058  0.47223438  1
  O2-  O347  1  0.44297841  0.91650985  0.54688466  1
  O2-  O348  1  0.05454733  0.75333173  0.54943792  1
  O2-  O349  1  0.06285090  0.93194723  0.77917494  1
  O2-  O350  1  0.06190299  0.73881459  0.71392520  1
  O2-  O351  1  0.56448826  0.59403166  0.97387901  1
  O2-  O352  1  0.44455875  0.25122411  0.04960500  1
  O2-  O353  1  0.93189988  0.39725761  0.96465134  1
  O2-  O354  1  0.06416078  0.59812105  0.28288248  1
  O2-  O355  1  0.94381698  0.24326033  0.45365366  1
  O2-  O356  1  0.43505569  0.74206257  0.21944755  1
  O2-  O357  1  0.56333871  0.06779748  0.96952757  1
  O2-  O358  1  0.93452389  0.07734241  0.22342928  1
  O2-  O359  1  0.56729243  0.25682325  0.70286505  1
  O2-  O360  1  0.43720829  0.40203236  0.28323780  1
  O2-  O361  1  0.43634748  0.26338302  0.80617154  1
  O2-  O362  1  0.43342983  0.07295122  0.27706019  1
  O2-  O363  1  0.43667543  0.26264467  0.69019209  1
  O2-  O364  1  0.57441645  0.27263519  0.54858760  1
  O2-  O365  1  0.07469597  0.05043568  0.95712004  1
  O2-  O366  1  0.06410298  0.40677842  0.72304617  1
  O2-  O367  1  0.42213421  0.72466325  0.53887284  1
  O2-  O368  1  0.92897050  0.26569035  0.71077306  1
  O2-  O369  1  0.93541902  0.07539506  0.52963565  1
  O2-  O370  1  0.06296629  0.59513185  0.53525506  1
  O2-  O371  1  0.93560975  0.40272470  0.78301838  1
  O2-  O372  1  0.24989727  0.33503961  0.09733002  1
  O2-  O373  1  0.74999605  0.66218823  0.31440699  1
  O2-  O374  1  0.25045955  0.66757191  0.34421592  1
  O2-  O375  1  0.25037742  0.33091019  0.40932019  1
  O2-  O376  1  0.74994334  0.66869920  0.40578831  1
  O2-  O377  1  0.25031355  0.66887033  0.84398416  1
  O2-  O378  1  0.74952497  -0.00126691  0.64549359  1
  O2-  O379  1  0.24982485  0.34493225  0.91851378  1
  O2-  O380  1  0.75015257  0.32170435  0.86068092  1
  O2-  O381  1  0.75013119  0.67085455  0.64782567  1
  O2-  O382  1  0.75010759  -0.00050719  0.15670032  1
  O2-  O383  1  0.75017015  0.66158501  0.90170531  1
  O2-  O384  1  0.24980459  0.32262782  0.83094463  1
  O2-  O385  1  0.74996099  0.31828652  0.57622304  1
  O2-  O386  1  0.25008895  0.00059814  0.10054980  1
  O2-  O387  1  0.74999174  -0.00037319  0.82248844  1
  O2-  O388  1  0.25008632  0.32921919  0.65081357  1
  O2-  O389  1  0.74994081  0.31853540  0.66861864  1
  O2-  O390  1  0.74985692  0.00338423  0.39451952  1
  O2-  O391  1  0.25002765  -0.00244175  0.82818149  1
  O2-  O392  1  0.24988620  0.00438004  0.60336242  1
  O2-  O393  1  0.75009248  0.33479473  0.10012341  1
  O2-  O394  1  0.25005309  0.00232260  0.91988875  1
  O2-  O395  1  0.74998946  -0.01211002  0.91119319  1
  O2-  O396  1  0.24983874  0.82893786  0.41191552  1
  O2-  O397  1  0.25005226  0.49003568  0.62440928  1
  O2-  O398  1  0.24994209  0.17210435  0.90331227  1
  O2-  O399  1  0.24977631  0.49917517  0.36737871  1
  O2-  O400  1  0.25000351  0.16989343  0.81479884  1
  O2-  O401  1  0.75002387  0.83360702  0.34141019  1
  O2-  O402  1  0.74990545  0.16910641  0.66275615  1
  O2-  O403  1  0.74999273  0.82318437  0.13225497  1
  O2-  O404  1  0.24988465  0.16230956  0.41930202  1
  O2-  O405  1  0.25009127  0.48830627  0.85480240  1
  O2-  O406  1  0.24994211  0.82669875  0.09255912  1
  O2-  O407  1  0.74987461  0.16288130  0.40983302  1
  O2-  O408  1  0.75002752  0.83119974  0.62970634  1
  O2-  O409  1  0.24971056  0.50018388  0.05705896  1
  O2-  O410  1  0.74993669  0.50203946  0.11341506  1
  O2-  O411  1  0.24988540  0.50022766  0.44670352  1
  O2-  O412  1  0.25011678  0.50195274  0.93579740  1
  O2-  O413  1  0.75001800  0.82246561  0.88661965  1
  O2-  O414  1  0.24995768  0.83332452  0.18101119  1
  O2-  O415  1  0.74990545  0.16395438  0.16735122  1
  O2-  O416  1  0.74988088  0.17074237  0.88490500  1
  O2-  O417  1  0.24999480  0.16578501  0.16647224  1
  O2-  O418  1  0.25003683  0.17061849  0.33202045  1
  O2-  O419  1  0.25008087  0.49993428  0.13609048  1
  O2-  O420  1  0.96474954  0.33803407  0.36660315  1
  O2-  O421  1  0.53339144  -0.00242940  0.37327709  1
  O2-  O422  1  0.52773922  -0.00285584  0.12471065  1
  O2-  O423  1  0.47502159  0.66315719  0.11896659  1
  O2-  O424  1  0.02871005  0.00349167  0.11527565  1
  O2-  O425  1  0.52588682  0.34052435  0.88127605  1
  O2-  O426  1  0.52125888  0.34246520  0.62794460  1
  O2-  O427  1  0.97114384  0.00285745  0.11743548  1
  O2-  O428  1  0.03262584  0.32865526  0.61937146  1
  O2-  O429  1  0.02715336  0.66525466  0.12503606  1
  O2-  O430  1  0.46372097  0.66047870  0.63204218  1
  O2-  O431  1  0.46091762  0.66458886  0.37698124  1
  O2-  O432  1  0.97736148  -0.00736322  0.87579815  1
  O2-  O433  1  0.47511979  0.00569696  0.37113622  1
  O2-  O434  1  0.02521564  0.66099230  0.87183886  1
  O2-  O435  1  0.47468283  0.00761461  0.63327702  1
  O2-  O436  1  0.52507602  0.67102581  0.87069752  1
  O2-  O437  1  0.54060296  0.66749600  0.62420498  1
  O2-  O438  1  0.04184435  0.00185318  0.38014473  1
  O2-  O439  1  0.95866371  0.00131876  0.37635024  1
  O2-  O440  1  0.02921329  0.32644062  0.37511998  1
  O2-  O441  1  0.53447058  0.66703454  0.36613443  1
  O2-  O442  1  0.97374057  0.34880512  0.62805735  1
  O2-  O443  1  0.97743293  -0.00075858  0.63255385  1
