# generated using pymatgen
data_La7(Ru4O11)2
_symmetry_space_group_name_H-M   'P 1'
_cell_length_a   23.99524765
_cell_length_b   16.83541609
_cell_length_c   15.43063986
_cell_angle_alpha   89.99684660
_cell_angle_beta   90.00088028
_cell_angle_gamma   89.99984475
_symmetry_Int_Tables_number   1
_chemical_formula_structural   La7(Ru4O11)2
_chemical_formula_sum   'La84 Ru96 O264'
_cell_volume   6233.51524014
_cell_formula_units_Z   12
loop_
 _symmetry_equiv_pos_site_id
 _symmetry_equiv_pos_as_xyz
  1  'x, y, z'
loop_
 _atom_type_symbol
 _atom_type_oxidation_number
  La3+  3.0
  Ru4+  4.0
  O2-  -2.0
loop_
 _atom_site_type_symbol
 _atom_site_label
 _atom_site_symmetry_multiplicity
 _atom_site_fract_x
 _atom_site_fract_y
 _atom_site_fract_z
 _atom_site_occupancy
  La3+  La0  1  0.13965092  0.00050814  0.12138291  1
  La3+  La1  1  0.13400054  0.00073019  0.38107200  1
  La3+  La2  1  0.14157247  -0.00447632  0.62058751  1
  La3+  La3  1  0.14076534  0.00030251  0.87938195  1
  La3+  La4  1  0.14544579  0.33295018  0.11823495  1
  La3+  La5  1  0.13155234  0.32908534  0.37714099  1
  La3+  La6  1  0.14383352  0.33737752  0.63008333  1
  La3+  La7  1  0.14809053  0.33559325  0.87713940  1
  La3+  La8  1  0.14523203  0.65641224  0.11367920  1
  La3+  La9  1  0.13163153  0.66325775  0.36966538  1
  La3+  La10  1  0.14515231  0.67405587  0.62086310  1
  La3+  La11  1  0.14210354  0.66863987  0.87121447  1
  La3+  La12  1  0.64843897  -0.00201779  0.12628130  1
  La3+  La13  1  0.64492888  -0.00045010  0.37015363  1
  La3+  La14  1  0.64849191  -0.00088192  0.62338643  1
  La3+  La15  1  0.65150426  -0.00337063  0.87848215  1
  La3+  La16  1  0.64487036  0.32965082  0.12260934  1
  La3+  La17  1  0.63612337  0.33136851  0.37572629  1
  La3+  La18  1  0.64325960  0.33565670  0.62745756  1
  La3+  La19  1  0.64478971  0.33097818  0.87563102  1
  La3+  La20  1  0.63474177  0.67061590  0.13004669  1
  La3+  La21  1  0.64068003  0.67657142  0.37261970  1
  La3+  La22  1  0.64079426  0.66780511  0.62527741  1
  La3+  La23  1  0.64189688  0.66976280  0.87279086  1
  La3+  La24  1  0.35949575  -0.00796044  0.12514853  1
  La3+  La25  1  0.36530500  0.00823689  0.38103961  1
  La3+  La26  1  0.35616104  -0.00889551  0.62499039  1
  La3+  La27  1  0.35694939  0.00105817  0.87858796  1
  La3+  La28  1  0.35919664  0.33354045  0.11698341  1
  La3+  La29  1  0.36827872  0.32974862  0.37488172  1
  La3+  La30  1  0.34890111  0.34586179  0.62381799  1
  La3+  La31  1  0.34398551  0.33522808  0.88039415  1
  La3+  La32  1  0.36331769  0.66562902  0.12335468  1
  La3+  La33  1  0.36866911  0.66964586  0.37471192  1
  La3+  La34  1  0.35743905  0.66980745  0.62672702  1
  La3+  La35  1  0.35758840  0.67143541  0.87362230  1
  La3+  La36  1  0.85148269  0.00117441  0.12735792  1
  La3+  La37  1  0.85438792  -0.00049308  0.36838074  1
  La3+  La38  1  0.85878258  -0.00713343  0.62937208  1
  La3+  La39  1  0.84729699  0.00020190  0.88051957  1
  La3+  La40  1  0.85657653  0.32673281  0.11873440  1
  La3+  La41  1  0.86757043  0.32805869  0.37501037  1
  La3+  La42  1  0.85589478  0.34054999  0.62303712  1
  La3+  La43  1  0.85503748  0.32967425  0.87763037  1
  La3+  La44  1  0.86126583  0.67234307  0.12858567  1
  La3+  La45  1  0.85799736  0.66488008  0.37353947  1
  La3+  La46  1  0.85107458  0.66633836  0.63310901  1
  La3+  La47  1  0.86020148  0.66785137  0.87140308  1
  La3+  La48  1  0.50354168  0.82182239  0.11317861  1
  La3+  La49  1  -0.00170975  0.84472509  0.87576267  1
  La3+  La50  1  0.50196558  0.17293385  0.87361240  1
  La3+  La51  1  -0.00281118  0.83374173  0.13483045  1
  La3+  La52  1  0.00204027  0.50946962  0.37953824  1
  La3+  La53  1  0.51315036  0.17781274  0.38124052  1
  La3+  La54  1  0.01197733  0.15714084  0.87459600  1
  La3+  La55  1  0.50076532  0.16474724  0.60271795  1
  La3+  La56  1  -0.00120161  0.84270577  0.39403781  1
  La3+  La57  1  0.50448936  0.82535722  0.62150572  1
  La3+  La58  1  0.50178721  0.50822993  0.89161502  1
  La3+  La59  1  0.50672817  0.82707596  0.60538983  1
  La3+  La60  1  0.49365383  0.48630635  0.63470385  1
  La3+  La61  1  -0.00442753  0.17405314  0.62190961  1
  La3+  La62  1  0.49610341  0.16106084  0.12821114  1
  La3+  La63  1  0.00487586  0.82499387  0.11831299  1
  La3+  La64  1  0.00939835  0.15988211  0.89637751  1
  La3+  La65  1  -0.00532317  0.51030774  0.11128706  1
  La3+  La66  1  -0.00086059  0.15233884  0.35528195  1
  La3+  La67  1  0.50250344  0.50955225  0.38496879  1
  La3+  La68  1  0.00176173  0.50392814  0.61877386  1
  La3+  La69  1  -0.00122282  0.50469134  0.13201419  1
  La3+  La70  1  0.49423124  0.50018221  0.87424836  1
  La3+  La71  1  0.50143188  0.17186043  0.89019513  1
  La3+  La72  1  0.24974731  0.48943371  -0.06952506  1
  La3+  La73  1  0.24746063  0.43331486  0.51440347  1
  La3+  La74  1  0.25234712  0.50513056  0.18366561  1
  La3+  La75  1  0.24648354  0.20244975  0.74836098  1
  La3+  La76  1  0.74936318  0.48136136  0.23537233  1
  La3+  La77  1  0.75055332  0.12444866  0.75772788  1
  La3+  La78  1  0.24892060  0.14495785  0.21406868  1
  La3+  La79  1  0.24879802  0.87780737  0.28883605  1
  La3+  La80  1  0.74903480  0.45969451  -0.01435431  1
  La3+  La81  1  0.75098710  0.15778615  0.44732247  1
  La3+  La82  1  0.25101481  0.82473962  0.47789295  1
  La3+  La83  1  0.75052463  0.46017279  0.46101423  1
  Ru4+  Ru84  1  -0.00566829  0.00567337  -0.00690312  1
  Ru4+  Ru85  1  -0.00653425  0.00256657  0.25854009  1
  Ru4+  Ru86  1  0.00217237  0.00053763  0.48433613  1
  Ru4+  Ru87  1  -0.00165038  -0.01644133  0.75781615  1
  Ru4+  Ru88  1  -0.00089894  0.33442669  -0.00699205  1
  Ru4+  Ru89  1  -0.00239625  0.32646438  0.25283118  1
  Ru4+  Ru90  1  0.00351968  0.32674913  0.49925279  1
  Ru4+  Ru91  1  -0.00496685  0.32852461  0.74794416  1
  Ru4+  Ru92  1  -0.00051926  0.66635732  -0.00322741  1
  Ru4+  Ru93  1  -0.00684088  0.67267068  0.25979812  1
  Ru4+  Ru94  1  -0.00406455  0.68628807  0.51030856  1
  Ru4+  Ru95  1  0.01046858  0.65020159  0.74700992  1
  Ru4+  Ru96  1  0.50349171  -0.00462373  0.00061443  1
  Ru4+  Ru97  1  0.49195409  -0.00998530  0.24417494  1
  Ru4+  Ru98  1  0.49412648  0.00617518  0.48749185  1
  Ru4+  Ru99  1  0.50035339  -0.01982542  0.75817706  1
  Ru4+  Ru100  1  0.49905872  0.33680711  0.01041216  1
  Ru4+  Ru101  1  0.50177012  0.33811226  0.24908577  1
  Ru4+  Ru102  1  0.50284740  0.33562151  0.51650966  1
  Ru4+  Ru103  1  0.49689845  0.32047873  0.74549744  1
  Ru4+  Ru104  1  0.49959775  0.66614482  -0.00658187  1
  Ru4+  Ru105  1  0.49801682  0.66632700  0.23991226  1
  Ru4+  Ru106  1  0.50292068  0.66435340  0.51205458  1
  Ru4+  Ru107  1  0.49780206  0.67095181  0.75241900  1
  Ru4+  Ru108  1  0.11771224  0.16567139  0.00796990  1
  Ru4+  Ru109  1  0.10727834  0.16895926  0.25313658  1
  Ru4+  Ru110  1  0.10789178  0.17283055  0.50380851  1
  Ru4+  Ru111  1  0.11103927  0.16264002  0.74297736  1
  Ru4+  Ru112  1  0.11393921  0.50297613  -0.00529636  1
  Ru4+  Ru113  1  0.11528487  0.49467699  0.25535351  1
  Ru4+  Ru114  1  0.10881498  0.50013487  0.50177351  1
  Ru4+  Ru115  1  0.10642992  0.50750855  0.75065552  1
  Ru4+  Ru116  1  0.11642112  0.83456722  -0.00105910  1
  Ru4+  Ru117  1  0.10922600  0.82460355  0.24797121  1
  Ru4+  Ru118  1  0.11063184  0.82920258  0.49767713  1
  Ru4+  Ru119  1  0.11064590  0.83094034  0.74905437  1
  Ru4+  Ru120  1  0.61688523  0.16599256  0.00250336  1
  Ru4+  Ru121  1  0.61525954  0.16751832  0.24818456  1
  Ru4+  Ru122  1  0.61029477  0.16561313  0.49899005  1
  Ru4+  Ru123  1  0.61280568  0.16183079  0.74961863  1
  Ru4+  Ru124  1  0.60776515  0.50407173  0.00330059  1
  Ru4+  Ru125  1  0.60577710  0.50329643  0.24780557  1
  Ru4+  Ru126  1  0.60983529  0.50150078  0.49428072  1
  Ru4+  Ru127  1  0.61478871  0.49811364  0.74871244  1
  Ru4+  Ru128  1  0.61364494  0.83677487  0.00009617  1
  Ru4+  Ru129  1  0.60983824  0.83522244  0.25105274  1
  Ru4+  Ru130  1  0.61163023  0.83413299  0.49990979  1
  Ru4+  Ru131  1  0.61628829  0.83952953  0.74935995  1
  Ru4+  Ru132  1  0.38506536  0.16588643  0.00090158  1
  Ru4+  Ru133  1  0.39593930  0.16392232  0.24784184  1
  Ru4+  Ru134  1  0.39001679  0.16106017  0.50442888  1
  Ru4+  Ru135  1  0.38937876  0.17991983  0.74338050  1
  Ru4+  Ru136  1  0.38973761  0.50237025  0.00315176  1
  Ru4+  Ru137  1  0.39267627  0.49842864  0.25274925  1
  Ru4+  Ru138  1  0.38961963  0.50287342  0.49828592  1
  Ru4+  Ru139  1  0.38456279  0.49587240  0.74961299  1
  Ru4+  Ru140  1  0.38924007  0.83376574  -0.00032030  1
  Ru4+  Ru141  1  0.39562023  0.84007603  0.25738055  1
  Ru4+  Ru142  1  0.39030962  0.83456749  0.49880773  1
  Ru4+  Ru143  1  0.38618213  0.83082748  0.75791107  1
  Ru4+  Ru144  1  0.88897597  0.15860144  0.01112252  1
  Ru4+  Ru145  1  0.88678085  0.16414970  0.24688520  1
  Ru4+  Ru146  1  0.88967401  0.16726329  0.50104716  1
  Ru4+  Ru147  1  0.88984459  0.17336655  0.74545674  1
  Ru4+  Ru148  1  0.88965470  0.50030162  0.00098935  1
  Ru4+  Ru149  1  0.88936769  0.49564114  0.25200235  1
  Ru4+  Ru150  1  0.89173624  0.50382475  0.49986586  1
  Ru4+  Ru151  1  0.88857234  0.50215533  0.75321911  1
  Ru4+  Ru152  1  0.88346220  0.83498388  -0.00287417  1
  Ru4+  Ru153  1  0.88220973  0.83454949  0.25218698  1
  Ru4+  Ru154  1  0.89454587  0.82648913  0.50375410  1
  Ru4+  Ru155  1  0.88534681  0.83852804  0.74828852  1
  Ru4+  Ru156  1  0.25023394  0.26825702  0.28454203  1
  Ru4+  Ru157  1  0.25041585  0.05525701  0.76166515  1
  Ru4+  Ru158  1  0.74932786  0.57854036  0.76072372  1
  Ru4+  Ru159  1  0.25037226  0.23819231  0.49633826  1
  Ru4+  Ru160  1  0.74896598  0.28018357  0.52371531  1
  Ru4+  Ru161  1  0.75126316  0.90328620  0.48161354  1
  Ru4+  Ru162  1  0.25098865  0.58799447  0.76049516  1
  Ru4+  Ru163  1  0.75066819  0.59139045  0.52371647  1
  Ru4+  Ru164  1  0.24991099  0.61049498  0.50861744  1
  Ru4+  Ru165  1  0.75152065  0.03370827  0.52375447  1
  Ru4+  Ru166  1  0.25149052  0.74120903  0.23548939  1
  Ru4+  Ru167  1  0.75014430  0.76069815  0.50811585  1
  Ru4+  Ru168  1  0.24877273  0.91148381  0.75706223  1
  Ru4+  Ru169  1  0.25065782  0.92030054  -0.00527847  1
  Ru4+  Ru170  1  0.25080897  0.40025057  0.29386388  1
  Ru4+  Ru171  1  0.74957091  0.75969772  0.00309371  1
  Ru4+  Ru172  1  0.74925680  0.27804456  0.77750042  1
  Ru4+  Ru173  1  0.25101174  0.01684632  0.27298401  1
  Ru4+  Ru174  1  0.74921786  0.62634889  0.23616932  1
  Ru4+  Ru175  1  0.25062186  0.74526821  -0.01107585  1
  Ru4+  Ru176  1  0.75126626  0.33611122  0.27456792  1
  Ru4+  Ru177  1  0.24865895  0.09692455  0.49828013  1
  Ru4+  Ru178  1  0.74995299  0.61630316  0.01052529  1
  Ru4+  Ru179  1  0.25083535  0.61539398  0.28643506  1
  O2-  O180  1  0.17172693  0.07978731  0.00135964  1
  O2-  O181  1  0.16166498  0.08045665  0.24950686  1
  O2-  O182  1  0.16742838  0.08578235  0.49999275  1
  O2-  O183  1  0.16705156  0.07949219  0.75176399  1
  O2-  O184  1  0.16491498  0.41579650  -0.00202482  1
  O2-  O185  1  0.16700911  0.41165540  0.25152212  1
  O2-  O186  1  0.15575026  0.40875069  0.49425571  1
  O2-  O187  1  0.15844344  0.42193071  0.75235219  1
  O2-  O188  1  0.16906919  0.74737896  -0.00417833  1
  O2-  O189  1  0.17316596  0.75239102  0.26257781  1
  O2-  O190  1  0.17007116  0.74954445  0.49295672  1
  O2-  O191  1  0.16751507  0.74914584  0.75691368  1
  O2-  O192  1  0.66231883  0.07990954  0.00212807  1
  O2-  O193  1  0.66084465  0.08034585  0.24989383  1
  O2-  O194  1  0.66993359  0.07709859  0.49765034  1
  O2-  O195  1  0.66107913  0.07530655  0.75047443  1
  O2-  O196  1  0.66019466  0.41213363  -0.00020780  1
  O2-  O197  1  0.66408739  0.41416375  0.25228342  1
  O2-  O198  1  0.66437157  0.41453606  0.49991293  1
  O2-  O199  1  0.66430104  0.41498804  0.75057209  1
  O2-  O200  1  0.66463460  0.74649432  0.00036080  1
  O2-  O201  1  0.66172224  0.75166943  0.24444708  1
  O2-  O202  1  0.66735870  0.74944007  0.50021023  1
  O2-  O203  1  0.66217107  0.74567781  0.75061021  1
  O2-  O204  1  0.33261666  0.24728555  0.00328132  1
  O2-  O205  1  0.33425645  0.24930143  0.25033129  1
  O2-  O206  1  0.33508329  0.24951027  0.49403190  1
  O2-  O207  1  0.32743487  0.25474028  0.75462712  1
  O2-  O208  1  0.33733877  0.58671268  0.00007635  1
  O2-  O209  1  0.33487409  0.58992262  0.25175012  1
  O2-  O210  1  0.33274702  0.58801435  0.49894627  1
  O2-  O211  1  0.33286166  0.58954286  0.75263690  1
  O2-  O212  1  0.33228847  0.91795981  -0.00233150  1
  O2-  O213  1  0.33311858  0.92169012  0.24821571  1
  O2-  O214  1  0.32680167  0.91914151  0.49571283  1
  O2-  O215  1  0.33153608  0.91666803  0.75321048  1
  O2-  O216  1  0.83959038  0.24922640  0.00022453  1
  O2-  O217  1  0.83729585  0.25490303  0.25279645  1
  O2-  O218  1  0.83026540  0.25438815  0.49653099  1
  O2-  O219  1  0.82711379  0.25324978  0.75279231  1
  O2-  O220  1  0.83474196  0.58765962  0.00111841  1
  O2-  O221  1  0.82949327  0.58796526  0.24337640  1
  O2-  O222  1  0.83465107  0.58370410  0.49966019  1
  O2-  O223  1  0.83130332  0.58389297  0.75564484  1
  O2-  O224  1  0.83555303  0.91690750  0.00179264  1
  O2-  O225  1  0.83098255  0.91555042  0.25301839  1
  O2-  O226  1  0.83687717  0.91392178  0.49810758  1
  O2-  O227  1  0.83298760  0.91535389  0.75179747  1
  O2-  O228  1  0.16271849  0.25172787  0.00120286  1
  O2-  O229  1  0.16862663  0.25320241  0.24992565  1
  O2-  O230  1  0.16808963  0.25168198  0.49354085  1
  O2-  O231  1  0.16314059  0.25910974  0.75123428  1
  O2-  O232  1  0.17045551  0.58062333  -0.01060814  1
  O2-  O233  1  0.16672600  0.58535377  0.25116999  1
  O2-  O234  1  0.16856477  0.58729136  0.49642422  1
  O2-  O235  1  0.17309526  0.58308911  0.75803629  1
  O2-  O236  1  0.16874419  0.92153755  0.00030035  1
  O2-  O237  1  0.16043721  0.91883844  0.25019307  1
  O2-  O238  1  0.17207075  0.91945584  0.49897152  1
  O2-  O239  1  0.16428636  0.91853528  0.75115615  1
  O2-  O240  1  0.66115854  0.25494218  0.00071565  1
  O2-  O241  1  0.66368715  0.25630753  0.25155237  1
  O2-  O242  1  0.66477380  0.25489666  0.49978530  1
  O2-  O243  1  0.67049707  0.25294460  0.75004907  1
  O2-  O244  1  0.66591360  0.58718697  0.00334871  1
  O2-  O245  1  0.66938110  0.58692880  0.24786324  1
  O2-  O246  1  0.66898312  0.58511132  0.50436398  1
  O2-  O247  1  0.66714628  0.58666344  0.74950924  1
  O2-  O248  1  0.66478062  0.91694231  0.00161735  1
  O2-  O249  1  0.66504520  0.91645145  0.25092187  1
  O2-  O250  1  0.66789703  0.91674988  0.49529672  1
  O2-  O251  1  0.66871718  0.91546694  0.75425892  1
  O2-  O252  1  0.33460168  0.08052252  0.00037659  1
  O2-  O253  1  0.33340911  0.08208011  0.25155795  1
  O2-  O254  1  0.32982020  0.08276131  0.50301332  1
  O2-  O255  1  0.33442545  0.08409299  0.75235816  1
  O2-  O256  1  0.33184196  0.41924844  0.00174917  1
  O2-  O257  1  0.33594254  0.41467508  0.25197143  1
  O2-  O258  1  0.33993388  0.41160798  0.48782953  1
  O2-  O259  1  0.33342923  0.41671972  0.75199493  1
  O2-  O260  1  0.33490748  0.74749646  0.00253935  1
  O2-  O261  1  0.33379604  0.75100272  0.25221624  1
  O2-  O262  1  0.33542244  0.74805228  0.49564823  1
  O2-  O263  1  0.33257910  0.75081991  0.74979700  1
  O2-  O264  1  0.83338156  0.08397508  0.00340831  1
  O2-  O265  1  0.83430874  0.08395920  0.25137635  1
  O2-  O266  1  0.83465905  0.07733850  0.50010740  1
  O2-  O267  1  0.84185749  0.08050528  0.74768226  1
  O2-  O268  1  0.83665042  0.41339553  -0.00221713  1
  O2-  O269  1  0.83398113  0.41066646  0.25022737  1
  O2-  O270  1  0.83791077  0.41280901  0.49394526  1
  O2-  O271  1  0.83969496  0.41698136  0.75159592  1
  O2-  O272  1  0.83448498  0.74477926  -0.00016271  1
  O2-  O273  1  0.83315919  0.74966027  0.24875229  1
  O2-  O274  1  0.83195245  0.75099718  0.50066330  1
  O2-  O275  1  0.83828980  0.74765721  0.75539843  1
  O2-  O276  1  0.95410450  0.09784009  0.49448158  1
  O2-  O277  1  0.02251334  0.52664534  0.76074958  1
  O2-  O278  1  0.04784352  0.43013482  0.00983597  1
  O2-  O279  1  0.03564234  0.22221149  0.45619904  1
  O2-  O280  1  0.95512664  0.23777826  0.01097174  1
  O2-  O281  1  0.45430954  0.56686380  0.26278276  1
  O2-  O282  1  0.46887609  0.12060785  0.28143883  1
  O2-  O283  1  0.94715473  0.92754168  0.51875196  1
  O2-  O284  1  0.54628038  0.42879784  0.26355995  1
  O2-  O285  1  0.44932507  0.56530131  0.74102492  1
  O2-  O286  1  0.05193171  0.91852093  0.22571252  1
  O2-  O287  1  0.04918436  0.90549337  0.72913101  1
  O2-  O288  1  0.95083715  0.23659473  0.25469225  1
  O2-  O289  1  0.44279657  0.89164892  0.68879289  1
  O2-  O290  1  0.44525600  0.90905374  0.19311707  1
  O2-  O291  1  0.55150030  0.90879590  0.24271493  1
  O2-  O292  1  0.53710894  0.88230056  0.77757899  1
  O2-  O293  1  0.55132594  0.90081973  0.00680412  1
  O2-  O294  1  0.56156174  0.24200212  0.77430635  1
  O2-  O295  1  0.54629968  0.23364757  0.23252818  1
  O2-  O296  1  0.95659770  0.09434126  0.74711926  1
  O2-  O297  1  0.04608221  0.42513314  0.24411898  1
  O2-  O298  1  0.04468581  0.43170569  0.99738151  1
  O2-  O299  1  0.54585548  0.10171705  0.99772732  1
  O2-  O300  1  0.54326899  0.87825616  0.77764478  1
  O2-  O301  1  0.95266408  0.90055526  0.99561138  1
  O2-  O302  1  0.97044357  0.79866115  0.52870474  1
  O2-  O303  1  0.54841863  0.75619650  0.23186939  1
  O2-  O304  1  0.54237080  0.42576100  0.76093547  1
  O2-  O305  1  0.54556151  0.43281836  0.01580245  1
  O2-  O306  1  0.44799618  0.90752261  0.00589026  1
  O2-  O307  1  0.54946172  0.57177435  0.76135980  1
  O2-  O308  1  0.05797081  0.78444979  0.55971291  1
  O2-  O309  1  0.44578608  0.57689990  0.51171755  1
  O2-  O310  1  0.95624149  0.43442193  0.49057002  1
  O2-  O311  1  0.44076449  0.08671581  0.44810251  1
  O2-  O312  1  0.03309346  0.76320786  0.79129042  1
  O2-  O313  1  0.45272359  0.24602190  0.48751574  1
  O2-  O314  1  0.02925686  0.78097880  0.26713111  1
  O2-  O315  1  0.47202050  0.19272573  0.73286612  1
  O2-  O316  1  0.54334028  0.54586819  0.54356244  1
  O2-  O317  1  0.05158706  0.56792631  0.26225849  1
  O2-  O318  1  0.46824927  0.19259606  0.75035948  1
  O2-  O319  1  0.05046208  0.23859462  0.72898298  1
  O2-  O320  1  0.03500959  0.77398202  0.28115945  1
  O2-  O321  1  0.45349159  0.42918183  0.49505642  1
  O2-  O322  1  0.95231613  0.24060795  0.99528590  1
  O2-  O323  1  0.95308123  0.23455725  0.80518425  1
  O2-  O324  1  0.05857436  0.58610059  0.51722626  1
  O2-  O325  1  0.58265178  0.59344588  0.43099903  1
  O2-  O326  1  0.93206919  0.08595259  0.93161818  1
  O2-  O327  1  0.55942142  0.74924127  0.47820040  1
  O2-  O328  1  0.44831164  0.09750830  0.45359701  1
  O2-  O329  1  0.05825316  0.59841823  0.28058505  1
  O2-  O330  1  0.92603888  0.69307758  0.57051573  1
  O2-  O331  1  0.93791321  0.58358939  0.26970735  1
  O2-  O332  1  0.06189031  0.92854217  0.03779984  1
  O2-  O333  1  0.93546126  0.92425489  0.21134024  1
  O2-  O334  1  0.93220956  0.74047565  0.21262628  1
  O2-  O335  1  0.06805813  0.07644520  0.48288346  1
  O2-  O336  1  0.93651436  0.93074516  0.70755637  1
  O2-  O337  1  0.42656108  0.06646712  0.17744758  1
  O2-  O338  1  0.43963974  0.92224871  0.49287203  1
  O2-  O339  1  0.06397445  0.59141005  0.02386189  1
  O2-  O340  1  0.40516457  0.26028052  0.66712238  1
  O2-  O341  1  0.56176796  0.40137147  0.46022003  1
  O2-  O342  1  0.06677104  0.72778367  0.43478195  1
  O2-  O343  1  0.43103903  0.29689208  0.84156162  1
  O2-  O344  1  0.43643642  0.41294995  0.01970872  1
  O2-  O345  1  0.06433278  0.74438163  0.01707901  1
  O2-  O346  1  0.55550294  0.92173729  0.53106253  1
  O2-  O347  1  0.91978692  0.75302197  0.41438962  1
  O2-  O348  1  0.94075528  0.06705565  0.07157704  1
  O2-  O349  1  0.43765182  0.26605709  0.28600059  1
  O2-  O350  1  0.08690677  0.61246595  0.71498230  1
  O2-  O351  1  0.06365572  0.07884947  0.98825854  1
  O2-  O352  1  0.57049509  0.96804624  0.67859868  1
  O2-  O353  1  0.94078588  0.07679718  0.22291651  1
  O2-  O354  1  0.43383279  0.06342466  0.61094947  1
  O2-  O355  1  0.43476011  0.74008276  0.27183146  1
  O2-  O356  1  0.93610451  0.40282589  0.04019642  1
  O2-  O357  1  0.06475536  0.26096012  0.28314200  1
  O2-  O358  1  0.43149665  0.95591344  0.81899008  1
  O2-  O359  1  0.07216033  0.28129960  0.56551362  1
  O2-  O360  1  0.93405090  0.25874836  0.52481842  1
  O2-  O361  1  0.43808875  0.74495482  0.77244025  1
  O2-  O362  1  0.07239363  0.74289723  0.69551639  1
  O2-  O363  1  0.41944855  0.91031149  0.33921714  1
  O2-  O364  1  0.44412553  0.90978711  0.18155370  1
  O2-  O365  1  0.06482811  0.92376824  0.47611923  1
  O2-  O366  1  0.92091508  0.26840676  0.68486428  1
  O2-  O367  1  0.56259729  0.07450490  0.46972434  1
  O2-  O368  1  0.44330277  0.24881463  0.02221156  1
  O2-  O369  1  0.09432108  0.72233898  0.19056726  1
  O2-  O370  1  0.93711130  0.60309457  0.77951040  1
  O2-  O371  1  0.56398879  0.59641981  0.21652725  1
  O2-  O372  1  0.74801131  0.00656764  0.88607437  1
  O2-  O373  1  0.74926343  0.33723647  0.40060482  1
  O2-  O374  1  0.75124263  0.66733625  0.89218929  1
  O2-  O375  1  0.25007432  0.33827959  0.16271943  1
  O2-  O376  1  0.75052418  0.33636750  0.88428929  1
  O2-  O377  1  0.24980194  0.65714091  0.89436922  1
  O2-  O378  1  0.74899464  0.00144512  0.16882971  1
  O2-  O379  1  0.74906884  0.00065087  0.08029729  1
  O2-  O380  1  0.25144701  0.66216792  0.13825272  1
  O2-  O381  1  0.74991658  0.66699205  0.43655291  1
  O2-  O382  1  0.24851973  -0.00229330  0.13719982  1
  O2-  O383  1  0.75088901  0.34810777  0.62057281  1
  O2-  O384  1  0.24881190  0.33180832  0.07048106  1
  O2-  O385  1  0.74918373  0.70285419  0.31450872  1
  O2-  O386  1  0.74829561  -0.00362232  0.38495207  1
  O2-  O387  1  0.74906113  0.67909183  0.61105139  1
  O2-  O388  1  0.74935976  0.31693313  0.15716132  1
  O2-  O389  1  0.24784835  -0.00599979  0.64756067  1
  O2-  O390  1  0.25001175  0.67455818  0.60430472  1
  O2-  O391  1  0.24769182  0.32304654  0.60402704  1
  O2-  O392  1  0.24576684  0.34037677  0.88720946  1
  O2-  O393  1  0.74972285  0.67418458  0.12061153  1
  O2-  O394  1  0.74988468  0.34536738  0.06991837  1
  O2-  O395  1  0.75200765  0.00697967  0.64254822  1
  O2-  O396  1  0.24980511  0.83903815  0.60853472  1
  O2-  O397  1  0.25361294  0.53338520  0.42041219  1
  O2-  O398  1  0.24890016  0.50087524  0.05955024  1
  O2-  O399  1  0.24969304  0.16524290  0.60025101  1
  O2-  O400  1  0.75021639  0.82713134  0.08886103  1
  O2-  O401  1  0.74974730  0.18106002  0.60695847  1
  O2-  O402  1  0.74906517  0.16597827  0.08393903  1
  O2-  O403  1  0.75029246  0.49341985  0.68684254  1
  O2-  O404  1  0.25092211  0.49016194  0.69866665  1
  O2-  O405  1  0.74924764  0.18013204  0.88189748  1
  O2-  O406  1  0.75069968  0.50210011  0.59930447  1
  O2-  O407  1  0.24861146  0.50729637  0.33337406  1
  O2-  O408  1  0.24986461  0.83032364  0.06522010  1
  O2-  O409  1  0.75019946  0.82826103  0.83460926  1
  O2-  O410  1  0.75041932  0.84038038  0.91685332  1
  O2-  O411  1  0.24980500  0.83123232  0.15583384  1
  O2-  O412  1  0.74924205  0.16304175  0.16401959  1
  O2-  O413  1  0.74962435  0.50499770  0.84783066  1
  O2-  O414  1  0.25039040  0.83882886  0.90411584  1
  O2-  O415  1  0.74974863  0.83305766  0.67193123  1
  O2-  O416  1  0.75008315  0.84298880  0.58582979  1
  O2-  O417  1  0.74896034  0.17690552  0.32326256  1
  O2-  O418  1  0.25035536  0.52498619  0.61716962  1
  O2-  O419  1  0.24917068  0.82074509  0.69342416  1
  O2-  O420  1  0.94987383  -0.00614354  0.37150046  1
  O2-  O421  1  0.46051667  0.35223498  0.62415016  1
  O2-  O422  1  0.52590616  0.01509663  0.87729965  1
  O2-  O423  1  0.98792446  0.35945443  0.62538773  1
  O2-  O424  1  0.04298118  0.00958699  0.35506834  1
  O2-  O425  1  0.52788204  0.32868045  0.88603956  1
  O2-  O426  1  0.97341101  0.33871022  0.37843691  1
  O2-  O427  1  0.00949763  0.65703951  0.13265006  1
  O2-  O428  1  0.54743771  0.67044856  0.88387569  1
  O2-  O429  1  0.52630369  0.01192252  0.12330897  1
  O2-  O430  1  0.02897143  0.32796276  0.86973862  1
  O2-  O431  1  0.45407771  0.68388044  0.62055661  1
  O2-  O432  1  0.54738581  0.67872371  0.63392289  1
  O2-  O433  1  0.98274123  0.65169290  0.38414927  1
  O2-  O434  1  0.01276418  0.65966108  0.62316339  1
  O2-  O435  1  0.47735059  0.33248956  0.13458140  1
  O2-  O436  1  0.55133716  0.32670053  0.62208661  1
  O2-  O437  1  0.47246282  0.66879748  0.11309186  1
  O2-  O438  1  0.46942426  0.65979255  0.39620952  1
  O2-  O439  1  0.04829182  -0.00659578  0.86475163  1
  O2-  O440  1  0.49756568  -0.00495532  0.35984144  1
  O2-  O441  1  0.52210211  0.66738910  0.35688670  1
  O2-  O442  1  0.95434891  -0.02399394  0.85853157  1
  O2-  O443  1  0.45355028  0.64682298  0.88908563  1
