# generated using pymatgen
data_La7(Ru4O11)2
_symmetry_space_group_name_H-M   'P 1'
_cell_length_a   23.99419947
_cell_length_b   16.83590692
_cell_length_c   15.43111848
_cell_angle_alpha   89.99825180
_cell_angle_beta   89.99758679
_cell_angle_gamma   89.99594516
_symmetry_Int_Tables_number   1
_chemical_formula_structural   La7(Ru4O11)2
_chemical_formula_sum   'La84 Ru96 O264'
_cell_volume   6233.61800112
_cell_formula_units_Z   12
loop_
 _symmetry_equiv_pos_site_id
 _symmetry_equiv_pos_as_xyz
  1  'x, y, z'
loop_
 _atom_type_symbol
 _atom_type_oxidation_number
  La3+  3.0
  Ru4+  4.0
  O2-  -2.0
loop_
 _atom_site_type_symbol
 _atom_site_label
 _atom_site_symmetry_multiplicity
 _atom_site_fract_x
 _atom_site_fract_y
 _atom_site_fract_z
 _atom_site_occupancy
  La3+  La0  1  0.14516987  0.00144850  0.12194443  1
  La3+  La1  1  0.14043090  0.00665527  0.37421285  1
  La3+  La2  1  0.14715252  -0.00391277  0.63232722  1
  La3+  La3  1  0.14699858  0.00208654  0.87728675  1
  La3+  La4  1  0.14698182  0.33087862  0.12680173  1
  La3+  La5  1  0.13525599  0.33509941  0.37275485  1
  La3+  La6  1  0.13887905  0.33308976  0.62164489  1
  La3+  La7  1  0.13513971  0.33317803  0.88237304  1
  La3+  La8  1  0.12798534  0.66249735  0.11902029  1
  La3+  La9  1  0.14226811  0.66677794  0.37299711  1
  La3+  La10  1  0.14613138  0.66892193  0.63387368  1
  La3+  La11  1  0.14966521  0.66442335  0.87861370  1
  La3+  La12  1  0.62707730  0.01221159  0.13662933  1
  La3+  La13  1  0.62693935  0.00740495  0.37237842  1
  La3+  La14  1  0.64505264  0.00112183  0.62862041  1
  La3+  La15  1  0.64079763  -0.00268397  0.87827864  1
  La3+  La16  1  0.64039253  0.34031482  0.12524791  1
  La3+  La17  1  0.63997857  0.34108060  0.37432666  1
  La3+  La18  1  0.64219712  0.33350287  0.62984270  1
  La3+  La19  1  0.63762217  0.33507648  0.87701378  1
  La3+  La20  1  0.63779262  0.66467804  0.12490670  1
  La3+  La21  1  0.64795634  0.66767878  0.37006133  1
  La3+  La22  1  0.63951789  0.66674249  0.62261385  1
  La3+  La23  1  0.63786284  0.66516485  0.88308703  1
  La3+  La24  1  0.35844756  0.00410128  0.12653157  1
  La3+  La25  1  0.36402723  0.00141186  0.37256143  1
  La3+  La26  1  0.35657428  -0.00261527  0.63251055  1
  La3+  La27  1  0.34830231  -0.00333373  0.87390272  1
  La3+  La28  1  0.36219676  0.32583711  0.12763427  1
  La3+  La29  1  0.37293560  0.33173160  0.37045387  1
  La3+  La30  1  0.36509463  0.33335354  0.62539044  1
  La3+  La31  1  0.36722497  0.33416041  0.87215746  1
  La3+  La32  1  0.36329231  0.66798373  0.11973481  1
  La3+  La33  1  0.35996588  0.66898120  0.37458096  1
  La3+  La34  1  0.36015391  0.66779537  0.63331584  1
  La3+  La35  1  0.35760808  0.66369602  0.87385033  1
  La3+  La36  1  0.86441430  -0.00129284  0.12059992  1
  La3+  La37  1  0.86822515  0.00062632  0.37193831  1
  La3+  La38  1  0.85405726  0.00466971  0.62776701  1
  La3+  La39  1  0.85343459  -0.00567096  0.87944107  1
  La3+  La40  1  0.86213815  0.33667238  0.12544279  1
  La3+  La41  1  0.85102597  0.33326425  0.36730937  1
  La3+  La42  1  0.86143761  0.33285792  0.62577763  1
  La3+  La43  1  0.85599295  0.33143994  0.87732992  1
  La3+  La44  1  0.86233856  0.66424906  0.13215637  1
  La3+  La45  1  0.85291951  0.66170672  0.36864273  1
  La3+  La46  1  0.85860391  0.66523085  0.62010767  1
  La3+  La47  1  0.86291360  0.66392760  0.88631041  1
  La3+  La48  1  0.50185975  0.16289353  0.34413740  1
  La3+  La49  1  -0.00237261  0.15247513  0.89406349  1
  La3+  La50  1  0.49919722  0.16089623  0.36036577  1
  La3+  La51  1  -0.00238400  0.82718758  0.34863617  1
  La3+  La52  1  0.49314865  0.48808778  0.64424298  1
  La3+  La53  1  0.00216316  0.83282365  0.61409654  1
  La3+  La54  1  0.00274237  0.51072810  0.11832919  1
  La3+  La55  1  0.49270635  0.16217513  0.89077215  1
  La3+  La56  1  0.50121030  0.82565524  0.12194299  1
  La3+  La57  1  -0.00341936  0.83416051  0.88841422  1
  La3+  La58  1  0.49924852  0.83137059  0.37648405  1
  La3+  La59  1  -0.00298453  0.16742531  0.87851051  1
  La3+  La60  1  -0.00873985  0.17547320  0.37189217  1
  La3+  La61  1  -0.00271722  0.16685014  0.62511591  1
  La3+  La62  1  -0.00526317  0.83595739  0.63285652  1
  La3+  La63  1  0.00393578  0.50354532  0.62142751  1
  La3+  La64  1  0.00603231  0.82405481  0.36679222  1
  La3+  La65  1  -0.00644157  0.17588565  0.38799627  1
  La3+  La66  1  0.50532606  0.17520847  0.61524228  1
  La3+  La67  1  0.50030198  0.16741731  0.87223909  1
  La3+  La68  1  0.00282730  0.49885698  0.88592239  1
  La3+  La69  1  0.00405606  0.50463617  0.60484887  1
  La3+  La70  1  0.00509804  0.50922333  0.86662931  1
  La3+  La71  1  0.49830204  0.50560508  0.36339339  1
  La3+  La72  1  0.24948854  0.80475029  0.53885764  1
  La3+  La73  1  0.74903013  0.16549432  -0.04582562  1
  La3+  La74  1  0.25136354  0.15498665  0.59761761  1
  La3+  La75  1  0.74933733  0.21740117  0.54788440  1
  La3+  La76  1  0.74841239  0.89257999  0.47264484  1
  La3+  La77  1  0.74849719  0.53570968  0.52119365  1
  La3+  La78  1  0.75073464  0.77148836  0.76310988  1
  La3+  La79  1  0.24929117  0.83334235  -0.03891833  1
  La3+  La80  1  0.25160877  0.45744782  0.22336924  1
  La3+  La81  1  0.74788113  0.50511248  0.01268195  1
  La3+  La82  1  0.75293370  0.11026214  0.27935911  1
  La3+  La83  1  0.24963191  0.48853669  0.54748742  1
  Ru4+  Ru84  1  0.00092611  -0.00634350  0.01839156  1
  Ru4+  Ru85  1  0.01074257  -0.00068048  0.24531986  1
  Ru4+  Ru86  1  0.00705811  -0.00293647  0.50274346  1
  Ru4+  Ru87  1  -0.00521240  -0.00128277  0.75055934  1
  Ru4+  Ru88  1  -0.00028794  0.31826662  0.01356904  1
  Ru4+  Ru89  1  0.00018225  0.34435832  0.25654060  1
  Ru4+  Ru90  1  0.00156374  0.33758935  0.48927103  1
  Ru4+  Ru91  1  0.00212564  0.33298554  0.74567091  1
  Ru4+  Ru92  1  -0.00481117  0.67668164  -0.00297705  1
  Ru4+  Ru93  1  -0.00110898  0.66427214  0.25239109  1
  Ru4+  Ru94  1  0.00216287  0.65007792  0.47809785  1
  Ru4+  Ru95  1  0.00351611  0.66501092  0.74929321  1
  Ru4+  Ru96  1  0.49913851  -0.00792317  0.00794823  1
  Ru4+  Ru97  1  0.49488736  0.00331732  0.24264864  1
  Ru4+  Ru98  1  0.49100883  -0.00543397  0.49835463  1
  Ru4+  Ru99  1  0.49307168  0.00234507  0.75504478  1
  Ru4+  Ru100  1  0.50725037  0.34319814  0.01399402  1
  Ru4+  Ru101  1  0.50267322  0.34270735  0.23706941  1
  Ru4+  Ru102  1  0.51111813  0.33687056  0.51537662  1
  Ru4+  Ru103  1  0.50096287  0.34285149  0.73282766  1
  Ru4+  Ru104  1  0.49575006  0.66045249  -0.00678568  1
  Ru4+  Ru105  1  0.49205103  0.65324663  0.24444433  1
  Ru4+  Ru106  1  0.50700884  0.65636631  0.52012893  1
  Ru4+  Ru107  1  0.49889011  0.68366532  0.74878011  1
  Ru4+  Ru108  1  0.11452813  0.16801868  0.00964579  1
  Ru4+  Ru109  1  0.11628062  0.16083829  0.23978575  1
  Ru4+  Ru110  1  0.11207183  0.16696514  0.50548287  1
  Ru4+  Ru111  1  0.11493392  0.16720570  0.74780287  1
  Ru4+  Ru112  1  0.12052357  0.49688822  0.00079565  1
  Ru4+  Ru113  1  0.10796614  0.50171850  0.25163630  1
  Ru4+  Ru114  1  0.10690516  0.50588378  0.49982719  1
  Ru4+  Ru115  1  0.11893681  0.50177136  0.75088800  1
  Ru4+  Ru116  1  0.10912982  0.83227102  0.00219003  1
  Ru4+  Ru117  1  0.10686235  0.84034741  0.24851518  1
  Ru4+  Ru118  1  0.10298509  0.83434270  0.50167847  1
  Ru4+  Ru119  1  0.11610598  0.83468706  0.75209145  1
  Ru4+  Ru120  1  0.60804568  0.16522146  0.00772437  1
  Ru4+  Ru121  1  0.61438247  0.17077647  0.24956138  1
  Ru4+  Ru122  1  0.60919049  0.17015879  0.49552234  1
  Ru4+  Ru123  1  0.62030472  0.16532844  0.74926620  1
  Ru4+  Ru124  1  0.60104755  0.49019073  -0.00293447  1
  Ru4+  Ru125  1  0.61314711  0.49854943  0.24961777  1
  Ru4+  Ru126  1  0.60203907  0.50085532  0.49643171  1
  Ru4+  Ru127  1  0.61276358  0.50044467  0.74943089  1
  Ru4+  Ru128  1  0.61118164  0.83561111  -0.00279523  1
  Ru4+  Ru129  1  0.61295724  0.83336245  0.25007849  1
  Ru4+  Ru130  1  0.60641362  0.83126221  0.49952461  1
  Ru4+  Ru131  1  0.60699377  0.83107260  0.75178131  1
  Ru4+  Ru132  1  0.38792837  0.16671978  0.00136941  1
  Ru4+  Ru133  1  0.38199016  0.16628443  0.24946521  1
  Ru4+  Ru134  1  0.39060336  0.16097557  0.50099426  1
  Ru4+  Ru135  1  0.38631293  0.15559147  0.74876117  1
  Ru4+  Ru136  1  0.38562699  0.50588640  -0.00282306  1
  Ru4+  Ru137  1  0.39437017  0.50758251  0.24961112  1
  Ru4+  Ru138  1  0.38680808  0.51224271  0.49702019  1
  Ru4+  Ru139  1  0.38888655  0.49725773  0.75531810  1
  Ru4+  Ru140  1  0.38980055  0.83262275  0.00135440  1
  Ru4+  Ru141  1  0.39097015  0.83329436  0.24864589  1
  Ru4+  Ru142  1  0.39425507  0.83721921  0.50104189  1
  Ru4+  Ru143  1  0.38956047  0.83095279  0.74950349  1
  Ru4+  Ru144  1  0.89369879  0.16125404  0.01711510  1
  Ru4+  Ru145  1  0.89091933  0.16877178  0.25110888  1
  Ru4+  Ru146  1  0.89021010  0.17076659  0.50122626  1
  Ru4+  Ru147  1  0.88036470  0.16741812  0.74392028  1
  Ru4+  Ru148  1  0.88264447  0.49872909  0.00609710  1
  Ru4+  Ru149  1  0.88674686  0.49804267  0.24893208  1
  Ru4+  Ru150  1  0.88919710  0.49547826  0.48973796  1
  Ru4+  Ru151  1  0.88589519  0.49547589  0.74533898  1
  Ru4+  Ru152  1  0.88517126  0.83873211  0.00466983  1
  Ru4+  Ru153  1  0.88545979  0.82855486  0.24781549  1
  Ru4+  Ru154  1  0.88807346  0.82856933  0.50203353  1
  Ru4+  Ru155  1  0.88774195  0.82966719  0.74977858  1
  Ru4+  Ru156  1  0.25191768  0.38924048  0.43865982  1
  Ru4+  Ru157  1  0.25058702  0.92769516  0.26282448  1
  Ru4+  Ru158  1  0.25139958  0.24343581  0.00280045  1
  Ru4+  Ru159  1  0.74951230  0.74099780  0.48308222  1
  Ru4+  Ru160  1  0.24986710  0.43205057  0.76034851  1
  Ru4+  Ru161  1  0.75040894  0.30968559  0.00800072  1
  Ru4+  Ru162  1  0.25044725  0.06855620  0.46511067  1
  Ru4+  Ru163  1  0.74894568  0.27778936  0.25851270  1
  Ru4+  Ru164  1  0.74899062  0.02040449  0.02470214  1
  Ru4+  Ru165  1  0.74990173  0.93909787  0.77103707  1
  Ru4+  Ru166  1  0.25055048  0.67901208  -0.00804832  1
  Ru4+  Ru167  1  0.75015816  0.75532113  0.00799888  1
  Ru4+  Ru168  1  0.74995365  0.07284822  0.49271980  1
  Ru4+  Ru169  1  0.74913807  0.39721063  0.48011118  1
  Ru4+  Ru170  1  0.24920343  0.62462885  0.49825896  1
  Ru4+  Ru171  1  0.24938619  0.60441139  0.21311312  1
  Ru4+  Ru172  1  0.75015266  0.42002645  0.74888411  1
  Ru4+  Ru173  1  0.25163961  0.24080200  0.76528598  1
  Ru4+  Ru174  1  0.75005008  0.90446220  0.24839261  1
  Ru4+  Ru175  1  0.75002405  0.57187254  0.76600043  1
  Ru4+  Ru176  1  0.24968356  0.74682128  0.25109313  1
  Ru4+  Ru177  1  0.24905285  0.92878778  0.47089571  1
  Ru4+  Ru178  1  0.25160881  0.25005804  0.46771190  1
  Ru4+  Ru179  1  0.25019206  0.97950621  0.02074499  1
  O2-  O180  1  0.16978279  0.08489984  -0.00280015  1
  O2-  O181  1  0.16738037  0.08163124  0.25248135  1
  O2-  O182  1  0.16781542  0.08318386  0.50540333  1
  O2-  O183  1  0.16487117  0.08241908  0.74963015  1
  O2-  O184  1  0.16902584  0.41450775  -0.00112288  1
  O2-  O185  1  0.16258362  0.41276902  0.25313994  1
  O2-  O186  1  0.16616831  0.41796097  0.49756583  1
  O2-  O187  1  0.16650021  0.41153493  0.75265784  1
  O2-  O188  1  0.16666714  0.74669841  0.00447797  1
  O2-  O189  1  0.16241736  0.75068192  0.24793353  1
  O2-  O190  1  0.15874604  0.74766015  0.50274858  1
  O2-  O191  1  0.16382481  0.74991369  0.75205259  1
  O2-  O192  1  0.67024716  0.07427567  0.00420140  1
  O2-  O193  1  0.66497433  0.07579057  0.24869804  1
  O2-  O194  1  0.66526602  0.07936910  0.49623751  1
  O2-  O195  1  0.66324089  0.07813731  0.75408153  1
  O2-  O196  1  0.66845048  0.41443804  -0.00232230  1
  O2-  O197  1  0.66603870  0.41504597  0.24907620  1
  O2-  O198  1  0.66760826  0.41819959  0.50033609  1
  O2-  O199  1  0.66978830  0.41488206  0.75683435  1
  O2-  O200  1  0.66729751  0.74725246  0.00091970  1
  O2-  O201  1  0.66234480  0.75064109  0.24162563  1
  O2-  O202  1  0.66472580  0.75009572  0.49809188  1
  O2-  O203  1  0.65728672  0.74380789  0.75107444  1
  O2-  O204  1  0.33175878  0.25433872  -0.00449458  1
  O2-  O205  1  0.33502655  0.25364605  0.25213686  1
  O2-  O206  1  0.33534582  0.25128326  0.49589868  1
  O2-  O207  1  0.33503596  0.24690926  0.75344592  1
  O2-  O208  1  0.32594785  0.58627322  0.00100929  1
  O2-  O209  1  0.33142196  0.58431237  0.24793410  1
  O2-  O210  1  0.32951221  0.58850729  0.50283352  1
  O2-  O211  1  0.34017089  0.58222334  0.74963251  1
  O2-  O212  1  0.33291174  0.92075599  0.00482578  1
  O2-  O213  1  0.33442804  0.91996863  0.25420561  1
  O2-  O214  1  0.33057654  0.91983189  0.49844936  1
  O2-  O215  1  0.33819776  0.91855208  0.74902890  1
  O2-  O216  1  0.83086897  0.25364987  0.00343775  1
  O2-  O217  1  0.83391536  0.25170092  0.24542928  1
  O2-  O218  1  0.83979691  0.25633086  0.50365983  1
  O2-  O219  1  0.83774548  0.25647224  0.75020412  1
  O2-  O220  1  0.83008836  0.58692060  0.00433458  1
  O2-  O221  1  0.83576781  0.58408690  0.24795287  1
  O2-  O222  1  0.83799753  0.58393911  0.50071515  1
  O2-  O223  1  0.83380833  0.58562505  0.75572743  1
  O2-  O224  1  0.83117161  0.91700096  0.00283745  1
  O2-  O225  1  0.83308461  0.91877227  0.25522762  1
  O2-  O226  1  0.84310883  0.92539876  0.49772390  1
  O2-  O227  1  0.83538816  0.92112714  0.74985262  1
  O2-  O228  1  0.17291090  0.24796447  -0.00783304  1
  O2-  O229  1  0.15926795  0.25053009  0.25322816  1
  O2-  O230  1  0.16943566  0.25060454  0.50152444  1
  O2-  O231  1  0.17091193  0.24982733  0.75375708  1
  O2-  O232  1  0.17074991  0.58667870  0.00634901  1
  O2-  O233  1  0.16808232  0.58451737  0.24367131  1
  O2-  O234  1  0.16719220  0.58701522  0.49808681  1
  O2-  O235  1  0.16941795  0.58167760  0.74766350  1
  O2-  O236  1  0.16712441  0.92137585  -0.00207509  1
  O2-  O237  1  0.16803578  0.91924495  0.25449424  1
  O2-  O238  1  0.16577970  0.91956520  0.49995015  1
  O2-  O239  1  0.16523744  0.91978860  0.75194836  1
  O2-  O240  1  0.66569146  0.25500196  -0.00099603  1
  O2-  O241  1  0.66510592  0.25490163  0.25298802  1
  O2-  O242  1  0.65907752  0.25640360  0.49973097  1
  O2-  O243  1  0.66137016  0.25576290  0.75504527  1
  O2-  O244  1  0.65966281  0.58048399  0.00074374  1
  O2-  O245  1  0.66235275  0.58626215  0.24516087  1
  O2-  O246  1  0.65909296  0.58501836  0.50381861  1
  O2-  O247  1  0.66450620  0.58502266  0.75713555  1
  O2-  O248  1  0.66208515  0.92054754  0.00501913  1
  O2-  O249  1  0.66717290  0.91968545  0.25146156  1
  O2-  O250  1  0.65668155  0.92425637  0.50026925  1
  O2-  O251  1  0.66602249  0.91979380  0.75730713  1
  O2-  O252  1  0.33740489  0.08214033  0.00212293  1
  O2-  O253  1  0.33694946  0.07751752  0.24994324  1
  O2-  O254  1  0.33309659  0.08034012  0.50061577  1
  O2-  O255  1  0.32676734  0.08683746  0.74610498  1
  O2-  O256  1  0.33947367  0.41478684  -0.00162577  1
  O2-  O257  1  0.34109098  0.41165408  0.25180260  1
  O2-  O258  1  0.33670993  0.41666576  0.49975588  1
  O2-  O259  1  0.33187669  0.41430307  0.75041646  1
  O2-  O260  1  0.32879028  0.74462294  -0.00322242  1
  O2-  O261  1  0.33422702  0.74832648  0.25061353  1
  O2-  O262  1  0.34313749  0.74979485  0.50429019  1
  O2-  O263  1  0.33532045  0.75061166  0.74886421  1
  O2-  O264  1  0.82822179  0.07600954  0.00467917  1
  O2-  O265  1  0.84171458  0.07488152  0.25033709  1
  O2-  O266  1  0.83487120  0.07865270  0.49616858  1
  O2-  O267  1  0.83939722  0.07834502  0.75159309  1
  O2-  O268  1  0.82873624  0.41065352  0.00188808  1
  O2-  O269  1  0.83233408  0.41538027  0.24375520  1
  O2-  O270  1  0.82744949  0.41546835  0.51213174  1
  O2-  O271  1  0.83265219  0.41289036  0.75192334  1
  O2-  O272  1  0.83291971  0.74672791  0.00228352  1
  O2-  O273  1  0.83317954  0.74934936  0.24546523  1
  O2-  O274  1  0.83385276  0.74563863  0.49563741  1
  O2-  O275  1  0.84460726  0.73682689  0.74972281  1
  O2-  O276  1  0.55676550  0.75271045  0.77272956  1
  O2-  O277  1  0.94877312  0.41996941  0.99883925  1
  O2-  O278  1  0.04484340  0.09657915  0.74774357  1
  O2-  O279  1  0.55151430  0.10334416  0.27371370  1
  O2-  O280  1  0.95090797  0.08689739  0.26649439  1
  O2-  O281  1  0.04798083  0.90381725  0.99347877  1
  O2-  O282  1  0.44884329  0.23884038  0.77957105  1
  O2-  O283  1  0.55264943  0.09652217  0.77005224  1
  O2-  O284  1  0.94809051  0.57791327  0.99094189  1
  O2-  O285  1  0.44926158  0.76807446  0.75314959  1
  O2-  O286  1  0.54657971  0.90377210  0.47929269  1
  O2-  O287  1  0.44838848  0.90398298  0.01437713  1
  O2-  O288  1  0.05199843  0.90989935  0.73155413  1
  O2-  O289  1  0.95157760  0.89743890  0.76151762  1
  O2-  O290  1  0.04599121  0.76390771  0.73964201  1
  O2-  O291  1  0.02919556  0.87923072  0.20527593  1
  O2-  O292  1  0.54364217  0.76183083  0.26150755  1
  O2-  O293  1  0.04568169  0.44063877  0.25287396  1
  O2-  O294  1  0.95277744  0.09440180  0.49005639  1
  O2-  O295  1  0.95201948  0.23164240  0.75218074  1
  O2-  O296  1  0.45187497  0.24747927  0.74181902  1
  O2-  O297  1  0.95406348  0.90403468  0.48436814  1
  O2-  O298  1  0.53762432  0.55124448  0.54834987  1
  O2-  O299  1  0.44640511  0.42456614  0.47464061  1
  O2-  O300  1  0.45807858  0.11283066  0.70794419  1
  O2-  O301  1  0.05304836  0.57231632  0.99923535  1
  O2-  O302  1  0.03607368  0.53989774  0.45271281  1
  O2-  O303  1  0.03388678  0.20231803  0.01249898  1
  O2-  O304  1  0.55053842  0.90248632  0.98691836  1
  O2-  O305  1  0.54696745  0.42766054  0.44070182  1
  O2-  O306  1  0.05074815  0.11283300  0.29484334  1
  O2-  O307  1  0.44933529  0.43117233  0.51297799  1
  O2-  O308  1  0.95188049  0.08277701  0.05500643  1
  O2-  O309  1  0.05209719  0.56114582  0.71512774  1
  O2-  O310  1  0.05285277  0.42986755  0.99814607  1
  O2-  O311  1  0.95934675  0.43683455  0.52074844  1
  O2-  O312  1  0.54540053  0.09621793  0.48045344  1
  O2-  O313  1  0.94634776  0.24030973  0.06178042  1
  O2-  O314  1  0.53725235  0.90084949  0.78399576  1
  O2-  O315  1  0.45963051  0.23463838  0.48123119  1
  O2-  O316  1  0.54877239  0.57061058  0.98478697  1
  O2-  O317  1  0.04598528  0.90237395  0.00252659  1
  O2-  O318  1  0.45299612  0.43367171  0.24476649  1
  O2-  O319  1  0.54331160  0.09865651  0.24900041  1
  O2-  O320  1  0.44855269  0.24210174  0.26361599  1
  O2-  O321  1  0.54901222  0.56282005  0.24200985  1
  O2-  O322  1  0.45098623  0.76845528  0.73946949  1
  O2-  O323  1  0.94774373  0.57438539  0.73104366  1
  O2-  O324  1  0.55508402  0.74327720  0.46504081  1
  O2-  O325  1  0.43722140  0.60645877  0.32216500  1
  O2-  O326  1  0.93565231  0.75074742  0.98158251  1
  O2-  O327  1  0.43962580  0.40456403  0.78805602  1
  O2-  O328  1  0.06475567  0.61946013  0.56648370  1
  O2-  O329  1  0.93556841  0.92357417  0.03175711  1
  O2-  O330  1  0.44000559  0.26002589  0.00849344  1
  O2-  O331  1  0.56363225  0.40005747  0.28144395  1
  O2-  O332  1  0.93400414  0.59077249  0.48470648  1
  O2-  O333  1  0.42932222  0.90721113  0.57208373  1
  O2-  O334  1  0.94172662  0.74563420  0.21708047  1
  O2-  O335  1  0.42185401  0.05786274  0.81273591  1
  O2-  O336  1  0.06398002  0.24822440  0.58027311  1
  O2-  O337  1  0.55747759  0.39948021  0.92619071  1
  O2-  O338  1  0.06683513  0.26015001  0.76938699  1
  O2-  O339  1  0.06159264  0.07449919  0.46677477  1
  O2-  O340  1  0.06337184  0.59355715  0.97214169  1
  O2-  O341  1  0.43517095  0.57869768  0.06045473  1
  O2-  O342  1  0.56146724  0.73925098  0.01727424  1
  O2-  O343  1  0.08794099  0.29519681  0.02463464  1
  O2-  O344  1  0.94014313  0.58515429  0.20618553  1
  O2-  O345  1  0.56130272  0.41511252  0.73227711  1
  O2-  O346  1  0.57610154  0.40325305  0.56350335  1
  O2-  O347  1  0.56731135  0.05001977  0.27887448  1
  O2-  O348  1  0.56836272  0.60194386  0.42425440  1
  O2-  O349  1  0.06638649  0.04261383  0.17873521  1
  O2-  O350  1  0.06717938  0.94070004  0.32448402  1
  O2-  O351  1  0.43952948  0.60196713  0.47102245  1
  O2-  O352  1  0.56840410  0.93786762  0.72027417  1
  O2-  O353  1  0.06789898  0.06573143  0.01534717  1
  O2-  O354  1  0.91246012  0.39223708  0.43859510  1
  O2-  O355  1  0.43444182  0.58191815  0.18459531  1
  O2-  O356  1  0.07138786  0.23945037  0.42968741  1
  O2-  O357  1  0.93560590  0.27963397  0.92017777  1
  O2-  O358  1  0.06326832  0.59426026  0.22484336  1
  O2-  O359  1  0.93568411  0.41147826  0.26370773  1
  O2-  O360  1  0.06478862  0.40655644  0.54247710  1
  O2-  O361  1  0.43587990  0.74325522  0.02264896  1
  O2-  O362  1  0.94191674  0.73811498  0.53846456  1
  O2-  O363  1  0.94212500  0.58477812  0.98410228  1
  O2-  O364  1  0.55975834  0.07248847  0.02766307  1
  O2-  O365  1  0.06950750  0.62576931  0.82423123  1
  O2-  O366  1  0.43189825  0.91599252  0.42715482  1
  O2-  O367  1  0.44285392  0.25593103  0.29882826  1
  O2-  O368  1  0.43209646  0.58826137  0.93706750  1
  O2-  O369  1  0.56414196  0.40905764  0.07528762  1
  O2-  O370  1  0.94736308  0.08909864  0.06023695  1
  O2-  O371  1  0.91415660  0.09291534  0.90553438  1
  O2-  O372  1  0.24931924  0.65285920  0.68721748  1
  O2-  O373  1  0.74830257  0.00577023  0.89210049  1
  O2-  O374  1  0.25159985  0.66943341  0.87361250  1
  O2-  O375  1  0.24923773  0.00652315  0.67509521  1
  O2-  O376  1  0.74973188  0.64305694  0.41227132  1
  O2-  O377  1  0.25119296  -0.00610317  0.15045595  1
  O2-  O378  1  0.74846158  0.67012566  0.89516728  1
  O2-  O379  1  0.75004839  -0.00298099  0.15414504  1
  O2-  O380  1  0.75032126  0.65767571  0.69570528  1
  O2-  O381  1  0.25084872  0.71746880  0.43335652  1
  O2-  O382  1  0.75093287  0.34014492  0.64655967  1
  O2-  O383  1  0.25103114  0.33354973  0.70189544  1
  O2-  O384  1  0.25089212  0.68849055  0.60741036  1
  O2-  O385  1  0.74881201  0.01643957  0.67253564  1
  O2-  O386  1  0.74786466  0.31814821  0.38590299  1
  O2-  O387  1  0.74967235  -0.00640363  0.58236912  1
  O2-  O388  1  0.24989765  0.65003863  0.32214805  1
  O2-  O389  1  0.25052005  0.32917353  0.16888677  1
  O2-  O390  1  0.75000627  0.66907591  0.32632945  1
  O2-  O391  1  0.25080865  0.34114934  0.07861889  1
  O2-  O392  1  0.24962540  0.33043870  0.56029284  1
  O2-  O393  1  0.24863373  0.00031093  0.89824101  1
  O2-  O394  1  0.75131626  0.65925983  0.56458472  1
  O2-  O395  1  0.25055760  -0.00219065  0.57745261  1
  O2-  O396  1  0.25084200  0.16779038  0.31121817  1
  O2-  O397  1  0.25016898  0.48835772  0.37265265  1
  O2-  O398  1  0.24974287  0.16010766  0.39703302  1
  O2-  O399  1  0.75041352  0.47410370  0.39024210  1
  O2-  O400  1  0.25061599  0.16081759  0.07922065  1
  O2-  O401  1  0.75014013  0.49972191  0.66373805  1
  O2-  O402  1  0.74966533  0.83191230  0.34325731  1
  O2-  O403  1  0.75084351  0.17442004  0.82984847  1
  O2-  O404  1  0.74935352  0.84928671  0.95574679  1
  O2-  O405  1  0.74989844  0.86138954  0.86245295  1
  O2-  O406  1  0.75035468  0.15402624  0.65551305  1
  O2-  O407  1  0.24904309  0.83467469  0.83626540  1
  O2-  O408  1  0.75024789  0.16185615  0.40972464  1
  O2-  O409  1  0.75001178  0.49880344  0.13695422  1
  O2-  O410  1  0.74772919  0.20347975  0.17263639  1
  O2-  O411  1  0.24995756  0.83962896  0.10228911  1
  O2-  O412  1  0.75064197  0.14959817  0.09671821  1
  O2-  O413  1  0.24981615  0.17207248  0.16161371  1
  O2-  O414  1  0.74998337  0.81963091  0.10007257  1
  O2-  O415  1  0.25023124  0.84002621  0.19153132  1
  O2-  O416  1  0.74979848  0.87722710  0.67380821  1
  O2-  O417  1  0.24967987  0.49677232  0.84575547  1
  O2-  O418  1  0.25006702  0.85783439  0.37360677  1
  O2-  O419  1  0.75061779  0.80151272  0.58203894  1
  O2-  O420  1  0.02430598  0.67209975  0.11357980  1
  O2-  O421  1  0.45571030  0.34229661  0.62281192  1
  O2-  O422  1  0.47992404  0.68993664  0.12357263  1
  O2-  O423  1  0.47341150  -0.00245977  0.12959500  1
  O2-  O424  1  0.04931190  0.68486864  0.36753964  1
  O2-  O425  1  0.95430554  0.68591694  0.36827856  1
  O2-  O426  1  0.97072747  0.33193359  0.62722019  1
  O2-  O427  1  0.02375225  0.34006328  0.87739100  1
  O2-  O428  1  0.54510434  0.29349404  0.63566817  1
  O2-  O429  1  0.47758460  0.01627569  0.36513471  1
  O2-  O430  1  0.47443425  0.33312478  0.12519333  1
  O2-  O431  1  0.97108352  -0.00069303  0.62531136  1
  O2-  O432  1  0.04046214  0.35335162  0.36936976  1
  O2-  O433  1  0.45435544  0.65541952  0.61802803  1
  O2-  O434  1  0.47392708  0.00376134  0.62714415  1
  O2-  O435  1  0.54796487  0.67682522  0.63020910  1
  O2-  O436  1  0.48544019  0.67118700  0.86677373  1
  O2-  O437  1  0.53085686  0.01855732  0.61418559  1
  O2-  O438  1  0.95332152  0.29477035  0.35954851  1
  O2-  O439  1  0.01877735  0.34197249  0.13663481  1
  O2-  O440  1  0.97197312  0.67948131  0.86463138  1
  O2-  O441  1  0.98734766  -0.01115484  0.87360866  1
  O2-  O442  1  0.53628630  0.65983693  0.13522280  1
  O2-  O443  1  0.48810108  -0.00253323  0.88811277  1
