# generated using pymatgen
data_La7(Ru4O11)2
_symmetry_space_group_name_H-M   'P 1'
_cell_length_a   23.99053286
_cell_length_b   16.83035737
_cell_length_c   15.42864553
_cell_angle_alpha   90.00215621
_cell_angle_beta   89.99959841
_cell_angle_gamma   90.00036385
_symmetry_Int_Tables_number   1
_chemical_formula_structural   La7(Ru4O11)2
_chemical_formula_sum   'La84 Ru96 O264'
_cell_volume   6229.61249675
_cell_formula_units_Z   12
loop_
 _symmetry_equiv_pos_site_id
 _symmetry_equiv_pos_as_xyz
  1  'x, y, z'
loop_
 _atom_type_symbol
 _atom_type_oxidation_number
  La3+  3.0
  Ru4+  4.0
  O2-  -2.0
loop_
 _atom_site_type_symbol
 _atom_site_label
 _atom_site_symmetry_multiplicity
 _atom_site_fract_x
 _atom_site_fract_y
 _atom_site_fract_z
 _atom_site_occupancy
  La3+  La0  1  0.14247206  0.00133774  0.12276067  1
  La3+  La1  1  0.14078372  0.00256170  0.37450035  1
  La3+  La2  1  0.13854909  0.00349175  0.62316151  1
  La3+  La3  1  0.13603229  0.00034727  0.87731872  1
  La3+  La4  1  0.14119985  0.33367387  0.12581543  1
  La3+  La5  1  0.13995576  0.33097633  0.37941762  1
  La3+  La6  1  0.13015590  0.33819577  0.63095567  1
  La3+  La7  1  0.12905328  0.34106459  0.86289116  1
  La3+  La8  1  0.14230012  0.66385569  0.12399967  1
  La3+  La9  1  0.13689566  0.66376380  0.37599991  1
  La3+  La10  1  0.14308532  0.66466051  0.62869448  1
  La3+  La11  1  0.13720350  0.66538421  0.87443443  1
  La3+  La12  1  0.64669141  -0.00001286  0.12382211  1
  La3+  La13  1  0.63706309  -0.00170501  0.37215445  1
  La3+  La14  1  0.64170908  -0.00003866  0.62378448  1
  La3+  La15  1  0.64389141  -0.00297798  0.87690142  1
  La3+  La16  1  0.63430632  0.32557218  0.13148276  1
  La3+  La17  1  0.62874360  0.32198571  0.36093021  1
  La3+  La18  1  0.63621867  0.33046256  0.62956889  1
  La3+  La19  1  0.64302796  0.33564480  0.87647431  1
  La3+  La20  1  0.64270740  0.67113711  0.12305480  1
  La3+  La21  1  0.63730213  0.66943004  0.37301962  1
  La3+  La22  1  0.64191543  0.66131029  0.62790471  1
  La3+  La23  1  0.64194924  0.66804236  0.88072048  1
  La3+  La24  1  0.36036113  -0.00035750  0.12436018  1
  La3+  La25  1  0.36087119  0.00054475  0.37460268  1
  La3+  La26  1  0.36422424  -0.00001366  0.62432743  1
  La3+  La27  1  0.36371902  0.00152800  0.87488263  1
  La3+  La28  1  0.35670827  0.33336742  0.12742462  1
  La3+  La29  1  0.36153597  0.33605128  0.38017960  1
  La3+  La30  1  0.36447321  0.33153855  0.61956908  1
  La3+  La31  1  0.36148165  0.33233859  0.87418271  1
  La3+  La32  1  0.35835818  0.66354556  0.12427576  1
  La3+  La33  1  0.36355800  0.66522153  0.37618054  1
  La3+  La34  1  0.36229152  0.66812899  0.62601659  1
  La3+  La35  1  0.36212425  0.66438806  0.87710450  1
  La3+  La36  1  0.85135425  -0.00243297  0.12541968  1
  La3+  La37  1  0.86147628  0.00019925  0.37165399  1
  La3+  La38  1  0.85723606  0.00242252  0.62419098  1
  La3+  La39  1  0.86117309  -0.00052841  0.87649532  1
  La3+  La40  1  0.86121429  0.32886555  0.12329938  1
  La3+  La41  1  0.86514969  0.33199754  0.37472347  1
  La3+  La42  1  0.86485668  0.33416611  0.62515133  1
  La3+  La43  1  0.86121542  0.33093491  0.87504733  1
  La3+  La44  1  0.85821627  0.66962359  0.12664055  1
  La3+  La45  1  0.86312757  0.66592873  0.36654956  1
  La3+  La46  1  0.86195952  0.66814080  0.62430281  1
  La3+  La47  1  0.85581664  0.66803782  0.88029083  1
  La3+  La48  1  -0.00349171  0.16346313  0.37676516  1
  La3+  La49  1  0.49805843  0.49967173  0.61714904  1
  La3+  La50  1  -0.00646845  0.49923772  0.38080797  1
  La3+  La51  1  0.50321134  0.17246601  0.35992286  1
  La3+  La52  1  0.49810196  0.50188217  0.10955912  1
  La3+  La53  1  0.00348203  0.82978351  0.11310299  1
  La3+  La54  1  0.50175540  0.16421305  0.88756954  1
  La3+  La55  1  -0.00230825  0.49249165  0.63589793  1
  La3+  La56  1  0.49941860  0.17292173  0.13346241  1
  La3+  La57  1  0.49646645  0.84078159  0.37556649  1
  La3+  La58  1  0.49260642  0.16343179  0.61199065  1
  La3+  La59  1  0.00274601  0.17066168  0.61626689  1
  La3+  La60  1  -0.00083617  0.83657202  0.13336531  1
  La3+  La61  1  0.50023377  0.49814441  0.38866979  1
  La3+  La62  1  -0.01579299  0.83367679  0.37082493  1
  La3+  La63  1  -0.00251309  0.82730794  0.63750508  1
  La3+  La64  1  0.50173071  0.83440490  0.88155250  1
  La3+  La65  1  0.50140287  0.49705021  0.37161444  1
  La3+  La66  1  0.00346475  0.83010760  0.61735000  1
  La3+  La67  1  0.00573761  0.49594450  0.61731691  1
  La3+  La68  1  0.00239902  0.50605741  0.12041948  1
  La3+  La69  1  0.49398188  0.16464259  0.62871401  1
  La3+  La70  1  -0.00613288  0.50326593  0.13844899  1
  La3+  La71  1  0.00084002  0.49544129  0.86715910  1
  La3+  La72  1  0.74987365  0.16777075  0.71786839  1
  La3+  La73  1  0.25050616  0.86914733  0.25059376  1
  La3+  La74  1  0.74952004  0.16043060  0.27153827  1
  La3+  La75  1  0.25018925  0.49755257  0.25597058  1
  La3+  La76  1  0.74951621  0.51528002  0.51031309  1
  La3+  La77  1  0.24991589  0.49746838  0.51142882  1
  La3+  La78  1  0.25033610  0.87543051  -0.02285800  1
  La3+  La79  1  0.25008739  0.83950628  0.49828698  1
  La3+  La80  1  0.25061536  0.79736917  0.77252279  1
  La3+  La81  1  0.25034395  0.53772670  0.77799611  1
  La3+  La82  1  0.74983937  0.54396521  0.18342719  1
  La3+  La83  1  0.75021822  0.16783167  -0.03504492  1
  Ru4+  Ru84  1  0.00402103  0.00215871  -0.00566152  1
  Ru4+  Ru85  1  -0.00083583  0.00244512  0.24717682  1
  Ru4+  Ru86  1  0.00174078  0.00277705  0.49710336  1
  Ru4+  Ru87  1  -0.00501665  -0.00151586  0.75744034  1
  Ru4+  Ru88  1  -0.00087100  0.32717738  -0.00424116  1
  Ru4+  Ru89  1  -0.00435349  0.33135667  0.25023994  1
  Ru4+  Ru90  1  -0.00210482  0.32800107  0.49819619  1
  Ru4+  Ru91  1  0.00292626  0.33024523  0.75547071  1
  Ru4+  Ru92  1  0.00053334  0.66996444  -0.00466150  1
  Ru4+  Ru93  1  0.00268672  0.67227946  0.25158565  1
  Ru4+  Ru94  1  -0.00145037  0.66888187  0.49989228  1
  Ru4+  Ru95  1  0.00279946  0.66748661  0.75340870  1
  Ru4+  Ru96  1  0.49672231  -0.00344335  0.01207838  1
  Ru4+  Ru97  1  0.49953096  0.00009992  0.24918372  1
  Ru4+  Ru98  1  0.49988028  -0.00363744  0.49989119  1
  Ru4+  Ru99  1  0.49871519  -0.00037129  0.74496356  1
  Ru4+  Ru100  1  0.49666811  0.33858870  -0.00146686  1
  Ru4+  Ru101  1  0.49942440  0.32973868  0.25198711  1
  Ru4+  Ru102  1  0.51133512  0.33268103  0.49435298  1
  Ru4+  Ru103  1  0.50458545  0.32727170  0.76023611  1
  Ru4+  Ru104  1  0.50125441  0.66283360  -0.00117736  1
  Ru4+  Ru105  1  0.50157536  0.67050039  0.24477746  1
  Ru4+  Ru106  1  0.49371104  0.67165941  0.50976547  1
  Ru4+  Ru107  1  0.49860857  0.66824103  0.74806389  1
  Ru4+  Ru108  1  0.11077952  0.17170769  -0.00081401  1
  Ru4+  Ru109  1  0.11352277  0.16644766  0.24849229  1
  Ru4+  Ru110  1  0.11624138  0.16071602  0.50247060  1
  Ru4+  Ru111  1  0.11194615  0.17060896  0.75039910  1
  Ru4+  Ru112  1  0.11584380  0.50182162  -0.00428694  1
  Ru4+  Ru113  1  0.11299086  0.50229844  0.25056939  1
  Ru4+  Ru114  1  0.11406506  0.49966662  0.50081411  1
  Ru4+  Ru115  1  0.11104467  0.50128762  0.75180318  1
  Ru4+  Ru116  1  0.10904954  0.83412779  0.00001549  1
  Ru4+  Ru117  1  0.11105725  0.83729991  0.25019282  1
  Ru4+  Ru118  1  0.10955882  0.83210304  0.49930337  1
  Ru4+  Ru119  1  0.11133226  0.83042109  0.75246582  1
  Ru4+  Ru120  1  0.61002075  0.16290094  0.00111775  1
  Ru4+  Ru121  1  0.61013593  0.16877490  0.25003661  1
  Ru4+  Ru122  1  0.61355102  0.16595546  0.49684336  1
  Ru4+  Ru123  1  0.61130310  0.16559715  0.74837862  1
  Ru4+  Ru124  1  0.61375559  0.50224767  0.00125869  1
  Ru4+  Ru125  1  0.61166986  0.50133805  0.25112032  1
  Ru4+  Ru126  1  0.61376552  0.49399070  0.50066223  1
  Ru4+  Ru127  1  0.61225960  0.49975302  0.74991504  1
  Ru4+  Ru128  1  0.61654474  0.83191330  0.00043885  1
  Ru4+  Ru129  1  0.61395397  0.83385107  0.24711326  1
  Ru4+  Ru130  1  0.61515822  0.83705508  0.50199494  1
  Ru4+  Ru131  1  0.61112358  0.83284412  0.75133692  1
  Ru4+  Ru132  1  0.38727566  0.16590487  -0.00078244  1
  Ru4+  Ru133  1  0.38755051  0.17115535  0.24931538  1
  Ru4+  Ru134  1  0.38362590  0.16163463  0.50028042  1
  Ru4+  Ru135  1  0.38800032  0.16896998  0.75069985  1
  Ru4+  Ru136  1  0.38968530  0.50102967  -0.00032354  1
  Ru4+  Ru137  1  0.38853444  0.49651656  0.24953142  1
  Ru4+  Ru138  1  0.38452991  0.50600710  0.50106918  1
  Ru4+  Ru139  1  0.38952843  0.50042455  0.74883724  1
  Ru4+  Ru140  1  0.39052044  0.83604850  0.00265429  1
  Ru4+  Ru141  1  0.38883758  0.83519086  0.25051186  1
  Ru4+  Ru142  1  0.39196607  0.83309327  0.50287840  1
  Ru4+  Ru143  1  0.39101633  0.83316939  0.75117113  1
  Ru4+  Ru144  1  0.89356144  0.16658453  -0.00036438  1
  Ru4+  Ru145  1  0.89014738  0.16664965  0.24732310  1
  Ru4+  Ru146  1  0.88760103  0.16322828  0.50093025  1
  Ru4+  Ru147  1  0.89021266  0.16675476  0.75004206  1
  Ru4+  Ru148  1  0.88353333  0.50124987  -0.00200630  1
  Ru4+  Ru149  1  0.88478881  0.49536007  0.25124287  1
  Ru4+  Ru150  1  0.88431776  0.50562749  0.49663576  1
  Ru4+  Ru151  1  0.88593449  0.49834365  0.75283901  1
  Ru4+  Ru152  1  0.88346359  0.83339063  -0.00175136  1
  Ru4+  Ru153  1  0.88404396  0.83341285  0.25011547  1
  Ru4+  Ru154  1  0.88518630  0.83233709  0.49905540  1
  Ru4+  Ru155  1  0.88815233  0.83794005  0.75275459  1
  Ru4+  Ru156  1  0.75038861  0.91290628  0.49631500  1
  Ru4+  Ru157  1  0.24944902  0.25041740  0.00605528  1
  Ru4+  Ru158  1  0.74951339  0.41790188  0.00068561  1
  Ru4+  Ru159  1  0.24999415  0.94285069  0.74572289  1
  Ru4+  Ru160  1  0.24968694  0.73488444  -0.00031973  1
  Ru4+  Ru161  1  0.25018419  0.08597496  0.00303342  1
  Ru4+  Ru162  1  0.74984701  0.91147686  0.74681614  1
  Ru4+  Ru163  1  0.74961994  0.63746439  0.45894328  1
  Ru4+  Ru164  1  0.25021990  0.08636785  0.74814526  1
  Ru4+  Ru165  1  0.24992857  0.09152125  0.25159216  1
  Ru4+  Ru166  1  0.24947808  0.24394230  0.50114389  1
  Ru4+  Ru167  1  0.75011784  0.39833130  0.23609959  1
  Ru4+  Ru168  1  0.75021551  0.24164831  0.51669104  1
  Ru4+  Ru169  1  0.74959473  0.77495716  0.48454658  1
  Ru4+  Ru170  1  0.24996861  0.41464527  -0.00680696  1
  Ru4+  Ru171  1  0.24958638  0.24383703  0.24870678  1
  Ru4+  Ru172  1  0.25088168  0.39497562  0.74431120  1
  Ru4+  Ru173  1  0.74941515  0.38334080  0.51110941  1
  Ru4+  Ru174  1  0.74943113  0.40453014  0.76515419  1
  Ru4+  Ru175  1  0.74973944  0.59340124  0.78163797  1
  Ru4+  Ru176  1  0.74968646  0.75641034  0.75545524  1
  Ru4+  Ru177  1  0.24943448  0.70037004  0.47855894  1
  Ru4+  Ru178  1  0.25009730  0.72738529  0.26438175  1
  Ru4+  Ru179  1  0.24986451  0.97889973  0.49775212  1
  O2-  O180  1  0.16720887  0.08206889  -0.00195197  1
  O2-  O181  1  0.16595206  0.08268404  0.25093590  1
  O2-  O182  1  0.16867765  0.07889293  0.49942656  1
  O2-  O183  1  0.16672694  0.08146030  0.74745432  1
  O2-  O184  1  0.16668746  0.41180976  -0.00064407  1
  O2-  O185  1  0.16589274  0.41209585  0.25200271  1
  O2-  O186  1  0.16621179  0.41308811  0.50267160  1
  O2-  O187  1  0.17039088  0.41115891  0.75001812  1
  O2-  O188  1  0.16473590  0.74655974  0.00014191  1
  O2-  O189  1  0.16555089  0.74721695  0.25219647  1
  O2-  O190  1  0.17011028  0.74447629  0.49538498  1
  O2-  O191  1  0.16578442  0.74666893  0.75170390  1
  O2-  O192  1  0.67037367  0.08096669  0.00022265  1
  O2-  O193  1  0.66405378  0.08303678  0.25339631  1
  O2-  O194  1  0.66423376  0.08121187  0.49920419  1
  O2-  O195  1  0.66985869  0.08191033  0.74861945  1
  O2-  O196  1  0.66958949  0.41380723  0.00221012  1
  O2-  O197  1  0.66578486  0.41154758  0.24760693  1
  O2-  O198  1  0.66571133  0.40891416  0.49805844  1
  O2-  O199  1  0.66652419  0.41359121  0.74861839  1
  O2-  O200  1  0.66677587  0.74993337  0.00199439  1
  O2-  O201  1  0.66281619  0.74923428  0.25089301  1
  O2-  O202  1  0.66926069  0.75154854  0.49778745  1
  O2-  O203  1  0.66657841  0.74838390  0.75025933  1
  O2-  O204  1  0.33399671  0.25210731  -0.00117272  1
  O2-  O205  1  0.33078707  0.25164864  0.25141143  1
  O2-  O206  1  0.33221655  0.25257498  0.50101241  1
  O2-  O207  1  0.33551951  0.25321007  0.74860571  1
  O2-  O208  1  0.33467162  0.58211107  0.00109357  1
  O2-  O209  1  0.33414197  0.58788321  0.25342048  1
  O2-  O210  1  0.33231360  0.58879975  0.49895460  1
  O2-  O211  1  0.33825469  0.58761898  0.75014575  1
  O2-  O212  1  0.33634405  0.92209468  -0.00120536  1
  O2-  O213  1  0.33565272  0.92129069  0.24917767  1
  O2-  O214  1  0.33344585  0.92210384  0.49933443  1
  O2-  O215  1  0.33157078  0.92051382  0.75066312  1
  O2-  O216  1  0.83171456  0.25201172  -0.00094696  1
  O2-  O217  1  0.83336274  0.24966028  0.25173830  1
  O2-  O218  1  0.83448079  0.25380407  0.50159870  1
  O2-  O219  1  0.83270453  0.25304190  0.74761880  1
  O2-  O220  1  0.83391227  0.58396008  0.00004826  1
  O2-  O221  1  0.83423247  0.58675653  0.24995792  1
  O2-  O222  1  0.83287197  0.59083380  0.49933948  1
  O2-  O223  1  0.83394498  0.58648069  0.75166367  1
  O2-  O224  1  0.83458713  0.91914681  -0.00132007  1
  O2-  O225  1  0.83656833  0.91956766  0.25281074  1
  O2-  O226  1  0.83267665  0.91928717  0.49733634  1
  O2-  O227  1  0.83014438  0.92030298  0.74964871  1
  O2-  O228  1  0.16581930  0.25229087  -0.00022885  1
  O2-  O229  1  0.17008044  0.25233956  0.25202864  1
  O2-  O230  1  0.16628822  0.25165265  0.50012930  1
  O2-  O231  1  0.16610367  0.25385963  0.74870182  1
  O2-  O232  1  0.16413660  0.58557949  0.00093894  1
  O2-  O233  1  0.16558064  0.58778580  0.25201002  1
  O2-  O234  1  0.16690299  0.58684805  0.49741880  1
  O2-  O235  1  0.16216714  0.58736674  0.75350357  1
  O2-  O236  1  0.16654551  0.92279610  -0.00069661  1
  O2-  O237  1  0.16662738  0.92059117  0.25358829  1
  O2-  O238  1  0.16537314  0.92129297  0.50002085  1
  O2-  O239  1  0.16637491  0.92077137  0.74921482  1
  O2-  O240  1  0.66478642  0.25159603  0.00040639  1
  O2-  O241  1  0.66812568  0.25186576  0.25041058  1
  O2-  O242  1  0.66599074  0.25276261  0.50107376  1
  O2-  O243  1  0.66828389  0.25155867  0.74653768  1
  O2-  O244  1  0.66484323  0.58329121  0.00100628  1
  O2-  O245  1  0.66559038  0.58611798  0.24930460  1
  O2-  O246  1  0.66561146  0.58891808  0.49825428  1
  O2-  O247  1  0.66596527  0.58491553  0.75337203  1
  O2-  O248  1  0.66835102  0.91811835  0.00221793  1
  O2-  O249  1  0.66590279  0.91623550  0.25346323  1
  O2-  O250  1  0.67004664  0.91753796  0.49868654  1
  O2-  O251  1  0.66822319  0.91713413  0.74761419  1
  O2-  O252  1  0.33241593  0.08059977  -0.00074397  1
  O2-  O253  1  0.33419037  0.08146122  0.24990593  1
  O2-  O254  1  0.33308433  0.07812100  0.49914003  1
  O2-  O255  1  0.33264479  0.07966877  0.74844204  1
  O2-  O256  1  0.33305703  0.41376611  -0.00174431  1
  O2-  O257  1  0.33451623  0.41374244  0.25221583  1
  O2-  O258  1  0.33279034  0.41351433  0.50421264  1
  O2-  O259  1  0.33299466  0.41166702  0.74941568  1
  O2-  O260  1  0.33128301  0.74786812  -0.00230568  1
  O2-  O261  1  0.33414368  0.74655294  0.25235338  1
  O2-  O262  1  0.33074389  0.74545939  0.49760027  1
  O2-  O263  1  0.33502559  0.74632453  0.74962833  1
  O2-  O264  1  0.83429732  0.08155262  -0.00147150  1
  O2-  O265  1  0.83244905  0.08255111  0.25497837  1
  O2-  O266  1  0.83646821  0.08089374  0.49847772  1
  O2-  O267  1  0.83316430  0.08126464  0.74954557  1
  O2-  O268  1  0.82942221  0.41397958  -0.00092957  1
  O2-  O269  1  0.83386400  0.41192275  0.24918130  1
  O2-  O270  1  0.83469487  0.41061588  0.50065562  1
  O2-  O271  1  0.83113692  0.41326491  0.74908227  1
  O2-  O272  1  0.83626210  0.74767581  0.00091423  1
  O2-  O273  1  0.83352907  0.74827411  0.25035405  1
  O2-  O274  1  0.83079056  0.74973835  0.49803361  1
  O2-  O275  1  0.83520881  0.74878680  0.75018315  1
  O2-  O276  1  0.54730707  0.76786966  0.76176117  1
  O2-  O277  1  0.03506916  0.89620869  0.28801543  1
  O2-  O278  1  0.05103772  0.42712550  0.00668440  1
  O2-  O279  1  0.95171297  0.57176460  0.74781124  1
  O2-  O280  1  0.04858132  0.23189872  0.75943274  1
  O2-  O281  1  0.95169530  0.09603720  0.98687749  1
  O2-  O282  1  0.45564516  0.43319146  0.48992430  1
  O2-  O283  1  0.54960601  0.24574030  0.70233578  1
  O2-  O284  1  0.44316610  0.74931014  0.51204402  1
  O2-  O285  1  0.54485447  0.23311631  0.24261198  1
  O2-  O286  1  0.04609904  0.43765408  0.74051041  1
  O2-  O287  1  0.95314451  0.90509360  0.50969017  1
  O2-  O288  1  0.05282703  0.42536306  0.76323250  1
  O2-  O289  1  0.55013945  0.09469537  0.23661854  1
  O2-  O290  1  0.04751954  0.57440723  0.48168447  1
  O2-  O291  1  0.45141081  0.23656119  0.51189105  1
  O2-  O292  1  0.95086539  0.42928581  0.01044319  1
  O2-  O293  1  0.53389727  0.89062378  0.24327277  1
  O2-  O294  1  0.54514918  0.75846121  0.23980084  1
  O2-  O295  1  0.03953928  0.22141126  0.28354094  1
  O2-  O296  1  0.04980078  0.23291934  0.48394853  1
  O2-  O297  1  0.54189919  0.77591080  0.46269797  1
  O2-  O298  1  0.94975103  0.43041002  0.51446965  1
  O2-  O299  1  0.95320774  0.90441925  0.01368616  1
  O2-  O300  1  0.94991665  0.57225712  0.00785687  1
  O2-  O301  1  0.04899300  0.56962240  0.98622958  1
  O2-  O302  1  0.54489399  0.10025803  0.51072888  1
  O2-  O303  1  0.46776273  0.45131270  0.96318173  1
  O2-  O304  1  0.55220655  0.24317957  0.26626248  1
  O2-  O305  1  0.04727481  0.90312016  0.73569447  1
  O2-  O306  1  0.95331499  0.56682745  0.26592880  1
  O2-  O307  1  0.97248160  0.11974216  0.24524095  1
  O2-  O308  1  0.04833703  0.76025726  0.26142969  1
  O2-  O309  1  0.53760010  0.78719504  0.49878224  1
  O2-  O310  1  0.04878357  0.23263755  0.98822970  1
  O2-  O311  1  0.04633557  0.42988763  0.24457446  1
  O2-  O312  1  0.46800831  0.77760655  0.00993024  1
  O2-  O313  1  0.54161686  0.57197388  0.50640699  1
  O2-  O314  1  0.45099568  0.90887244  0.49017273  1
  O2-  O315  1  0.03699661  0.78119739  0.45923341  1
  O2-  O316  1  0.04949217  0.42782568  0.48212209  1
  O2-  O317  1  0.45564991  0.56607867  0.26414927  1
  O2-  O318  1  0.44862492  0.90929168  0.01293382  1
  O2-  O319  1  0.95081728  0.23108295  0.75838099  1
  O2-  O320  1  0.54762898  0.09467963  0.04801393  1
  O2-  O321  1  0.45057172  0.09623348  0.24034299  1
  O2-  O322  1  0.54388420  0.89214209  0.03243297  1
  O2-  O323  1  0.45403785  0.90528296  0.50259469  1
  O2-  O324  1  0.93538776  0.74282033  0.22303089  1
  O2-  O325  1  0.93314926  0.25948778  0.02597196  1
  O2-  O326  1  0.42987951  0.24995417  0.31511456  1
  O2-  O327  1  0.92236488  0.04560866  0.20884549  1
  O2-  O328  1  0.43618688  0.06975892  0.03395470  1
  O2-  O329  1  0.93637844  0.59568610  0.46564263  1
  O2-  O330  1  0.43642826  0.26825428  0.17891195  1
  O2-  O331  1  0.07124123  0.39966377  0.71723770  1
  O2-  O332  1  0.56571413  0.74066447  0.97204946  1
  O2-  O333  1  0.56962171  0.92904636  0.96228352  1
  O2-  O334  1  0.43477792  0.92728413  0.72572632  1
  O2-  O335  1  0.06692681  0.07813084  0.95249277  1
  O2-  O336  1  0.08034341  0.93955213  0.19631675  1
  O2-  O337  1  0.56887623  0.92895246  0.47231535  1
  O2-  O338  1  0.06136972  0.07033331  0.53456227  1
  O2-  O339  1  0.06738146  0.07789905  0.04626217  1
  O2-  O340  1  0.93311248  0.26026684  0.22565754  1
  O2-  O341  1  0.56222745  0.59495835  0.28905781  1
  O2-  O342  1  0.06441574  0.74147572  0.77608207  1
  O2-  O343  1  0.58093373  0.71004904  0.56670108  1
  O2-  O344  1  0.43480949  0.59147734  0.97638710  1
  O2-  O345  1  0.42940159  0.38640281  0.05991247  1
  O2-  O346  1  0.56702479  0.27513095  0.84117331  1
  O2-  O347  1  0.06294256  0.26127927  0.47037755  1
  O2-  O348  1  0.06408869  0.92311113  0.97452194  1
  O2-  O349  1  0.93741245  0.93217754  0.67706806  1
  O2-  O350  1  0.07906375  0.27086430  0.20246332  1
  O2-  O351  1  0.93490033  0.74503452  0.52417198  1
  O2-  O352  1  0.56668096  0.08295107  0.80531219  1
  O2-  O353  1  0.43663715  0.92979766  0.28611862  1
  O2-  O354  1  0.93942075  0.59365666  0.28062180  1
  O2-  O355  1  0.07921204  0.72835429  0.55113291  1
  O2-  O356  1  0.56177003  0.58220229  0.52699263  1
  O2-  O357  1  0.43343014  0.74336872  0.77706645  1
  O2-  O358  1  0.42128729  0.72851148  0.03071951  1
  O2-  O359  1  0.55439115  0.24932737  0.69610868  1
  O2-  O360  1  0.57825010  0.07947847  0.92206559  1
  O2-  O361  1  0.93327750  0.40668225  0.77366502  1
  O2-  O362  1  0.43750273  0.41659023  0.46946687  1
  O2-  O363  1  0.55451284  0.08422311  0.05357665  1
  O2-  O364  1  0.93740417  0.40657382  0.53671511  1
  O2-  O365  1  0.56221564  0.06992668  0.67704300  1
  O2-  O366  1  0.43557598  0.73924216  0.52254366  1
  O2-  O367  1  0.56148414  0.40706684  0.28585224  1
  O2-  O368  1  0.56830046  0.26747916  0.21288712  1
  O2-  O369  1  0.93526657  0.92797870  0.82029095  1
  O2-  O370  1  0.57237924  0.94731203  0.21059697  1
  O2-  O371  1  0.44042276  0.25515505  0.54089171  1
  O2-  O372  1  0.75001706  0.66328395  0.07981061  1
  O2-  O373  1  0.75016026  -0.00760288  0.59564803  1
  O2-  O374  1  0.74992014  0.31475833  0.41942837  1
  O2-  O375  1  0.75048640  0.33155395  0.85064922  1
  O2-  O376  1  0.74990542  0.66142694  0.69032524  1
  O2-  O377  1  0.75027465  0.66326158  0.88638891  1
  O2-  O378  1  0.74978893  0.66361232  0.34630119  1
  O2-  O379  1  0.75027086  0.32109084  0.61936866  1
  O2-  O380  1  0.25012822  0.65166758  0.58669460  1
  O2-  O381  1  0.25026591  -0.00309781  0.07833715  1
  O2-  O382  1  0.24917948  0.32882926  0.15281390  1
  O2-  O383  1  0.24970610  0.32749360  0.40838038  1
  O2-  O384  1  0.74967882  0.31874763  0.31193025  1
  O2-  O385  1  0.25000875  -0.00097371  0.17295056  1
  O2-  O386  1  0.24985696  0.66611753  0.89481769  1
  O2-  O387  1  0.74977711  0.67302087  0.17117169  1
  O2-  O388  1  0.75001637  0.68240048  0.57016982  1
  O2-  O389  1  0.24989840  -0.00188724  0.34614088  1
  O2-  O390  1  0.24995871  0.66826705  0.67911639  1
  O2-  O391  1  0.74946808  0.32897922  0.14343052  1
  O2-  O392  1  0.24973335  0.33205674  0.90198782  1
  O2-  O393  1  0.75032454  0.00311379  0.15299036  1
  O2-  O394  1  0.24964319  0.65419755  0.07601818  1
  O2-  O395  1  0.25003250  0.65492984  0.17867921  1
  O2-  O396  1  0.24963667  0.51040014  0.05137482  1
  O2-  O397  1  0.74999878  0.50314236  0.71474682  1
  O2-  O398  1  0.75014772  0.83554991  0.15921199  1
  O2-  O399  1  0.75011759  0.14381053  0.46744798  1
  O2-  O400  1  0.75004861  0.17190693  0.39035566  1
  O2-  O401  1  0.75017845  0.83313156  0.37064029  1
  O2-  O402  1  0.24977497  0.49387646  0.91235940  1
  O2-  O403  1  0.74998965  0.83795226  0.83400419  1
  O2-  O404  1  0.24980305  0.84154054  0.63993104  1
  O2-  O405  1  0.25009242  0.16750675  0.93048388  1
  O2-  O406  1  0.75054728  0.49681415  0.63073323  1
  O2-  O407  1  0.75042955  0.16718610  0.07988814  1
  O2-  O408  1  0.25005374  0.17375462  0.58616972  1
  O2-  O409  1  0.24985179  0.16918731  0.81196046  1
  O2-  O410  1  0.24998044  0.48574876  0.64706919  1
  O2-  O411  1  0.25002117  0.16736041  0.34297951  1
  O2-  O412  1  0.74992417  0.48874618  0.30676610  1
  O2-  O413  1  0.74993606  0.50001437  0.38865461  1
  O2-  O414  1  0.24975115  0.50411332  0.38144328  1
  O2-  O415  1  0.25004479  0.49799425  0.13456465  1
  O2-  O416  1  0.75005578  0.83757584  0.92131219  1
  O2-  O417  1  0.24988506  0.82532868  0.10922222  1
  O2-  O418  1  0.75054418  0.16820437  0.15650126  1
  O2-  O419  1  0.74999271  0.16361019  0.84482685  1
  O2-  O420  1  0.53108863  0.65763739  0.87041311  1
  O2-  O421  1  0.46289787  0.65986549  0.13596380  1
  O2-  O422  1  0.97038099  0.34127193  0.12675453  1
  O2-  O423  1  0.97062312  0.00046388  0.37391229  1
  O2-  O424  1  0.04051362  0.33490931  0.88101090  1
  O2-  O425  1  0.97070431  0.33415501  0.37460131  1
  O2-  O426  1  0.48122173  0.33843242  0.37660095  1
  O2-  O427  1  0.46106652  0.00430522  0.87018839  1
  O2-  O428  1  0.47419874  0.65593418  0.63685456  1
  O2-  O429  1  0.04224566  0.65170266  0.64337245  1
  O2-  O430  1  0.02298783  0.00158090  0.86454033  1
  O2-  O431  1  0.54192544  0.66080834  0.11603200  1
  O2-  O432  1  0.03024663  0.33873914  0.11751737  1
  O2-  O433  1  0.47266948  0.66714590  0.87538764  1
  O2-  O434  1  0.47075582  0.32904137  0.87090232  1
  O2-  O435  1  0.96104071  0.33050461  0.88101248  1
  O2-  O436  1  0.52140675  -0.01587595  0.86515708  1
  O2-  O437  1  0.47295584  0.01220439  0.62127564  1
  O2-  O438  1  0.02564598  0.32078933  0.61858422  1
  O2-  O439  1  0.95642930  0.66386336  0.63312986  1
  O2-  O440  1  0.52510982  0.00567394  0.37237875  1
  O2-  O441  1  0.01561934  -0.00350256  0.12142669  1
  O2-  O442  1  0.97640200  0.66572421  0.11894471  1
  O2-  O443  1  0.02325268  0.66149344  0.87702123  1
