# generated using pymatgen
data_La7(Ru4O11)2
_symmetry_space_group_name_H-M   'P 1'
_cell_length_a   23.98941571
_cell_length_b   16.82919473
_cell_length_c   15.42560068
_cell_angle_alpha   89.99983565
_cell_angle_beta   89.99957263
_cell_angle_gamma   89.99973769
_symmetry_Int_Tables_number   1
_chemical_formula_structural   La7(Ru4O11)2
_chemical_formula_sum   'La84 Ru96 O264'
_cell_volume   6227.66281937
_cell_formula_units_Z   12
loop_
 _symmetry_equiv_pos_site_id
 _symmetry_equiv_pos_as_xyz
  1  'x, y, z'
loop_
 _atom_type_symbol
 _atom_type_oxidation_number
  La3+  3.0
  Ru4+  4.0
  O2-  -2.0
loop_
 _atom_site_type_symbol
 _atom_site_label
 _atom_site_symmetry_multiplicity
 _atom_site_fract_x
 _atom_site_fract_y
 _atom_site_fract_z
 _atom_site_occupancy
  La3+  La0  1  0.13828560  -0.00162088  0.12360199  1
  La3+  La1  1  0.13903901  -0.00066205  0.37508084  1
  La3+  La2  1  0.13933439  0.00121441  0.62577154  1
  La3+  La3  1  0.13728905  -0.00062285  0.87507690  1
  La3+  La4  1  0.14002732  0.33387251  0.12600271  1
  La3+  La5  1  0.14010658  0.33331522  0.37300491  1
  La3+  La6  1  0.13933080  0.33436931  0.62694082  1
  La3+  La7  1  0.13979342  0.33416319  0.87420608  1
  La3+  La8  1  0.13811215  0.66416659  0.12486713  1
  La3+  La9  1  0.13768248  0.66640059  0.37464932  1
  La3+  La10  1  0.13789397  0.66738743  0.62437024  1
  La3+  La11  1  0.13939158  0.66529201  0.87729800  1
  La3+  La12  1  0.63558283  0.00348363  0.12231879  1
  La3+  La13  1  0.63725773  0.00220242  0.37518904  1
  La3+  La14  1  0.63747963  0.00119768  0.62489642  1
  La3+  La15  1  0.63491924  0.00374999  0.87866511  1
  La3+  La16  1  0.63911116  0.33435808  0.12230919  1
  La3+  La17  1  0.63861169  0.33345472  0.37480690  1
  La3+  La18  1  0.63987329  0.33342828  0.62696043  1
  La3+  La19  1  0.64206678  0.33352547  0.87630134  1
  La3+  La20  1  0.63954489  0.66646503  0.12684789  1
  La3+  La21  1  0.63905395  0.66810596  0.37230591  1
  La3+  La22  1  0.63786588  0.66587283  0.62721454  1
  La3+  La23  1  0.63938130  0.66599967  0.87459307  1
  La3+  La24  1  0.36113572  -0.00088266  0.12483768  1
  La3+  La25  1  0.36243311  -0.00046595  0.37534039  1
  La3+  La26  1  0.36093570  0.00033226  0.62484324  1
  La3+  La27  1  0.36251788  0.00043414  0.87442945  1
  La3+  La28  1  0.36055323  0.33358388  0.12694283  1
  La3+  La29  1  0.36135852  0.33204011  0.37080578  1
  La3+  La30  1  0.36150699  0.33407807  0.62762668  1
  La3+  La31  1  0.36073118  0.33401392  0.87393077  1
  La3+  La32  1  0.36126809  0.66508244  0.12309072  1
  La3+  La33  1  0.36078743  0.66637910  0.37487365  1
  La3+  La34  1  0.36215254  0.66737893  0.62488444  1
  La3+  La35  1  0.35949216  0.66724910  0.87515529  1
  La3+  La36  1  0.86364422  0.00065991  0.12646399  1
  La3+  La37  1  0.86305070  -0.00001682  0.37324492  1
  La3+  La38  1  0.86198834  -0.00009218  0.62554281  1
  La3+  La39  1  0.86142119  0.00057858  0.87494323  1
  La3+  La40  1  0.86034391  0.33434779  0.12351335  1
  La3+  La41  1  0.86233719  0.33455517  0.37414701  1
  La3+  La42  1  0.85978056  0.33359163  0.62638145  1
  La3+  La43  1  0.85850062  0.33354732  0.87533997  1
  La3+  La44  1  0.86015774  0.66679646  0.12771476  1
  La3+  La45  1  0.86234210  0.66600972  0.37282307  1
  La3+  La46  1  0.86275062  0.66509017  0.62637206  1
  La3+  La47  1  0.86011959  0.66637626  0.87521399  1
  La3+  La48  1  -0.00239710  0.83334211  0.88305443  1
  La3+  La49  1  0.00429421  0.83084164  0.86336493  1
  La3+  La50  1  0.49969134  0.50233018  0.63624873  1
  La3+  La51  1  0.50054138  0.16612654  0.36748848  1
  La3+  La52  1  -0.00009118  0.16657261  0.63425437  1
  La3+  La53  1  0.50200747  0.49805015  0.88274231  1
  La3+  La54  1  0.00216495  0.16533811  0.86831992  1
  La3+  La55  1  -0.00034888  0.50056018  0.11958403  1
  La3+  La56  1  0.00009284  0.16658707  0.11597960  1
  La3+  La57  1  -0.00044813  0.83370452  0.61480295  1
  La3+  La58  1  0.49765437  0.16890629  0.11436996  1
  La3+  La59  1  0.50178741  0.16361598  0.86991264  1
  La3+  La60  1  -0.00111928  0.49868346  0.88300018  1
  La3+  La61  1  -0.00217014  0.82967155  0.37750578  1
  La3+  La62  1  -0.00051781  0.49354695  0.63339023  1
  La3+  La63  1  0.00016192  0.16604255  0.37601164  1
  La3+  La64  1  0.50240639  0.16288819  0.13463731  1
  La3+  La65  1  0.49991603  0.83151018  0.11498089  1
  La3+  La66  1  0.50060936  0.16593574  0.61215279  1
  La3+  La67  1  0.50012716  0.83297908  0.38525236  1
  La3+  La68  1  0.49955163  0.83498829  0.13477585  1
  La3+  La69  1  0.49973508  0.49866323  0.38602304  1
  La3+  La70  1  0.00478828  0.49955951  0.61314223  1
  La3+  La71  1  0.00103958  0.16415036  0.88514137  1
  La3+  La72  1  0.75044863  0.83047647  0.49891362  1
  La3+  La73  1  0.24978966  0.86115989  0.24979389  1
  La3+  La74  1  0.74994948  0.79719598  0.03453756  1
  La3+  La75  1  0.24997866  0.20277679  -0.00419315  1
  La3+  La76  1  0.25018541  0.13513754  0.50219187  1
  La3+  La77  1  0.75026515  0.50183118  0.21929565  1
  La3+  La78  1  0.24996292  0.83327441  0.48071801  1
  La3+  La79  1  0.74987244  0.13341252  0.21569148  1
  La3+  La80  1  0.24990187  0.80457310  0.74980490  1
  La3+  La81  1  0.24984462  0.19840033  0.23510054  1
  La3+  La82  1  0.24971434  0.50399539  0.53748235  1
  La3+  La83  1  0.24994096  0.83334214  -0.01912033  1
  Ru4+  Ru84  1  -0.00256047  0.00366003  0.00461852  1
  Ru4+  Ru85  1  0.00118054  -0.00592693  0.24503905  1
  Ru4+  Ru86  1  -0.00336806  -0.00228746  0.50358444  1
  Ru4+  Ru87  1  0.00143839  -0.00007659  0.74856101  1
  Ru4+  Ru88  1  0.00085871  0.33426760  0.00094516  1
  Ru4+  Ru89  1  -0.00054273  0.33232988  0.24935075  1
  Ru4+  Ru90  1  -0.00231206  0.33665767  0.50146985  1
  Ru4+  Ru91  1  0.00043020  0.33373616  0.75027643  1
  Ru4+  Ru92  1  -0.00281334  0.66961251  0.00264706  1
  Ru4+  Ru93  1  0.00014465  0.66806193  0.24708349  1
  Ru4+  Ru94  1  0.00279019  0.67139228  0.49851203  1
  Ru4+  Ru95  1  0.00166135  0.67051236  0.75124664  1
  Ru4+  Ru96  1  0.49990917  0.00223820  -0.00269178  1
  Ru4+  Ru97  1  0.50109325  -0.00007207  0.24981033  1
  Ru4+  Ru98  1  0.49609543  -0.00268497  0.49999192  1
  Ru4+  Ru99  1  0.50103075  -0.00061441  0.75177966  1
  Ru4+  Ru100  1  0.50023992  0.33778832  0.00193209  1
  Ru4+  Ru101  1  0.50122512  0.33736306  0.24983800  1
  Ru4+  Ru102  1  0.50046607  0.33159858  0.49965272  1
  Ru4+  Ru103  1  0.49865309  0.33223608  0.74940320  1
  Ru4+  Ru104  1  0.49982706  0.67016508  0.00057013  1
  Ru4+  Ru105  1  0.49978697  0.66772014  0.24826029  1
  Ru4+  Ru106  1  0.49984044  0.66692179  0.49874277  1
  Ru4+  Ru107  1  0.50088150  0.66757846  0.74977061  1
  Ru4+  Ru108  1  0.11181987  0.16610090  -0.00025269  1
  Ru4+  Ru109  1  0.11217676  0.16747483  0.24942278  1
  Ru4+  Ru110  1  0.11514690  0.16353532  0.50038944  1
  Ru4+  Ru111  1  0.11314138  0.16557331  0.75009473  1
  Ru4+  Ru112  1  0.11579112  0.49842378  -0.00005502  1
  Ru4+  Ru113  1  0.11553503  0.50120256  0.24998933  1
  Ru4+  Ru114  1  0.11148998  0.50147758  0.49892103  1
  Ru4+  Ru115  1  0.11463905  0.49884550  0.75061645  1
  Ru4+  Ru116  1  0.11524217  0.83136556  0.00178354  1
  Ru4+  Ru117  1  0.11118561  0.83274943  0.25076161  1
  Ru4+  Ru118  1  0.11285683  0.83175731  0.50021748  1
  Ru4+  Ru119  1  0.11183056  0.83261407  0.74948333  1
  Ru4+  Ru120  1  0.61274311  0.16488013  -0.00065082  1
  Ru4+  Ru121  1  0.61144616  0.16593966  0.24885979  1
  Ru4+  Ru122  1  0.61419336  0.16987238  0.50018591  1
  Ru4+  Ru123  1  0.61266111  0.16792669  0.75078244  1
  Ru4+  Ru124  1  0.61338681  0.49693591  0.00003286  1
  Ru4+  Ru125  1  0.61384997  0.50051752  0.25090619  1
  Ru4+  Ru126  1  0.61171168  0.49982720  0.49999385  1
  Ru4+  Ru127  1  0.61441614  0.50061724  0.74950599  1
  Ru4+  Ru128  1  0.61107536  0.83236004  0.00006940  1
  Ru4+  Ru129  1  0.61378791  0.83256731  0.25059511  1
  Ru4+  Ru130  1  0.61130517  0.83179560  0.49929935  1
  Ru4+  Ru131  1  0.61014758  0.83270556  0.74964166  1
  Ru4+  Ru132  1  0.38827692  0.16727484  -0.00022807  1
  Ru4+  Ru133  1  0.38574110  0.16425494  0.25041259  1
  Ru4+  Ru134  1  0.38881669  0.16506651  0.49991853  1
  Ru4+  Ru135  1  0.38741359  0.16533616  0.74989545  1
  Ru4+  Ru136  1  0.38598945  0.50051723  -0.00021711  1
  Ru4+  Ru137  1  0.38511798  0.49877411  0.25003832  1
  Ru4+  Ru138  1  0.38788633  0.50236246  0.50043257  1
  Ru4+  Ru139  1  0.38632454  0.49730028  0.74973519  1
  Ru4+  Ru140  1  0.38818904  0.83217139  -0.00087928  1
  Ru4+  Ru141  1  0.38902330  0.83364875  0.25065951  1
  Ru4+  Ru142  1  0.38907790  0.83326876  0.50036418  1
  Ru4+  Ru143  1  0.38824393  0.83298745  0.74983903  1
  Ru4+  Ru144  1  0.88630947  0.16681228  -0.00004241  1
  Ru4+  Ru145  1  0.88612730  0.16927783  0.24992533  1
  Ru4+  Ru146  1  0.88617336  0.16840709  0.50048956  1
  Ru4+  Ru147  1  0.88513364  0.16766043  0.74950573  1
  Ru4+  Ru148  1  0.88606252  0.49952552  -0.00003027  1
  Ru4+  Ru149  1  0.88812492  0.49954130  0.25066420  1
  Ru4+  Ru150  1  0.88526531  0.49721344  0.49918978  1
  Ru4+  Ru151  1  0.88338054  0.49721388  0.75098394  1
  Ru4+  Ru152  1  0.88832451  0.83189855  0.00090103  1
  Ru4+  Ru153  1  0.88742340  0.83316333  0.25028229  1
  Ru4+  Ru154  1  0.88923235  0.83319153  0.49991047  1
  Ru4+  Ru155  1  0.88703559  0.83144430  0.74935987  1
  Ru4+  Ru156  1  0.25032681  0.26334815  0.49907132  1
  Ru4+  Ru157  1  0.25011446  0.38591215  0.48899035  1
  Ru4+  Ru158  1  0.75024705  0.91288544  0.25018129  1
  Ru4+  Ru159  1  0.74971530  0.41519780  0.50582234  1
  Ru4+  Ru160  1  0.74960245  0.58180107  0.50329436  1
  Ru4+  Ru161  1  0.75008357  0.70676268  0.51001749  1
  Ru4+  Ru162  1  0.25002167  0.06296806  -0.00352458  1
  Ru4+  Ru163  1  0.25002533  0.58042084  0.75124181  1
  Ru4+  Ru164  1  0.25020550  0.25169353  0.75228543  1
  Ru4+  Ru165  1  0.75009671  0.95551990  0.49889109  1
  Ru4+  Ru166  1  0.24978407  0.06078716  0.25181737  1
  Ru4+  Ru167  1  0.75018004  0.92111935  0.74749971  1
  Ru4+  Ru168  1  0.25000125  0.72629841  0.24606934  1
  Ru4+  Ru169  1  0.24994423  0.42432225  0.00401275  1
  Ru4+  Ru170  1  0.74998779  0.24843956  0.50676734  1
  Ru4+  Ru171  1  0.24995058  0.94095889  0.75226859  1
  Ru4+  Ru172  1  0.24993703  0.62605330  0.49378494  1
  Ru4+  Ru173  1  0.74980426  0.26226545  0.25014997  1
  Ru4+  Ru174  1  0.74971741  0.08788747  0.75366019  1
  Ru4+  Ru175  1  0.74995714  0.08857731  0.50699179  1
  Ru4+  Ru176  1  0.75001653  0.74769149  0.74578387  1
  Ru4+  Ru177  1  0.74974830  0.92898698  -0.00642022  1
  Ru4+  Ru178  1  0.75019413  0.09049135  -0.00331642  1
  Ru4+  Ru179  1  0.74990620  0.57879000  0.00405333  1
  O2-  O180  1  0.16699897  0.07979200  0.00018971  1
  O2-  O181  1  0.16740104  0.07907487  0.24961765  1
  O2-  O182  1  0.16818478  0.07909559  0.50043050  1
  O2-  O183  1  0.16795904  0.08148703  0.75097644  1
  O2-  O184  1  0.16687059  0.41402319  -0.00057511  1
  O2-  O185  1  0.16708519  0.41545661  0.24976337  1
  O2-  O186  1  0.16674831  0.41329836  0.50020724  1
  O2-  O187  1  0.16594318  0.41528482  0.75021852  1
  O2-  O188  1  0.16872080  0.74738577  -0.00075787  1
  O2-  O189  1  0.16804585  0.74690119  0.24915336  1
  O2-  O190  1  0.16849350  0.74738317  0.50038907  1
  O2-  O191  1  0.16619626  0.74606200  0.74902459  1
  O2-  O192  1  0.66792291  0.08087646  -0.00006518  1
  O2-  O193  1  0.66654497  0.07918722  0.25058729  1
  O2-  O194  1  0.66735564  0.08032489  0.50044391  1
  O2-  O195  1  0.66806365  0.07946113  0.74946101  1
  O2-  O196  1  0.66699804  0.41598552  -0.00071241  1
  O2-  O197  1  0.66774848  0.41483573  0.24998668  1
  O2-  O198  1  0.66709261  0.41360649  0.49996754  1
  O2-  O199  1  0.66668687  0.41416936  0.74931414  1
  O2-  O200  1  0.66651470  0.74707372  -0.00039276  1
  O2-  O201  1  0.66927865  0.74927785  0.25069462  1
  O2-  O202  1  0.66527837  0.74664501  0.50050266  1
  O2-  O203  1  0.66777700  0.74814889  0.75007275  1
  O2-  O204  1  0.33395707  0.25442085  -0.00034573  1
  O2-  O205  1  0.33419761  0.25295193  0.24940387  1
  O2-  O206  1  0.33316439  0.25343026  0.50034791  1
  O2-  O207  1  0.33188713  0.25228209  0.74979524  1
  O2-  O208  1  0.33237975  0.58515767  0.00089051  1
  O2-  O209  1  0.33224757  0.58575347  0.24961443  1
  O2-  O210  1  0.33279309  0.58669964  0.49983780  1
  O2-  O211  1  0.33300086  0.58620980  0.74926113  1
  O2-  O212  1  0.33321071  0.91979156  -0.00068051  1
  O2-  O213  1  0.33221275  0.92107517  0.25001157  1
  O2-  O214  1  0.33224893  0.91997151  0.49933366  1
  O2-  O215  1  0.33331896  0.92019142  0.75060256  1
  O2-  O216  1  0.83353310  0.25141351  0.00025602  1
  O2-  O217  1  0.83364321  0.25288567  0.24969426  1
  O2-  O218  1  0.83290594  0.25171615  0.49995782  1
  O2-  O219  1  0.83214058  0.25144702  0.74986672  1
  O2-  O220  1  0.83308739  0.58595008  0.00003360  1
  O2-  O221  1  0.83261950  0.58514374  0.25115393  1
  O2-  O222  1  0.83211375  0.58559289  0.49974606  1
  O2-  O223  1  0.83203185  0.58598601  0.74935980  1
  O2-  O224  1  0.83357168  0.92052836  -0.00009629  1
  O2-  O225  1  0.83142596  0.91790857  0.25033594  1
  O2-  O226  1  0.83344998  0.92115501  0.50027779  1
  O2-  O227  1  0.83201650  0.92048848  0.75046202  1
  O2-  O228  1  0.16554693  0.25454890  -0.00027364  1
  O2-  O229  1  0.16494457  0.25317801  0.25004470  1
  O2-  O230  1  0.16757256  0.25343210  0.50013408  1
  O2-  O231  1  0.16780034  0.25170461  0.75026721  1
  O2-  O232  1  0.16729337  0.58582362  -0.00027904  1
  O2-  O233  1  0.16594966  0.58442714  0.24942515  1
  O2-  O234  1  0.16764162  0.58704159  0.50042902  1
  O2-  O235  1  0.16725038  0.58628325  0.74965768  1
  O2-  O236  1  0.16738655  0.91912484  -0.00076983  1
  O2-  O237  1  0.16637031  0.92030755  0.24929912  1
  O2-  O238  1  0.16865212  0.91968964  0.49901984  1
  O2-  O239  1  0.16783181  0.92029484  0.75067547  1
  O2-  O240  1  0.66675511  0.25027951  -0.00010560  1
  O2-  O241  1  0.66753463  0.25382553  0.25055142  1
  O2-  O242  1  0.66674767  0.25191050  0.50060073  1
  O2-  O243  1  0.66644597  0.25217381  0.74891320  1
  O2-  O244  1  0.66774685  0.58635664  -0.00081620  1
  O2-  O245  1  0.66757305  0.58443447  0.25031769  1
  O2-  O246  1  0.66732034  0.58618921  0.50038038  1
  O2-  O247  1  0.66634274  0.58578621  0.74996336  1
  O2-  O248  1  0.66643296  0.92140651  -0.00007542  1
  O2-  O249  1  0.66716442  0.91842832  0.25037837  1
  O2-  O250  1  0.66606806  0.92131482  0.50073900  1
  O2-  O251  1  0.66710252  0.91998376  0.75044254  1
  O2-  O252  1  0.33321516  0.07936200  -0.00086841  1
  O2-  O253  1  0.33279465  0.07960987  0.24975048  1
  O2-  O254  1  0.33328534  0.07946686  0.50055005  1
  O2-  O255  1  0.33330453  0.08091513  0.75032149  1
  O2-  O256  1  0.33341069  0.41417643  -0.00016897  1
  O2-  O257  1  0.33487031  0.41631874  0.24967948  1
  O2-  O258  1  0.33328639  0.41301527  0.50031443  1
  O2-  O259  1  0.33321791  0.41545704  0.75035574  1
  O2-  O260  1  0.33115308  0.74699586  0.00015955  1
  O2-  O261  1  0.33318294  0.74668518  0.24942487  1
  O2-  O262  1  0.33214071  0.74668469  0.50020993  1
  O2-  O263  1  0.33358387  0.74660192  0.74893451  1
  O2-  O264  1  0.83162217  0.08081040  -0.00001389  1
  O2-  O265  1  0.83314298  0.08002873  0.25051241  1
  O2-  O266  1  0.83243554  0.08088375  0.50014025  1
  O2-  O267  1  0.83236409  0.08071374  0.74985148  1
  O2-  O268  1  0.83386713  0.41500422  0.00023985  1
  O2-  O269  1  0.83200385  0.41416465  0.24964142  1
  O2-  O270  1  0.83306031  0.41457249  0.49948250  1
  O2-  O271  1  0.83357261  0.41452755  0.75023127  1
  O2-  O272  1  0.83324925  0.74699149  0.00003050  1
  O2-  O273  1  0.83325292  0.74867572  0.25082606  1
  O2-  O274  1  0.83462376  0.74591448  0.50024410  1
  O2-  O275  1  0.83260803  0.74800768  0.74961073  1
  O2-  O276  1  0.04574537  0.56923634  0.97922804  1
  O2-  O277  1  0.54012606  0.77633153  0.23538076  1
  O2-  O278  1  0.54238851  0.89250228  0.52856432  1
  O2-  O279  1  0.05006883  0.08664083  0.54836076  1
  O2-  O280  1  0.95493907  0.43132300  0.01436489  1
  O2-  O281  1  0.54587047  0.90205732  0.76459711  1
  O2-  O282  1  0.45389568  0.42808447  0.98600730  1
  O2-  O283  1  0.45498682  0.76494779  0.51370303  1
  O2-  O284  1  0.95811874  0.10347603  0.47483840  1
  O2-  O285  1  0.95583113  0.76647723  0.24393669  1
  O2-  O286  1  0.95344414  0.90281605  0.76260789  1
  O2-  O287  1  0.95429210  0.09922213  0.27004210  1
  O2-  O288  1  0.04608139  0.56791242  0.01848457  1
  O2-  O289  1  0.45323899  0.23523734  0.26270423  1
  O2-  O290  1  0.95132990  0.76195846  0.01621059  1
  O2-  O291  1  0.45553960  0.56869119  0.76539367  1
  O2-  O292  1  0.04000756  0.89261851  0.47363830  1
  O2-  O293  1  0.46408536  0.55639730  0.99813171  1
  O2-  O294  1  0.45492956  0.23227545  0.48634673  1
  O2-  O295  1  0.54450977  0.90068928  0.98496187  1
  O2-  O296  1  0.95522152  0.23684890  0.23373117  1
  O2-  O297  1  0.95216561  0.23651941  0.48737100  1
  O2-  O298  1  0.55513095  0.58412615  0.02570081  1
  O2-  O299  1  0.95378808  0.76512505  0.25658892  1
  O2-  O300  1  0.54552613  0.43146956  0.73607582  1
  O2-  O301  1  0.54139535  0.10553998  0.01041919  1
  O2-  O302  1  0.95224315  0.90521462  0.98647532  1
  O2-  O303  1  0.54951892  0.09382095  0.98809646  1
  O2-  O304  1  0.94583985  0.57840059  0.71090977  1
  O2-  O305  1  0.95449972  0.09897612  0.23069494  1
  O2-  O306  1  0.96074817  0.56133944  0.49889517  1
  O2-  O307  1  0.04603077  0.42804769  0.73817248  1
  O2-  O308  1  0.04704579  0.23500004  0.98676332  1
  O2-  O309  1  0.96103708  0.22663512  0.77886748  1
  O2-  O310  1  0.95282290  0.23393444  0.98669477  1
  O2-  O311  1  0.46075545  0.44235369  0.52758639  1
  O2-  O312  1  0.95401610  0.09557896  0.76336035  1
  O2-  O313  1  0.04575262  0.56891128  0.76709235  1
  O2-  O314  1  0.04996840  0.90652723  0.98436707  1
  O2-  O315  1  0.05478599  0.24724714  0.46767425  1
  O2-  O316  1  0.03731849  0.77978483  0.00986643  1
  O2-  O317  1  0.53800248  0.77656367  0.26381650  1
  O2-  O318  1  0.54595527  0.09775722  0.48329272  1
  O2-  O319  1  0.95938051  0.56042681  0.47981756  1
  O2-  O320  1  0.95411636  0.42860687  0.48682575  1
  O2-  O321  1  0.54021405  0.43611793  0.22374307  1
  O2-  O322  1  0.53360918  0.55502956  0.25531737  1
  O2-  O323  1  0.45244541  0.90534716  0.48478835  1
  O2-  O324  1  0.43681305  0.25881022  0.27783192  1
  O2-  O325  1  0.42817078  0.39701077  0.45788197  1
  O2-  O326  1  0.56963548  0.72902026  0.30791018  1
  O2-  O327  1  0.06279191  0.93188394  0.96515862  1
  O2-  O328  1  0.56595323  0.26009167  0.22063343  1
  O2-  O329  1  0.07677682  0.72010033  0.03606327  1
  O2-  O330  1  0.06522739  0.40592508  0.20384387  1
  O2-  O331  1  0.56254797  0.07416430  0.46906259  1
  O2-  O332  1  0.56328082  0.26437664  0.94579309  1
  O2-  O333  1  0.55533910  0.58221572  0.02283489  1
  O2-  O334  1  0.56711299  0.06575305  0.03262485  1
  O2-  O335  1  0.93598827  0.59670930  0.21657139  1
  O2-  O336  1  0.06369379  0.07005159  0.71720177  1
  O2-  O337  1  0.94588810  0.57826346  0.71096831  1
  O2-  O338  1  0.93427275  0.92706521  0.47054627  1
  O2-  O339  1  0.43672776  0.73945543  0.96803983  1
  O2-  O340  1  0.93408761  0.92870813  0.27965667  1
  O2-  O341  1  0.43484887  0.59478912  0.20428219  1
  O2-  O342  1  0.93498626  0.07163630  0.02830423  1
  O2-  O343  1  0.06463265  0.73937361  0.47143559  1
  O2-  O344  1  0.56857345  0.93588819  0.45535642  1
  O2-  O345  1  0.91998445  0.61348500  0.54499621  1
  O2-  O346  1  0.06592888  0.40731271  0.29543470  1
  O2-  O347  1  0.43434450  0.59539390  0.52874106  1
  O2-  O348  1  0.05416803  0.09190756  0.53971924  1
  O2-  O349  1  0.56534509  0.40529862  0.02752591  1
  O2-  O350  1  0.06447486  0.93093063  0.78252521  1
  O2-  O351  1  0.56935386  0.72497412  0.19297726  1
  O2-  O352  1  0.43610705  0.93049265  0.28320606  1
  O2-  O353  1  0.06691246  0.59292087  0.47111259  1
  O2-  O354  1  0.57376186  0.60886658  0.29308082  1
  O2-  O355  1  0.43573170  0.26436428  0.03167640  1
  O2-  O356  1  0.07397557  0.06630399  0.43530422  1
  O2-  O357  1  0.42596283  0.61003026  0.95874960  1
  O2-  O358  1  0.56524781  0.73767975  0.72209741  1
  O2-  O359  1  0.06624887  0.73865879  0.27952890  1
  O2-  O360  1  0.93422563  0.40559800  0.27809979  1
  O2-  O361  1  0.56834041  0.39614752  0.29447710  1
  O2-  O362  1  0.05496954  0.24744328  0.46779456  1
  O2-  O363  1  0.06727920  0.26716283  0.55474329  1
  O2-  O364  1  0.92973013  0.27628984  0.69871675  1
  O2-  O365  1  0.06996826  0.93885292  0.54842424  1
  O2-  O366  1  0.43468035  0.40484135  0.72068755  1
  O2-  O367  1  0.92786157  0.60153957  0.81390867  1
  O2-  O368  1  0.06442144  0.40459541  0.53276846  1
  O2-  O369  1  0.92927298  0.06476564  0.54220750  1
  O2-  O370  1  0.56615904  0.26092149  0.04920324  1
  O2-  O371  1  0.43605290  0.59732961  0.30114674  1
  O2-  O372  1  0.24981294  0.66738518  0.84198326  1
  O2-  O373  1  0.74987446  0.00435086  0.90070015  1
  O2-  O374  1  0.75012924  0.66197082  0.39804985  1
  O2-  O375  1  0.74996147  0.66930217  0.92109725  1
  O2-  O376  1  0.25015536  0.00173852  0.65428792  1
  O2-  O377  1  0.74995610  0.66525637  0.15136833  1
  O2-  O378  1  0.74997643  0.00606842  0.39430496  1
  O2-  O379  1  0.25001236  0.33159549  0.07883589  1
  O2-  O380  1  0.75013663  0.34134127  0.16630767  1
  O2-  O381  1  0.74982571  0.33281222  0.59480315  1
  O2-  O382  1  0.74976507  0.00590828  0.60600344  1
  O2-  O383  1  0.74994178  0.33218756  0.42311192  1
  O2-  O384  1  0.24997210  0.33066448  0.84267352  1
  O2-  O385  1  0.74998444  0.66502028  0.82935783  1
  O2-  O386  1  0.75006228  0.34281883  0.33282534  1
  O2-  O387  1  0.25016954  0.66600989  0.34662349  1
  O2-  O388  1  0.75011268  0.33342595  0.90594968  1
  O2-  O389  1  0.25004926  0.32987082  0.65682753  1
  O2-  O390  1  0.74989559  0.00723716  0.08095220  1
  O2-  O391  1  0.75018994  0.33179573  0.07852042  1
  O2-  O392  1  0.24989022  -0.00112841  0.09678539  1
  O2-  O393  1  0.24984938  0.33264769  0.34904749  1
  O2-  O394  1  0.74987629  -0.00071034  0.17882867  1
  O2-  O395  1  0.25004568  0.33385492  0.16951413  1
  O2-  O396  1  0.74995294  0.50029494  0.66771740  1
  O2-  O397  1  0.75008860  0.83751377  0.90792206  1
  O2-  O398  1  0.75006056  0.49855325  0.91725335  1
  O2-  O399  1  0.25000939  0.83127291  0.11121856  1
  O2-  O400  1  0.24990262  0.49732622  0.83128979  1
  O2-  O401  1  0.24997819  0.49997116  0.32014103  1
  O2-  O402  1  0.25007133  0.50029954  0.40148805  1
  O2-  O403  1  0.25004037  0.83279810  0.61027736  1
  O2-  O404  1  0.24997411  0.49654930  0.08686902  1
  O2-  O405  1  0.75015602  0.17091142  0.34109317  1
  O2-  O406  1  0.74997313  0.16723761  0.42753574  1
  O2-  O407  1  0.75005677  0.49840690  0.42786549  1
  O2-  O408  1  0.74993374  0.83331183  0.65863969  1
  O2-  O409  1  0.25008223  0.16148296  0.36397989  1
  O2-  O410  1  0.75004348  0.16198003  0.83835497  1
  O2-  O411  1  0.24999743  0.50253852  0.66551973  1
  O2-  O412  1  0.75003653  0.50016855  0.58499622  1
  O2-  O413  1  0.75003914  0.50168573  0.83423753  1
  O2-  O414  1  0.24998023  0.15829586  0.11334426  1
  O2-  O415  1  0.74996723  0.83341926  0.82008890  1
  O2-  O416  1  0.24997605  0.50264268  0.91787253  1
  O2-  O417  1  0.24999186  0.16025494  0.87752419  1
  O2-  O418  1  0.75013223  0.50186217  0.08538480  1
  O2-  O419  1  0.74989314  0.50047870  0.34472747  1
  O2-  O420  1  0.52198090  0.33430928  0.12784419  1
  O2-  O421  1  0.96835410  0.66798292  0.37510202  1
  O2-  O422  1  0.47159679  0.00046070  0.87444551  1
  O2-  O423  1  0.97500066  0.67128213  0.88119130  1
  O2-  O424  1  0.02932690  -0.00528547  0.36596060  1
  O2-  O425  1  0.02547209  0.66351199  0.12984607  1
  O2-  O426  1  0.47246485  0.67141969  0.12064112  1
  O2-  O427  1  0.96247824  0.33507147  0.87585432  1
  O2-  O428  1  0.02666762  0.66453619  0.37333704  1
  O2-  O429  1  0.47159582  -0.00128516  0.12463531  1
  O2-  O430  1  0.97315305  -0.00389063  0.62886131  1
  O2-  O431  1  0.02577225  0.32988945  0.12103807  1
  O2-  O432  1  0.47484821  0.32905415  0.62284258  1
  O2-  O433  1  0.03724224  0.66743610  0.62478316  1
  O2-  O434  1  0.47262096  0.33194952  0.87356844  1
  O2-  O435  1  0.97436506  -0.00263024  0.12874824  1
  O2-  O436  1  0.03773413  0.33424626  0.87389080  1
  O2-  O437  1  0.97108466  0.00336282  0.37607164  1
  O2-  O438  1  0.47683737  0.33512095  0.37341212  1
  O2-  O439  1  0.52923932  0.66359715  0.62090195  1
  O2-  O440  1  0.47103877  0.66811239  0.63001686  1
  O2-  O441  1  0.97009523  0.33057384  0.37496619  1
  O2-  O442  1  0.96726168  0.67775893  0.62441921  1
  O2-  O443  1  0.02763231  0.33157574  0.37488678  1
