# generated using pymatgen
data_La7(Ru4O11)2
_symmetry_space_group_name_H-M   'P 1'
_cell_length_a   23.99040393
_cell_length_b   16.83123437
_cell_length_c   15.42743511
_cell_angle_alpha   90.00143109
_cell_angle_beta   90.00034209
_cell_angle_gamma   90.00002943
_symmetry_Int_Tables_number   1
_chemical_formula_structural   La7(Ru4O11)2
_chemical_formula_sum   'La84 Ru96 O264'
_cell_volume   6229.41488137
_cell_formula_units_Z   12
loop_
 _symmetry_equiv_pos_site_id
 _symmetry_equiv_pos_as_xyz
  1  'x, y, z'
loop_
 _atom_type_symbol
 _atom_type_oxidation_number
  La3+  3.0
  Ru4+  4.0
  O2-  -2.0
loop_
 _atom_site_type_symbol
 _atom_site_label
 _atom_site_symmetry_multiplicity
 _atom_site_fract_x
 _atom_site_fract_y
 _atom_site_fract_z
 _atom_site_occupancy
  La3+  La0  1  0.13837517  0.00121776  0.13123789  1
  La3+  La1  1  0.14282669  0.00420071  0.36863354  1
  La3+  La2  1  0.13970055  0.00085963  0.62504414  1
  La3+  La3  1  0.13759922  0.00251849  0.87057373  1
  La3+  La4  1  0.14022770  0.33176831  0.12600091  1
  La3+  La5  1  0.14134263  0.32891332  0.37786053  1
  La3+  La6  1  0.14099021  0.33135073  0.62638088  1
  La3+  La7  1  0.14120980  0.33255991  0.87119789  1
  La3+  La8  1  0.13876392  0.66942396  0.12362112  1
  La3+  La9  1  0.14198260  0.66715392  0.37208156  1
  La3+  La10  1  0.12765787  0.67477840  0.63406499  1
  La3+  La11  1  0.13347572  0.67176885  0.86976843  1
  La3+  La12  1  0.64000453  -0.00303252  0.12623176  1
  La3+  La13  1  0.63679722  -0.00271869  0.37173424  1
  La3+  La14  1  0.62949917  -0.00984414  0.63737915  1
  La3+  La15  1  0.63596119  -0.01240248  0.87124651  1
  La3+  La16  1  0.63846439  0.33651249  0.12935957  1
  La3+  La17  1  0.64032154  0.33281973  0.37105933  1
  La3+  La18  1  0.63858229  0.33790212  0.62599065  1
  La3+  La19  1  0.63589568  0.33578667  0.87691448  1
  La3+  La20  1  0.63211150  0.67192320  0.11436638  1
  La3+  La21  1  0.63981475  0.66445751  0.37285653  1
  La3+  La22  1  0.63243111  0.67111253  0.63098066  1
  La3+  La23  1  0.63144538  0.67588610  0.87877238  1
  La3+  La24  1  0.35811316  0.00005942  0.12919144  1
  La3+  La25  1  0.35831138  0.00018276  0.37081869  1
  La3+  La26  1  0.36077223  0.00144340  0.62848168  1
  La3+  La27  1  0.36336569  0.00161899  0.87111812  1
  La3+  La28  1  0.36034341  0.33110870  0.12592534  1
  La3+  La29  1  0.35544224  0.33181786  0.37499068  1
  La3+  La30  1  0.35633957  0.33008062  0.62610408  1
  La3+  La31  1  0.35858169  0.33335218  0.87235191  1
  La3+  La32  1  0.36439131  0.66716415  0.12547574  1
  La3+  La33  1  0.36199658  0.66653068  0.37732590  1
  La3+  La34  1  0.36436738  0.66649422  0.62038693  1
  La3+  La35  1  0.35879251  0.66366253  0.87789117  1
  La3+  La36  1  0.85902067  -0.00123005  0.12678601  1
  La3+  La37  1  0.86309733  -0.00205766  0.37833850  1
  La3+  La38  1  0.85712323  0.00152769  0.62434963  1
  La3+  La39  1  0.86406242  -0.00396899  0.87545674  1
  La3+  La40  1  0.86443071  0.33583238  0.13239491  1
  La3+  La41  1  0.86197808  0.33238350  0.36530387  1
  La3+  La42  1  0.86687083  0.33410335  0.62496303  1
  La3+  La43  1  0.86434507  0.33570447  0.87627832  1
  La3+  La44  1  0.85879456  0.66473068  0.12638353  1
  La3+  La45  1  0.85963415  0.66720256  0.37376673  1
  La3+  La46  1  0.86248981  0.67009503  0.62491447  1
  La3+  La47  1  0.85914990  0.66934833  0.87627219  1
  La3+  La48  1  0.50088359  0.16421493  0.88077082  1
  La3+  La49  1  0.49573155  0.16282456  0.37152408  1
  La3+  La50  1  0.50084238  0.50144348  0.38292493  1
  La3+  La51  1  0.49794550  0.49860841  0.11753428  1
  La3+  La52  1  0.50269227  0.82939970  0.11949314  1
  La3+  La53  1  0.00261580  0.16964341  0.12801474  1
  La3+  La54  1  0.49975290  0.83472933  0.36514633  1
  La3+  La55  1  0.50501388  0.83088786  0.86576127  1
  La3+  La56  1  0.00011691  0.50272464  0.86191757  1
  La3+  La57  1  0.49755891  0.16106276  0.86534991  1
  La3+  La58  1  -0.00479357  0.50368106  0.12769205  1
  La3+  La59  1  0.00563011  0.83129902  0.37326368  1
  La3+  La60  1  -0.00759111  0.48500385  0.37284283  1
  La3+  La61  1  -0.00348620  0.83172051  0.64574905  1
  La3+  La62  1  -0.00040789  0.82297827  0.62585529  1
  La3+  La63  1  0.49990229  0.50346261  0.62057661  1
  La3+  La64  1  0.00018784  0.16571626  0.88272095  1
  La3+  La65  1  0.50306927  0.84018211  0.38585824  1
  La3+  La66  1  -0.00210035  0.16812142  0.61551404  1
  La3+  La67  1  0.50119845  0.16401698  0.61716187  1
  La3+  La68  1  -0.00456646  0.50457948  0.11068308  1
  La3+  La69  1  0.49971488  0.50464258  0.86633080  1
  La3+  La70  1  0.50692039  0.84024354  0.88334578  1
  La3+  La71  1  0.00485024  0.82706258  0.88025572  1
  La3+  La72  1  0.25000424  0.79266681  -0.04300035  1
  La3+  La73  1  0.24985222  0.79886512  0.50305788  1
  La3+  La74  1  0.25008944  0.54276408  0.20663016  1
  La3+  La75  1  0.24994338  0.16350736  0.26221296  1
  La3+  La76  1  0.74886500  0.51512769  0.45684749  1
  La3+  La77  1  0.74986429  0.51434193  0.82289982  1
  La3+  La78  1  0.74993144  0.49908582  -0.00282557  1
  La3+  La79  1  0.75005609  0.14862140  0.75862568  1
  La3+  La80  1  0.25035917  0.21610379  0.00889692  1
  La3+  La81  1  0.75047628  0.16231159  0.04667385  1
  La3+  La82  1  0.75125039  0.20888062  0.50674146  1
  La3+  La83  1  0.24936883  0.46102377  0.75302631  1
  Ru4+  Ru84  1  -0.00107847  -0.00178180  0.00159669  1
  Ru4+  Ru85  1  -0.00186906  -0.00638650  0.25179176  1
  Ru4+  Ru86  1  -0.00329883  -0.00370194  0.49627436  1
  Ru4+  Ru87  1  -0.00174776  0.00369038  0.75188331  1
  Ru4+  Ru88  1  0.00033924  0.33093365  -0.00409614  1
  Ru4+  Ru89  1  0.00857986  0.33097392  0.25305495  1
  Ru4+  Ru90  1  -0.00008312  0.33540602  0.50577488  1
  Ru4+  Ru91  1  0.00251399  0.32863682  0.74702121  1
  Ru4+  Ru92  1  0.00004127  0.66689555  -0.00595120  1
  Ru4+  Ru93  1  -0.00011466  0.66946346  0.25357589  1
  Ru4+  Ru94  1  0.00015625  0.66598001  0.49861968  1
  Ru4+  Ru95  1  -0.00009167  0.66359182  0.74932951  1
  Ru4+  Ru96  1  0.50241200  -0.00072893  0.00023346  1
  Ru4+  Ru97  1  0.49511748  0.00874064  0.24862972  1
  Ru4+  Ru98  1  0.50012719  0.00044766  0.50086224  1
  Ru4+  Ru99  1  0.50134811  -0.00106119  0.74289891  1
  Ru4+  Ru100  1  0.49924034  0.33502083  0.00408376  1
  Ru4+  Ru101  1  0.50575750  0.33280241  0.24389606  1
  Ru4+  Ru102  1  0.50865124  0.32698808  0.50488426  1
  Ru4+  Ru103  1  0.49674850  0.33092262  0.74979960  1
  Ru4+  Ru104  1  0.50269890  0.67070710  0.00271259  1
  Ru4+  Ru105  1  0.50102733  0.66399784  0.24154852  1
  Ru4+  Ru106  1  0.50924177  0.66669650  0.50132999  1
  Ru4+  Ru107  1  0.48873877  0.66664122  0.75116264  1
  Ru4+  Ru108  1  0.11072716  0.16429952  -0.00138118  1
  Ru4+  Ru109  1  0.11441960  0.17288682  0.25013453  1
  Ru4+  Ru110  1  0.11334576  0.17052379  0.50080119  1
  Ru4+  Ru111  1  0.11448883  0.16501598  0.75052353  1
  Ru4+  Ru112  1  0.11278046  0.50272942  0.00081991  1
  Ru4+  Ru113  1  0.10993920  0.50019773  0.25064484  1
  Ru4+  Ru114  1  0.11037828  0.49772889  0.49919100  1
  Ru4+  Ru115  1  0.10928210  0.50187935  0.74991491  1
  Ru4+  Ru116  1  0.10991824  0.83188100  -0.00518501  1
  Ru4+  Ru117  1  0.11307862  0.83265281  0.24882642  1
  Ru4+  Ru118  1  0.11101761  0.83568306  0.49880269  1
  Ru4+  Ru119  1  0.11115019  0.83021100  0.75505022  1
  Ru4+  Ru120  1  0.61009367  0.16451204  -0.00039123  1
  Ru4+  Ru121  1  0.61517519  0.16735629  0.24974382  1
  Ru4+  Ru122  1  0.61128802  0.16620944  0.49941689  1
  Ru4+  Ru123  1  0.60938103  0.16341289  0.75174820  1
  Ru4+  Ru124  1  0.61105250  0.50145807  -0.00017331  1
  Ru4+  Ru125  1  0.61568378  0.50115544  0.24887031  1
  Ru4+  Ru126  1  0.60851953  0.50062977  0.49829253  1
  Ru4+  Ru127  1  0.61821065  0.50246284  0.74932212  1
  Ru4+  Ru128  1  0.61058589  0.83510611  -0.00210888  1
  Ru4+  Ru129  1  0.61584414  0.82631660  0.24499660  1
  Ru4+  Ru130  1  0.61683409  0.83318873  0.50529935  1
  Ru4+  Ru131  1  0.61581185  0.83780872  0.75064545  1
  Ru4+  Ru132  1  0.39098279  0.16832136  0.00038183  1
  Ru4+  Ru133  1  0.38946534  0.16458555  0.24909143  1
  Ru4+  Ru134  1  0.38422763  0.16717559  0.49862275  1
  Ru4+  Ru135  1  0.38440488  0.16668998  0.74862993  1
  Ru4+  Ru136  1  0.38752454  0.50201495  -0.00011344  1
  Ru4+  Ru137  1  0.38894767  0.50215504  0.24939592  1
  Ru4+  Ru138  1  0.38395558  0.49489469  0.50053211  1
  Ru4+  Ru139  1  0.38848942  0.50218646  0.75067094  1
  Ru4+  Ru140  1  0.39030759  0.82985625  0.00212826  1
  Ru4+  Ru141  1  0.38606404  0.83518719  0.24752767  1
  Ru4+  Ru142  1  0.38514439  0.84079254  0.50262007  1
  Ru4+  Ru143  1  0.38736541  0.83192027  0.74638674  1
  Ru4+  Ru144  1  0.89052779  0.16744876  0.00047300  1
  Ru4+  Ru145  1  0.88309767  0.16483694  0.25040422  1
  Ru4+  Ru146  1  0.88987906  0.16632269  0.50048319  1
  Ru4+  Ru147  1  0.89091233  0.16858743  0.75009082  1
  Ru4+  Ru148  1  0.88698748  0.50375779  -0.00111724  1
  Ru4+  Ru149  1  0.88160503  0.50750974  0.25097475  1
  Ru4+  Ru150  1  0.89050974  0.49940354  0.50110031  1
  Ru4+  Ru151  1  0.89026435  0.50750442  0.74968366  1
  Ru4+  Ru152  1  0.88812847  0.83538166  -0.00063674  1
  Ru4+  Ru153  1  0.88791640  0.83345368  0.24966909  1
  Ru4+  Ru154  1  0.88516081  0.83915297  0.50101595  1
  Ru4+  Ru155  1  0.88541053  0.83224443  0.75331603  1
  Ru4+  Ru156  1  0.75066215  0.40331367  0.72849725  1
  Ru4+  Ru157  1  0.25018157  0.07148912  -0.01206939  1
  Ru4+  Ru158  1  0.25005089  0.40647556  0.25358314  1
  Ru4+  Ru159  1  0.75014034  0.29704675  0.00596941  1
  Ru4+  Ru160  1  0.75015338  0.01325947  0.76139281  1
  Ru4+  Ru161  1  0.75090585  0.76672116  0.24566345  1
  Ru4+  Ru162  1  0.74957779  0.03590102  -0.01885363  1
  Ru4+  Ru163  1  0.24994648  0.42799291  -0.00494930  1
  Ru4+  Ru164  1  0.75006196  0.62857178  0.73030284  1
  Ru4+  Ru165  1  0.24978698  0.92870168  -0.00442516  1
  Ru4+  Ru166  1  0.75082365  0.90091802  0.24942555  1
  Ru4+  Ru167  1  0.24931175  0.58824154  0.50535041  1
  Ru4+  Ru168  1  0.75014995  0.75785869  0.00213475  1
  Ru4+  Ru169  1  0.24979109  0.90671890  0.75063738  1
  Ru4+  Ru170  1  0.24971548  0.60522592  0.73333134  1
  Ru4+  Ru171  1  0.74909320  0.05968186  0.50398961  1
  Ru4+  Ru172  1  0.24999681  0.08946725  0.49588572  1
  Ru4+  Ru173  1  0.75031722  0.38688252  0.50967433  1
  Ru4+  Ru174  1  0.24992856  0.94769314  0.48509821  1
  Ru4+  Ru175  1  0.74999639  0.27935741  0.75876464  1
  Ru4+  Ru176  1  0.75004461  0.64294271  0.51820732  1
  Ru4+  Ru177  1  0.25010278  0.75055463  0.25418558  1
  Ru4+  Ru178  1  0.24991131  0.41556671  0.50646471  1
  Ru4+  Ru179  1  0.25053845  0.76365435  0.74713094  1
  O2-  O180  1  0.16512950  0.07995073  -0.00137788  1
  O2-  O181  1  0.16630086  0.08349819  0.24794522  1
  O2-  O182  1  0.16551357  0.08078197  0.50095619  1
  O2-  O183  1  0.16717340  0.07988271  0.74940023  1
  O2-  O184  1  0.16594540  0.41358653  0.00070190  1
  O2-  O185  1  0.16763106  0.41505270  0.24709786  1
  O2-  O186  1  0.16495768  0.41571914  0.50121599  1
  O2-  O187  1  0.16135227  0.41333716  0.75060891  1
  O2-  O188  1  0.16608975  0.74635961  0.00059469  1
  O2-  O189  1  0.16890423  0.74750744  0.25060669  1
  O2-  O190  1  0.16680963  0.74690330  0.49751986  1
  O2-  O191  1  0.16898407  0.74975227  0.74858196  1
  O2-  O192  1  0.66641075  0.07963300  0.00133485  1
  O2-  O193  1  0.66470634  0.07922472  0.24921458  1
  O2-  O194  1  0.66610400  0.07969314  0.50073194  1
  O2-  O195  1  0.66722250  0.07517151  0.74976442  1
  O2-  O196  1  0.66434067  0.41303165  -0.00042365  1
  O2-  O197  1  0.66617488  0.41584218  0.24688472  1
  O2-  O198  1  0.66594562  0.41177086  0.49939334  1
  O2-  O199  1  0.66654556  0.41350052  0.75394558  1
  O2-  O200  1  0.66847095  0.74568087  -0.00025136  1
  O2-  O201  1  0.67111374  0.74680563  0.24783265  1
  O2-  O202  1  0.66643441  0.74763697  0.50068481  1
  O2-  O203  1  0.66324012  0.74908075  0.74709659  1
  O2-  O204  1  0.34021126  0.25617028  -0.00180080  1
  O2-  O205  1  0.33117856  0.25157215  0.24816936  1
  O2-  O206  1  0.33223103  0.25003276  0.50337770  1
  O2-  O207  1  0.33668066  0.25136128  0.75014788  1
  O2-  O208  1  0.33608897  0.58563741  0.00310946  1
  O2-  O209  1  0.33362639  0.58837996  0.25017485  1
  O2-  O210  1  0.33295520  0.58722454  0.49764681  1
  O2-  O211  1  0.33312785  0.58826570  0.74868097  1
  O2-  O212  1  0.33413571  0.92137735  -0.00147450  1
  O2-  O213  1  0.33673971  0.91800821  0.25075930  1
  O2-  O214  1  0.33221050  0.92099868  0.49972896  1
  O2-  O215  1  0.33057142  0.91743165  0.75008009  1
  O2-  O216  1  0.83127038  0.25605653  0.00063363  1
  O2-  O217  1  0.83463113  0.24983712  0.24697664  1
  O2-  O218  1  0.84059406  0.25630295  0.49967044  1
  O2-  O219  1  0.83521643  0.25477286  0.75146848  1
  O2-  O220  1  0.83072965  0.58714958  -0.00026224  1
  O2-  O221  1  0.83037358  0.58813299  0.24982886  1
  O2-  O222  1  0.83449025  0.58831595  0.50239827  1
  O2-  O223  1  0.83175078  0.58830300  0.74658826  1
  O2-  O224  1  0.83544896  0.91896668  -0.00107809  1
  O2-  O225  1  0.83038719  0.91906092  0.24956442  1
  O2-  O226  1  0.82970876  0.91798007  0.49715269  1
  O2-  O227  1  0.83460337  0.92021166  0.75265805  1
  O2-  O228  1  0.15988422  0.25782854  -0.00013248  1
  O2-  O229  1  0.16632858  0.25233685  0.24939632  1
  O2-  O230  1  0.16464165  0.25002521  0.50166996  1
  O2-  O231  1  0.16296669  0.25102497  0.75011382  1
  O2-  O232  1  0.16377013  0.58515388  0.00136264  1
  O2-  O233  1  0.16784443  0.58601067  0.25106747  1
  O2-  O234  1  0.16731073  0.58638940  0.50097824  1
  O2-  O235  1  0.16883011  0.58874250  0.74978489  1
  O2-  O236  1  0.16465431  0.92007791  -0.00034091  1
  O2-  O237  1  0.16244825  0.91584702  0.24967574  1
  O2-  O238  1  0.16839996  0.92013209  0.50013305  1
  O2-  O239  1  0.16716813  0.91747731  0.74930690  1
  O2-  O240  1  0.66698859  0.25638910  0.00081384  1
  O2-  O241  1  0.66407791  0.25028754  0.24701953  1
  O2-  O242  1  0.66363861  0.25651565  0.49983464  1
  O2-  O243  1  0.66443085  0.25457470  0.75276305  1
  O2-  O244  1  0.66854165  0.58853212  -0.00149977  1
  O2-  O245  1  0.66644680  0.58600173  0.24717961  1
  O2-  O246  1  0.66566040  0.58980380  0.50304378  1
  O2-  O247  1  0.66808430  0.58874625  0.74989330  1
  O2-  O248  1  0.66244475  0.91890773  0.00177216  1
  O2-  O249  1  0.66850176  0.91763916  0.25039177  1
  O2-  O250  1  0.66489586  0.92022967  0.49749531  1
  O2-  O251  1  0.66992530  0.91842899  0.74745537  1
  O2-  O252  1  0.33432203  0.07881110  -0.00096943  1
  O2-  O253  1  0.33609592  0.08263619  0.25004513  1
  O2-  O254  1  0.33415208  0.08017311  0.50007446  1
  O2-  O255  1  0.33328278  0.07836191  0.75059382  1
  O2-  O256  1  0.33383499  0.41420274  -0.00006745  1
  O2-  O257  1  0.33318059  0.41401103  0.24868919  1
  O2-  O258  1  0.33387291  0.41391250  0.50101396  1
  O2-  O259  1  0.33681206  0.41242200  0.74956219  1
  O2-  O260  1  0.33594584  0.74565717  0.00178636  1
  O2-  O261  1  0.33202118  0.74539078  0.25143784  1
  O2-  O262  1  0.33458232  0.74444755  0.49740889  1
  O2-  O263  1  0.33147042  0.74905026  0.75092331  1
  O2-  O264  1  0.83447203  0.07804848  -0.00118512  1
  O2-  O265  1  0.83172897  0.08202566  0.24695443  1
  O2-  O266  1  0.82943230  0.07940808  0.49835353  1
  O2-  O267  1  0.83458114  0.07765864  0.75398919  1
  O2-  O268  1  0.83517751  0.41281859  -0.00044369  1
  O2-  O269  1  0.83605590  0.41665550  0.24946975  1
  O2-  O270  1  0.83425775  0.41075976  0.49988527  1
  O2-  O271  1  0.83541896  0.41530144  0.75031439  1
  O2-  O272  1  0.83337474  0.74831092  0.00076318  1
  O2-  O273  1  0.83046282  0.74854139  0.24952899  1
  O2-  O274  1  0.83577299  0.74804929  0.50250172  1
  O2-  O275  1  0.83532866  0.74693251  0.74660349  1
  O2-  O276  1  0.95060955  0.23833517  0.23797778  1
  O2-  O277  1  0.95393146  0.89975887  0.99019908  1
  O2-  O278  1  0.45379379  0.09135835  0.75508214  1
  O2-  O279  1  0.03650583  0.56095846  0.29092895  1
  O2-  O280  1  0.45083319  0.75861348  0.47733118  1
  O2-  O281  1  0.04551358  0.23205844  0.51039073  1
  O2-  O282  1  0.45497203  0.24079479  0.73715682  1
  O2-  O283  1  0.55013594  0.23171121  0.45758233  1
  O2-  O284  1  0.95334635  0.76062826  0.49233909  1
  O2-  O285  1  0.55399431  0.75971137  0.76159802  1
  O2-  O286  1  0.55194487  0.90027488  0.73982740  1
  O2-  O287  1  0.95143202  0.43515916  0.51228580  1
  O2-  O288  1  0.95646573  0.10250190  0.22158569  1
  O2-  O289  1  0.04292316  0.23041368  0.76251518  1
  O2-  O290  1  0.55768336  0.09130514  0.69948157  1
  O2-  O291  1  0.45324638  0.09499749  0.48893792  1
  O2-  O292  1  0.54357810  0.57591084  0.73683698  1
  O2-  O293  1  0.54979201  0.76726517  0.51182069  1
  O2-  O294  1  0.46127388  0.22357578  0.22405171  1
  O2-  O295  1  0.94696058  0.42783909  0.76602520  1
  O2-  O296  1  0.95120909  0.90354222  0.45564667  1
  O2-  O297  1  0.04268258  0.76658034  0.75396315  1
  O2-  O298  1  0.55408955  0.75761751  0.00979758  1
  O2-  O299  1  0.45519662  0.57129237  0.50873871  1
  O2-  O300  1  0.96326577  0.55637334  0.70616633  1
  O2-  O301  1  0.54615997  0.23530121  0.98628169  1
  O2-  O302  1  0.03210843  0.55811493  0.49651382  1
  O2-  O303  1  0.05239781  0.42883317  0.51277620  1
  O2-  O304  1  0.94770387  0.43539390  0.23464181  1
  O2-  O305  1  0.54370237  0.76923784  0.99042346  1
  O2-  O306  1  0.54795384  0.42650572  0.72798222  1
  O2-  O307  1  0.05340604  0.90869085  0.54731216  1
  O2-  O308  1  0.45334763  0.90313946  0.01535625  1
  O2-  O309  1  0.45425197  0.23436104  0.53027511  1
  O2-  O310  1  0.45114213  0.77052070  0.51454365  1
  O2-  O311  1  0.05282120  0.75474142  0.73450396  1
  O2-  O312  1  0.04560834  0.23470527  0.01215638  1
  O2-  O313  1  0.04710645  0.90925330  0.77125037  1
  O2-  O314  1  0.54004131  0.90314933  0.76155058  1
  O2-  O315  1  0.95403805  0.10291237  0.74156075  1
  O2-  O316  1  0.05261422  0.10096343  0.23554859  1
  O2-  O317  1  0.54732537  0.90339805  0.26252438  1
  O2-  O318  1  0.45073974  0.43300717  0.76061521  1
  O2-  O319  1  0.45633560  0.10029804  0.01273655  1
  O2-  O320  1  0.95676966  0.43299799  0.98474556  1
  O2-  O321  1  0.04188944  0.43639717  0.20910018  1
  O2-  O322  1  0.55222264  0.42912284  0.76667237  1
  O2-  O323  1  0.45316564  0.09830713  0.74579646  1
  O2-  O324  1  0.93104595  0.58612888  0.31539184  1
  O2-  O325  1  0.06254057  0.73616872  0.96752102  1
  O2-  O326  1  0.56044830  0.92216893  0.28915882  1
  O2-  O327  1  0.43706813  0.74470955  0.22363096  1
  O2-  O328  1  0.43551194  0.92937518  0.71938070  1
  O2-  O329  1  0.94145605  0.91415881  0.44853377  1
  O2-  O330  1  0.42336942  0.26681010  0.45503972  1
  O2-  O331  1  0.93816300  0.59680476  0.96778841  1
  O2-  O332  1  0.93621977  0.07730279  0.52448915  1
  O2-  O333  1  0.06238965  0.06950242  0.22448605  1
  O2-  O334  1  0.43661689  0.73080265  0.82354950  1
  O2-  O335  1  0.56608630  0.59128425  0.73160259  1
  O2-  O336  1  0.43084628  0.41976933  0.31153277  1
  O2-  O337  1  0.93671412  0.26326918  0.03335797  1
  O2-  O338  1  0.43140356  0.75079878  0.69059242  1
  O2-  O339  1  0.06381665  0.06959728  0.78730647  1
  O2-  O340  1  0.06646177  0.73218486  0.78812042  1
  O2-  O341  1  0.55860275  0.24446495  0.45091936  1
  O2-  O342  1  0.07281465  0.61111955  0.45884239  1
  O2-  O343  1  0.93011890  0.61493481  0.80764971  1
  O2-  O344  1  0.42908648  0.26339224  0.28929379  1
  O2-  O345  1  0.07903931  0.59668247  0.19097314  1
  O2-  O346  1  0.43816148  0.58956708  0.22497491  1
  O2-  O347  1  0.56332133  0.73652585  0.18041015  1
  O2-  O348  1  0.07955545  0.39204969  0.30296706  1
  O2-  O349  1  0.56729008  0.73448259  0.95668949  1
  O2-  O350  1  0.56785059  0.07185790  0.84545231  1
  O2-  O351  1  0.06705988  0.59055068  0.72579186  1
  O2-  O352  1  0.56410092  0.28168021  0.59150076  1
  O2-  O353  1  0.56409743  0.41368311  0.27182523  1
  O2-  O354  1  0.43439223  0.58704214  0.52309740  1
  O2-  O355  1  0.56092957  0.73386880  0.78695660  1
  O2-  O356  1  0.93816912  0.39771242  0.78269732  1
  O2-  O357  1  0.05543573  0.91592540  0.55347705  1
  O2-  O358  1  0.56163243  0.58765602  0.27504631  1
  O2-  O359  1  0.56168177  0.59006014  0.96581460  1
  O2-  O360  1  0.92076632  0.92104564  0.58643559  1
  O2-  O361  1  0.93897336  0.26427808  0.21793401  1
  O2-  O362  1  0.06360836  0.74448096  0.22831084  1
  O2-  O363  1  0.55839067  0.08240733  0.69721908  1
  O2-  O364  1  0.07058369  0.94063122  0.40996529  1
  O2-  O365  1  0.06673792  0.74222590  0.52450156  1
  O2-  O366  1  0.43298905  0.41577580  0.19014702  1
  O2-  O367  1  0.56781691  0.93373786  0.78782595  1
  O2-  O368  1  0.56839543  0.74979852  0.31589942  1
  O2-  O369  1  0.93092453  0.58395323  0.18273656  1
  O2-  O370  1  0.94052297  0.40924426  0.21052223  1
  O2-  O371  1  0.92532706  0.06724451  0.28954826  1
  O2-  O372  1  0.25006074  0.33243504  0.92136216  1
  O2-  O373  1  0.25035850  0.66376246  0.92754783  1
  O2-  O374  1  0.75044389  0.32091753  0.61320575  1
  O2-  O375  1  0.75071187  0.31622571  0.41068644  1
  O2-  O376  1  0.25005468  0.32696710  0.58152703  1
  O2-  O377  1  0.24962844  0.32066441  0.16915810  1
  O2-  O378  1  0.25070305  0.67054574  0.59710840  1
  O2-  O379  1  0.25013722  0.33715977  0.83016023  1
  O2-  O380  1  0.25059549  0.33711308  0.67230728  1
  O2-  O381  1  0.25000625  0.33004359  0.42384947  1
  O2-  O382  1  0.25091111  -0.00117932  0.36159726  1
  O2-  O383  1  0.25058912  0.00142222  0.17974740  1
  O2-  O384  1  0.75005754  0.66646452  0.85336633  1
  O2-  O385  1  0.75032369  0.00065256  0.10187552  1
  O2-  O386  1  0.24995262  0.00142254  0.60196096  1
  O2-  O387  1  0.24987092  0.33885532  0.07700658  1
  O2-  O388  1  0.74994940  0.34367395  0.89177656  1
  O2-  O389  1  0.24989032  0.00362871  0.08840623  1
  O2-  O390  1  0.74992603  0.33614053  0.32347278  1
  O2-  O391  1  0.24939153  0.67590787  0.83251841  1
  O2-  O392  1  0.74987289  0.66946300  0.39816428  1
  O2-  O393  1  0.24961218  0.31812465  0.33341998  1
  O2-  O394  1  0.25034229  0.66880062  0.34681376  1
  O2-  O395  1  0.74910386  -0.00396649  0.64050373  1
  O2-  O396  1  0.24994635  0.50249574  0.42937609  1
  O2-  O397  1  0.75043382  0.49573027  0.33949278  1
  O2-  O398  1  0.24984862  0.14940721  0.88893384  1
  O2-  O399  1  0.25017469  0.15409837  0.12677171  1
  O2-  O400  1  0.75030200  0.49601985  0.59271815  1
  O2-  O401  1  0.24977321  0.49360539  0.33808875  1
  O2-  O402  1  0.25007373  0.83774626  0.18535623  1
  O2-  O403  1  0.75026872  0.83082723  0.83356314  1
  O2-  O404  1  0.75027299  0.49939426  0.11607530  1
  O2-  O405  1  0.24992967  0.17076577  0.58017209  1
  O2-  O406  1  0.25014488  0.50155757  0.59656253  1
  O2-  O407  1  0.75000939  0.51062661  0.68107128  1
  O2-  O408  1  0.25001128  0.16720062  0.80823281  1
  O2-  O409  1  0.24993661  0.16333558  0.41169334  1
  O2-  O410  1  0.75014845  0.15276933  0.62409690  1
  O2-  O411  1  0.25011222  0.83718923  0.09448894  1
  O2-  O412  1  0.74985968  0.16704127  0.30424542  1
  O2-  O413  1  0.74944718  0.83158515  0.59123712  1
  O2-  O414  1  0.75037270  0.82461651  0.09444085  1
  O2-  O415  1  0.25014014  0.16281515  0.66234614  1
  O2-  O416  1  0.74957819  0.14879676  0.38476720  1
  O2-  O417  1  0.74997480  0.16272501  0.90079028  1
  O2-  O418  1  0.25012437  0.49763630  0.90889258  1
  O2-  O419  1  0.75016315  0.83863427  0.91741783  1
  O2-  O420  1  0.95705341  0.32601944  0.62732061  1
  O2-  O421  1  0.96893915  0.67746109  0.11432603  1
  O2-  O422  1  0.54558998  0.33609894  0.12745336  1
  O2-  O423  1  0.97242420  0.00272955  0.87618374  1
  O2-  O424  1  0.53488968  0.66868121  0.62090341  1
  O2-  O425  1  0.47452436  0.66222531  0.11639404  1
  O2-  O426  1  0.98272897  0.00516414  0.36726715  1
  O2-  O427  1  0.45978871  0.32695180  0.10539344  1
  O2-  O428  1  0.98329902  0.00450513  0.63595479  1
  O2-  O429  1  0.53215192  0.34028915  0.36685335  1
  O2-  O430  1  0.03541076  0.32463411  0.38834245  1
  O2-  O431  1  0.47320911  0.65901584  0.62474667  1
  O2-  O432  1  0.02376042  -0.00398411  0.11835617  1
  O2-  O433  1  0.04314682  0.33351835  0.63018571  1
  O2-  O434  1  0.47617373  0.34195372  0.38491801  1
  O2-  O435  1  0.51880514  0.66027509  0.38341183  1
  O2-  O436  1  0.02921268  0.33711465  0.87521693  1
  O2-  O437  1  0.97822932  0.67617042  0.37793275  1
  O2-  O438  1  0.02783807  0.66908924  0.11185856  1
  O2-  O439  1  0.46863988  -0.00307082  0.88083648  1
  O2-  O440  1  0.47238177  0.33163186  0.88135627  1
  O2-  O441  1  0.47156650  -0.00159269  0.37211634  1
  O2-  O442  1  0.95805200  0.33367263  0.38008390  1
  O2-  O443  1  0.02158678  0.66526998  0.62191557  1
