# generated using pymatgen
data_La7(Ru4O11)2
_symmetry_space_group_name_H-M   'P 1'
_cell_length_a   23.98922506
_cell_length_b   16.82890907
_cell_length_c   15.42555124
_cell_angle_alpha   90.00071431
_cell_angle_beta   90.00012227
_cell_angle_gamma   90.00050884
_symmetry_Int_Tables_number   1
_chemical_formula_structural   La7(Ru4O11)2
_chemical_formula_sum   'La84 Ru96 O264'
_cell_volume   6227.48765478
_cell_formula_units_Z   12
loop_
 _symmetry_equiv_pos_site_id
 _symmetry_equiv_pos_as_xyz
  1  'x, y, z'
loop_
 _atom_type_symbol
 _atom_type_oxidation_number
  La3+  3.0
  Ru4+  4.0
  O2-  -2.0
loop_
 _atom_site_type_symbol
 _atom_site_label
 _atom_site_symmetry_multiplicity
 _atom_site_fract_x
 _atom_site_fract_y
 _atom_site_fract_z
 _atom_site_occupancy
  La3+  La0  1  0.13934209  -0.00099380  0.12203808  1
  La3+  La1  1  0.13882881  -0.00098973  0.37714282  1
  La3+  La2  1  0.13764007  0.00009368  0.62421892  1
  La3+  La3  1  0.13738221  -0.00010055  0.87730201  1
  La3+  La4  1  0.13900547  0.33323733  0.12343197  1
  La3+  La5  1  0.13831479  0.33399886  0.37495299  1
  La3+  La6  1  0.13805151  0.33360208  0.62609003  1
  La3+  La7  1  0.14069970  0.33300835  0.87472749  1
  La3+  La8  1  0.13920291  0.66571510  0.12533608  1
  La3+  La9  1  0.14011223  0.66611003  0.37394943  1
  La3+  La10  1  0.13908302  0.66625665  0.62497203  1
  La3+  La11  1  0.14016488  0.66593293  0.87616835  1
  La3+  La12  1  0.63899280  0.00047892  0.12355532  1
  La3+  La13  1  0.63947090  0.00011984  0.37663750  1
  La3+  La14  1  0.63927181  -0.00023584  0.62516128  1
  La3+  La15  1  0.63931027  -0.00023611  0.87510634  1
  La3+  La16  1  0.63996977  0.33356637  0.12398170  1
  La3+  La17  1  0.63876399  0.33343579  0.37383607  1
  La3+  La18  1  0.63957348  0.33415395  0.62733651  1
  La3+  La19  1  0.63934905  0.33378579  0.87557854  1
  La3+  La20  1  0.63803858  0.66649241  0.12359413  1
  La3+  La21  1  0.63736125  0.66613769  0.37646268  1
  La3+  La22  1  0.63830522  0.66501797  0.62681645  1
  La3+  La23  1  0.63881227  0.66565665  0.87358202  1
  La3+  La24  1  0.35961232  -0.00056319  0.12325836  1
  La3+  La25  1  0.36233436  -0.00010700  0.37691254  1
  La3+  La26  1  0.36292523  0.00166328  0.62387878  1
  La3+  La27  1  0.36195785  0.00053907  0.87475260  1
  La3+  La28  1  0.36054740  0.33375974  0.12443543  1
  La3+  La29  1  0.36135012  0.33438913  0.37535376  1
  La3+  La30  1  0.36144253  0.33455681  0.62626746  1
  La3+  La31  1  0.35913064  0.33392074  0.87416540  1
  La3+  La32  1  0.36054189  0.66492176  0.12545566  1
  La3+  La33  1  0.35990199  0.66601550  0.37361228  1
  La3+  La34  1  0.36120812  0.66631858  0.62513735  1
  La3+  La35  1  0.35977229  0.66624357  0.87558380  1
  La3+  La36  1  0.86186192  -0.00018121  0.12402408  1
  La3+  La37  1  0.86076620  0.00030202  0.37663113  1
  La3+  La38  1  0.86097745  -0.00044741  0.62575637  1
  La3+  La39  1  0.86065629  -0.00151322  0.87393554  1
  La3+  La40  1  0.85945376  0.33318184  0.12597165  1
  La3+  La41  1  0.86134904  0.33378298  0.37398555  1
  La3+  La42  1  0.85891796  0.33337512  0.62883706  1
  La3+  La43  1  0.85956555  0.33384135  0.87388778  1
  La3+  La44  1  0.86180651  0.66676271  0.12428744  1
  La3+  La45  1  0.86247087  0.66626210  0.37537041  1
  La3+  La46  1  0.85985597  0.66611601  0.62687050  1
  La3+  La47  1  0.86134935  0.66720522  0.87379140  1
  La3+  La48  1  0.00063601  0.16637408  0.38466749  1
  La3+  La49  1  -0.00398273  0.83394412  0.62994743  1
  La3+  La50  1  0.50049948  0.50079146  0.13222249  1
  La3+  La51  1  0.50096398  0.16491392  0.13525724  1
  La3+  La52  1  0.49967789  0.83399138  0.61372731  1
  La3+  La53  1  0.50229768  0.50292562  0.88233987  1
  La3+  La54  1  0.00001680  0.49883430  0.11510257  1
  La3+  La55  1  0.00111519  0.83404228  0.86844069  1
  La3+  La56  1  0.00114564  0.16829413  0.11364875  1
  La3+  La57  1  0.00113911  0.49930463  0.88160281  1
  La3+  La58  1  0.50278983  0.17096853  0.86407360  1
  La3+  La59  1  0.49962719  0.49976843  0.36635816  1
  La3+  La60  1  0.50064828  0.83385429  0.11302346  1
  La3+  La61  1  -0.00039854  0.83410636  0.36570581  1
  La3+  La62  1  -0.00084256  0.49986524  0.13699333  1
  La3+  La63  1  0.50000067  0.83370567  0.38803869  1
  La3+  La64  1  0.49774292  0.16420039  0.38255089  1
  La3+  La65  1  0.00037844  0.50026654  0.86446089  1
  La3+  La66  1  0.50178640  0.16960310  0.88142054  1
  La3+  La67  1  0.00001372  0.83158956  0.11661840  1
  La3+  La68  1  0.00045307  0.49990222  0.63484368  1
  La3+  La69  1  0.00289477  0.83137129  0.61036783  1
  La3+  La70  1  0.50028890  0.83329064  0.13543106  1
  La3+  La71  1  0.50044852  0.16874845  0.11308982  1
  La3+  La72  1  0.75009143  0.49828016  0.76720208  1
  La3+  La73  1  0.75011518  0.83298371  0.74242239  1
  La3+  La74  1  0.25008879  0.80248925  0.25112321  1
  La3+  La75  1  0.24994094  0.16536409  0.27888822  1
  La3+  La76  1  0.74989213  0.16893900  0.22215871  1
  La3+  La77  1  0.75022668  0.13367758  0.53370329  1
  La3+  La78  1  0.24984006  0.16832182  0.72487318  1
  La3+  La79  1  0.75015380  0.46533513  0.21927265  1
  La3+  La80  1  0.75011171  0.13992404  -0.02380997  1
  La3+  La81  1  0.74993253  0.86389422  0.51370575  1
  La3+  La82  1  0.75024045  0.83486044  0.27151997  1
  La3+  La83  1  0.25011104  0.80723156  0.75141825  1
  Ru4+  Ru84  1  0.00028958  0.00312694  -0.00050378  1
  Ru4+  Ru85  1  0.00132263  -0.00162961  0.25011003  1
  Ru4+  Ru86  1  0.00001756  0.00229550  0.49813800  1
  Ru4+  Ru87  1  0.00326794  0.00661378  0.75022612  1
  Ru4+  Ru88  1  0.00163685  0.32972081  0.00052776  1
  Ru4+  Ru89  1  -0.00158957  0.33115066  0.24925414  1
  Ru4+  Ru90  1  0.00152104  0.33332607  0.50031801  1
  Ru4+  Ru91  1  0.00163233  0.33209485  0.74839888  1
  Ru4+  Ru92  1  0.00033339  0.66737168  -0.00024190  1
  Ru4+  Ru93  1  -0.00041650  0.66539373  0.24824180  1
  Ru4+  Ru94  1  -0.00003315  0.66531598  0.50083028  1
  Ru4+  Ru95  1  -0.00170135  0.66203829  0.75047116  1
  Ru4+  Ru96  1  0.50105134  -0.00375685  -0.00036083  1
  Ru4+  Ru97  1  0.49784761  -0.00033894  0.25128080  1
  Ru4+  Ru98  1  0.50155456  -0.00255909  0.50175898  1
  Ru4+  Ru99  1  0.50181553  -0.00508598  0.74860334  1
  Ru4+  Ru100  1  0.49897731  0.32800280  -0.00253191  1
  Ru4+  Ru101  1  0.50031563  0.33216106  0.25211133  1
  Ru4+  Ru102  1  0.50069264  0.33700618  0.50146987  1
  Ru4+  Ru103  1  0.50093729  0.33570989  0.74644179  1
  Ru4+  Ru104  1  0.50100150  0.66499992  0.00071133  1
  Ru4+  Ru105  1  0.50091658  0.66444312  0.24955771  1
  Ru4+  Ru106  1  0.49949594  0.66832316  0.50062967  1
  Ru4+  Ru107  1  0.49743472  0.67010618  0.74811963  1
  Ru4+  Ru108  1  0.11519613  0.16838945  0.00014121  1
  Ru4+  Ru109  1  0.11119643  0.16715780  0.25075904  1
  Ru4+  Ru110  1  0.11258066  0.16709527  0.49950996  1
  Ru4+  Ru111  1  0.10959288  0.16725877  0.75003028  1
  Ru4+  Ru112  1  0.11304355  0.50112294  0.00012501  1
  Ru4+  Ru113  1  0.11466389  0.50177051  0.24992920  1
  Ru4+  Ru114  1  0.11291278  0.50023807  0.50024320  1
  Ru4+  Ru115  1  0.11332957  0.49862176  0.74988817  1
  Ru4+  Ru116  1  0.11563271  0.83206623  -0.00013997  1
  Ru4+  Ru117  1  0.11165724  0.83318811  0.25035519  1
  Ru4+  Ru118  1  0.11395830  0.83412913  0.49893595  1
  Ru4+  Ru119  1  0.11432914  0.83382975  0.75079162  1
  Ru4+  Ru120  1  0.61483025  0.16298800  0.00079258  1
  Ru4+  Ru121  1  0.61371070  0.16860966  0.25059120  1
  Ru4+  Ru122  1  0.61301087  0.16453326  0.50062535  1
  Ru4+  Ru123  1  0.61376429  0.16836383  0.75007124  1
  Ru4+  Ru124  1  0.61481584  0.50088804  0.00032672  1
  Ru4+  Ru125  1  0.61285728  0.50087186  0.24986428  1
  Ru4+  Ru126  1  0.61338247  0.49671383  0.50049250  1
  Ru4+  Ru127  1  0.61535583  0.49799863  0.75063815  1
  Ru4+  Ru128  1  0.61184461  0.83332728  0.00061629  1
  Ru4+  Ru129  1  0.61202204  0.83142037  0.24991175  1
  Ru4+  Ru130  1  0.61134078  0.83424879  0.49993739  1
  Ru4+  Ru131  1  0.61224787  0.83518498  0.75079121  1
  Ru4+  Ru132  1  0.38468190  0.16803597  -0.00026179  1
  Ru4+  Ru133  1  0.38775523  0.16513821  0.25035935  1
  Ru4+  Ru134  1  0.38569424  0.16964663  0.50012378  1
  Ru4+  Ru135  1  0.38358950  0.16732858  0.74862911  1
  Ru4+  Ru136  1  0.38362002  0.50539849  0.00096326  1
  Ru4+  Ru137  1  0.38551950  0.50083597  0.25001948  1
  Ru4+  Ru138  1  0.38679601  0.49999144  0.49987383  1
  Ru4+  Ru139  1  0.38637418  0.49747445  0.74902261  1
  Ru4+  Ru140  1  0.38589001  0.83607371  -0.00030369  1
  Ru4+  Ru141  1  0.38717847  0.83449169  0.25032063  1
  Ru4+  Ru142  1  0.38670737  0.83451423  0.50008052  1
  Ru4+  Ru143  1  0.38758157  0.83191236  0.74974170  1
  Ru4+  Ru144  1  0.88773565  0.16693810  -0.00059301  1
  Ru4+  Ru145  1  0.88699929  0.16863419  0.25026357  1
  Ru4+  Ru146  1  0.88780324  0.16484681  0.50025939  1
  Ru4+  Ru147  1  0.88526235  0.16733621  0.75043366  1
  Ru4+  Ru148  1  0.88488341  0.49978362  0.00006193  1
  Ru4+  Ru149  1  0.88874751  0.49929603  0.24960526  1
  Ru4+  Ru150  1  0.88705227  0.50117302  0.50031678  1
  Ru4+  Ru151  1  0.88731477  0.49961612  0.75021848  1
  Ru4+  Ru152  1  0.88530152  0.82984976  -0.00004652  1
  Ru4+  Ru153  1  0.88888809  0.83358622  0.24967519  1
  Ru4+  Ru154  1  0.88774702  0.83302053  0.49964537  1
  Ru4+  Ru155  1  0.88501667  0.83061732  0.75056556  1
  Ru4+  Ru156  1  0.75004915  0.26986372  0.50997404  1
  Ru4+  Ru157  1  0.24954042  0.41998118  -0.00083003  1
  Ru4+  Ru158  1  0.25027400  0.75630400  -0.00189825  1
  Ru4+  Ru159  1  0.74986825  0.72652308  0.50202105  1
  Ru4+  Ru160  1  0.74971016  0.74911327  0.00522754  1
  Ru4+  Ru161  1  0.75017842  0.59324092  0.24821494  1
  Ru4+  Ru162  1  0.74991290  0.08713669  0.75152916  1
  Ru4+  Ru163  1  0.24984780  0.24648365  0.50015152  1
  Ru4+  Ru164  1  0.24993311  0.41649717  0.49933423  1
  Ru4+  Ru165  1  0.74999438  0.27384284  0.00059198  1
  Ru4+  Ru166  1  0.24999558  0.92860567  0.24845507  1
  Ru4+  Ru167  1  0.24994409  0.58232094  0.49560004  1
  Ru4+  Ru168  1  0.24996411  0.04808564  0.24115088  1
  Ru4+  Ru169  1  0.74987815  0.95683052  0.26322319  1
  Ru4+  Ru170  1  0.74991732  0.71696608  0.23679848  1
  Ru4+  Ru171  1  0.24987218  0.57669870  0.75558614  1
  Ru4+  Ru172  1  0.75006205  0.58481783  0.50779100  1
  Ru4+  Ru173  1  0.75016752  0.41693831  0.50885025  1
  Ru4+  Ru174  1  0.25004416  0.75444885  0.49433955  1
  Ru4+  Ru175  1  0.74992143  0.57829592  0.00138093  1
  Ru4+  Ru176  1  0.25001328  0.08719410  0.49842637  1
  Ru4+  Ru177  1  0.24980111  0.28422073  0.25214470  1
  Ru4+  Ru178  1  0.25012752  0.93968609  0.74974338  1
  Ru4+  Ru179  1  0.74969181  0.91704640  0.00262196  1
  O2-  O180  1  0.16718853  0.08145717  -0.00129076  1
  O2-  O181  1  0.16575056  0.07977163  0.25010781  1
  O2-  O182  1  0.16770227  0.08123228  0.50060885  1
  O2-  O183  1  0.16807901  0.08034413  0.74989302  1
  O2-  O184  1  0.16888396  0.41430686  -0.00011660  1
  O2-  O185  1  0.16753997  0.41468648  0.25053053  1
  O2-  O186  1  0.16783026  0.41381025  0.50057488  1
  O2-  O187  1  0.16632210  0.41480005  0.74908749  1
  O2-  O188  1  0.16711601  0.74772294  0.00075749  1
  O2-  O189  1  0.16650099  0.74670253  0.24884907  1
  O2-  O190  1  0.16789851  0.74750231  0.50095324  1
  O2-  O191  1  0.16782563  0.74680622  0.74972079  1
  O2-  O192  1  0.66690059  0.08033039  -0.00012364  1
  O2-  O193  1  0.66817480  0.08026570  0.25052991  1
  O2-  O194  1  0.66633685  0.08048034  0.50047415  1
  O2-  O195  1  0.66773431  0.08030949  0.74997258  1
  O2-  O196  1  0.66741364  0.41515342  -0.00049787  1
  O2-  O197  1  0.66671452  0.41377915  0.25066038  1
  O2-  O198  1  0.66717587  0.41521199  0.50000983  1
  O2-  O199  1  0.66590860  0.41550658  0.75023307  1
  O2-  O200  1  0.66786367  0.74722066  0.00052640  1
  O2-  O201  1  0.66572530  0.74628336  0.25004569  1
  O2-  O202  1  0.66741840  0.74580443  0.49977984  1
  O2-  O203  1  0.66755861  0.74757076  0.75006033  1
  O2-  O204  1  0.33318671  0.25187832  0.00022554  1
  O2-  O205  1  0.33403225  0.25389210  0.25005531  1
  O2-  O206  1  0.33158024  0.25148008  0.50004111  1
  O2-  O207  1  0.33208191  0.25200382  0.74934857  1
  O2-  O208  1  0.33294088  0.58521323  0.00035343  1
  O2-  O209  1  0.33364801  0.58506438  0.24997796  1
  O2-  O210  1  0.33268646  0.58605324  0.50036876  1
  O2-  O211  1  0.33319434  0.58604635  0.74991251  1
  O2-  O212  1  0.33422866  0.91844245  -0.00106195  1
  O2-  O213  1  0.33274806  0.91943714  0.25019649  1
  O2-  O214  1  0.33348726  0.91834805  0.50061591  1
  O2-  O215  1  0.33168008  0.92034632  0.75066120  1
  O2-  O216  1  0.83259534  0.25269934  0.00034714  1
  O2-  O217  1  0.83350149  0.25160884  0.25071749  1
  O2-  O218  1  0.83234002  0.25310460  0.49969176  1
  O2-  O219  1  0.83350183  0.25010067  0.74948457  1
  O2-  O220  1  0.83257635  0.58597511  0.00023513  1
  O2-  O221  1  0.83324895  0.58745862  0.24970903  1
  O2-  O222  1  0.83248166  0.58540846  0.49956540  1
  O2-  O223  1  0.83326116  0.58604411  0.75075800  1
  O2-  O224  1  0.83244661  0.91857369  0.00072498  1
  O2-  O225  1  0.83290687  0.92067876  0.25001768  1
  O2-  O226  1  0.83379591  0.91998866  0.50050194  1
  O2-  O227  1  0.83266600  0.91910045  0.74989996  1
  O2-  O228  1  0.16709343  0.25107154  -0.00029432  1
  O2-  O229  1  0.16701071  0.25383796  0.25002807  1
  O2-  O230  1  0.16928045  0.25258046  0.50024470  1
  O2-  O231  1  0.16745444  0.25197271  0.74882284  1
  O2-  O232  1  0.16659733  0.58556533  0.00116334  1
  O2-  O233  1  0.16596252  0.58481621  0.24912200  1
  O2-  O234  1  0.16747199  0.58596193  0.50045309  1
  O2-  O235  1  0.16739681  0.58668356  0.74989338  1
  O2-  O236  1  0.16632131  0.91817632  -0.00067417  1
  O2-  O237  1  0.16669673  0.91968218  0.25024729  1
  O2-  O238  1  0.16711741  0.91869744  0.50138221  1
  O2-  O239  1  0.16723392  0.91990041  0.74977571  1
  O2-  O240  1  0.66747128  0.25304441  -0.00060787  1
  O2-  O241  1  0.66737565  0.25168259  0.25060867  1
  O2-  O242  1  0.66760222  0.25366797  0.50001154  1
  O2-  O243  1  0.66587074  0.25082679  0.74974441  1
  O2-  O244  1  0.66710224  0.58523567  0.00028533  1
  O2-  O245  1  0.66617522  0.58708286  0.24989094  1
  O2-  O246  1  0.66790451  0.58580336  0.49956759  1
  O2-  O247  1  0.66828896  0.58567744  0.75037176  1
  O2-  O248  1  0.66767807  0.91912582  -0.00034211  1
  O2-  O249  1  0.66725140  0.92061102  0.25065524  1
  O2-  O250  1  0.66595073  0.92032491  0.50085390  1
  O2-  O251  1  0.66668687  0.91908946  0.75018982  1
  O2-  O252  1  0.33235025  0.08123994  -0.00154400  1
  O2-  O253  1  0.33323243  0.08000635  0.25030138  1
  O2-  O254  1  0.33182601  0.08176876  0.50059193  1
  O2-  O255  1  0.33101549  0.08083779  0.75090999  1
  O2-  O256  1  0.33160687  0.41456625  -0.00008718  1
  O2-  O257  1  0.33328800  0.41439412  0.25027393  1
  O2-  O258  1  0.33237597  0.41380573  0.49994902  1
  O2-  O259  1  0.33264050  0.41540300  0.74956713  1
  O2-  O260  1  0.33189427  0.74698238  0.00029606  1
  O2-  O261  1  0.33303785  0.74712621  0.24942852  1
  O2-  O262  1  0.33245722  0.74687264  0.50052705  1
  O2-  O263  1  0.33322956  0.74710368  0.75007595  1
  O2-  O264  1  0.83322553  0.08070692  0.00096460  1
  O2-  O265  1  0.83160123  0.08004863  0.24953110  1
  O2-  O266  1  0.83290719  0.08108851  0.50040324  1
  O2-  O267  1  0.83218932  0.08160273  0.74975540  1
  O2-  O268  1  0.83198454  0.41496340  -0.00023434  1
  O2-  O269  1  0.83397160  0.41362694  0.25081750  1
  O2-  O270  1  0.83173780  0.41481996  0.49946349  1
  O2-  O271  1  0.83256678  0.41501391  0.75021733  1
  O2-  O272  1  0.83268346  0.74821825  0.00025451  1
  O2-  O273  1  0.83437583  0.74604200  0.25015010  1
  O2-  O274  1  0.83264619  0.74642936  0.49962772  1
  O2-  O275  1  0.83311863  0.74750897  0.75062023  1
  O2-  O276  1  0.04823274  0.90246562  0.98017111  1
  O2-  O277  1  0.54597990  0.23446545  0.98270964  1
  O2-  O278  1  0.95282815  0.76357359  0.76412091  1
  O2-  O279  1  0.46259976  0.11274955  0.74494744  1
  O2-  O280  1  0.95501410  0.57209260  0.51618718  1
  O2-  O281  1  0.04461156  0.10634132  0.97344274  1
  O2-  O282  1  0.04865718  0.90325069  0.01931516  1
  O2-  O283  1  0.04341799  0.76980495  0.72423874  1
  O2-  O284  1  0.96149571  0.11179724  0.99387227  1
  O2-  O285  1  0.54018627  0.89119312  0.27770113  1
  O2-  O286  1  0.44477068  0.42066628  0.96884268  1
  O2-  O287  1  0.04000119  0.44215487  0.27716207  1
  O2-  O288  1  0.95513389  0.56910947  0.98672394  1
  O2-  O289  1  0.54335780  0.56317159  0.72701534  1
  O2-  O290  1  0.95274671  0.90292814  0.77050233  1
  O2-  O291  1  0.54520072  0.56922535  0.51914274  1
  O2-  O292  1  0.95245996  0.76404876  0.98670506  1
  O2-  O293  1  0.04577849  0.09705593  0.73528584  1
  O2-  O294  1  0.04836277  0.90505710  0.73695791  1
  O2-  O295  1  0.96588731  0.44560083  0.50502495  1
  O2-  O296  1  0.95379783  0.90198021  0.51284359  1
  O2-  O297  1  0.54873804  0.43122827  0.98447310  1
  O2-  O298  1  0.46034771  0.77453869  0.27781881  1
  O2-  O299  1  0.45624854  0.09605175  0.76194214  1
  O2-  O300  1  0.54044934  0.77210278  0.72521884  1
  O2-  O301  1  0.04731567  0.76231799  0.98593747  1
  O2-  O302  1  0.45444787  0.43221218  0.23749253  1
  O2-  O303  1  0.95149305  0.90436940  0.01881798  1
  O2-  O304  1  0.95949073  0.10646089  0.22410648  1
  O2-  O305  1  0.45147305  0.09671978  0.48456132  1
  O2-  O306  1  0.95192377  0.90318652  0.97972740  1
  O2-  O307  1  0.53664691  0.55458828  0.76317122  1
  O2-  O308  1  0.54791429  0.90545728  0.76614651  1
  O2-  O309  1  0.54498447  0.56965195  0.47979182  1
  O2-  O310  1  0.95205387  0.42836752  0.96397134  1
  O2-  O311  1  0.54184745  0.22678824  0.47677989  1
  O2-  O312  1  0.46337457  0.88362734  0.74421365  1
  O2-  O313  1  0.95777636  0.22795686  0.72377174  1
  O2-  O314  1  0.45336580  0.23543681  0.23825099  1
  O2-  O315  1  0.45965118  0.10689658  0.97162631  1
  O2-  O316  1  0.95413812  0.23675949  0.98650205  1
  O2-  O317  1  0.54694881  0.57003176  0.01439738  1
  O2-  O318  1  0.04731950  0.23586784  0.76461941  1
  O2-  O319  1  0.96566909  0.21757942  0.50734839  1
  O2-  O320  1  0.95231933  0.90402750  0.73128234  1
  O2-  O321  1  0.45313901  0.56752120  0.01410432  1
  O2-  O322  1  0.04519637  0.76652095  0.26304869  1
  O2-  O323  1  0.54522221  0.43157817  0.51372995  1
  O2-  O324  1  0.43626572  0.73540124  0.94924190  1
  O2-  O325  1  0.06456472  0.40587566  0.96958700  1
  O2-  O326  1  0.93583634  0.06840949  0.70326859  1
  O2-  O327  1  0.56554057  0.07155756  0.02930057  1
  O2-  O328  1  0.43563351  0.26452197  0.46725604  1
  O2-  O329  1  0.93036054  0.06575602  0.29107991  1
  O2-  O330  1  0.56134537  0.25817547  0.96540610  1
  O2-  O331  1  0.42878502  0.73013173  0.20722446  1
  O2-  O332  1  0.06886920  0.39521663  0.20370327  1
  O2-  O333  1  0.92763531  0.39781955  0.06456914  1
  O2-  O334  1  0.94326406  0.41809218  0.95715579  1
  O2-  O335  1  0.06398926  0.26353079  0.03392663  1
  O2-  O336  1  0.06385239  0.93110255  0.46703890  1
  O2-  O337  1  0.43607912  0.40445652  0.71829004  1
  O2-  O338  1  0.93595572  0.06897545  0.79663425  1
  O2-  O339  1  0.56493991  0.26128936  0.22027871  1
  O2-  O340  1  0.42380394  0.94126189  0.71199251  1
  O2-  O341  1  0.93603133  0.40609859  0.77946981  1
  O2-  O342  1  0.93006944  0.26647780  0.78880690  1
  O2-  O343  1  0.43022092  0.05865690  0.04805831  1
  O2-  O344  1  0.56200184  0.40439113  0.96814300  1
  O2-  O345  1  0.06944621  0.72660296  0.79688145  1
  O2-  O346  1  0.57025198  0.26888362  0.54027416  1
  O2-  O347  1  0.56787550  0.73154096  0.79365901  1
  O2-  O348  1  0.57097416  0.93570983  0.20736672  1
  O2-  O349  1  0.56554447  0.40533973  0.29647726  1
  O2-  O350  1  0.43388702  0.26146340  0.79581953  1
  O2-  O351  1  0.93574180  0.92975457  0.21654028  1
  O2-  O352  1  0.43436838  0.73832156  0.04713430  1
  O2-  O353  1  0.06532000  0.26226922  0.47040841  1
  O2-  O354  1  0.92591248  0.27375810  0.54104308  1
  O2-  O355  1  0.43061875  0.40160837  0.04697318  1
  O2-  O356  1  0.06930602  0.06436242  0.04020740  1
  O2-  O357  1  0.56623959  0.07244621  0.20265484  1
  O2-  O358  1  0.06480591  0.73832736  0.47063910  1
  O2-  O359  1  0.56557089  0.07180527  0.29713248  1
  O2-  O360  1  0.43625575  0.07085746  0.28201723  1
  O2-  O361  1  0.42875690  0.06332667  0.71709311  1
  O2-  O362  1  0.92669089  0.39253432  0.54114391  1
  O2-  O363  1  0.92638437  0.05191269  0.95979237  1
  O2-  O364  1  0.43569985  0.92979217  0.28228706  1
  O2-  O365  1  0.06542071  0.26093691  0.27988161  1
  O2-  O366  1  0.93481246  0.07083061  0.47094309  1
  O2-  O367  1  0.56603956  0.40690071  0.20365517  1
  O2-  O368  1  0.57330413  0.60965681  0.79324028  1
  O2-  O369  1  0.43773670  0.07033672  0.46788899  1
  O2-  O370  1  0.43608822  0.26200664  0.70062983  1
  O2-  O371  1  0.44477491  0.42061646  0.96923888  1
  O2-  O372  1  0.75014340  0.00956788  0.16378025  1
  O2-  O373  1  0.74990901  0.00172641  0.65714479  1
  O2-  O374  1  0.25005881  0.33147119  0.07449894  1
  O2-  O375  1  0.25013540  0.34522693  0.16052540  1
  O2-  O376  1  0.25001436  0.66743520  0.57868918  1
  O2-  O377  1  0.25005738  0.66828246  0.90730094  1
  O2-  O378  1  0.74998300  -0.00091623  0.40467355  1
  O2-  O379  1  0.25002142  0.33383313  0.84581470  1
  O2-  O380  1  0.25004794  0.33777782  0.35085125  1
  O2-  O381  1  0.24992667  0.66805464  0.34721941  1
  O2-  O382  1  0.74996075  0.33357835  0.84801795  1
  O2-  O383  1  0.75006981  0.66742325  0.65134175  1
  O2-  O384  1  0.75004560  0.33811824  0.41597982  1
  O2-  O385  1  0.74998731  0.66665408  0.09294225  1
  O2-  O386  1  0.74985341  0.33253199  0.15460399  1
  O2-  O387  1  0.74993352  0.66693900  0.90723123  1
  O2-  O388  1  0.74997584  0.66641424  0.35242852  1
  O2-  O389  1  0.74990849  -0.00143534  0.90767692  1
  O2-  O390  1  0.24999159  0.66832118  0.67233416  1
  O2-  O391  1  0.75005211  0.00269065  0.07528512  1
  O2-  O392  1  0.24993038  0.00258374  0.40759399  1
  O2-  O393  1  0.75007234  0.33274841  0.64990387  1
  O2-  O394  1  0.75009755  0.33371985  0.32660304  1
  O2-  O395  1  0.25012973  0.00006794  0.09848959  1
  O2-  O396  1  0.24994619  0.83076721  0.41137358  1
  O2-  O397  1  0.75001801  0.50283532  0.08596539  1
  O2-  O398  1  0.24996916  0.50329328  0.83792993  1
  O2-  O399  1  0.75004748  0.82978884  0.39435929  1
  O2-  O400  1  0.24997555  0.83137857  0.91001754  1
  O2-  O401  1  0.75002332  0.83273885  0.93328817  1
  O2-  O402  1  0.75001684  0.50019356  0.42949098  1
  O2-  O403  1  0.75001943  0.17088141  0.41670752  1
  O2-  O404  1  0.24994654  0.16632863  0.84751808  1
  O2-  O405  1  0.24997172  0.82934371  0.08975779  1
  O2-  O406  1  0.25005160  0.16790087  0.14354812  1
  O2-  O407  1  0.74994302  0.50344922  0.34396889  1
  O2-  O408  1  0.75001599  0.16947330  0.10287926  1
  O2-  O409  1  0.74992578  0.83237934  0.13716644  1
  O2-  O410  1  0.25003333  0.49968537  0.41042404  1
  O2-  O411  1  0.75005562  0.49974206  0.63841923  1
  O2-  O412  1  0.25002982  0.16674501  0.92832473  1
  O2-  O413  1  0.25000132  0.50019688  0.58072326  1
  O2-  O414  1  0.24999791  0.49916591  0.15673693  1
  O2-  O415  1  0.74992935  0.16394368  0.83552497  1
  O2-  O416  1  0.74999043  0.16577187  0.33798672  1
  O2-  O417  1  0.75002861  0.83160400  0.62948944  1
  O2-  O418  1  0.75001165  0.83319794  0.85590226  1
  O2-  O419  1  0.25002966  0.49842012  0.66879313  1
  O2-  O420  1  0.96823539  0.33295496  0.37506815  1
  O2-  O421  1  0.47242054  0.66604815  0.37635395  1
  O2-  O422  1  0.03083822  0.33228316  0.87461762  1
  O2-  O423  1  0.96824610  0.66724260  0.37415086  1
  O2-  O424  1  0.97494723  0.32980351  0.13046070  1
  O2-  O425  1  0.52578834  0.33507240  0.63043685  1
  O2-  O426  1  0.52635137  -0.00255688  0.38088160  1
  O2-  O427  1  0.47549602  -0.00055921  0.61746948  1
  O2-  O428  1  0.02667170  -0.00168025  0.13040504  1
  O2-  O429  1  0.97222752  0.66453534  0.87396293  1
  O2-  O430  1  0.97535708  -0.00566295  0.37529447  1
  O2-  O431  1  0.52256850  -0.00341998  0.12134303  1
  O2-  O432  1  0.47533952  0.33146568  0.87548604  1
  O2-  O433  1  0.52531914  0.33089233  0.37826353  1
  O2-  O434  1  0.46865920  0.32883955  0.13007222  1
  O2-  O435  1  0.02996468  0.66371913  0.37261421  1
  O2-  O436  1  0.02786563  -0.00087207  0.62280547  1
  O2-  O437  1  0.47643835  0.66175653  0.12664666  1
  O2-  O438  1  0.02823084  -0.00118678  0.87280292  1
  O2-  O439  1  0.02791888  0.33488340  0.62486416  1
  O2-  O440  1  0.02837493  0.33656388  0.37582843  1
  O2-  O441  1  0.53049232  0.33223820  0.11652832  1
  O2-  O442  1  0.97308653  0.33113820  0.87521002  1
  O2-  O443  1  0.52711835  0.66831287  0.62321530  1
