# generated using pymatgen
data_La7(Ru4O11)2
_symmetry_space_group_name_H-M   'P 1'
_cell_length_a   23.99005643
_cell_length_b   16.83032797
_cell_length_c   15.42689982
_cell_angle_alpha   90.00028394
_cell_angle_beta   90.00057055
_cell_angle_gamma   90.00065237
_symmetry_Int_Tables_number   1
_chemical_formula_structural   La7(Ru4O11)2
_chemical_formula_sum   'La84 Ru96 O264'
_cell_volume   6228.77305806
_cell_formula_units_Z   12
loop_
 _symmetry_equiv_pos_site_id
 _symmetry_equiv_pos_as_xyz
  1  'x, y, z'
loop_
 _atom_type_symbol
 _atom_type_oxidation_number
  La3+  3.0
  Ru4+  4.0
  O2-  -2.0
loop_
 _atom_site_type_symbol
 _atom_site_label
 _atom_site_symmetry_multiplicity
 _atom_site_fract_x
 _atom_site_fract_y
 _atom_site_fract_z
 _atom_site_occupancy
  La3+  La0  1  0.13784333  0.00134254  0.12359187  1
  La3+  La1  1  0.13908560  0.00145190  0.37793075  1
  La3+  La2  1  0.14094198  0.00187421  0.62562451  1
  La3+  La3  1  0.13693320  0.00163990  0.87448914  1
  La3+  La4  1  0.13797984  0.33247636  0.12481731  1
  La3+  La5  1  0.13854762  0.33303544  0.37505425  1
  La3+  La6  1  0.13911362  0.33306122  0.62617690  1
  La3+  La7  1  0.13864064  0.33116015  0.87392260  1
  La3+  La8  1  0.13712859  0.66552902  0.12530571  1
  La3+  La9  1  0.13788475  0.66491826  0.37658709  1
  La3+  La10  1  0.14074716  0.66201164  0.62299333  1
  La3+  La11  1  0.13831295  0.66316723  0.87679522  1
  La3+  La12  1  0.63961380  -0.00072740  0.12649505  1
  La3+  La13  1  0.63973684  0.00020181  0.37447280  1
  La3+  La14  1  0.64084971  -0.00108065  0.62493351  1
  La3+  La15  1  0.63961658  -0.00071123  0.87509431  1
  La3+  La16  1  0.64094044  0.33371482  0.12571394  1
  La3+  La17  1  0.63901036  0.33231102  0.37412518  1
  La3+  La18  1  0.63862956  0.33321589  0.62411542  1
  La3+  La19  1  0.63910532  0.33163163  0.87463641  1
  La3+  La20  1  0.63993887  0.66766304  0.12631142  1
  La3+  La21  1  0.64101492  0.66737703  0.37280139  1
  La3+  La22  1  0.63696231  0.66855704  0.62467917  1
  La3+  La23  1  0.63734764  0.66876288  0.87547100  1
  La3+  La24  1  0.36218766  0.00036197  0.12385007  1
  La3+  La25  1  0.36273897  0.00011601  0.37849732  1
  La3+  La26  1  0.35901329  0.00250368  0.62498686  1
  La3+  La27  1  0.36205885  0.00290318  0.87343808  1
  La3+  La28  1  0.36124426  0.33326137  0.12629134  1
  La3+  La29  1  0.36199015  0.33393382  0.37556200  1
  La3+  La30  1  0.36095201  0.33371783  0.62466113  1
  La3+  La31  1  0.36145407  0.33142652  0.87450799  1
  La3+  La32  1  0.36284689  0.66458170  0.12497037  1
  La3+  La33  1  0.36281370  0.66393729  0.37679265  1
  La3+  La34  1  0.35984926  0.66473520  0.62546963  1
  La3+  La35  1  0.36348431  0.66482602  0.87372960  1
  La3+  La36  1  0.86064783  -0.00046157  0.12789506  1
  La3+  La37  1  0.86041534  0.00062611  0.37370415  1
  La3+  La38  1  0.86140782  -0.00104174  0.62728531  1
  La3+  La39  1  0.86015422  -0.00146386  0.87200237  1
  La3+  La40  1  0.86221027  0.33220198  0.12528835  1
  La3+  La41  1  0.86093391  0.33228390  0.37600303  1
  La3+  La42  1  0.86379450  0.33298758  0.62223703  1
  La3+  La43  1  0.86102487  0.33160930  0.87471408  1
  La3+  La44  1  0.86051614  0.66795036  0.12726717  1
  La3+  La45  1  0.85911164  0.66769038  0.37244688  1
  La3+  La46  1  0.86263629  0.66969589  0.62608587  1
  La3+  La47  1  0.86371746  0.66998358  0.87476117  1
  La3+  La48  1  -0.00094297  0.16532146  0.13410972  1
  La3+  La49  1  -0.00025171  0.49820361  0.38892254  1
  La3+  La50  1  0.50082218  0.49935912  0.13185543  1
  La3+  La51  1  0.49808706  0.16339835  0.38383129  1
  La3+  La52  1  0.49921245  0.16465277  0.36742394  1
  La3+  La53  1  0.50052750  0.50299688  0.63818156  1
  La3+  La54  1  0.00023669  0.50097838  0.86812034  1
  La3+  La55  1  -0.00193599  0.83087029  0.61289986  1
  La3+  La56  1  -0.00103209  0.49971080  0.13122860  1
  La3+  La57  1  -0.00018366  0.83397865  0.11461245  1
  La3+  La58  1  0.49973336  0.16594105  0.61312823  1
  La3+  La59  1  0.00065209  0.49931301  0.63242368  1
  La3+  La60  1  -0.00316562  0.83162129  0.86717150  1
  La3+  La61  1  -0.00115591  0.49805938  0.36738500  1
  La3+  La62  1  0.50061639  0.83304682  0.37086092  1
  La3+  La63  1  0.49895065  0.16450911  0.87238701  1
  La3+  La64  1  -0.00029951  0.16657879  0.38515333  1
  La3+  La65  1  0.00035316  0.16711968  0.86584130  1
  La3+  La66  1  -0.00019745  0.83465344  0.36528713  1
  La3+  La67  1  0.50367059  0.50097436  0.37529689  1
  La3+  La68  1  0.50069932  0.17034636  0.63520670  1
  La3+  La69  1  0.49863088  0.83535203  0.10817127  1
  La3+  La70  1  0.50150190  0.83345119  0.13022701  1
  La3+  La71  1  -0.00407267  0.83562490  0.63495167  1
  La3+  La72  1  0.74994000  0.80444877  -0.02533065  1
  La3+  La73  1  0.74997791  0.79287250  0.50768435  1
  La3+  La74  1  0.24978887  0.49271533  -0.05624770  1
  La3+  La75  1  0.25013681  0.20535989  0.21402354  1
  La3+  La76  1  0.24950216  0.82768393  0.24847262  1
  La3+  La77  1  0.25008428  0.89306397  0.02337279  1
  La3+  La78  1  0.25005627  0.90475637  0.74957379  1
  La3+  La79  1  0.74987639  0.53507835  0.23133565  1
  La3+  La80  1  0.74988638  0.46488683  0.48220045  1
  La3+  La81  1  0.74969635  0.48799505  0.75263857  1
  La3+  La82  1  0.25015333  0.88755145  0.47669595  1
  La3+  La83  1  0.74996996  0.46325514  -0.02698877  1
  Ru4+  Ru84  1  0.00045986  0.00215240  0.00077487  1
  Ru4+  Ru85  1  -0.00244686  -0.00044111  0.24712134  1
  Ru4+  Ru86  1  -0.00024656  0.00178199  0.50131101  1
  Ru4+  Ru87  1  0.00014213  0.01110617  0.75109817  1
  Ru4+  Ru88  1  -0.00005904  0.33213363  0.00131782  1
  Ru4+  Ru89  1  -0.00067878  0.33527500  0.25014210  1
  Ru4+  Ru90  1  0.00200373  0.32686856  0.49719832  1
  Ru4+  Ru91  1  -0.00024045  0.33188741  0.75175403  1
  Ru4+  Ru92  1  -0.00106028  0.66622323  -0.00384622  1
  Ru4+  Ru93  1  -0.00102506  0.66802452  0.25304359  1
  Ru4+  Ru94  1  -0.00002265  0.66607577  0.49941008  1
  Ru4+  Ru95  1  0.00122566  0.65731603  0.75151510  1
  Ru4+  Ru96  1  0.50139210  -0.00180620  -0.00147845  1
  Ru4+  Ru97  1  0.50345046  0.00551079  0.25195293  1
  Ru4+  Ru98  1  0.49926373  -0.00265408  0.49651834  1
  Ru4+  Ru99  1  0.50245974  -0.00440855  0.75496142  1
  Ru4+  Ru100  1  0.49821497  0.33455460  -0.00418844  1
  Ru4+  Ru101  1  0.49650487  0.33818922  0.25182875  1
  Ru4+  Ru102  1  0.50451800  0.32542279  0.50082052  1
  Ru4+  Ru103  1  0.49742985  0.33711969  0.74930416  1
  Ru4+  Ru104  1  0.50192722  0.67256977  -0.00076315  1
  Ru4+  Ru105  1  0.50133598  0.66166743  0.25156834  1
  Ru4+  Ru106  1  0.50345880  0.67484280  0.49820289  1
  Ru4+  Ru107  1  0.50115209  0.66515688  0.75109443  1
  Ru4+  Ru108  1  0.11336353  0.16592017  -0.00055291  1
  Ru4+  Ru109  1  0.11121445  0.16617934  0.24962919  1
  Ru4+  Ru110  1  0.11350323  0.16463873  0.49940255  1
  Ru4+  Ru111  1  0.11462161  0.16601951  0.75054867  1
  Ru4+  Ru112  1  0.11100125  0.49976355  0.00056213  1
  Ru4+  Ru113  1  0.11264380  0.49926402  0.25012862  1
  Ru4+  Ru114  1  0.11208723  0.50154402  0.49927506  1
  Ru4+  Ru115  1  0.11308026  0.50101590  0.74923202  1
  Ru4+  Ru116  1  0.11076711  0.83323097  -0.00055390  1
  Ru4+  Ru117  1  0.11093599  0.83322446  0.25008933  1
  Ru4+  Ru118  1  0.11214879  0.83267018  0.49926340  1
  Ru4+  Ru119  1  0.11643336  0.83218314  0.75041256  1
  Ru4+  Ru120  1  0.61346048  0.16491830  0.00077772  1
  Ru4+  Ru121  1  0.61558967  0.16564228  0.24936778  1
  Ru4+  Ru122  1  0.61281562  0.16509704  0.49978369  1
  Ru4+  Ru123  1  0.61697405  0.16584482  0.75042741  1
  Ru4+  Ru124  1  0.61213022  0.50111854  -0.00013183  1
  Ru4+  Ru125  1  0.61161014  0.50116028  0.24993317  1
  Ru4+  Ru126  1  0.61168224  0.49860239  0.50006015  1
  Ru4+  Ru127  1  0.61039415  0.49969354  0.74948402  1
  Ru4+  Ru128  1  0.61234870  0.83367449  -0.00147562  1
  Ru4+  Ru129  1  0.61633644  0.83439262  0.25076137  1
  Ru4+  Ru130  1  0.60983153  0.83315971  0.50127573  1
  Ru4+  Ru131  1  0.61579036  0.83367041  0.75031812  1
  Ru4+  Ru132  1  0.38394079  0.16660449  0.00097926  1
  Ru4+  Ru133  1  0.38903525  0.16862473  0.24961902  1
  Ru4+  Ru134  1  0.38616952  0.16492995  0.49951627  1
  Ru4+  Ru135  1  0.38266152  0.16949374  0.75021279  1
  Ru4+  Ru136  1  0.38585622  0.49522705  0.00022462  1
  Ru4+  Ru137  1  0.38669929  0.49991445  0.24992795  1
  Ru4+  Ru138  1  0.37879574  0.50050833  0.50171465  1
  Ru4+  Ru139  1  0.38679338  0.50146768  0.74924168  1
  Ru4+  Ru140  1  0.38893973  0.83422051  -0.00032702  1
  Ru4+  Ru141  1  0.38360485  0.83072084  0.25139870  1
  Ru4+  Ru142  1  0.39000142  0.83489635  0.49948167  1
  Ru4+  Ru143  1  0.38686659  0.83319749  0.74900776  1
  Ru4+  Ru144  1  0.88809641  0.16672707  0.00015252  1
  Ru4+  Ru145  1  0.88684807  0.16737809  0.25079137  1
  Ru4+  Ru146  1  0.88687018  0.16599046  0.50032538  1
  Ru4+  Ru147  1  0.88684463  0.16842318  0.75042629  1
  Ru4+  Ru148  1  0.88905060  0.49897466  0.00017832  1
  Ru4+  Ru149  1  0.88872175  0.50152548  0.24960619  1
  Ru4+  Ru150  1  0.88519640  0.50372683  0.49842987  1
  Ru4+  Ru151  1  0.88983385  0.50134922  0.74991972  1
  Ru4+  Ru152  1  0.88723427  0.83043123  0.00030169  1
  Ru4+  Ru153  1  0.88559539  0.83400865  0.25007805  1
  Ru4+  Ru154  1  0.88816109  0.83177243  0.49915460  1
  Ru4+  Ru155  1  0.87974204  0.83358626  0.75122890  1
  Ru4+  Ru156  1  0.74989864  0.39266516  0.24869886  1
  Ru4+  Ru157  1  0.25012528  0.74341999  0.01202059  1
  Ru4+  Ru158  1  0.24996911  0.24674772  0.50439525  1
  Ru4+  Ru159  1  0.25002371  0.72693310  0.49699859  1
  Ru4+  Ru160  1  0.24930061  0.42205702  0.50104598  1
  Ru4+  Ru161  1  0.74961846  0.24524044  -0.00113124  1
  Ru4+  Ru162  1  0.75018928  0.59199389  0.00590666  1
  Ru4+  Ru163  1  0.75004480  0.93610832  0.51109600  1
  Ru4+  Ru164  1  0.75048744  0.08372260  0.24783044  1
  Ru4+  Ru165  1  0.24997952  0.95635794  0.26385930  1
  Ru4+  Ru166  1  0.74980317  0.60320481  0.48444195  1
  Ru4+  Ru167  1  0.25003252  0.69388149  0.26065465  1
  Ru4+  Ru168  1  0.24983386  0.41962194  0.74824095  1
  Ru4+  Ru169  1  0.74991039  0.08619403  -0.00243787  1
  Ru4+  Ru170  1  0.24985095  0.07846225  0.26026637  1
  Ru4+  Ru171  1  0.74996525  0.35708545  0.73922485  1
  Ru4+  Ru172  1  0.24975440  0.61421761  0.02872459  1
  Ru4+  Ru173  1  0.25008056  0.41799244  0.25164607  1
  Ru4+  Ru174  1  0.74994158  0.24214981  0.49396659  1
  Ru4+  Ru175  1  0.25003342  0.36288549  0.00923160  1
  Ru4+  Ru176  1  0.74985684  0.61566071  0.74933467  1
  Ru4+  Ru177  1  0.75010074  0.08495237  0.75592453  1
  Ru4+  Ru178  1  0.25000358  0.73184376  0.73900553  1
  Ru4+  Ru179  1  0.74996401  0.94033492  0.00314565  1
  O2-  O180  1  0.16664244  0.08093721  0.00016038  1
  O2-  O181  1  0.16664923  0.08030090  0.25020462  1
  O2-  O182  1  0.16551834  0.08172594  0.50085710  1
  O2-  O183  1  0.16533428  0.08153270  0.75080139  1
  O2-  O184  1  0.16606431  0.41254871  0.00030508  1
  O2-  O185  1  0.16700204  0.41386305  0.24967208  1
  O2-  O186  1  0.16706784  0.41312879  0.49952572  1
  O2-  O187  1  0.16882422  0.41323234  0.75108480  1
  O2-  O188  1  0.16776747  0.74687022  0.00128012  1
  O2-  O189  1  0.16604164  0.74574039  0.25044782  1
  O2-  O190  1  0.16817878  0.74692972  0.49898317  1
  O2-  O191  1  0.16837686  0.74796952  0.74955904  1
  O2-  O192  1  0.66832988  0.08186852  0.00001018  1
  O2-  O193  1  0.66809594  0.08154684  0.24974025  1
  O2-  O194  1  0.66657727  0.08127899  0.49972391  1
  O2-  O195  1  0.66791858  0.08125626  0.74916983  1
  O2-  O196  1  0.66723756  0.41264813  -0.00084981  1
  O2-  O197  1  0.66704368  0.41293636  0.25001332  1
  O2-  O198  1  0.66559132  0.41225382  0.50043952  1
  O2-  O199  1  0.66609080  0.41196258  0.74975021  1
  O2-  O200  1  0.66506643  0.74580932  0.00027249  1
  O2-  O201  1  0.66528313  0.74845270  0.25026197  1
  O2-  O202  1  0.66426989  0.74543881  0.49928285  1
  O2-  O203  1  0.66466427  0.74871429  0.74963522  1
  O2-  O204  1  0.33163565  0.25174561  -0.00094823  1
  O2-  O205  1  0.33310597  0.25398965  0.24999577  1
  O2-  O206  1  0.33303665  0.25342309  0.50030951  1
  O2-  O207  1  0.33325789  0.25309339  0.75051901  1
  O2-  O208  1  0.33293593  0.58686005  -0.00090004  1
  O2-  O209  1  0.33303870  0.58599596  0.25072110  1
  O2-  O210  1  0.33230383  0.58537176  0.49835971  1
  O2-  O211  1  0.33211732  0.58539468  0.75138222  1
  O2-  O212  1  0.33535024  0.92247560  -0.00126513  1
  O2-  O213  1  0.33470919  0.92081709  0.24981564  1
  O2-  O214  1  0.33465438  0.91984022  0.50200065  1
  O2-  O215  1  0.33610605  0.92029715  0.75221878  1
  O2-  O216  1  0.83247239  0.25299613  -0.00069947  1
  O2-  O217  1  0.83409903  0.25193531  0.24894336  1
  O2-  O218  1  0.83118823  0.25348144  0.50061389  1
  O2-  O219  1  0.83406048  0.25212139  0.74884967  1
  O2-  O220  1  0.83357689  0.58741875  -0.00043682  1
  O2-  O221  1  0.83441755  0.58638284  0.25048075  1
  O2-  O222  1  0.83264413  0.58679412  0.49966963  1
  O2-  O223  1  0.83451486  0.58749545  0.75007434  1
  O2-  O224  1  0.83249885  0.92081956  -0.00081147  1
  O2-  O225  1  0.83287937  0.91793136  0.25073873  1
  O2-  O226  1  0.83307931  0.92054628  0.50061550  1
  O2-  O227  1  0.83436641  0.91791312  0.75068019  1
  O2-  O228  1  0.16747771  0.25345865  0.00039068  1
  O2-  O229  1  0.16615337  0.25436081  0.24987054  1
  O2-  O230  1  0.16687027  0.25322925  0.49992142  1
  O2-  O231  1  0.16640552  0.25318861  0.75023462  1
  O2-  O232  1  0.16693447  0.58709726  0.00088661  1
  O2-  O233  1  0.16719774  0.58700570  0.25049502  1
  O2-  O234  1  0.16649601  0.58570228  0.49817161  1
  O2-  O235  1  0.16621232  0.58475415  0.74997207  1
  O2-  O236  1  0.16431808  0.92219003  -0.00106454  1
  O2-  O237  1  0.16515392  0.92048638  0.24975837  1
  O2-  O238  1  0.16389537  0.92084959  0.50196213  1
  O2-  O239  1  0.16355178  0.92179926  0.75126680  1
  O2-  O240  1  0.66944497  0.25336331  -0.00089103  1
  O2-  O241  1  0.66803806  0.25139431  0.25010689  1
  O2-  O242  1  0.66829817  0.25415162  0.50085875  1
  O2-  O243  1  0.66730391  0.25174397  0.74885205  1
  O2-  O244  1  0.66631801  0.58628073  -0.00054011  1
  O2-  O245  1  0.66407373  0.58664365  0.25028780  1
  O2-  O246  1  0.66690210  0.58747646  0.49966699  1
  O2-  O247  1  0.66543092  0.58850249  0.75006549  1
  O2-  O248  1  0.66762941  0.92009912  0.00063106  1
  O2-  O249  1  0.66681786  0.91811232  0.25054478  1
  O2-  O250  1  0.66783825  0.91967431  0.49960947  1
  O2-  O251  1  0.66670966  0.91702275  0.74995859  1
  O2-  O252  1  0.33207175  0.08111066  -0.00018468  1
  O2-  O253  1  0.33392893  0.07992203  0.24963051  1
  O2-  O254  1  0.33278091  0.08218548  0.50081558  1
  O2-  O255  1  0.33323030  0.08133291  0.75112475  1
  O2-  O256  1  0.33375723  0.41314484  -0.00072775  1
  O2-  O257  1  0.33295162  0.41453599  0.25026567  1
  O2-  O258  1  0.33178023  0.41362887  0.49949200  1
  O2-  O259  1  0.33261510  0.41387224  0.75128058  1
  O2-  O260  1  0.33314964  0.74563058  -0.00023447  1
  O2-  O261  1  0.33296583  0.74571480  0.25060483  1
  O2-  O262  1  0.33266325  0.74690227  0.49927310  1
  O2-  O263  1  0.33267786  0.74761439  0.75104207  1
  O2-  O264  1  0.83260202  0.08111394  -0.00124409  1
  O2-  O265  1  0.83133843  0.08198350  0.25019148  1
  O2-  O266  1  0.83437169  0.08193832  0.50036184  1
  O2-  O267  1  0.83304088  0.08119499  0.74984991  1
  O2-  O268  1  0.83409717  0.41194892  0.00013798  1
  O2-  O269  1  0.83357505  0.41246076  0.24973353  1
  O2-  O270  1  0.83422507  0.41185212  0.50087403  1
  O2-  O271  1  0.83405429  0.41146246  0.74993684  1
  O2-  O272  1  0.83382103  0.74669029  0.00020326  1
  O2-  O273  1  0.83520174  0.74912622  0.24979627  1
  O2-  O274  1  0.83561711  0.74554707  0.50004232  1
  O2-  O275  1  0.83402339  0.74799870  0.74992214  1
  O2-  O276  1  0.45333947  0.90509731  0.22978542  1
  O2-  O277  1  0.03378622  0.78027759  0.74000281  1
  O2-  O278  1  0.54102841  0.22008485  0.00638922  1
  O2-  O279  1  0.04778552  0.23507289  0.98530966  1
  O2-  O280  1  0.04593633  0.23478903  0.23682312  1
  O2-  O281  1  0.45406262  0.09718873  0.26338976  1
  O2-  O282  1  0.94911693  0.90050285  0.73708280  1
  O2-  O283  1  0.95229421  0.23713879  0.01336798  1
  O2-  O284  1  0.04770504  0.90225269  0.51416008  1
  O2-  O285  1  0.95455426  0.09813434  0.76444262  1
  O2-  O286  1  0.03451617  0.77882442  0.75967350  1
  O2-  O287  1  0.95383055  0.43271838  0.51646892  1
  O2-  O288  1  0.04576288  0.56691360  0.23752112  1
  O2-  O289  1  0.45871404  0.56156870  0.97445151  1
  O2-  O290  1  0.45890664  0.43786558  0.49501686  1
  O2-  O291  1  0.95263922  0.89958468  0.48550475  1
  O2-  O292  1  0.54477292  0.76557151  0.98609758  1
  O2-  O293  1  0.45958694  0.77003596  0.77416187  1
  O2-  O294  1  0.04805687  0.90905954  0.76790572  1
  O2-  O295  1  0.95710349  0.89328373  0.97125650  1
  O2-  O296  1  0.45420748  0.42726146  0.98479258  1
  O2-  O297  1  0.04810119  0.90097865  0.98836858  1
  O2-  O298  1  0.45899947  0.43806651  0.49455368  1
  O2-  O299  1  0.95522101  0.09705424  0.01101032  1
  O2-  O300  1  0.54761455  0.76501572  0.51272719  1
  O2-  O301  1  0.45365656  0.23391295  0.23577118  1
  O2-  O302  1  0.45416860  0.09736478  0.76950764  1
  O2-  O303  1  0.95410524  0.43170589  0.73625610  1
  O2-  O304  1  0.04515740  0.90235670  0.23376371  1
  O2-  O305  1  0.04431765  0.42888489  0.01457215  1
  O2-  O306  1  0.45471189  0.56695614  0.23776966  1
  O2-  O307  1  0.45317619  0.09870216  0.73047324  1
  O2-  O308  1  0.54603626  0.76241339  0.23947782  1
  O2-  O309  1  0.55010366  0.24490107  0.79578880  1
  O2-  O310  1  0.55280847  0.24102779  0.29748090  1
  O2-  O311  1  0.55386876  0.08522696  0.97522839  1
  O2-  O312  1  0.54711679  0.56767829  0.48721464  1
  O2-  O313  1  0.45846345  0.21766837  0.00581254  1
  O2-  O314  1  0.04545237  0.76228121  0.26434216  1
  O2-  O315  1  0.45189770  0.76647075  0.48623551  1
  O2-  O316  1  0.05930619  0.58273802  0.97345736  1
  O2-  O317  1  0.45351418  0.90077682  0.26874305  1
  O2-  O318  1  0.46550592  0.55521090  0.01090901  1
  O2-  O319  1  0.45915543  0.89735407  0.77846728  1
  O2-  O320  1  0.04834156  0.90997648  0.72880019  1
  O2-  O321  1  0.95250104  0.56563961  0.01552303  1
  O2-  O322  1  0.44451199  0.57984785  0.46767885  1
  O2-  O323  1  0.94507573  0.76535605  0.73459452  1
  O2-  O324  1  0.05271399  0.58167416  0.97654484  1
  O2-  O325  1  0.55304275  0.24920515  0.78629110  1
  O2-  O326  1  0.44434321  0.58035378  0.46703282  1
  O2-  O327  1  0.93627425  0.26202509  0.53198677  1
  O2-  O328  1  0.42988019  0.93427557  0.71107472  1
  O2-  O329  1  0.93496013  0.59466077  0.22198052  1
  O2-  O330  1  0.56402181  0.40299147  0.94884187  1
  O2-  O331  1  0.42539178  0.38648811  0.54958763  1
  O2-  O332  1  0.43261340  0.74072377  0.29961326  1
  O2-  O333  1  0.43643540  0.59373515  0.71699559  1
  O2-  O334  1  0.93494712  0.92605278  0.22174390  1
  O2-  O335  1  0.42394361  0.27734545  0.03425679  1
  O2-  O336  1  0.08150979  0.71893080  0.67370251  1
  O2-  O337  1  0.57512486  0.26695469  0.18215008  1
  O2-  O338  1  0.56611140  0.41076033  0.04507700  1
  O2-  O339  1  0.43598330  0.06796090  0.95010640  1
  O2-  O340  1  0.43394350  0.60205751  0.55454410  1
  O2-  O341  1  0.56467063  0.92733875  0.79936455  1
  O2-  O342  1  0.42035540  0.61381072  0.04315825  1
  O2-  O343  1  0.56392331  0.07092093  0.28422131  1
  O2-  O344  1  0.43171418  0.73192942  0.70612710  1
  O2-  O345  1  0.93679289  0.59764901  0.46717922  1
  O2-  O346  1  0.56505725  0.59629491  0.03462645  1
  O2-  O347  1  0.56699533  0.07517965  0.70200333  1
  O2-  O348  1  0.43693999  0.06822045  0.04964879  1
  O2-  O349  1  0.06382069  0.73891559  0.96889166  1
  O2-  O350  1  0.56418938  0.07059485  0.80395315  1
  O2-  O351  1  0.93890154  0.73648700  0.71347215  1
  O2-  O352  1  0.57677329  0.27431122  0.03631396  1
  O2-  O353  1  0.57317441  0.26823068  0.68822167  1
  O2-  O354  1  0.06363388  0.73532546  0.46672829  1
  O2-  O355  1  0.55507561  0.24284626  0.28697519  1
  O2-  O356  1  0.56602161  0.92817978  0.52628298  1
  O2-  O357  1  0.56536342  0.92516797  0.70599817  1
  O2-  O358  1  0.93433839  0.73921449  0.97229807  1
  O2-  O359  1  0.06458417  0.40311873  0.71705423  1
  O2-  O360  1  0.07617970  0.71379353  0.83082782  1
  O2-  O361  1  0.93668368  0.92726927  0.71962455  1
  O2-  O362  1  0.56219479  0.93250037  0.96930163  1
  O2-  O363  1  0.92806196  0.93518006  0.04200106  1
  O2-  O364  1  0.43199368  0.73900570  0.20053714  1
  O2-  O365  1  0.55601714  0.08103418  0.97522532  1
  O2-  O366  1  0.43579978  0.07391858  0.47068443  1
  O2-  O367  1  0.56341492  0.93066783  0.21609209  1
  O2-  O368  1  0.93554127  0.07532137  0.27950019  1
  O2-  O369  1  0.06437876  0.06886828  0.21764271  1
  O2-  O370  1  0.43447875  0.92658353  0.47056037  1
  O2-  O371  1  0.93873434  0.40678193  0.53013406  1
  O2-  O372  1  0.75009224  -0.00203767  0.32664105  1
  O2-  O373  1  0.24978837  0.66168450  0.14836357  1
  O2-  O374  1  0.75005744  0.33197056  0.34706354  1
  O2-  O375  1  0.75004343  0.32945016  0.85499793  1
  O2-  O376  1  0.74999544  0.67726216  0.08406886  1
  O2-  O377  1  0.75004428  0.67409918  0.57385872  1
  O2-  O378  1  0.75035164  0.00289084  0.84411619  1
  O2-  O379  1  0.74991473  0.00351622  0.15737326  1
  O2-  O380  1  0.74997277  0.68854442  0.66316171  1
  O2-  O381  1  0.24995716  0.33277869  0.59415086  1
  O2-  O382  1  0.24973222  -0.00174578  0.40123470  1
  O2-  O383  1  0.25041295  0.66999387  0.91351503  1
  O2-  O384  1  0.25022104  0.33059448  0.32489855  1
  O2-  O385  1  0.75005149  0.00788022  0.41712762  1
  O2-  O386  1  0.74984464  0.66396152  0.35036915  1
  O2-  O387  1  0.74975327  0.68701598  0.83670400  1
  O2-  O388  1  0.75001425  0.66542053  0.17386931  1
  O2-  O389  1  0.75012982  0.00354392  0.65686484  1
  O2-  O390  1  0.24981118  -0.00297891  0.65520763  1
  O2-  O391  1  0.25028891  0.65518225  0.82227706  1
  O2-  O392  1  0.24999100  0.00263702  0.14200601  1
  O2-  O393  1  0.74989315  0.67640390  0.92585817  1
  O2-  O394  1  0.25008636  0.66650094  0.59745662  1
  O2-  O395  1  0.25014156  0.33308899  0.42377758  1
  O2-  O396  1  0.24995013  0.81988991  0.12606353  1
  O2-  O397  1  0.24998554  0.50110122  0.67119741  1
  O2-  O398  1  0.75009648  0.16232556  0.83791864  1
  O2-  O399  1  0.25002318  0.50375713  0.18463465  1
  O2-  O400  1  0.75000023  0.50107664  0.10293872  1
  O2-  O401  1  0.74997977  0.84275511  0.62404865  1
  O2-  O402  1  0.25001098  0.16290504  0.43327665  1
  O2-  O403  1  0.25013581  0.50102143  0.09408378  1
  O2-  O404  1  0.25004407  0.16253601  0.34422792  1
  O2-  O405  1  0.75000360  0.83922487  0.10896513  1
  O2-  O406  1  0.25051633  0.80976998  0.66158153  1
  O2-  O407  1  0.75000001  0.49808282  0.35877233  1
  O2-  O408  1  0.24990156  0.82084784  0.92028823  1
  O2-  O409  1  0.74994553  0.83297325  0.31104183  1
  O2-  O410  1  0.74999903  0.83491803  0.84436149  1
  O2-  O411  1  0.75003540  0.17089939  0.41334979  1
  O2-  O412  1  0.75016591  0.16724401  0.09119007  1
  O2-  O413  1  0.75004378  0.50287100  0.61402288  1
  O2-  O414  1  0.25008952  0.50087053  0.58116168  1
  O2-  O415  1  0.25003859  0.82087297  0.58017929  1
  O2-  O416  1  0.74999950  0.84104652  0.39264794  1
  O2-  O417  1  0.24994974  0.81944437  0.37165355  1
  O2-  O418  1  0.25009827  0.16658520  0.84033074  1
  O2-  O419  1  0.24993171  0.80867458  0.83625285  1
  O2-  O420  1  0.46787615  0.33915790  0.13202962  1
  O2-  O421  1  0.03196275  0.66778709  0.12277361  1
  O2-  O422  1  0.47895924  0.66735780  0.12205892  1
  O2-  O423  1  0.52459423  0.34068505  0.12903021  1
  O2-  O424  1  0.97752152  0.00616425  0.12793153  1
  O2-  O425  1  0.97028470  0.67099813  0.12134089  1
  O2-  O426  1  0.46836933  0.66769562  0.87481186  1
  O2-  O427  1  0.02819645  0.00415483  0.87458587  1
  O2-  O428  1  0.52831166  0.66439179  0.62771391  1
  O2-  O429  1  0.46116540  0.33246043  0.37340847  1
  O2-  O430  1  0.47661500  0.00026360  0.37134673  1
  O2-  O431  1  0.46822268  0.00363349  0.61786022  1
  O2-  O432  1  0.47916391  0.66748163  0.37330454  1
  O2-  O433  1  0.52481377  0.33985339  0.61694998  1
  O2-  O434  1  0.02834153  0.33417478  0.37537224  1
  O2-  O435  1  0.52705066  0.00389616  0.61618930  1
  O2-  O436  1  0.97199608  0.33477983  0.12710907  1
  O2-  O437  1  0.53649684  0.34004849  0.38094049  1
  O2-  O438  1  0.53236102  0.66558662  0.87341330  1
  O2-  O439  1  0.96757958  -0.00252386  0.37817253  1
  O2-  O440  1  0.02380879  0.65899251  0.61931902  1
  O2-  O441  1  0.97316896  0.66290056  0.86957738  1
  O2-  O442  1  0.03527544  0.00060018  0.37563081  1
  O2-  O443  1  0.97429710  0.00349805  0.62008945  1
