# generated using pymatgen
data_La7(Ru4O11)2
_symmetry_space_group_name_H-M   'P 1'
_cell_length_a   23.99125593
_cell_length_b   16.83187522
_cell_length_c   15.42983830
_cell_angle_alpha   90.00133769
_cell_angle_beta   90.00045453
_cell_angle_gamma   90.00108683
_symmetry_Int_Tables_number   1
_chemical_formula_structural   La7(Ru4O11)2
_chemical_formula_sum   'La84 Ru96 O264'
_cell_volume   6230.84375511
_cell_formula_units_Z   12
loop_
 _symmetry_equiv_pos_site_id
 _symmetry_equiv_pos_as_xyz
  1  'x, y, z'
loop_
 _atom_type_symbol
 _atom_type_oxidation_number
  La3+  3.0
  Ru4+  4.0
  O2-  -2.0
loop_
 _atom_site_type_symbol
 _atom_site_label
 _atom_site_symmetry_multiplicity
 _atom_site_fract_x
 _atom_site_fract_y
 _atom_site_fract_z
 _atom_site_occupancy
  La3+  La0  1  0.13650780  -0.00121444  0.13035436  1
  La3+  La1  1  0.13779934  0.00000566  0.37181302  1
  La3+  La2  1  0.14113366  -0.00467310  0.62718322  1
  La3+  La3  1  0.13545728  -0.00247210  0.87606271  1
  La3+  La4  1  0.14019031  0.33349306  0.12591491  1
  La3+  La5  1  0.13940030  0.33007578  0.37222563  1
  La3+  La6  1  0.13758803  0.33439194  0.62430929  1
  La3+  La7  1  0.13523180  0.33593477  0.87629329  1
  La3+  La8  1  0.13917682  0.66745119  0.12426848  1
  La3+  La9  1  0.13571536  0.66748765  0.37496197  1
  La3+  La10  1  0.14088222  0.66668548  0.63060464  1
  La3+  La11  1  0.14141282  0.66745432  0.87177242  1
  La3+  La12  1  0.64245209  0.00146031  0.12564120  1
  La3+  La13  1  0.64337992  0.00112696  0.37057297  1
  La3+  La14  1  0.63613053  0.00043845  0.62527151  1
  La3+  La15  1  0.64158312  -0.00007711  0.87773433  1
  La3+  La16  1  0.64424384  0.33457970  0.12373894  1
  La3+  La17  1  0.63698392  0.32862749  0.37707475  1
  La3+  La18  1  0.63952896  0.33140830  0.62107669  1
  La3+  La19  1  0.63918660  0.33563842  0.87686487  1
  La3+  La20  1  0.63835746  0.66603248  0.12296910  1
  La3+  La21  1  0.63650236  0.66503399  0.37768150  1
  La3+  La22  1  0.64314377  0.66501264  0.62743972  1
  La3+  La23  1  0.64167047  0.66404268  0.87446828  1
  La3+  La24  1  0.36110147  -0.00151814  0.12941634  1
  La3+  La25  1  0.36288365  0.00070277  0.37264951  1
  La3+  La26  1  0.36428106  0.00103715  0.62375466  1
  La3+  La27  1  0.36167250  -0.00391351  0.88107497  1
  La3+  La28  1  0.35996954  0.33498100  0.12881687  1
  La3+  La29  1  0.36230445  0.33077642  0.37144322  1
  La3+  La30  1  0.36341977  0.33302528  0.62295535  1
  La3+  La31  1  0.36575319  0.33591193  0.87674541  1
  La3+  La32  1  0.36125615  0.66640244  0.12500887  1
  La3+  La33  1  0.36615021  0.66625021  0.37335969  1
  La3+  La34  1  0.35944955  0.66500619  0.62913706  1
  La3+  La35  1  0.35930048  0.66792931  0.87280303  1
  La3+  La36  1  0.85762557  0.00059388  0.12612090  1
  La3+  La37  1  0.85773899  0.00119525  0.37220905  1
  La3+  La38  1  0.87064999  0.00447536  0.63266523  1
  La3+  La39  1  0.86061762  0.00754958  0.87409118  1
  La3+  La40  1  0.85475111  0.33402867  0.12117271  1
  La3+  La41  1  0.86061402  0.32962300  0.37799005  1
  La3+  La42  1  0.86084246  0.33228174  0.62343068  1
  La3+  La43  1  0.86204566  0.33440019  0.87590009  1
  La3+  La44  1  0.86123755  0.66622997  0.12306428  1
  La3+  La45  1  0.85897633  0.66613805  0.37951791  1
  La3+  La46  1  0.85386526  0.66541434  0.62751607  1
  La3+  La47  1  0.85849012  0.66334340  0.87262709  1
  La3+  La48  1  0.00246995  0.50451160  0.37022076  1
  La3+  La49  1  0.00389415  0.83412539  0.60927159  1
  La3+  La50  1  -0.00094045  0.49502269  0.86048595  1
  La3+  La51  1  0.50375694  0.17089802  0.62771243  1
  La3+  La52  1  0.50168473  0.83157952  0.36544139  1
  La3+  La53  1  0.49998466  0.50321787  0.38098179  1
  La3+  La54  1  0.00112024  0.50645364  0.87893317  1
  La3+  La55  1  0.00053742  0.16554361  0.86142338  1
  La3+  La56  1  0.00280349  0.49939633  0.13121821  1
  La3+  La57  1  0.50121128  0.83233253  0.60933469  1
  La3+  La58  1  0.00430593  0.84103672  0.12523013  1
  La3+  La59  1  0.50154021  0.83035870  0.11542906  1
  La3+  La60  1  -0.00452628  0.50453235  0.11282524  1
  La3+  La61  1  -0.00283361  0.16379137  0.87809489  1
  La3+  La62  1  -0.00075568  0.83422672  0.88275826  1
  La3+  La63  1  0.49502470  0.50117936  0.88396401  1
  La3+  La64  1  -0.00204005  0.83772624  0.86672773  1
  La3+  La65  1  -0.00065249  0.16646773  0.13658953  1
  La3+  La66  1  0.00021726  0.83265845  0.36475591  1
  La3+  La67  1  0.50181986  0.50001809  0.61693997  1
  La3+  La68  1  0.49978916  0.16971779  0.38084355  1
  La3+  La69  1  -0.00081881  0.49699813  0.39042548  1
  La3+  La70  1  0.50441424  0.50305776  0.86668072  1
  La3+  La71  1  0.00014979  0.49871338  0.63109208  1
  La3+  La72  1  0.24988663  0.44045088  0.24988894  1
  La3+  La73  1  0.24919649  0.25260995  0.01219241  1
  La3+  La74  1  0.25030541  0.48136187  0.48558156  1
  La3+  La75  1  0.75004782  0.87295113  0.00182099  1
  La3+  La76  1  0.75025905  0.23916954  0.73265083  1
  La3+  La77  1  0.24952108  0.85397216  0.50687586  1
  La3+  La78  1  0.74944905  0.45959486  0.28756026  1
  La3+  La79  1  0.75027453  0.80021610  0.50001113  1
  La3+  La80  1  0.25019084  0.16648142  0.47360737  1
  La3+  La81  1  0.24886908  0.18442257  0.75892626  1
  La3+  La82  1  0.24984431  0.17469950  0.25809241  1
  La3+  La83  1  0.75082690  0.16380312  0.01501985  1
  Ru4+  Ru84  1  0.00096722  0.00264168  0.00097770  1
  Ru4+  Ru85  1  -0.00010138  -0.00045504  0.24740731  1
  Ru4+  Ru86  1  0.00154446  0.01179669  0.50365302  1
  Ru4+  Ru87  1  -0.00031140  0.00093203  0.74377767  1
  Ru4+  Ru88  1  -0.00008196  0.32889118  0.00263725  1
  Ru4+  Ru89  1  -0.00135655  0.32861807  0.25084162  1
  Ru4+  Ru90  1  0.00027455  0.32969069  0.50162227  1
  Ru4+  Ru91  1  0.00450408  0.33753262  0.74563882  1
  Ru4+  Ru92  1  -0.00124092  0.66989635  -0.00095891  1
  Ru4+  Ru93  1  0.00202646  0.66923262  0.24825959  1
  Ru4+  Ru94  1  0.00131211  0.66902131  0.50201200  1
  Ru4+  Ru95  1  0.00062159  0.66352686  0.74775307  1
  Ru4+  Ru96  1  0.50184702  -0.01696674  -0.00915896  1
  Ru4+  Ru97  1  0.50004438  0.00583239  0.24883694  1
  Ru4+  Ru98  1  0.50022640  0.00065211  0.50024215  1
  Ru4+  Ru99  1  0.50233967  0.00658798  0.75586891  1
  Ru4+  Ru100  1  0.49501490  0.32744759  0.00288518  1
  Ru4+  Ru101  1  0.49891534  0.33254239  0.25125926  1
  Ru4+  Ru102  1  0.49675267  0.33831276  0.49779718  1
  Ru4+  Ru103  1  0.50214985  0.33084526  0.75200243  1
  Ru4+  Ru104  1  0.49975084  0.66812166  0.00313605  1
  Ru4+  Ru105  1  0.49652247  0.66503003  0.25267930  1
  Ru4+  Ru106  1  0.49994416  0.66766632  0.49942284  1
  Ru4+  Ru107  1  0.50120654  0.66750964  0.74715130  1
  Ru4+  Ru108  1  0.10966314  0.16702961  0.00053543  1
  Ru4+  Ru109  1  0.10753091  0.16648051  0.25173279  1
  Ru4+  Ru110  1  0.10917501  0.15998859  0.49984701  1
  Ru4+  Ru111  1  0.11107813  0.16836396  0.75005683  1
  Ru4+  Ru112  1  0.12021499  0.50371135  0.00047758  1
  Ru4+  Ru113  1  0.11231902  0.50319578  0.25091380  1
  Ru4+  Ru114  1  0.11112451  0.49982146  0.50097919  1
  Ru4+  Ru115  1  0.11291689  0.50337897  0.74955496  1
  Ru4+  Ru116  1  0.11172186  0.83255613  -0.00136911  1
  Ru4+  Ru117  1  0.11445378  0.83713231  0.25006975  1
  Ru4+  Ru118  1  0.10798169  0.83332248  0.49908619  1
  Ru4+  Ru119  1  0.11408988  0.83293708  0.74945834  1
  Ru4+  Ru120  1  0.61737594  0.17139707  -0.00122595  1
  Ru4+  Ru121  1  0.61121922  0.16380685  0.24813777  1
  Ru4+  Ru122  1  0.61737488  0.16467444  0.50062687  1
  Ru4+  Ru123  1  0.61086801  0.16694526  0.74942891  1
  Ru4+  Ru124  1  0.61613547  0.50163560  0.00252439  1
  Ru4+  Ru125  1  0.61091049  0.49861919  0.25019624  1
  Ru4+  Ru126  1  0.61386590  0.50317728  0.49941396  1
  Ru4+  Ru127  1  0.61441533  0.50318897  0.74886413  1
  Ru4+  Ru128  1  0.61017618  0.83494278  -0.00096455  1
  Ru4+  Ru129  1  0.61605679  0.83783223  0.24974054  1
  Ru4+  Ru130  1  0.61114384  0.83267093  0.50012700  1
  Ru4+  Ru131  1  0.61546433  0.83258834  0.75271447  1
  Ru4+  Ru132  1  0.38519916  0.17494899  0.00024550  1
  Ru4+  Ru133  1  0.39141339  0.16682457  0.24951820  1
  Ru4+  Ru134  1  0.38885817  0.16682413  0.49937974  1
  Ru4+  Ru135  1  0.38986356  0.16891473  0.75075334  1
  Ru4+  Ru136  1  0.38669241  0.49749777  0.00099777  1
  Ru4+  Ru137  1  0.38991338  0.49876353  0.25086975  1
  Ru4+  Ru138  1  0.38905737  0.49918906  0.50161560  1
  Ru4+  Ru139  1  0.38489491  0.50234059  0.74903982  1
  Ru4+  Ru140  1  0.38831739  0.83358565  0.00055058  1
  Ru4+  Ru141  1  0.38674721  0.83711189  0.24993429  1
  Ru4+  Ru142  1  0.39071716  0.83106220  0.49976692  1
  Ru4+  Ru143  1  0.38510405  0.82901198  0.75090393  1
  Ru4+  Ru144  1  0.88975369  0.16616031  -0.00192478  1
  Ru4+  Ru145  1  0.88543132  0.16418415  0.24997415  1
  Ru4+  Ru146  1  0.88636432  0.16394214  0.50174901  1
  Ru4+  Ru147  1  0.88502006  0.16160699  0.74994222  1
  Ru4+  Ru148  1  0.88135280  0.50179853  -0.00040035  1
  Ru4+  Ru149  1  0.88538346  0.49927868  0.25038222  1
  Ru4+  Ru150  1  0.88518306  0.50194611  0.50052182  1
  Ru4+  Ru151  1  0.88757693  0.50276106  0.74998005  1
  Ru4+  Ru152  1  0.88934322  0.83128308  0.00034764  1
  Ru4+  Ru153  1  0.88622284  0.83488995  0.25137897  1
  Ru4+  Ru154  1  0.89061800  0.83283716  0.49937499  1
  Ru4+  Ru155  1  0.88603425  0.83376899  0.74875799  1
  Ru4+  Ru156  1  0.74964572  0.91341112  0.74642704  1
  Ru4+  Ru157  1  0.25054749  0.58618351  -0.00507111  1
  Ru4+  Ru158  1  0.24989100  0.90886323  0.01057934  1
  Ru4+  Ru159  1  0.25026226  0.74954954  0.00243478  1
  Ru4+  Ru160  1  0.24998300  0.98032670  0.46468617  1
  Ru4+  Ru161  1  0.25033056  0.75099425  0.25215073  1
  Ru4+  Ru162  1  0.25003289  0.05582109  0.74976076  1
  Ru4+  Ru163  1  0.74985220  0.41704751  0.50333724  1
  Ru4+  Ru164  1  0.74958197  0.59593275  0.25427865  1
  Ru4+  Ru165  1  0.74978257  0.25050018  0.25463338  1
  Ru4+  Ru166  1  0.25023687  0.34942201  0.47191999  1
  Ru4+  Ru167  1  0.25026641  0.89703574  0.74700780  1
  Ru4+  Ru168  1  0.74989753  0.72772424  -0.01462362  1
  Ru4+  Ru169  1  0.24983011  0.60359979  0.53159249  1
  Ru4+  Ru170  1  0.25002089  0.60532774  0.25746258  1
  Ru4+  Ru171  1  0.74884161  0.06041523  0.73072468  1
  Ru4+  Ru172  1  0.75002666  0.42321424  0.75880270  1
  Ru4+  Ru173  1  0.24954412  0.05352790  0.01996018  1
  Ru4+  Ru174  1  0.74997701  0.76339123  0.25536311  1
  Ru4+  Ru175  1  0.25056959  0.30971018  0.78740796  1
  Ru4+  Ru176  1  0.75030605  0.08175943  0.48435936  1
  Ru4+  Ru177  1  0.75061140  0.94683184  0.49518029  1
  Ru4+  Ru178  1  0.24966925  0.43651886  0.74998830  1
  Ru4+  Ru179  1  0.24991177  0.72584274  0.49500752  1
  O2-  O180  1  0.16595645  0.07816498  0.00037286  1
  O2-  O181  1  0.16835272  0.08076760  0.24987388  1
  O2-  O182  1  0.16920475  0.08382856  0.49853058  1
  O2-  O183  1  0.16519024  0.07775096  0.75014474  1
  O2-  O184  1  0.16725201  0.41199707  -0.00155267  1
  O2-  O185  1  0.16055604  0.41097717  0.25076916  1
  O2-  O186  1  0.16589598  0.41034742  0.49926276  1
  O2-  O187  1  0.16907904  0.41444453  0.75102258  1
  O2-  O188  1  0.16659538  0.74724585  0.00167073  1
  O2-  O189  1  0.16748536  0.74811702  0.25160898  1
  O2-  O190  1  0.16362662  0.74476316  0.49946400  1
  O2-  O191  1  0.16507333  0.74843014  0.75086133  1
  O2-  O192  1  0.66756583  0.08189484  0.00215068  1
  O2-  O193  1  0.66358357  0.08240162  0.24906928  1
  O2-  O194  1  0.66723432  0.08012297  0.49999812  1
  O2-  O195  1  0.66746836  0.08017963  0.74940178  1
  O2-  O196  1  0.66368024  0.41468407  -0.00213786  1
  O2-  O197  1  0.66461190  0.41143532  0.24846583  1
  O2-  O198  1  0.66627639  0.41538872  0.50055866  1
  O2-  O199  1  0.66865266  0.41336387  0.75119235  1
  O2-  O200  1  0.66758594  0.74747563  -0.00057584  1
  O2-  O201  1  0.66709004  0.74646448  0.25011505  1
  O2-  O202  1  0.66675365  0.74586678  0.49927018  1
  O2-  O203  1  0.66805496  0.75146718  0.74985384  1
  O2-  O204  1  0.33780600  0.26118171  -0.00251849  1
  O2-  O205  1  0.33379005  0.25016163  0.24953062  1
  O2-  O206  1  0.33237364  0.25211921  0.50033481  1
  O2-  O207  1  0.33519556  0.25468714  0.75128879  1
  O2-  O208  1  0.33325799  0.58751019  0.00057642  1
  O2-  O209  1  0.33204989  0.58756412  0.24953866  1
  O2-  O210  1  0.33445435  0.58846859  0.49838304  1
  O2-  O211  1  0.33432714  0.58477324  0.75090090  1
  O2-  O212  1  0.33267899  0.91865163  0.00347186  1
  O2-  O213  1  0.33354690  0.91886815  0.25128494  1
  O2-  O214  1  0.33442685  0.92323686  0.49892371  1
  O2-  O215  1  0.33201345  0.91903389  0.74847449  1
  O2-  O216  1  0.83500325  0.25347034  -0.00227273  1
  O2-  O217  1  0.83490887  0.25377232  0.24930192  1
  O2-  O218  1  0.83451011  0.25069991  0.49851261  1
  O2-  O219  1  0.83969177  0.25627845  0.75181207  1
  O2-  O220  1  0.83482016  0.58727664  0.00048682  1
  O2-  O221  1  0.83377142  0.58787348  0.24914073  1
  O2-  O222  1  0.83237477  0.58430790  0.50077103  1
  O2-  O223  1  0.83514417  0.58425665  0.75067940  1
  O2-  O224  1  0.83622546  0.92011004  0.00073432  1
  O2-  O225  1  0.83590452  0.91688107  0.24888699  1
  O2-  O226  1  0.83250638  0.92113754  0.50163263  1
  O2-  O227  1  0.83246030  0.91779669  0.74720538  1
  O2-  O228  1  0.16213223  0.25582127  -0.00241498  1
  O2-  O229  1  0.16533778  0.25190940  0.25117315  1
  O2-  O230  1  0.16687748  0.25101437  0.49774218  1
  O2-  O231  1  0.16565790  0.25577319  0.74914189  1
  O2-  O232  1  0.16884026  0.58875311  0.00008880  1
  O2-  O233  1  0.16726368  0.58847980  0.25133117  1
  O2-  O234  1  0.16565381  0.58780972  0.49943741  1
  O2-  O235  1  0.16474565  0.58510640  0.75052823  1
  O2-  O236  1  0.16884904  0.92013123  0.00146521  1
  O2-  O237  1  0.16919495  0.91680939  0.24979179  1
  O2-  O238  1  0.16602310  0.92187966  0.49864705  1
  O2-  O239  1  0.16793931  0.91775805  0.75162834  1
  O2-  O240  1  0.66706938  0.25625736  -0.00251563  1
  O2-  O241  1  0.66695620  0.25278366  0.24874506  1
  O2-  O242  1  0.66587202  0.25087917  0.50040678  1
  O2-  O243  1  0.66180826  0.25651816  0.75371707  1
  O2-  O244  1  0.66756139  0.58464252  0.00065659  1
  O2-  O245  1  0.66718918  0.58807554  0.25013417  1
  O2-  O246  1  0.66812165  0.58429405  0.49992348  1
  O2-  O247  1  0.66768549  0.58343423  0.75139634  1
  O2-  O248  1  0.66476631  0.91914331  0.00155724  1
  O2-  O249  1  0.66502210  0.91881834  0.24919622  1
  O2-  O250  1  0.66883817  0.91996196  0.49958003  1
  O2-  O251  1  0.66780423  0.91571984  0.74726316  1
  O2-  O252  1  0.33164504  0.08107622  0.00271139  1
  O2-  O253  1  0.33282201  0.07978716  0.25081846  1
  O2-  O254  1  0.33215083  0.08042255  0.49813541  1
  O2-  O255  1  0.33147914  0.07896967  0.74764723  1
  O2-  O256  1  0.33465478  0.41366508  -0.00215123  1
  O2-  O257  1  0.33865682  0.41309212  0.24812246  1
  O2-  O258  1  0.33390724  0.41125443  0.49863866  1
  O2-  O259  1  0.33265943  0.41445537  0.75172610  1
  O2-  O260  1  0.33289990  0.74669944  0.00178899  1
  O2-  O261  1  0.33151872  0.74698305  0.25048667  1
  O2-  O262  1  0.33642079  0.74607368  0.50005354  1
  O2-  O263  1  0.33488459  0.74974293  0.75018710  1
  O2-  O264  1  0.83531160  0.08119542  0.00129159  1
  O2-  O265  1  0.83658106  0.08314600  0.24890729  1
  O2-  O266  1  0.83212292  0.08215019  0.50066704  1
  O2-  O267  1  0.83175912  0.07985194  0.74725093  1
  O2-  O268  1  0.83499678  0.41350889  -0.00127609  1
  O2-  O269  1  0.83460903  0.41135030  0.24952116  1
  O2-  O270  1  0.83220281  0.41550585  0.49988882  1
  O2-  O271  1  0.83039678  0.41309109  0.75071131  1
  O2-  O272  1  0.83335629  0.74727659  -0.00120702  1
  O2-  O273  1  0.83195244  0.74773748  0.24811762  1
  O2-  O274  1  0.83465739  0.74501897  0.50028525  1
  O2-  O275  1  0.83250771  0.75082098  0.75021018  1
  O2-  O276  1  0.46307927  0.11180297  0.73346859  1
  O2-  O277  1  0.45453858  0.90154278  0.48524779  1
  O2-  O278  1  0.04823946  0.76795740  0.76528557  1
  O2-  O279  1  0.54939903  0.09685454  0.23643548  1
  O2-  O280  1  0.45206144  0.24385699  0.98664735  1
  O2-  O281  1  0.54869665  0.10981186  0.00851521  1
  O2-  O282  1  0.04722685  0.09351786  0.23919250  1
  O2-  O283  1  0.95530883  0.89856738  0.00980308  1
  O2-  O284  1  0.04637014  0.24044431  0.24751831  1
  O2-  O285  1  0.44986727  0.09708105  0.23716589  1
  O2-  O286  1  0.02075231  0.12233333  0.52176892  1
  O2-  O287  1  0.05111058  0.76336803  0.23795356  1
  O2-  O288  1  0.53255180  0.77732205  0.75849808  1
  O2-  O289  1  0.04733846  0.42993396  -0.00221655  1
  O2-  O290  1  0.45236108  0.10439117  -0.00015752  1
  O2-  O291  1  0.45530305  0.57109614  0.73241684  1
  O2-  O292  1  0.04783007  0.23798688  0.46531206  1
  O2-  O293  1  0.44585372  0.57814743  0.52185566  1
  O2-  O294  1  0.95329804  0.57232314  0.24246867  1
  O2-  O295  1  0.04785694  0.24022132  0.25670018  1
  O2-  O296  1  0.04963983  0.42917520  0.24314607  1
  O2-  O297  1  0.94956860  0.90940297  0.68809574  1
  O2-  O298  1  0.54755808  0.11505269  1.01955103  1
  O2-  O299  1  0.54602768  0.90051049  0.72238356  1
  O2-  O300  1  0.95765174  0.23934530  0.72959051  1
  O2-  O301  1  0.95871148  0.09845215  0.76216297  1
  O2-  O302  1  0.45333370  0.42901755  0.75929999  1
  O2-  O303  1  0.94852560  0.23849415  0.76607290  1
  O2-  O304  1  0.54578875  0.42732665  0.98859602  1
  O2-  O305  1  0.04932135  0.09583762  0.76402279  1
  O2-  O306  1  0.46643034  0.11646527  0.74793431  1
  O2-  O307  1  0.54697613  0.76511772  0.24676882  1
  O2-  O308  1  0.94680726  0.42933957  0.98657531  1
  O2-  O309  1  0.54610285  0.09786717  0.51067924  1
  O2-  O310  1  0.95701082  0.78348491  0.21602666  1
  O2-  O311  1  0.45370401  0.88598850  0.72147856  1
  O2-  O312  1  0.55688080  0.25011375  0.48071179  1
  O2-  O313  1  0.04889483  0.43110906  0.99880926  1
  O2-  O314  1  0.45053568  0.10179700  0.98449786  1
  O2-  O315  1  0.44686005  0.76723387  0.26024814  1
  O2-  O316  1  0.04400791  0.09438922  0.25842181  1
  O2-  O317  1  0.45410456  0.56832151  0.01544090  1
  O2-  O318  1  0.95152602  0.42869500  0.26256489  1
  O2-  O319  1  0.95417481  0.22740280  0.47329459  1
  O2-  O320  1  0.55399077  0.58082109  0.27651314  1
  O2-  O321  1  0.96130836  0.77364039  0.71065770  1
  O2-  O322  1  0.94847642  0.09914094  0.73846733  1
  O2-  O323  1  0.54689975  0.76753770  0.24828824  1
  O2-  O324  1  0.42967337  0.04644429  0.04809636  1
  O2-  O325  1  0.06819673  0.26729417  0.54725010  1
  O2-  O326  1  0.56254492  0.26508495  0.71711028  1
  O2-  O327  1  0.43635072  0.25956756  0.46627850  1
  O2-  O328  1  0.41215543  0.05166820  0.79994557  1
  O2-  O329  1  0.06505890  0.25571533  0.77799835  1
  O2-  O330  1  0.56877367  0.07571515  0.72137063  1
  O2-  O331  1  0.07583725  0.07232106  0.43203985  1
  O2-  O332  1  0.55596909  0.24872331  0.48046930  1
  O2-  O333  1  0.55600109  0.58298775  0.27398896  1
  O2-  O334  1  0.43454196  0.26581205  0.71505000  1
  O2-  O335  1  0.43375421  0.59176684  0.27663768  1
  O2-  O336  1  0.06129177  0.40874615  0.53302282  1
  O2-  O337  1  0.94790093  0.91706909  0.70707961  1
  O2-  O338  1  0.06411805  0.41085595  0.77377399  1
  O2-  O339  1  0.06576799  0.92388969  0.97178204  1
  O2-  O340  1  0.56521485  0.58947517  0.72164105  1
  O2-  O341  1  0.07162681  0.04368932  0.57331703  1
  O2-  O342  1  0.92658619  0.72013044  0.31086015  1
  O2-  O343  1  0.93167490  0.26668182  0.54543990  1
  O2-  O344  1  0.06411568  0.93184850  0.71636367  1
  O2-  O345  1  0.43425813  0.07283801  0.52389555  1
  O2-  O346  1  0.92401062  0.73210547  0.79871288  1
  O2-  O347  1  0.56476381  0.26063129  0.27459830  1
  O2-  O348  1  0.57211152  0.04846101  0.94670967  1
  O2-  O349  1  0.56990837  0.93495485  0.79814225  1
  O2-  O350  1  0.43781513  0.40528687  0.53545776  1
  O2-  O351  1  0.56325509  0.92305358  0.97047819  1
  O2-  O352  1  0.56215765  0.74133233  0.03379721  1
  O2-  O353  1  0.93111720  0.06660445  0.78753801  1
  O2-  O354  1  0.06550927  0.59124177  0.47382474  1
  O2-  O355  1  0.56240678  0.74219169  0.46560770  1
  O2-  O356  1  0.56361802  0.59272800  0.06510713  1
  O2-  O357  1  0.42961657  0.92692189  0.79105161  1
  O2-  O358  1  0.93017676  0.93027526  0.84394849  1
  O2-  O359  1  0.56926738  0.58934193  0.94602517  1
  O2-  O360  1  0.93822166  0.40918390  0.53368727  1
  O2-  O361  1  0.06597997  0.92492989  0.22225211  1
  O2-  O362  1  0.43663694  0.25913596  0.28341212  1
  O2-  O363  1  0.06516320  0.25731862  0.02838656  1
  O2-  O364  1  0.43783284  0.40741806  0.28313308  1
  O2-  O365  1  0.06532756  0.59854364  0.03533398  1
  O2-  O366  1  0.56560339  0.92605676  0.52423279  1
  O2-  O367  1  0.57730188  0.72766957  0.78026192  1
  O2-  O368  1  0.56286125  0.59162989  0.46758622  1
  O2-  O369  1  0.93730215  0.59665732  0.46568851  1
  O2-  O370  1  0.44454309  0.58653940  0.52660934  1
  O2-  O371  1  0.93084518  0.06998131  0.47519572  1
  O2-  O372  1  0.25056085  -0.00968084  0.92451938  1
  O2-  O373  1  0.25021090  0.66711642  0.90406306  1
  O2-  O374  1  0.25058753  0.02559900  0.57102530  1
  O2-  O375  1  0.25056232  -0.02503502  0.66627241  1
  O2-  O376  1  0.74976865  0.00081744  0.36245518  1
  O2-  O377  1  0.75040297  0.33743631  0.33236271  1
  O2-  O378  1  0.74993312  -0.00085949  0.16943954  1
  O2-  O379  1  0.25043832  0.66837299  0.64353278  1
  O2-  O380  1  0.75004237  0.67086501  0.35260831  1
  O2-  O381  1  0.75009128  -0.00019547  0.07844868  1
  O2-  O382  1  0.24919476  0.33336366  0.35057997  1
  O2-  O383  1  0.75033435  0.65316483  0.06605392  1
  O2-  O384  1  0.74981665  -0.00025265  0.93033864  1
  O2-  O385  1  0.75064046  0.66977170  0.64912465  1
  O2-  O386  1  0.75011929  0.33126184  0.42473096  1
  O2-  O387  1  0.24990203  0.33134977  0.14988440  1
  O2-  O388  1  0.24998128  0.35170403  0.67352381  1
  O2-  O389  1  0.25016823  -0.02138577  0.83531609  1
  O2-  O390  1  0.75007741  0.32630872  0.10644515  1
  O2-  O391  1  0.25010349  0.67211651  0.14804631  1
  O2-  O392  1  0.75032537  0.68044197  0.17534292  1
  O2-  O393  1  0.24975198  0.30642361  0.57874783  1
  O2-  O394  1  0.74999764  0.33724325  0.59847458  1
  O2-  O395  1  0.75012440  -0.00875077  0.83031062  1
  O2-  O396  1  0.24998764  0.49278883  0.05468855  1
  O2-  O397  1  0.75006331  0.50029304  0.06653075  1
  O2-  O398  1  0.75027254  0.50657675  0.15283155  1
  O2-  O399  1  0.74947128  0.18515719  0.89126012  1
  O2-  O400  1  0.74999295  0.17530105  0.54998943  1
  O2-  O401  1  0.25017980  0.12493344  0.93755379  1
  O2-  O402  1  0.24952654  0.17501961  0.58254159  1
  O2-  O403  1  0.25001751  0.83319430  0.92228900  1
  O2-  O404  1  0.25035048  0.13377421  0.08838908  1
  O2-  O405  1  0.75000049  0.14203601  0.63543820  1
  O2-  O406  1  0.74990224  0.16844650  0.13624470  1
  O2-  O407  1  0.24916730  0.18458987  0.14504211  1
  O2-  O408  1  0.25008275  0.82441898  0.83000828  1
  O2-  O409  1  0.24992743  0.52291014  0.35714967  1
  O2-  O410  1  0.75032573  0.14720565  0.21545223  1
  O2-  O411  1  0.24983997  0.51491263  0.14055078  1
  O2-  O412  1  0.75007824  0.49416801  0.89579441  1
  O2-  O413  1  0.24977754  0.18584463  0.88153248  1
  O2-  O414  1  0.75014365  0.17372489  0.34197633  1
  O2-  O415  1  0.75003163  0.83058596  0.34360892  1
  O2-  O416  1  0.24990815  0.49791153  0.62498486  1
  O2-  O417  1  0.75018979  0.13177619  0.82131541  1
  O2-  O418  1  0.25093849  0.14675640  0.64920662  1
  O2-  O419  1  0.25016474  0.16212268  0.36582171  1
  O2-  O420  1  0.95789485  0.00360270  0.12862463  1
  O2-  O421  1  0.03786985  0.00186757  0.11280431  1
  O2-  O422  1  0.95966924  0.65698101  0.88664697  1
  O2-  O423  1  0.02535350  0.67074955  0.37027882  1
  O2-  O424  1  0.47265041  0.33685679  0.87498026  1
  O2-  O425  1  0.02559995  0.00258010  0.87504679  1
  O2-  O426  1  0.53153301  0.66586284  0.87318981  1
  O2-  O427  1  0.46805864  -0.00591546  0.62715557  1
  O2-  O428  1  0.52548710  0.67219611  0.62302220  1
  O2-  O429  1  0.97211900  0.66621509  0.12166215  1
  O2-  O430  1  0.96787265  -0.00547957  0.36674531  1
  O2-  O431  1  0.95492462  0.33297366  0.87601075  1
  O2-  O432  1  0.47917928  -0.00603101  0.88599050  1
  O2-  O433  1  0.04539487  0.66513625  0.87670631  1
  O2-  O434  1  0.52668971  0.00004114  0.62800623  1
  O2-  O435  1  0.02342606  0.33914566  0.12791344  1
  O2-  O436  1  0.45525807  0.66850594  0.87355950  1
  O2-  O437  1  0.03797715  0.33038708  0.88694733  1
  O2-  O438  1  0.02763255  0.66549396  0.62473091  1
  O2-  O439  1  0.47412828  0.33510249  0.12521147  1
  O2-  O440  1  0.02779168  -0.01610956  0.36834424  1
  O2-  O441  1  0.52326090  0.34720132  0.37405540  1
  O2-  O442  1  0.97154132  0.33733581  0.37531625  1
  O2-  O443  1  0.47322013  0.67228232  0.38083658  1
