# generated using pymatgen
data_La7(Ru4O11)2
_symmetry_space_group_name_H-M   'P 1'
_cell_length_a   23.99374572
_cell_length_b   16.83429454
_cell_length_c   15.42988491
_cell_angle_alpha   90.00022702
_cell_angle_beta   89.99851693
_cell_angle_gamma   90.00077052
_symmetry_Int_Tables_number   1
_chemical_formula_structural   La7(Ru4O11)2
_chemical_formula_sum   'La84 Ru96 O264'
_cell_volume   6232.40489610
_cell_formula_units_Z   12
loop_
 _symmetry_equiv_pos_site_id
 _symmetry_equiv_pos_as_xyz
  1  'x, y, z'
loop_
 _atom_type_symbol
 _atom_type_oxidation_number
  La3+  3.0
  Ru4+  4.0
  O2-  -2.0
loop_
 _atom_site_type_symbol
 _atom_site_label
 _atom_site_symmetry_multiplicity
 _atom_site_fract_x
 _atom_site_fract_y
 _atom_site_fract_z
 _atom_site_occupancy
  La3+  La0  1  0.14393104  -0.00061589  0.12903672  1
  La3+  La1  1  0.14427920  0.00174004  0.37170449  1
  La3+  La2  1  0.12648813  0.00328788  0.63523927  1
  La3+  La3  1  0.11970693  0.00452027  0.86142310  1
  La3+  La4  1  0.14879910  0.32983686  0.12330169  1
  La3+  La5  1  0.14656865  0.33083024  0.36913408  1
  La3+  La6  1  0.13926792  0.33731348  0.62458226  1
  La3+  La7  1  0.14786036  0.33107208  0.88616304  1
  La3+  La8  1  0.13965241  0.66542751  0.12669818  1
  La3+  La9  1  0.13317355  0.66663533  0.37003974  1
  La3+  La10  1  0.13945996  0.66768939  0.62410777  1
  La3+  La11  1  0.13711029  0.67050084  0.87797641  1
  La3+  La12  1  0.64197477  -0.00077304  0.12493074  1
  La3+  La13  1  0.63381935  -0.00083355  0.37415709  1
  La3+  La14  1  0.63417281  0.00124526  0.63481992  1
  La3+  La15  1  0.64262752  0.00382461  0.88006914  1
  La3+  La16  1  0.65262950  0.33873946  0.12584119  1
  La3+  La17  1  0.64217801  0.32858753  0.37480689  1
  La3+  La18  1  0.63630429  0.32839512  0.62900876  1
  La3+  La19  1  0.64226242  0.33701072  0.87477302  1
  La3+  La20  1  0.64036768  0.66784966  0.12422961  1
  La3+  La21  1  0.63267312  0.66677441  0.37945842  1
  La3+  La22  1  0.63195705  0.66459791  0.62837199  1
  La3+  La23  1  0.63834791  0.66875399  0.86767317  1
  La3+  La24  1  0.35629290  0.00231702  0.13186673  1
  La3+  La25  1  0.36116336  -0.00127207  0.37006490  1
  La3+  La26  1  0.36824479  -0.00533443  0.62060144  1
  La3+  La27  1  0.36162604  -0.00543159  0.87233333  1
  La3+  La28  1  0.35244487  0.32805794  0.12419341  1
  La3+  La29  1  0.35374650  0.33316527  0.37037093  1
  La3+  La30  1  0.35468076  0.34007289  0.61635937  1
  La3+  La31  1  0.36265435  0.33161045  0.88025932  1
  La3+  La32  1  0.35966302  0.66936554  0.12565421  1
  La3+  La33  1  0.36538533  0.66763850  0.36822261  1
  La3+  La34  1  0.36126914  0.66531914  0.62734208  1
  La3+  La35  1  0.36483308  0.66953376  0.87697983  1
  La3+  La36  1  0.85913269  -0.00042123  0.12673431  1
  La3+  La37  1  0.86187953  0.00138573  0.37236117  1
  La3+  La38  1  0.86061356  -0.00094422  0.63165048  1
  La3+  La39  1  0.85642206  -0.00218735  0.87743696  1
  La3+  La40  1  0.85466692  0.33217366  0.12349820  1
  La3+  La41  1  0.86016591  0.33181363  0.37204635  1
  La3+  La42  1  0.85554241  0.33327447  0.63288214  1
  La3+  La43  1  0.86298300  0.33549769  0.87284627  1
  La3+  La44  1  0.86420921  0.66750612  0.12464419  1
  La3+  La45  1  0.86915135  0.66991411  0.37874167  1
  La3+  La46  1  0.86174305  0.67435797  0.62972820  1
  La3+  La47  1  0.86163529  0.66748658  0.87314747  1
  La3+  La48  1  0.51533742  0.16001330  0.13803544  1
  La3+  La49  1  0.00203572  0.83318631  0.61239041  1
  La3+  La50  1  0.00381771  0.16291645  0.34920116  1
  La3+  La51  1  0.00697662  0.49479446  0.34676983  1
  La3+  La52  1  0.50079824  0.50860417  0.38602991  1
  La3+  La53  1  0.50050429  0.83491929  0.12259870  1
  La3+  La54  1  0.48681958  0.50368317  0.11806170  1
  La3+  La55  1  0.49835871  0.83676609  0.86434733  1
  La3+  La56  1  0.00127564  0.49592334  0.88458684  1
  La3+  La57  1  0.00455041  0.15999300  0.86019048  1
  La3+  La58  1  -0.00203189  0.50040088  0.86347445  1
  La3+  La59  1  0.00349826  0.15873862  0.87720295  1
  La3+  La60  1  -0.00215771  0.83440320  0.11404074  1
  La3+  La61  1  0.50382086  0.50245942  0.88095108  1
  La3+  La62  1  -0.00178298  0.50346290  0.12341520  1
  La3+  La63  1  0.00010568  0.16518381  0.12924609  1
  La3+  La64  1  0.00842314  0.15866121  0.62876573  1
  La3+  La65  1  -0.00262775  0.50648010  0.60074223  1
  La3+  La66  1  0.50051999  0.16279163  0.63400788  1
  La3+  La67  1  0.50076640  0.17890685  0.37560638  1
  La3+  La68  1  0.50204450  0.49296592  0.86104225  1
  La3+  La69  1  0.50468685  0.49751275  0.36797465  1
  La3+  La70  1  -0.00965085  0.51001204  0.61974960  1
  La3+  La71  1  0.49155549  0.82819391  0.61889321  1
  La3+  La72  1  0.25091802  0.54946671  0.81748309  1
  La3+  La73  1  0.25041284  0.15651041  0.83637689  1
  La3+  La74  1  0.74997714  0.83065928  0.41642375  1
  La3+  La75  1  0.24921615  0.48681947  0.19036146  1
  La3+  La76  1  0.74955856  0.16778407  0.42548895  1
  La3+  La77  1  0.75306984  0.45884817  0.23938463  1
  La3+  La78  1  0.25026853  0.77507883  0.49378107  1
  La3+  La79  1  0.75080406  0.17233424  0.23252469  1
  La3+  La80  1  0.75103321  0.45946843  0.52706219  1
  La3+  La81  1  0.75149031  0.20211886  -0.03278700  1
  La3+  La82  1  0.75155492  0.50042806  0.75700112  1
  La3+  La83  1  0.25057348  0.44173188  0.47912670  1
  Ru4+  Ru84  1  -0.00007486  -0.00339308  0.00577090  1
  Ru4+  Ru85  1  -0.00180059  -0.00086745  0.24189754  1
  Ru4+  Ru86  1  -0.00051676  0.01383571  0.51699155  1
  Ru4+  Ru87  1  -0.00460359  0.00580357  0.75825311  1
  Ru4+  Ru88  1  -0.00261024  0.33505504  0.00222317  1
  Ru4+  Ru89  1  -0.00065416  0.33591587  0.24835065  1
  Ru4+  Ru90  1  -0.00075853  0.32058889  0.50763250  1
  Ru4+  Ru91  1  -0.00021880  0.32534420  0.75357507  1
  Ru4+  Ru92  1  0.00072055  0.67156996  0.00061948  1
  Ru4+  Ru93  1  0.00080962  0.66929951  0.24473808  1
  Ru4+  Ru94  1  0.00315540  0.66360065  0.49502021  1
  Ru4+  Ru95  1  -0.00238566  0.66635143  0.75346145  1
  Ru4+  Ru96  1  0.49715022  0.00748958  -0.00714287  1
  Ru4+  Ru97  1  0.50178560  -0.00647211  0.25485181  1
  Ru4+  Ru98  1  0.50589527  0.00669732  0.50194124  1
  Ru4+  Ru99  1  0.50718562  0.00103257  0.75638577  1
  Ru4+  Ru100  1  0.49542453  0.31928881  0.00768749  1
  Ru4+  Ru101  1  0.50059390  0.33423611  0.23661943  1
  Ru4+  Ru102  1  0.49756132  0.33125423  0.51932834  1
  Ru4+  Ru103  1  0.49243152  0.32189362  0.75616099  1
  Ru4+  Ru104  1  0.49772580  0.66964135  -0.00773937  1
  Ru4+  Ru105  1  0.50044275  0.67243277  0.25066344  1
  Ru4+  Ru106  1  0.49976678  0.67828523  0.49624889  1
  Ru4+  Ru107  1  0.49836124  0.67308968  0.75326996  1
  Ru4+  Ru108  1  0.11399419  0.17081475  -0.00044526  1
  Ru4+  Ru109  1  0.11498118  0.16505677  0.25057494  1
  Ru4+  Ru110  1  0.11036524  0.16623472  0.50369682  1
  Ru4+  Ru111  1  0.11291888  0.16817573  0.74776931  1
  Ru4+  Ru112  1  0.11280826  0.50610973  0.00540682  1
  Ru4+  Ru113  1  0.11037192  0.50125092  0.24786445  1
  Ru4+  Ru114  1  0.11056900  0.50195510  0.49838686  1
  Ru4+  Ru115  1  0.11206418  0.50103544  0.75135447  1
  Ru4+  Ru116  1  0.11183220  0.83441894  -0.00014375  1
  Ru4+  Ru117  1  0.11550116  0.83208344  0.24765495  1
  Ru4+  Ru118  1  0.11185433  0.83464436  0.50072426  1
  Ru4+  Ru119  1  0.11401399  0.82700054  0.75133642  1
  Ru4+  Ru120  1  0.60329844  0.17785387  -0.00421953  1
  Ru4+  Ru121  1  0.61242896  0.16500242  0.25206772  1
  Ru4+  Ru122  1  0.61600547  0.15972048  0.50066687  1
  Ru4+  Ru123  1  0.61613283  0.16968557  0.75209677  1
  Ru4+  Ru124  1  0.61494224  0.49604910  0.00443187  1
  Ru4+  Ru125  1  0.61135410  0.49757013  0.25033453  1
  Ru4+  Ru126  1  0.61596941  0.49686868  0.50810182  1
  Ru4+  Ru127  1  0.61651414  0.49429097  0.74564116  1
  Ru4+  Ru128  1  0.61366140  0.83595068  0.00150026  1
  Ru4+  Ru129  1  0.61001278  0.83432063  0.24745328  1
  Ru4+  Ru130  1  0.61357964  0.82990299  0.50359795  1
  Ru4+  Ru131  1  0.61256871  0.83023811  0.74839342  1
  Ru4+  Ru132  1  0.39111981  0.16093671  -0.00437401  1
  Ru4+  Ru133  1  0.38396250  0.17345737  0.25177134  1
  Ru4+  Ru134  1  0.38638019  0.16708457  0.50174555  1
  Ru4+  Ru135  1  0.39183329  0.16575316  0.75161366  1
  Ru4+  Ru136  1  0.38251527  0.49991738  0.00316400  1
  Ru4+  Ru137  1  0.38448186  0.50086711  0.24600381  1
  Ru4+  Ru138  1  0.38408950  0.51176550  0.50212211  1
  Ru4+  Ru139  1  0.38685100  0.49992910  0.74609156  1
  Ru4+  Ru140  1  0.38650404  0.83279682  0.00089655  1
  Ru4+  Ru141  1  0.38571951  0.83646016  0.24885722  1
  Ru4+  Ru142  1  0.38728582  0.82654015  0.49751324  1
  Ru4+  Ru143  1  0.38275032  0.82737189  0.74939363  1
  Ru4+  Ru144  1  0.88963646  0.16385084  0.00079139  1
  Ru4+  Ru145  1  0.89427346  0.16548129  0.24954419  1
  Ru4+  Ru146  1  0.89591271  0.16722244  0.50246912  1
  Ru4+  Ru147  1  0.89034908  0.16486505  0.75263342  1
  Ru4+  Ru148  1  0.88864348  0.49720744  -0.00133410  1
  Ru4+  Ru149  1  0.89245128  0.49875322  0.24946804  1
  Ru4+  Ru150  1  0.89130844  0.50193837  0.49647188  1
  Ru4+  Ru151  1  0.89364223  0.50064938  0.75384071  1
  Ru4+  Ru152  1  0.88763937  0.83556021  -0.00003917  1
  Ru4+  Ru153  1  0.89035327  0.83492433  0.24838510  1
  Ru4+  Ru154  1  0.88644346  0.84145521  0.50097730  1
  Ru4+  Ru155  1  0.88466587  0.83024838  0.75126838  1
  Ru4+  Ru156  1  0.25070906  0.05383316  0.72509820  1
  Ru4+  Ru157  1  0.24935991  0.23989246  0.48464500  1
  Ru4+  Ru158  1  0.75011370  0.72863423  0.53148184  1
  Ru4+  Ru159  1  0.75009947  0.90937268  0.76273548  1
  Ru4+  Ru160  1  0.24966457  0.41323908  0.76438531  1
  Ru4+  Ru161  1  0.24968235  0.94024273  0.48682176  1
  Ru4+  Ru162  1  0.74979926  0.75841564  -0.01278930  1
  Ru4+  Ru163  1  0.75017035  0.59541337  0.48203219  1
  Ru4+  Ru164  1  0.74990669  0.57456602  -0.00933850  1
  Ru4+  Ru165  1  0.25009594  0.08071751  0.50120372  1
  Ru4+  Ru166  1  0.24936556  0.08483502  0.00105865  1
  Ru4+  Ru167  1  0.24894496  0.60632801  0.49603995  1
  Ru4+  Ru168  1  0.74922016  0.05828638  0.01109916  1
  Ru4+  Ru169  1  0.74990872  0.06901107  0.53514705  1
  Ru4+  Ru170  1  0.25014199  0.91619015  0.76139195  1
  Ru4+  Ru171  1  0.74961474  0.92473727  0.24983620  1
  Ru4+  Ru172  1  0.25048278  0.25931028  0.73294612  1
  Ru4+  Ru173  1  0.74996401  0.75214401  0.26648898  1
  Ru4+  Ru174  1  0.24931087  0.92157677  -0.00365019  1
  Ru4+  Ru175  1  0.75070377  0.27631854  0.52238659  1
  Ru4+  Ru176  1  0.74987761  0.60077681  0.28192195  1
  Ru4+  Ru177  1  0.24958194  0.74359468  0.00169485  1
  Ru4+  Ru178  1  0.24905594  0.73940217  0.75327934  1
  Ru4+  Ru179  1  0.75021478  0.92945046  0.52862045  1
  O2-  O180  1  0.16579768  0.07993556  -0.00669561  1
  O2-  O181  1  0.16685721  0.08297419  0.25037900  1
  O2-  O182  1  0.16691942  0.08251532  0.50435885  1
  O2-  O183  1  0.16737872  0.07729535  0.75414169  1
  O2-  O184  1  0.16052977  0.42022184  0.00295389  1
  O2-  O185  1  0.16283717  0.41677364  0.24743579  1
  O2-  O186  1  0.15929567  0.41039993  0.49738872  1
  O2-  O187  1  0.16496018  0.41528093  0.75404643  1
  O2-  O188  1  0.16629000  0.74657824  0.00038306  1
  O2-  O189  1  0.16140920  0.74534763  0.25234943  1
  O2-  O190  1  0.15932828  0.74241213  0.49316498  1
  O2-  O191  1  0.16566787  0.74685329  0.75009713  1
  O2-  O192  1  0.66803480  0.08451037  0.00411328  1
  O2-  O193  1  0.66626864  0.07911265  0.25298386  1
  O2-  O194  1  0.66780866  0.07646742  0.49886266  1
  O2-  O195  1  0.66379207  0.07978799  0.75155014  1
  O2-  O196  1  0.66734660  0.41742915  -0.00473063  1
  O2-  O197  1  0.66695538  0.41604189  0.25182921  1
  O2-  O198  1  0.66693799  0.41302404  0.49724422  1
  O2-  O199  1  0.67220992  0.41475046  0.74814313  1
  O2-  O200  1  0.66504400  0.74633950  -0.00296863  1
  O2-  O201  1  0.66317873  0.74712533  0.25463355  1
  O2-  O202  1  0.66951138  0.74509095  0.49721585  1
  O2-  O203  1  0.66654860  0.74818748  0.74701233  1
  O2-  O204  1  0.33580390  0.24420407  -0.00080068  1
  O2-  O205  1  0.32897356  0.24738943  0.24439132  1
  O2-  O206  1  0.33210049  0.24854333  0.49795461  1
  O2-  O207  1  0.33255535  0.25020184  0.75500984  1
  O2-  O208  1  0.33055625  0.58773265  0.00211124  1
  O2-  O209  1  0.33075944  0.58856956  0.24424436  1
  O2-  O210  1  0.33323645  0.59204816  0.49825450  1
  O2-  O211  1  0.33437568  0.58982349  0.74789557  1
  O2-  O212  1  0.33389613  0.92000112  0.00198806  1
  O2-  O213  1  0.33509231  0.91758518  0.24933005  1
  O2-  O214  1  0.33297896  0.91885605  0.49764705  1
  O2-  O215  1  0.33480093  0.91746996  0.74749396  1
  O2-  O216  1  0.83899681  0.25565185  -0.00511440  1
  O2-  O217  1  0.83648166  0.25101343  0.25019705  1
  O2-  O218  1  0.83289214  0.25091548  0.49591883  1
  O2-  O219  1  0.83783734  0.25300492  0.75595991  1
  O2-  O220  1  0.83096438  0.58486666  -0.00296003  1
  O2-  O221  1  0.83148630  0.58803207  0.25568277  1
  O2-  O222  1  0.83014332  0.58622401  0.49417867  1
  O2-  O223  1  0.82877245  0.58814688  0.75109768  1
  O2-  O224  1  0.83845599  0.91891358  0.00046483  1
  O2-  O225  1  0.83184829  0.91816152  0.25586327  1
  O2-  O226  1  0.83213226  0.91890368  0.49947619  1
  O2-  O227  1  0.83433936  0.91905754  0.75411509  1
  O2-  O228  1  0.16860242  0.24608750  0.00210635  1
  O2-  O229  1  0.16142748  0.25229250  0.24749461  1
  O2-  O230  1  0.16746013  0.24906721  0.49701577  1
  O2-  O231  1  0.16747964  0.25319920  0.75320239  1
  O2-  O232  1  0.17142362  0.58789094  -0.00029607  1
  O2-  O233  1  0.17156370  0.58737841  0.24678615  1
  O2-  O234  1  0.16282676  0.58867118  0.49649292  1
  O2-  O235  1  0.16637719  0.58739290  0.75183180  1
  O2-  O236  1  0.16776722  0.91926517  -0.00358043  1
  O2-  O237  1  0.16063986  0.91878933  0.25057788  1
  O2-  O238  1  0.16638370  0.92056364  0.49874494  1
  O2-  O239  1  0.16508028  0.92079929  0.75141826  1
  O2-  O240  1  0.67124720  0.25270347  -0.00521225  1
  O2-  O241  1  0.66937630  0.24901290  0.25030010  1
  O2-  O242  1  0.66879249  0.25148360  0.50264912  1
  O2-  O243  1  0.66902743  0.25289324  0.75301722  1
  O2-  O244  1  0.66816761  0.58535229  -0.00169459  1
  O2-  O245  1  0.66493654  0.58799147  0.25245919  1
  O2-  O246  1  0.66701746  0.58616262  0.49618297  1
  O2-  O247  1  0.67234186  0.58575469  0.75033681  1
  O2-  O248  1  0.66402077  0.91752600  0.00241223  1
  O2-  O249  1  0.66673651  0.91821380  0.25428739  1
  O2-  O250  1  0.67009625  0.91764509  0.49717607  1
  O2-  O251  1  0.67029665  0.91720600  0.74678631  1
  O2-  O252  1  0.32963880  0.08196262  -0.00062242  1
  O2-  O253  1  0.33845315  0.08350152  0.24972636  1
  O2-  O254  1  0.33243542  0.08059594  0.50202966  1
  O2-  O255  1  0.33403592  0.07720560  0.74840375  1
  O2-  O256  1  0.33457785  0.41716398  0.00011197  1
  O2-  O257  1  0.33205204  0.41749032  0.24452974  1
  O2-  O258  1  0.34339902  0.41345918  0.49528571  1
  O2-  O259  1  0.33347688  0.41424166  0.75361788  1
  O2-  O260  1  0.33060816  0.74650834  0.00232687  1
  O2-  O261  1  0.33964879  0.74507072  0.24985987  1
  O2-  O262  1  0.34098642  0.73857896  0.49680808  1
  O2-  O263  1  0.33074848  0.74465978  0.74943906  1
  O2-  O264  1  0.83039501  0.08077025  -0.00167112  1
  O2-  O265  1  0.83379643  0.07972523  0.25486544  1
  O2-  O266  1  0.83096582  0.08314176  0.49536981  1
  O2-  O267  1  0.83816391  0.07970458  0.75285190  1
  O2-  O268  1  0.83638096  0.41504607  -0.00318796  1
  O2-  O269  1  0.84163689  0.41120968  0.25134981  1
  O2-  O270  1  0.84108277  0.41434406  0.49793036  1
  O2-  O271  1  0.82894407  0.41562622  0.75578948  1
  O2-  O272  1  0.83167356  0.74639550  -0.00604723  1
  O2-  O273  1  0.83693537  0.74664996  0.25491543  1
  O2-  O274  1  0.83201586  0.74582324  0.49749180  1
  O2-  O275  1  0.83565523  0.74680134  0.75381241  1
  O2-  O276  1  0.44868399  0.42275695  0.52168978  1
  O2-  O277  1  0.04924115  0.90165032  0.72468782  1
  O2-  O278  1  0.55722730  0.23686792  0.75445991  1
  O2-  O279  1  0.54165834  0.46124213  0.21254726  1
  O2-  O280  1  0.55043456  0.56239298  0.72947180  1
  O2-  O281  1  0.44825188  0.75692566  0.50998096  1
  O2-  O282  1  0.94957115  0.24086590  0.44243773  1
  O2-  O283  1  0.95845999  0.76448644  0.48287235  1
  O2-  O284  1  0.94537512  0.76412956  0.51666669  1
  O2-  O285  1  0.53937278  0.45449685  0.51097876  1
  O2-  O286  1  0.54044843  0.87748139  0.49439253  1
  O2-  O287  1  0.46008276  0.09427274  0.05320875  1
  O2-  O288  1  0.45385333  0.57492901  0.25295643  1
  O2-  O289  1  0.04869030  0.09933192  0.75708613  1
  O2-  O290  1  0.96717401  0.55106658  0.45379020  1
  O2-  O291  1  0.54786112  0.10036242  0.48774327  1
  O2-  O292  1  0.44738706  0.91385314  0.52373128  1
  O2-  O293  1  0.53863236  0.88435627  0.71452510  1
  O2-  O294  1  0.44711822  0.09733117  0.27122117  1
  O2-  O295  1  0.44672808  0.42545562  0.25892176  1
  O2-  O296  1  0.55089344  0.58187810  0.76268443  1
  O2-  O297  1  0.46366607  0.22861901  0.21835945  1
  O2-  O298  1  0.96461150  0.09841563  0.45140783  1
  O2-  O299  1  0.45675111  0.43155655  0.99328646  1
  O2-  O300  1  0.04795893  0.76521412  0.99623328  1
  O2-  O301  1  0.95694919  0.22817918  0.00640244  1
  O2-  O302  1  0.45349856  0.08021787  0.75861068  1
  O2-  O303  1  0.44799940  0.90859827  0.48506105  1
  O2-  O304  1  0.54385067  0.23907926  0.51504214  1
  O2-  O305  1  0.44960328  0.57309727  0.75052742  1
  O2-  O306  1  0.54325063  0.58194445  0.51976484  1
  O2-  O307  1  0.45125818  0.08461566  0.23492938  1
  O2-  O308  1  0.03868228  0.45105356  0.72173926  1
  O2-  O309  1  0.44420447  0.43190248  0.48439128  1
  O2-  O310  1  0.52338713  0.20227272  0.00420213  1
  O2-  O311  1  0.44674779  0.57536491  0.99654964  1
  O2-  O312  1  0.44835406  0.90837686  0.01254536  1
  O2-  O313  1  0.04418073  0.10525167  0.99050236  1
  O2-  O314  1  0.54713719  0.76168892  0.23766664  1
  O2-  O315  1  0.95475329  0.76552040  0.24217214  1
  O2-  O316  1  0.54840597  0.90421640  0.01438319  1
  O2-  O317  1  0.45878400  0.21838026  0.77964082  1
  O2-  O318  1  0.04691099  0.22114365  0.45030465  1
  O2-  O319  1  0.55143972  0.57014321  0.02608368  1
  O2-  O320  1  0.44434847  0.90241084  0.74175201  1
  O2-  O321  1  0.04644907  0.90606989  0.76355128  1
  O2-  O322  1  0.46330460  0.22054509  0.77299374  1
  O2-  O323  1  0.43889199  0.23878072  0.98331018  1
  O2-  O324  1  0.56189383  0.92794060  0.21264547  1
  O2-  O325  1  0.43833637  0.25466542  0.47724941  1
  O2-  O326  1  0.56720968  0.75909096  0.81973324  1
  O2-  O327  1  0.06479815  0.06894122  0.70962890  1
  O2-  O328  1  0.43753406  0.41162125  0.77409869  1
  O2-  O329  1  0.91839849  0.59980135  0.55650605  1
  O2-  O330  1  0.06263628  0.26479220  0.03690675  1
  O2-  O331  1  0.56741649  0.25045733  0.52177746  1
  O2-  O332  1  0.42665258  0.05764688  0.93553932  1
  O2-  O333  1  0.06044495  0.08322347  0.76999100  1
  O2-  O334  1  0.58252679  0.93948023  0.80193767  1
  O2-  O335  1  0.06988409  0.57820131  0.92454900  1
  O2-  O336  1  0.06614743  0.92439050  0.01996762  1
  O2-  O337  1  0.06463371  0.59745189  0.71270523  1
  O2-  O338  1  0.93477204  0.92697888  0.23481973  1
  O2-  O339  1  0.43737359  0.74535910  0.98243749  1
  O2-  O340  1  0.07787565  0.26027256  0.56621702  1
  O2-  O341  1  0.58298070  0.25059321  0.91557559  1
  O2-  O342  1  0.05987319  0.59188832  0.22842930  1
  O2-  O343  1  0.56715766  0.59199017  0.52601442  1
  O2-  O344  1  0.06578595  0.06716208  0.46359235  1
  O2-  O345  1  0.41713793  0.26605013  0.31061950  1
  O2-  O346  1  0.06008796  0.07759976  0.23373825  1
  O2-  O347  1  0.05815131  0.41137295  0.51909571  1
  O2-  O348  1  0.56178790  0.25120924  0.27783919  1
  O2-  O349  1  0.56587158  0.73710144  0.52743584  1
  O2-  O350  1  0.57739751  0.94682731  0.52665047  1
  O2-  O351  1  0.43888807  0.07446977  0.53148837  1
  O2-  O352  1  0.93509314  0.74665892  0.02046239  1
  O2-  O353  1  0.93491541  0.07178664  0.01388608  1
  O2-  O354  1  0.93948074  0.59054104  0.96550167  1
  O2-  O355  1  0.42698861  0.29735523  0.66910197  1
  O2-  O356  1  0.06409256  0.59027827  0.06995036  1
  O2-  O357  1  0.55578111  0.73039911  0.67991551  1
  O2-  O358  1  0.43952029  0.92600653  0.71285014  1
  O2-  O359  1  0.06103103  0.73943029  0.53780609  1
  O2-  O360  1  0.57774073  0.40149196  0.31529154  1
  O2-  O361  1  0.06358287  0.25445677  0.72355444  1
  O2-  O362  1  0.43904250  0.74869454  0.76727853  1
  O2-  O363  1  0.93752734  0.58935068  0.23102390  1
  O2-  O364  1  0.05901544  0.92342892  0.53607512  1
  O2-  O365  1  0.57819447  0.38369081  0.52795403  1
  O2-  O366  1  0.92134559  0.06557344  0.56076437  1
  O2-  O367  1  0.07030656  0.38795766  0.83013820  1
  O2-  O368  1  0.56914869  0.07213156  0.97889819  1
  O2-  O369  1  0.93027532  0.27801443  0.57385342  1
  O2-  O370  1  0.58872454  0.26253892  0.07253423  1
  O2-  O371  1  0.43829487  0.92667296  0.27971713  1
  O2-  O372  1  0.75103943  -0.00001413  0.39802802  1
  O2-  O373  1  0.74922379  0.67021813  0.18193818  1
  O2-  O374  1  0.74966820  0.66607228  0.05262432  1
  O2-  O375  1  0.25055520  0.00009943  0.86334406  1
  O2-  O376  1  0.25047365  0.67736939  0.60575593  1
  O2-  O377  1  0.24970716  -0.00579895  0.62066107  1
  O2-  O378  1  0.75294248  0.32901751  0.17164552  1
  O2-  O379  1  0.74986668  -0.00014787  0.15612052  1
  O2-  O380  1  0.75145805  0.34845684  0.41835361  1
  O2-  O381  1  0.24956920  0.32996614  0.93837919  1
  O2-  O382  1  0.24888132  0.34145278  0.17369515  1
  O2-  O383  1  0.25033728  -0.00030349  0.37554138  1
  O2-  O384  1  0.75070171  0.32480602  0.32761443  1
  O2-  O385  1  0.74996204  0.35099236  0.62435039  1
  O2-  O386  1  0.24959796  0.00506875  0.08168201  1
  O2-  O387  1  0.24911175  0.35270202  0.66301770  1
  O2-  O388  1  0.75182748  0.33263248  0.07787610  1
  O2-  O389  1  0.24803909  0.32864477  0.37350430  1
  O2-  O390  1  0.75091184  0.00345417  0.89866470  1
  O2-  O391  1  0.24855693  0.33730607  0.08203969  1
  O2-  O392  1  0.24920927  0.67358302  0.86291676  1
  O2-  O393  1  0.25084236  0.32732820  0.84413879  1
  O2-  O394  1  0.24996583  0.00202274  0.17265393  1
  O2-  O395  1  0.25030278  0.32820561  0.54700566  1
  O2-  O396  1  0.24952903  0.85486531  0.38323846  1
  O2-  O397  1  0.75005260  0.51408124  0.37957940  1
  O2-  O398  1  0.24977618  0.49354964  0.68799744  1
  O2-  O399  1  0.24998071  0.83003988  0.92325146  1
  O2-  O400  1  0.24931609  0.83345782  0.07567661  1
  O2-  O401  1  0.24969608  0.55144420  0.39145935  1
  O2-  O402  1  0.24978531  0.17157189  0.64674497  1
  O2-  O403  1  0.24942914  0.82799081  0.68167127  1
  O2-  O404  1  0.75087931  0.15299796  0.10057863  1
  O2-  O405  1  0.75009662  0.16426844  0.68194154  1
  O2-  O406  1  0.25002422  0.85916652  0.59682438  1
  O2-  O407  1  0.74983080  0.83772936  0.05345744  1
  O2-  O408  1  0.25012028  0.16361087  0.32384177  1
  O2-  O409  1  0.75116173  0.82567026  0.68183305  1
  O2-  O410  1  0.24978192  0.82966972  0.16030059  1
  O2-  O411  1  0.25056430  0.48678777  0.32967872  1
  O2-  O412  1  0.75059953  0.17006222  0.59453047  1
  O2-  O413  1  0.24990808  0.15579050  0.41040960  1
  O2-  O414  1  0.24928363  0.53998353  0.58233997  1
  O2-  O415  1  0.25003544  0.82556535  0.83532868  1
  O2-  O416  1  0.75051129  0.83796121  0.84429899  1
  O2-  O417  1  0.24966733  0.83023578  0.30387458  1
  O2-  O418  1  0.75003468  0.83415337  0.18472598  1
  O2-  O419  1  0.74992834  0.83115438  0.59253103  1
  O2-  O420  1  0.97832051  0.67576759  0.63367744  1
  O2-  O421  1  0.45991599  0.65275778  0.87010433  1
  O2-  O422  1  0.51446157  -0.00397460  0.87710870  1
  O2-  O423  1  0.96977334  0.33427744  0.87495314  1
  O2-  O424  1  0.47645420  0.35139528  0.37086679  1
  O2-  O425  1  0.45960728  0.33003409  0.89116012  1
  O2-  O426  1  0.03979163  -0.00003670  0.12343379  1
  O2-  O427  1  0.97373635  0.33868411  0.12598959  1
  O2-  O428  1  0.53858442  0.34578580  0.13056420  1
  O2-  O429  1  0.01123894  0.34248298  0.63252547  1
  O2-  O430  1  0.97682672  -0.01682553  0.64024782  1
  O2-  O431  1  0.54203126  0.36162662  0.85680897  1
  O2-  O432  1  0.55036264  0.65155720  0.90344803  1
  O2-  O433  1  0.01865179  0.67708085  0.86696781  1
  O2-  O434  1  0.44921557  0.33665941  0.11570896  1
  O2-  O435  1  0.52402111  0.01856894  0.63235208  1
  O2-  O436  1  0.01949707  -0.00370810  0.88015710  1
  O2-  O437  1  0.52318773  0.33116628  0.63952927  1
  O2-  O438  1  0.52911223  0.00059922  0.37542251  1
  O2-  O439  1  0.97735246  0.66501598  0.12134235  1
  O2-  O440  1  0.47086789  0.66578716  0.37652523  1
  O2-  O441  1  0.03024629  0.66246356  0.37482124  1
  O2-  O442  1  0.52905623  0.32258814  0.40278006  1
  O2-  O443  1  0.95959525  0.00245365  0.12602059  1
