# generated using pymatgen
data_La7(Ru4O11)2
_symmetry_space_group_name_H-M   'P 1'
_cell_length_a   23.99456050
_cell_length_b   16.83505204
_cell_length_c   15.43154168
_cell_angle_alpha   90.00205844
_cell_angle_beta   90.00037088
_cell_angle_gamma   89.99731308
_symmetry_Int_Tables_number   1
_chemical_formula_structural   La7(Ru4O11)2
_chemical_formula_sum   'La84 Ru96 O264'
_cell_volume   6233.56623187
_cell_formula_units_Z   12
loop_
 _symmetry_equiv_pos_site_id
 _symmetry_equiv_pos_as_xyz
  1  'x, y, z'
loop_
 _atom_type_symbol
 _atom_type_oxidation_number
  La3+  3.0
  Ru4+  4.0
  O2-  -2.0
loop_
 _atom_site_type_symbol
 _atom_site_label
 _atom_site_symmetry_multiplicity
 _atom_site_fract_x
 _atom_site_fract_y
 _atom_site_fract_z
 _atom_site_occupancy
  La3+  La0  1  0.14842502  -0.00239119  0.12679106  1
  La3+  La1  1  0.14451934  -0.00133887  0.37849409  1
  La3+  La2  1  0.14998018  -0.00130126  0.62277058  1
  La3+  La3  1  0.13378837  -0.00184053  0.87783195  1
  La3+  La4  1  0.13099808  0.33856942  0.13776216  1
  La3+  La5  1  0.12477948  0.34791321  0.35894812  1
  La3+  La6  1  0.13770773  0.32930881  0.62664903  1
  La3+  La7  1  0.13727107  0.33197770  0.87206264  1
  La3+  La8  1  0.14016992  0.67615561  0.12757833  1
  La3+  La9  1  0.13381501  0.67715472  0.37121082  1
  La3+  La10  1  0.14239362  0.66936831  0.62125469  1
  La3+  La11  1  0.14379246  0.67666437  0.87754381  1
  La3+  La12  1  0.63972456  0.00487530  0.12228115  1
  La3+  La13  1  0.63555828  -0.00211769  0.38075956  1
  La3+  La14  1  0.64192154  0.00380538  0.62314276  1
  La3+  La15  1  0.64057477  0.00271311  0.87809102  1
  La3+  La16  1  0.64058901  0.33039910  0.12693337  1
  La3+  La17  1  0.63244339  0.33327263  0.37298775  1
  La3+  La18  1  0.63648991  0.32831362  0.62533587  1
  La3+  La19  1  0.64372602  0.32836399  0.87165441  1
  La3+  La20  1  0.64749775  0.67945400  0.11778991  1
  La3+  La21  1  0.64558961  0.67029152  0.37211199  1
  La3+  La22  1  0.64388906  0.66847272  0.62459901  1
  La3+  La23  1  0.63957779  0.66516234  0.86776917  1
  La3+  La24  1  0.35083951  -0.00214456  0.12716098  1
  La3+  La25  1  0.36292595  0.00477461  0.37566866  1
  La3+  La26  1  0.35316984  0.00129687  0.62237690  1
  La3+  La27  1  0.35926638  -0.00112110  0.87655695  1
  La3+  La28  1  0.36360476  0.32900846  0.12573278  1
  La3+  La29  1  0.35875239  0.32537897  0.37548061  1
  La3+  La30  1  0.36398713  0.32715933  0.62666980  1
  La3+  La31  1  0.36184847  0.33070675  0.87119007  1
  La3+  La32  1  0.36083535  0.67146779  0.12681026  1
  La3+  La33  1  0.36821365  0.66472882  0.37637766  1
  La3+  La34  1  0.36522371  0.66101842  0.62452873  1
  La3+  La35  1  0.36299327  0.66774756  0.87354454  1
  La3+  La36  1  0.86183855  0.00038733  0.12502054  1
  La3+  La37  1  0.84854102  0.00148784  0.37348435  1
  La3+  La38  1  0.85615290  -0.00547225  0.62076431  1
  La3+  La39  1  0.85334725  0.00662787  0.88181916  1
  La3+  La40  1  0.86590737  0.33350676  0.13081737  1
  La3+  La41  1  0.87156853  0.34130492  0.37373446  1
  La3+  La42  1  0.85934458  0.32821796  0.62177669  1
  La3+  La43  1  0.85395934  0.32575831  0.87307881  1
  La3+  La44  1  0.86403793  0.66537923  0.12819467  1
  La3+  La45  1  0.87095123  0.66694103  0.37607560  1
  La3+  La46  1  0.86037127  0.66370805  0.62466438  1
  La3+  La47  1  0.85485523  0.67322970  0.87501402  1
  La3+  La48  1  0.00529509  0.16421708  0.87611909  1
  La3+  La49  1  0.01147243  0.82216329  0.61967979  1
  La3+  La50  1  0.00383165  0.16827850  0.35188241  1
  La3+  La51  1  0.50204068  0.83939747  0.63102228  1
  La3+  La52  1  0.49259667  0.82725771  0.37539592  1
  La3+  La53  1  0.00415538  0.49724015  0.60184703  1
  La3+  La54  1  0.50016400  0.15954269  0.13712413  1
  La3+  La55  1  0.49981459  0.83919059  0.87203223  1
  La3+  La56  1  0.50085591  0.49567829  0.87634895  1
  La3+  La57  1  -0.00796694  0.83996795  0.36068237  1
  La3+  La58  1  0.49210348  0.50504463  0.12277791  1
  La3+  La59  1  0.50121414  0.16722228  0.87544601  1
  La3+  La60  1  -0.00175832  0.48084368  0.13568291  1
  La3+  La61  1  -0.00013804  0.50776545  0.87756151  1
  La3+  La62  1  -0.00136482  0.16294669  0.63003116  1
  La3+  La63  1  0.49456287  0.83136848  0.35345115  1
  La3+  La64  1  -0.00214050  0.84383643  0.89357527  1
  La3+  La65  1  0.00844876  0.83138934  0.63906355  1
  La3+  La66  1  0.00163972  0.49069180  0.62273505  1
  La3+  La67  1  -0.00511455  0.48904038  0.14924281  1
  La3+  La68  1  0.50053271  0.50681847  0.39224299  1
  La3+  La69  1  0.49340981  0.49816648  0.37555151  1
  La3+  La70  1  -0.00118196  0.49111440  0.36649674  1
  La3+  La71  1  0.00626212  0.83301854  0.88005771  1
  La3+  La72  1  0.25151621  0.14901525  0.53978244  1
  La3+  La73  1  0.75189787  0.79398646  0.25324201  1
  La3+  La74  1  0.25044115  0.16346882  0.20046600  1
  La3+  La75  1  0.24960773  0.48915718  0.02454405  1
  La3+  La76  1  0.74961203  0.54567667  0.44391369  1
  La3+  La77  1  0.75124732  0.43367285  0.72715951  1
  La3+  La78  1  0.74922583  0.87605450  -0.03674456  1
  La3+  La79  1  0.25050027  0.16461700  0.79545348  1
  La3+  La80  1  0.75092485  0.21123926  0.29414871  1
  La3+  La81  1  0.25316694  0.45251135  0.22320440  1
  La3+  La82  1  0.75117517  0.43674069  0.02221789  1
  La3+  La83  1  0.25138751  0.48114196  0.46943231  1
  Ru4+  Ru84  1  -0.00069316  0.00669734  -0.00380484  1
  Ru4+  Ru85  1  -0.00464719  0.01401390  0.24699626  1
  Ru4+  Ru86  1  -0.01430104  -0.00144231  0.50064923  1
  Ru4+  Ru87  1  0.00227189  0.00803493  0.74892619  1
  Ru4+  Ru88  1  0.00171510  0.32936922  0.00333590  1
  Ru4+  Ru89  1  0.00533164  0.32784632  0.24825864  1
  Ru4+  Ru90  1  0.00369721  0.32252830  0.49759909  1
  Ru4+  Ru91  1  0.00028878  0.33197773  0.75499617  1
  Ru4+  Ru92  1  0.00344118  0.66373194  -0.00276687  1
  Ru4+  Ru93  1  -0.00041160  0.66525991  0.24032380  1
  Ru4+  Ru94  1  0.00595296  0.67018382  0.49360541  1
  Ru4+  Ru95  1  -0.00248376  0.65929217  0.75188278  1
  Ru4+  Ru96  1  0.49789701  -0.00175688  -0.00102588  1
  Ru4+  Ru97  1  0.49707633  0.00538512  0.24925790  1
  Ru4+  Ru98  1  0.49610195  0.00736801  0.49591088  1
  Ru4+  Ru99  1  0.50295708  0.00136516  0.75486587  1
  Ru4+  Ru100  1  0.49725484  0.33063124  0.01107317  1
  Ru4+  Ru101  1  0.49798396  0.32301825  0.25212312  1
  Ru4+  Ru102  1  0.49881262  0.32597897  0.50748725  1
  Ru4+  Ru103  1  0.49610290  0.33361565  0.73704788  1
  Ru4+  Ru104  1  0.49467320  0.67265043  0.00662336  1
  Ru4+  Ru105  1  0.50949256  0.67687659  0.23112491  1
  Ru4+  Ru106  1  0.50131638  0.67352505  0.51281125  1
  Ru4+  Ru107  1  0.50070989  0.67197560  0.75094666  1
  Ru4+  Ru108  1  0.11167180  0.16384902  -0.00282953  1
  Ru4+  Ru109  1  0.10729015  0.16075165  0.25052371  1
  Ru4+  Ru110  1  0.11336735  0.16809108  0.49990201  1
  Ru4+  Ru111  1  0.11376838  0.16764702  0.74942433  1
  Ru4+  Ru112  1  0.10818268  0.50228068  -0.00363307  1
  Ru4+  Ru113  1  0.10930592  0.50487268  0.24702738  1
  Ru4+  Ru114  1  0.11586273  0.49720299  0.49027657  1
  Ru4+  Ru115  1  0.11330128  0.50044829  0.75333925  1
  Ru4+  Ru116  1  0.11763010  0.82933372  0.00109686  1
  Ru4+  Ru117  1  0.11436235  0.83123353  0.25336703  1
  Ru4+  Ru118  1  0.11853993  0.83468791  0.49283368  1
  Ru4+  Ru119  1  0.11209725  0.83372551  0.75063931  1
  Ru4+  Ru120  1  0.61277833  0.16236821  0.00216976  1
  Ru4+  Ru121  1  0.60823454  0.16736793  0.25058402  1
  Ru4+  Ru122  1  0.60435119  0.16574796  0.50257290  1
  Ru4+  Ru123  1  0.61151919  0.17129685  0.74966458  1
  Ru4+  Ru124  1  0.60910442  0.50217964  0.00045920  1
  Ru4+  Ru125  1  0.60975327  0.51175883  0.24604974  1
  Ru4+  Ru126  1  0.61341684  0.49842589  0.50235164  1
  Ru4+  Ru127  1  0.61021709  0.49908498  0.74419936  1
  Ru4+  Ru128  1  0.60878255  0.83676593  -0.00055750  1
  Ru4+  Ru129  1  0.60345751  0.82768104  0.24565287  1
  Ru4+  Ru130  1  0.61437875  0.84374776  0.50365365  1
  Ru4+  Ru131  1  0.61229479  0.83115332  0.75116810  1
  Ru4+  Ru132  1  0.38981356  0.16697639  0.00097549  1
  Ru4+  Ru133  1  0.39054776  0.16562105  0.25148020  1
  Ru4+  Ru134  1  0.39322023  0.16755120  0.50141560  1
  Ru4+  Ru135  1  0.38912809  0.16851556  0.75009849  1
  Ru4+  Ru136  1  0.38784973  0.50098966  0.00372154  1
  Ru4+  Ru137  1  0.38357098  0.49720092  0.24868827  1
  Ru4+  Ru138  1  0.38531542  0.49498749  0.50485335  1
  Ru4+  Ru139  1  0.38680081  0.48729626  0.74275813  1
  Ru4+  Ru140  1  0.38841465  0.83391313  0.00175125  1
  Ru4+  Ru141  1  0.38549296  0.83328872  0.24989687  1
  Ru4+  Ru142  1  0.38675140  0.83315197  0.49931311  1
  Ru4+  Ru143  1  0.38961817  0.82906950  0.75352071  1
  Ru4+  Ru144  1  0.89116936  0.16492333  -0.00130450  1
  Ru4+  Ru145  1  0.89477620  0.16091671  0.25173121  1
  Ru4+  Ru146  1  0.89048599  0.15920955  0.50358169  1
  Ru4+  Ru147  1  0.88712821  0.16688227  0.75131896  1
  Ru4+  Ru148  1  0.88997604  0.50493718  0.00022165  1
  Ru4+  Ru149  1  0.88050861  0.51163794  0.25017997  1
  Ru4+  Ru150  1  0.87980191  0.50053967  0.49255466  1
  Ru4+  Ru151  1  0.89145559  0.50675494  0.75712820  1
  Ru4+  Ru152  1  0.89073096  0.83682908  0.00276710  1
  Ru4+  Ru153  1  0.89152614  0.83328997  0.24823845  1
  Ru4+  Ru154  1  0.88680417  0.83622068  0.49437707  1
  Ru4+  Ru155  1  0.88601449  0.82866448  0.74953798  1
  Ru4+  Ru156  1  0.74992992  0.23386797  -0.01152433  1
  Ru4+  Ru157  1  0.24938141  0.34949846  0.01312311  1
  Ru4+  Ru158  1  0.74861285  0.08633898  0.49467889  1
  Ru4+  Ru159  1  0.24999946  0.60706018  0.26295968  1
  Ru4+  Ru160  1  0.74860387  0.60316218  0.00061380  1
  Ru4+  Ru161  1  0.25021772  0.90785605  0.75712871  1
  Ru4+  Ru162  1  0.75006147  0.61489763  0.74615865  1
  Ru4+  Ru163  1  0.75051891  0.76000322  0.51360146  1
  Ru4+  Ru164  1  0.75164521  0.73790506  0.01350709  1
  Ru4+  Ru165  1  0.24882785  0.63099815  0.47224929  1
  Ru4+  Ru166  1  0.74920438  0.39336638  0.47767607  1
  Ru4+  Ru167  1  0.74804821  0.93572480  0.25999200  1
  Ru4+  Ru168  1  0.25001302  0.57492796  0.76787333  1
  Ru4+  Ru169  1  0.24986391  0.76776818  0.74465994  1
  Ru4+  Ru170  1  0.24903333  0.41287138  0.77334532  1
  Ru4+  Ru171  1  0.74866106  0.07484277  0.23764167  1
  Ru4+  Ru172  1  0.75017440  0.09740558  0.75623732  1
  Ru4+  Ru173  1  0.74952955  0.41726865  0.26326963  1
  Ru4+  Ru174  1  0.74961767  0.23978624  0.48759905  1
  Ru4+  Ru175  1  0.24809181  0.22394462  -0.02186507  1
  Ru4+  Ru176  1  0.75050723  0.91024037  0.73982347  1
  Ru4+  Ru177  1  0.24973616  0.33781694  0.49444459  1
  Ru4+  Ru178  1  0.24989337  0.91154846  0.00396578  1
  Ru4+  Ru179  1  0.24986470  0.61892297  -0.00621766  1
  O2-  O180  1  0.16140491  0.07906348  -0.00558455  1
  O2-  O181  1  0.16741664  0.08291940  0.24776498  1
  O2-  O182  1  0.17124151  0.08149532  0.49323732  1
  O2-  O183  1  0.16913008  0.08061261  0.76314025  1
  O2-  O184  1  0.16227153  0.41336491  0.00303594  1
  O2-  O185  1  0.16557360  0.41234309  0.25063922  1
  O2-  O186  1  0.16914273  0.40810560  0.49867540  1
  O2-  O187  1  0.16800780  0.41027666  0.75455488  1
  O2-  O188  1  0.16867163  0.75172093  0.00571672  1
  O2-  O189  1  0.16955355  0.74739515  0.25101350  1
  O2-  O190  1  0.16850265  0.74739337  0.49447426  1
  O2-  O191  1  0.16787412  0.74880560  0.74583056  1
  O2-  O192  1  0.66482621  0.08324482  0.00057641  1
  O2-  O193  1  0.66632003  0.08188216  0.25249455  1
  O2-  O194  1  0.66628579  0.08415418  0.49549243  1
  O2-  O195  1  0.66484157  0.08112280  0.75186132  1
  O2-  O196  1  0.65711235  0.40790334  -0.00126134  1
  O2-  O197  1  0.66339778  0.41578502  0.25228366  1
  O2-  O198  1  0.66604556  0.40985022  0.49561062  1
  O2-  O199  1  0.65669990  0.40773279  0.75017319  1
  O2-  O200  1  0.67212330  0.75521685  -0.00808466  1
  O2-  O201  1  0.66588543  0.74662942  0.24769484  1
  O2-  O202  1  0.66662838  0.75276842  0.49950104  1
  O2-  O203  1  0.66258875  0.74990169  0.74956193  1
  O2-  O204  1  0.32944379  0.25282396  -0.00063857  1
  O2-  O205  1  0.33692636  0.25024518  0.24658444  1
  O2-  O206  1  0.32922233  0.25172488  0.50054981  1
  O2-  O207  1  0.32880765  0.25255833  0.75165906  1
  O2-  O208  1  0.33142917  0.58854293  0.00032318  1
  O2-  O209  1  0.33392440  0.58776583  0.25164101  1
  O2-  O210  1  0.33180705  0.58648829  0.49427774  1
  O2-  O211  1  0.33677689  0.57961696  0.75404275  1
  O2-  O212  1  0.32983406  0.91901796  0.00226796  1
  O2-  O213  1  0.33855115  0.92115518  0.25344547  1
  O2-  O214  1  0.33851106  0.91961202  0.49648605  1
  O2-  O215  1  0.33521840  0.91531341  0.75194537  1
  O2-  O216  1  0.83530373  0.24920052  0.00096407  1
  O2-  O217  1  0.84212804  0.25436320  0.25384078  1
  O2-  O218  1  0.83667798  0.24983162  0.49283823  1
  O2-  O219  1  0.83932869  0.25012708  0.74701201  1
  O2-  O220  1  0.83287409  0.58792893  0.00414846  1
  O2-  O221  1  0.83312076  0.59541896  0.25563857  1
  O2-  O222  1  0.83151284  0.59042826  0.49806445  1
  O2-  O223  1  0.83265917  0.59376879  0.74662295  1
  O2-  O224  1  0.83856415  0.92095503  0.00378855  1
  O2-  O225  1  0.83226639  0.91559693  0.24739463  1
  O2-  O226  1  0.83155220  0.91544797  0.50237804  1
  O2-  O227  1  0.83240440  0.91820529  0.75055286  1
  O2-  O228  1  0.16389478  0.25308743  -0.00157072  1
  O2-  O229  1  0.16017406  0.25343533  0.24756782  1
  O2-  O230  1  0.16757065  0.25419117  0.49980403  1
  O2-  O231  1  0.16894713  0.25339639  0.75827814  1
  O2-  O232  1  0.16745108  0.59002695  0.00552450  1
  O2-  O233  1  0.16276852  0.58934171  0.25155754  1
  O2-  O234  1  0.16687862  0.58965552  0.49355530  1
  O2-  O235  1  0.16441765  0.58563707  0.75418064  1
  O2-  O236  1  0.16751321  0.92042701  0.00173673  1
  O2-  O237  1  0.16108623  0.91757526  0.25101044  1
  O2-  O238  1  0.17127643  0.91705818  0.49661310  1
  O2-  O239  1  0.16923040  0.91970709  0.75583745  1
  O2-  O240  1  0.66413584  0.25024617  -0.00109095  1
  O2-  O241  1  0.66362433  0.25144885  0.24974738  1
  O2-  O242  1  0.66386102  0.24978246  0.49631871  1
  O2-  O243  1  0.66210148  0.24906757  0.74718864  1
  O2-  O244  1  0.66317056  0.58693619  -0.00238186  1
  O2-  O245  1  0.67203681  0.58159474  0.26156941  1
  O2-  O246  1  0.66635106  0.58595168  0.50170568  1
  O2-  O247  1  0.66874640  0.58559446  0.75073918  1
  O2-  O248  1  0.66221950  0.92139836  0.00445292  1
  O2-  O249  1  0.66200562  0.91605194  0.25357928  1
  O2-  O250  1  0.67216028  0.92207929  0.49144768  1
  O2-  O251  1  0.67060620  0.91739707  0.74607500  1
  O2-  O252  1  0.34048283  0.08277803  -0.00307424  1
  O2-  O253  1  0.33023233  0.08059849  0.24981412  1
  O2-  O254  1  0.33373213  0.08218111  0.49715771  1
  O2-  O255  1  0.33585671  0.08170925  0.75563241  1
  O2-  O256  1  0.33280717  0.41088913  0.00145362  1
  O2-  O257  1  0.33903259  0.40476076  0.25166812  1
  O2-  O258  1  0.33305255  0.40731290  0.50209338  1
  O2-  O259  1  0.32861771  0.41170037  0.75011074  1
  O2-  O260  1  0.33658201  0.74998089  0.00068819  1
  O2-  O261  1  0.33829122  0.74624086  0.25350568  1
  O2-  O262  1  0.34025916  0.74630988  0.49867520  1
  O2-  O263  1  0.32997289  0.74826054  0.75082661  1
  O2-  O264  1  0.83955133  0.08289459  0.00289613  1
  O2-  O265  1  0.83211431  0.08397288  0.24382239  1
  O2-  O266  1  0.83022161  0.08177031  0.49898466  1
  O2-  O267  1  0.83464969  0.07913363  0.74815636  1
  O2-  O268  1  0.84549905  0.40729666  -0.00050027  1
  O2-  O269  1  0.83381831  0.41428898  0.25656809  1
  O2-  O270  1  0.83425959  0.40767903  0.49471937  1
  O2-  O271  1  0.84899769  0.41053919  0.75047962  1
  O2-  O272  1  0.83429579  0.74687566  0.00692016  1
  O2-  O273  1  0.83695247  0.74330843  0.24868227  1
  O2-  O274  1  0.83371348  0.74851086  0.49620378  1
  O2-  O275  1  0.83545475  0.74806366  0.74723581  1
  O2-  O276  1  0.95409836  0.23914728  0.97702682  1
  O2-  O277  1  0.55148087  0.91498428  0.44943753  1
  O2-  O278  1  0.95337761  0.09148953  0.98524544  1
  O2-  O279  1  0.96293856  0.88601867  0.50877657  1
  O2-  O280  1  0.45097696  0.42629007  0.51714013  1
  O2-  O281  1  0.55396342  0.40944379  0.27026262  1
  O2-  O282  1  0.54816123  0.42233618  0.74667414  1
  O2-  O283  1  0.05606682  0.91091198  0.98470540  1
  O2-  O284  1  0.05446989  0.24254189  0.52471481  1
  O2-  O285  1  0.44356033  0.57637112  0.48468105  1
  O2-  O286  1  0.94615165  0.58211227  0.69530332  1
  O2-  O287  1  0.96013480  0.88942905  0.52550432  1
  O2-  O288  1  0.54496157  0.77130973  0.50752547  1
  O2-  O289  1  0.53567356  0.77548673  0.99930766  1
  O2-  O290  1  0.94955548  0.11357822  0.44578023  1
  O2-  O291  1  0.04989955  0.57116569  0.47424777  1
  O2-  O292  1  0.05081114  0.75596164  0.27747772  1
  O2-  O293  1  0.03768374  0.54719943  0.03323316  1
  O2-  O294  1  0.95245728  0.11809154  0.19077970  1
  O2-  O295  1  0.94702666  0.56713375  0.47985251  1
  O2-  O296  1  0.54550178  0.23444037  0.76576693  1
  O2-  O297  1  0.94931076  0.91009618  0.74853644  1
  O2-  O298  1  0.04390882  0.90297226  0.01780281  1
  O2-  O299  1  0.04708379  0.12239574  0.19609427  1
  O2-  O300  1  0.55032965  0.08847751  0.50395614  1
  O2-  O301  1  0.44525201  0.76135618  0.98426653  1
  O2-  O302  1  0.52926346  0.55468753  0.24383699  1
  O2-  O303  1  0.54953580  0.24289303  0.50222391  1
  O2-  O304  1  0.04885798  0.43090043  0.25202720  1
  O2-  O305  1  0.95819651  0.43317682  0.00143617  1
  O2-  O306  1  0.94544569  0.24584740  0.52181704  1
  O2-  O307  1  0.52846073  0.54007757  0.25041786  1
  O2-  O308  1  0.94367919  0.42879373  0.25174242  1
  O2-  O309  1  0.52921613  0.79536371  0.20121155  1
  O2-  O310  1  0.03457316  0.10464610  0.49746176  1
  O2-  O311  1  0.95450876  0.42367208  0.47875405  1
  O2-  O312  1  0.06141667  0.41570782  0.26364438  1
  O2-  O313  1  0.95451921  0.23633831  0.76721497  1
  O2-  O314  1  0.54801564  0.42849864  0.01675740  1
  O2-  O315  1  0.53665005  0.55534011  0.73984948  1
  O2-  O316  1  0.43798820  0.58145770  0.25640742  1
  O2-  O317  1  0.44538346  0.58342531  0.76929330  1
  O2-  O318  1  0.94820087  0.74809889  0.47601014  1
  O2-  O319  1  0.44612010  0.42776163  0.00433676  1
  O2-  O320  1  0.95135641  0.75938616  1.00411907  1
  O2-  O321  1  0.54894645  0.90801035  0.98997291  1
  O2-  O322  1  0.44213023  0.56649111  0.73534223  1
  O2-  O323  1  0.94598440  0.42445327  0.51568064  1
  O2-  O324  1  0.56287614  0.07208028  0.22270975  1
  O2-  O325  1  0.56145283  0.25604416  0.28137522  1
  O2-  O326  1  0.94309774  0.92620493  0.21855335  1
  O2-  O327  1  0.06726720  0.73906454  0.51550961  1
  O2-  O328  1  0.06365437  0.74320007  0.96818418  1
  O2-  O329  1  0.59817143  0.59783516  0.17576683  1
  O2-  O330  1  0.42689663  0.76356380  0.67426113  1
  O2-  O331  1  0.06161588  0.40901093  0.71941346  1
  O2-  O332  1  0.43417961  0.24314986  0.07429997  1
  O2-  O333  1  0.57978943  0.61343895  0.73454668  1
  O2-  O334  1  0.93880741  0.73765760  0.28690092  1
  O2-  O335  1  0.91916099  0.57639045  0.84385185  1
  O2-  O336  1  0.93694144  0.59755094  0.99522128  1
  O2-  O337  1  0.07165601  0.59681079  0.92024310  1
  O2-  O338  1  0.56174874  0.91532309  0.77493449  1
  O2-  O339  1  0.43483025  0.26028881  0.53283113  1
  O2-  O340  1  0.06672126  0.39998587  0.52635429  1
  O2-  O341  1  0.55782307  0.07415678  0.03729632  1
  O2-  O342  1  0.06245839  0.04607718  0.32332951  1
  O2-  O343  1  0.56112524  0.92071098  0.43647264  1
  O2-  O344  1  0.43609841  0.40258057  0.68079084  1
  O2-  O345  1  0.94008348  0.60042116  0.46958480  1
  O2-  O346  1  0.43788078  0.74195199  0.82156551  1
  O2-  O347  1  0.43774362  0.59238803  0.01502863  1
  O2-  O348  1  0.06476173  0.40178072  0.20283753  1
  O2-  O349  1  0.08186775  0.06597375  0.53664394  1
  O2-  O350  1  0.58444994  0.90372437  0.59955969  1
  O2-  O351  1  0.93411729  0.41152143  0.22070288  1
  O2-  O352  1  0.43605426  0.07775751  0.47864696  1
  O2-  O353  1  0.06657728  0.91823485  0.52404429  1
  O2-  O354  1  0.94095743  0.58517510  0.68906064  1
  O2-  O355  1  0.06217962  0.25393825  0.71338829  1
  O2-  O356  1  0.56789450  0.74000581  0.32219044  1
  O2-  O357  1  0.43982927  0.59701475  0.45318934  1
  O2-  O358  1  0.92955860  0.06329128  0.57862547  1
  O2-  O359  1  0.58236222  0.72578634  0.97093030  1
  O2-  O360  1  0.56294225  0.40242965  0.46400371  1
  O2-  O361  1  0.92931202  0.97379487  0.42115710  1
  O2-  O362  1  0.43736235  0.08098271  0.27156625  1
  O2-  O363  1  0.42636035  0.42848198  0.82573444  1
  O2-  O364  1  0.43830139  0.59760527  0.29144262  1
  O2-  O365  1  0.42910298  0.23940452  0.92727238  1
  O2-  O366  1  0.43312221  0.93005256  0.02019612  1
  O2-  O367  1  0.93125015  0.06118291  0.31132554  1
  O2-  O368  1  0.06298077  0.08192931  0.72811124  1
  O2-  O369  1  0.05936681  0.74253760  0.28303664  1
  O2-  O370  1  0.43810522  0.25416601  0.76712998  1
  O2-  O371  1  0.57329517  0.59985723  0.37150818  1
  O2-  O372  1  0.75154024  0.00050982  0.94105773  1
  O2-  O373  1  0.25026215  0.70586259  0.91530038  1
  O2-  O374  1  0.24875624  -0.00083048  0.58517862  1
  O2-  O375  1  0.25089392  0.34744226  0.36886314  1
  O2-  O376  1  0.75086909  -0.00399397  0.81292355  1
  O2-  O377  1  0.25088653  0.67707763  0.17299220  1
  O2-  O378  1  0.24885769  0.33528117  0.14079522  1
  O2-  O379  1  0.75000912  -0.00477287  0.13923509  1
  O2-  O380  1  0.25090962  0.00082526  0.67755962  1
  O2-  O381  1  0.24940412  0.69740602  0.08406792  1
  O2-  O382  1  0.24975854  0.66100466  0.68947182  1
  O2-  O383  1  0.75108438  0.33488618  0.36503979  1
  O2-  O384  1  0.74900887  0.31251503  0.06969417  1
  O2-  O385  1  0.75041178  0.32854809  0.19870545  1
  O2-  O386  1  0.75053645  0.32825202  0.82797968  1
  O2-  O387  1  0.74938661  0.67455849  0.86711032  1
  O2-  O388  1  0.24855491  -0.00804605  0.12561592  1
  O2-  O389  1  0.25224645  0.69092657  0.56450967  1
  O2-  O390  1  0.25001706  0.67822119  0.82836494  1
  O2-  O391  1  0.75080881  0.68390069  0.64095607  1
  O2-  O392  1  0.75082378  0.31527998  0.68956799  1
  O2-  O393  1  0.75136119  0.32110699  0.57207316  1
  O2-  O394  1  0.24937886  0.32811145  0.87985289  1
  O2-  O395  1  0.74948741  0.33416406  0.91976017  1
  O2-  O396  1  0.74916107  0.54776678  0.65481901  1
  O2-  O397  1  0.24942946  0.50880573  0.87831608  1
  O2-  O398  1  0.24898813  0.16201281  0.32893781  1
  O2-  O399  1  0.75113243  0.47109384  0.56100513  1
  O2-  O400  1  0.75038228  0.16014012  0.84585661  1
  O2-  O401  1  0.25141338  0.83381946  0.33490834  1
  O2-  O402  1  0.24794309  0.52271955  0.33987715  1
  O2-  O403  1  0.24916096  0.15734253  0.06557874  1
  O2-  O404  1  0.75022261  0.15176226  0.06721855  1
  O2-  O405  1  0.75172016  0.51069295  0.22327304  1
  O2-  O406  1  0.75033946  0.83294312  0.59248526  1
  O2-  O407  1  0.74978259  0.16223732  0.57129499  1
  O2-  O408  1  0.24889832  0.49143516  0.68870862  1
  O2-  O409  1  0.74974619  0.52288929  0.91536841  1
  O2-  O410  1  0.74988886  0.17372240  0.67758672  1
  O2-  O411  1  0.24938151  0.85295219  0.90334801  1
  O2-  O412  1  0.24928386  0.50321149  0.60168035  1
  O2-  O413  1  0.74983781  0.52718794  0.82678679  1
  O2-  O414  1  0.74929307  0.16525887  0.15460374  1
  O2-  O415  1  0.75012995  0.82045481  0.10933375  1
  O2-  O416  1  0.24955555  0.17186281  0.41225995  1
  O2-  O417  1  0.25132590  0.83421653  0.41509240  1
  O2-  O418  1  0.74941119  0.54828444  0.10123188  1
  O2-  O419  1  0.24825057  0.18048092  0.66634887  1
  O2-  O420  1  0.02844294  0.32070259  0.37056440  1
  O2-  O421  1  0.98322058  0.68744083  0.87037280  1
  O2-  O422  1  0.54284270  0.33127814  0.89374113  1
  O2-  O423  1  0.47259553  -0.01947664  0.37068967  1
  O2-  O424  1  0.45993098  0.65220906  0.60716812  1
  O2-  O425  1  0.54387224  0.02699910  0.87534510  1
  O2-  O426  1  0.02763109  0.66315719  0.12421788  1
  O2-  O427  1  0.52766258  0.32898706  0.62469274  1
  O2-  O428  1  0.54155111  0.68491256  0.62900710  1
  O2-  O429  1  0.02760764  0.00406041  0.87179734  1
  O2-  O430  1  0.45014402  -0.00464750  0.86151135  1
  O2-  O431  1  0.48570011  0.34051226  0.87251500  1
  O2-  O432  1  0.54128467  0.02283364  0.65671156  1
  O2-  O433  1  0.48147704  0.34767613  0.13740782  1
  O2-  O434  1  0.97846985  0.32093394  0.12696740  1
  O2-  O435  1  0.54111435  0.66623302  0.09792930  1
  O2-  O436  1  0.44816783  -0.01300800  0.63127729  1
  O2-  O437  1  0.02943950  0.33604175  0.88090134  1
  O2-  O438  1  0.52110262  0.65625814  0.87467690  1
  O2-  O439  1  0.47555762  0.00947802  0.12897474  1
  O2-  O440  1  0.45301262  0.67543085  0.14474643  1
  O2-  O441  1  0.01627139  -0.01344633  0.63065620  1
  O2-  O442  1  0.03117840  0.66112181  0.63428880  1
  O2-  O443  1  0.47067394  0.33192745  0.37540381  1
