# generated using pymatgen
data_La7(Ru4O11)2
_symmetry_space_group_name_H-M   'P 1'
_cell_length_a   23.99160148
_cell_length_b   16.83265788
_cell_length_c   15.42830153
_cell_angle_alpha   89.99868676
_cell_angle_beta   89.99864313
_cell_angle_gamma   89.99802356
_symmetry_Int_Tables_number   1
_chemical_formula_structural   La7(Ru4O11)2
_chemical_formula_sum   'La84 Ru96 O264'
_cell_volume   6230.60261761
_cell_formula_units_Z   12
loop_
 _symmetry_equiv_pos_site_id
 _symmetry_equiv_pos_as_xyz
  1  'x, y, z'
loop_
 _atom_type_symbol
 _atom_type_oxidation_number
  La3+  3.0
  Ru4+  4.0
  O2-  -2.0
loop_
 _atom_site_type_symbol
 _atom_site_label
 _atom_site_symmetry_multiplicity
 _atom_site_fract_x
 _atom_site_fract_y
 _atom_site_fract_z
 _atom_site_occupancy
  La3+  La0  1  0.14342680  -0.00149236  0.12971432  1
  La3+  La1  1  0.13539162  0.00293864  0.37196148  1
  La3+  La2  1  0.13358649  0.00130520  0.62599403  1
  La3+  La3  1  0.13823444  -0.00149456  0.87085666  1
  La3+  La4  1  0.13870911  0.33410736  0.12462756  1
  La3+  La5  1  0.14520846  0.33626339  0.37383225  1
  La3+  La6  1  0.13816586  0.33468722  0.62164197  1
  La3+  La7  1  0.14188979  0.33351454  0.87950613  1
  La3+  La8  1  0.14117107  0.66575678  0.12934931  1
  La3+  La9  1  0.14232598  0.66150015  0.37093455  1
  La3+  La10  1  0.14209651  0.66266922  0.62815041  1
  La3+  La11  1  0.13615392  0.66864161  0.87168629  1
  La3+  La12  1  0.64210578  -0.00535500  0.13041784  1
  La3+  La13  1  0.63782151  -0.00071522  0.37029807  1
  La3+  La14  1  0.63505887  -0.00071729  0.62488926  1
  La3+  La15  1  0.63312343  0.00068489  0.87755528  1
  La3+  La16  1  0.64005424  0.33549395  0.12775495  1
  La3+  La17  1  0.64090502  0.33591597  0.37300841  1
  La3+  La18  1  0.63859652  0.33463495  0.62478852  1
  La3+  La19  1  0.63418482  0.33765120  0.87125215  1
  La3+  La20  1  0.63746293  0.66570471  0.12350164  1
  La3+  La21  1  0.63921997  0.66530631  0.37792632  1
  La3+  La22  1  0.63893517  0.66840889  0.62643222  1
  La3+  La23  1  0.64384929  0.66791065  0.87115589  1
  La3+  La24  1  0.35470100  0.00018748  0.12736635  1
  La3+  La25  1  0.35864512  0.00121152  0.36936996  1
  La3+  La26  1  0.36067194  -0.00191412  0.62885365  1
  La3+  La27  1  0.36076381  -0.00146417  0.86694199  1
  La3+  La28  1  0.35787100  0.33419662  0.12647820  1
  La3+  La29  1  0.35849529  0.34010046  0.37876861  1
  La3+  La30  1  0.36224581  0.33588405  0.61992301  1
  La3+  La31  1  0.35978439  0.33366608  0.87823825  1
  La3+  La32  1  0.35790197  0.66402961  0.12707013  1
  La3+  La33  1  0.35984850  0.66264416  0.37441135  1
  La3+  La34  1  0.36583900  0.65876838  0.63268427  1
  La3+  La35  1  0.37212437  0.65673726  0.86416005  1
  La3+  La36  1  0.86261399  0.00002983  0.12852248  1
  La3+  La37  1  0.86089552  0.00144272  0.37322396  1
  La3+  La38  1  0.86215259  -0.00398458  0.62427157  1
  La3+  La39  1  0.86200190  -0.00114038  0.87372928  1
  La3+  La40  1  0.86083930  0.33572099  0.12877949  1
  La3+  La41  1  0.85669040  0.33469763  0.37093358  1
  La3+  La42  1  0.86008159  0.33470371  0.62252627  1
  La3+  La43  1  0.86589496  0.33521870  0.87345369  1
  La3+  La44  1  0.87198111  0.65605505  0.13634706  1
  La3+  La45  1  0.86437864  0.66010338  0.36829876  1
  La3+  La46  1  0.86176339  0.66763101  0.62747838  1
  La3+  La47  1  0.85493166  0.66633611  0.87150968  1
  La3+  La48  1  0.50107235  0.83088693  0.87487889  1
  La3+  La49  1  0.50549524  0.82158452  0.37562396  1
  La3+  La50  1  -0.00039086  0.50559159  0.36994123  1
  La3+  La51  1  0.49967895  0.49973242  0.11031415  1
  La3+  La52  1  0.50036265  0.17813861  0.86833679  1
  La3+  La53  1  0.00479701  0.50950779  0.62713521  1
  La3+  La54  1  0.49549989  0.50878932  0.85522664  1
  La3+  La55  1  0.50221633  0.82908939  0.63241561  1
  La3+  La56  1  -0.00641972  0.50569519  0.13851839  1
  La3+  La57  1  0.49789708  0.84145792  0.13458260  1
  La3+  La58  1  -0.00095834  0.83356582  0.86033243  1
  La3+  La59  1  -0.00123881  0.16653362  0.63636013  1
  La3+  La60  1  0.00484936  0.83641723  0.87880960  1
  La3+  La61  1  0.00479574  0.17476347  0.88396141  1
  La3+  La62  1  0.50139831  0.17032717  0.13873412  1
  La3+  La63  1  0.50119292  0.83482753  0.11374850  1
  La3+  La64  1  0.00190982  0.16449243  0.13587040  1
  La3+  La65  1  -0.00116871  0.49630270  0.87861657  1
  La3+  La66  1  0.50791595  0.83323619  0.39373199  1
  La3+  La67  1  0.50773260  0.17831170  0.38609404  1
  La3+  La68  1  -0.00083182  0.83357634  0.12430493  1
  La3+  La69  1  0.49604068  0.49932269  0.61873883  1
  La3+  La70  1  0.50421175  0.16829960  0.12305918  1
  La3+  La71  1  0.50152275  0.50293358  0.38194667  1
  La3+  La72  1  0.75029533  0.15957343  0.02145533  1
  La3+  La73  1  0.74968930  0.21180501  0.48293938  1
  La3+  La74  1  0.74894431  0.15478529  0.74703425  1
  La3+  La75  1  0.75047068  0.54895150  -0.01009063  1
  La3+  La76  1  0.24964685  0.49582994  -0.02184308  1
  La3+  La77  1  0.25050858  0.49831655  0.24505433  1
  La3+  La78  1  0.25023967  0.82594700  0.00580896  1
  La3+  La79  1  0.25110636  0.83123085  0.49041175  1
  La3+  La80  1  0.25039702  0.12915540  0.80465557  1
  La3+  La81  1  0.74949394  0.46193394  0.47179642  1
  La3+  La82  1  0.24987214  0.16330783  0.21723442  1
  La3+  La83  1  0.25090401  0.22198295  0.46381952  1
  Ru4+  Ru84  1  -0.00028434  -0.00270986  -0.00042898  1
  Ru4+  Ru85  1  0.00509566  -0.00164781  0.25471920  1
  Ru4+  Ru86  1  -0.00076390  -0.00534485  0.48913416  1
  Ru4+  Ru87  1  -0.00093641  0.00041504  0.74840316  1
  Ru4+  Ru88  1  -0.00007148  0.33294278  -0.00562562  1
  Ru4+  Ru89  1  0.00078606  0.33003187  0.25069541  1
  Ru4+  Ru90  1  -0.00118085  0.33560997  0.50555306  1
  Ru4+  Ru91  1  -0.00303571  0.33549607  0.75204754  1
  Ru4+  Ru92  1  0.00032688  0.66262439  0.00562998  1
  Ru4+  Ru93  1  -0.00278681  0.66918865  0.25675641  1
  Ru4+  Ru94  1  -0.00206790  0.67461990  0.49881075  1
  Ru4+  Ru95  1  -0.00330818  0.66385244  0.74928865  1
  Ru4+  Ru96  1  0.49941761  0.00549893  -0.01335252  1
  Ru4+  Ru97  1  0.49791505  0.01160479  0.25893798  1
  Ru4+  Ru98  1  0.49964666  0.00723623  0.50751092  1
  Ru4+  Ru99  1  0.49680813  0.00745934  0.74839607  1
  Ru4+  Ru100  1  0.49736856  0.33830887  0.00114816  1
  Ru4+  Ru101  1  0.49811610  0.33287424  0.24838981  1
  Ru4+  Ru102  1  0.50213236  0.32473469  0.49729433  1
  Ru4+  Ru103  1  0.49886428  0.32589252  0.75262283  1
  Ru4+  Ru104  1  0.50135213  0.66712695  -0.00108020  1
  Ru4+  Ru105  1  0.49947806  0.66104000  0.24577156  1
  Ru4+  Ru106  1  0.49468972  0.65885967  0.50193594  1
  Ru4+  Ru107  1  0.49857411  0.66301346  0.74843906  1
  Ru4+  Ru108  1  0.11178926  0.16978546  0.00017034  1
  Ru4+  Ru109  1  0.10797839  0.16467164  0.24989191  1
  Ru4+  Ru110  1  0.11207427  0.17457689  0.50076770  1
  Ru4+  Ru111  1  0.11184367  0.16646603  0.75114673  1
  Ru4+  Ru112  1  0.10917556  0.50000465  -0.00058881  1
  Ru4+  Ru113  1  0.11239329  0.49716281  0.24955503  1
  Ru4+  Ru114  1  0.11535774  0.50251377  0.49944373  1
  Ru4+  Ru115  1  0.11239163  0.49918919  0.75093570  1
  Ru4+  Ru116  1  0.10964042  0.83761617  0.00160149  1
  Ru4+  Ru117  1  0.11189788  0.83100823  0.25247208  1
  Ru4+  Ru118  1  0.10673170  0.82556118  0.50004773  1
  Ru4+  Ru119  1  0.11596981  0.83836596  0.74917140  1
  Ru4+  Ru120  1  0.60976040  0.16103374  0.00148722  1
  Ru4+  Ru121  1  0.61513863  0.16066602  0.25227202  1
  Ru4+  Ru122  1  0.60988570  0.16830735  0.49994651  1
  Ru4+  Ru123  1  0.60844981  0.16852526  0.74596073  1
  Ru4+  Ru124  1  0.61015277  0.50181083  0.00100424  1
  Ru4+  Ru125  1  0.61574763  0.50216747  0.25039351  1
  Ru4+  Ru126  1  0.61059783  0.49974413  0.49956275  1
  Ru4+  Ru127  1  0.61530529  0.50625567  0.74990152  1
  Ru4+  Ru128  1  0.61163425  0.82977160  0.00024870  1
  Ru4+  Ru129  1  0.61984509  0.82996285  0.24730550  1
  Ru4+  Ru130  1  0.62024176  0.83465095  0.50387108  1
  Ru4+  Ru131  1  0.61438751  0.82887967  0.75123736  1
  Ru4+  Ru132  1  0.38541011  0.16684983  -0.00300219  1
  Ru4+  Ru133  1  0.38822373  0.16716360  0.25282445  1
  Ru4+  Ru134  1  0.39261531  0.16798007  0.49901258  1
  Ru4+  Ru135  1  0.39521664  0.15771717  0.74485255  1
  Ru4+  Ru136  1  0.38842915  0.49940507  -0.00197254  1
  Ru4+  Ru137  1  0.38802397  0.50126922  0.24716874  1
  Ru4+  Ru138  1  0.38389836  0.50638585  0.50283848  1
  Ru4+  Ru139  1  0.38812545  0.50029941  0.74780013  1
  Ru4+  Ru140  1  0.39082547  0.83386188  -0.00174424  1
  Ru4+  Ru141  1  0.38207853  0.83388271  0.24718965  1
  Ru4+  Ru142  1  0.38743610  0.83128469  0.50279214  1
  Ru4+  Ru143  1  0.38570527  0.83452012  0.75065898  1
  Ru4+  Ru144  1  0.89087733  0.16833618  0.00038562  1
  Ru4+  Ru145  1  0.88767914  0.16357391  0.24878389  1
  Ru4+  Ru146  1  0.88873376  0.16801972  0.50033343  1
  Ru4+  Ru147  1  0.88910414  0.16575313  0.74710333  1
  Ru4+  Ru148  1  0.89129543  0.50016001  0.00359933  1
  Ru4+  Ru149  1  0.88430249  0.50216040  0.25214679  1
  Ru4+  Ru150  1  0.89075468  0.50046840  0.49708401  1
  Ru4+  Ru151  1  0.88473188  0.50196045  0.74984496  1
  Ru4+  Ru152  1  0.88499691  0.83193635  0.00077716  1
  Ru4+  Ru153  1  0.88917043  0.83114507  0.24858186  1
  Ru4+  Ru154  1  0.88563394  0.83044207  0.50001826  1
  Ru4+  Ru155  1  0.88716362  0.83133267  0.74881296  1
  Ru4+  Ru156  1  0.25023337  0.08354575  0.49532803  1
  Ru4+  Ru157  1  0.74968194  0.89372824  0.74428626  1
  Ru4+  Ru158  1  0.25037251  0.68491633  -0.01375691  1
  Ru4+  Ru159  1  0.25011802  0.96368023  -0.03082351  1
  Ru4+  Ru160  1  0.75115832  0.75331723  0.25498698  1
  Ru4+  Ru161  1  0.75028511  0.02839198  0.02575485  1
  Ru4+  Ru162  1  0.74979147  0.06737972  0.50302165  1
  Ru4+  Ru163  1  0.25046190  0.27306386  0.75711952  1
  Ru4+  Ru164  1  0.25025732  0.41662288  0.75021116  1
  Ru4+  Ru165  1  0.24969750  0.95739555  0.52508759  1
  Ru4+  Ru166  1  0.24903041  0.57677115  0.75128392  1
  Ru4+  Ru167  1  0.74981329  0.43668146  0.74638354  1
  Ru4+  Ru168  1  0.74959381  0.28573769  -0.01897032  1
  Ru4+  Ru169  1  0.25012616  0.69499369  0.48856642  1
  Ru4+  Ru170  1  0.75046811  0.91103529  0.50380636  1
  Ru4+  Ru171  1  0.74981388  0.02159317  0.75130332  1
  Ru4+  Ru172  1  0.75017548  0.24128489  0.25495852  1
  Ru4+  Ru173  1  0.75011898  0.28993662  0.75695037  1
  Ru4+  Ru174  1  0.24975063  0.75535243  0.76558173  1
  Ru4+  Ru175  1  0.74947001  0.90357870  -0.00455276  1
  Ru4+  Ru176  1  0.75031865  0.41505631  0.00338903  1
  Ru4+  Ru177  1  0.24938708  0.09841938  0.00212512  1
  Ru4+  Ru178  1  0.75081842  0.91255329  0.25365527  1
  Ru4+  Ru179  1  0.75056211  0.60376771  0.50686183  1
  O2-  O180  1  0.16667413  0.08158263  -0.00118645  1
  O2-  O181  1  0.16622465  0.08343099  0.25217784  1
  O2-  O182  1  0.16485559  0.08032394  0.49937129  1
  O2-  O183  1  0.16644839  0.07898968  0.74740325  1
  O2-  O184  1  0.16454541  0.41209300  0.00265905  1
  O2-  O185  1  0.16414330  0.41243812  0.24661388  1
  O2-  O186  1  0.16309987  0.41437171  0.50159527  1
  O2-  O187  1  0.16621088  0.41450733  0.75104355  1
  O2-  O188  1  0.16685572  0.74351421  -0.00116724  1
  O2-  O189  1  0.16655553  0.75012484  0.24584952  1
  O2-  O190  1  0.16940150  0.74557447  0.50062000  1
  O2-  O191  1  0.16611026  0.74737672  0.75195607  1
  O2-  O192  1  0.66859975  0.07748878  -0.00271568  1
  O2-  O193  1  0.66894939  0.08025786  0.25136109  1
  O2-  O194  1  0.66519322  0.07846673  0.50055736  1
  O2-  O195  1  0.66407134  0.07648309  0.75019778  1
  O2-  O196  1  0.66552696  0.41380931  -0.00183924  1
  O2-  O197  1  0.66244494  0.41468376  0.24757375  1
  O2-  O198  1  0.66007057  0.41149715  0.49895406  1
  O2-  O199  1  0.66513418  0.41510327  0.74917829  1
  O2-  O200  1  0.66396954  0.74824199  0.00232121  1
  O2-  O201  1  0.66961119  0.74513108  0.24961021  1
  O2-  O202  1  0.66791036  0.74862676  0.50343829  1
  O2-  O203  1  0.66737460  0.74820556  0.74630083  1
  O2-  O204  1  0.33479083  0.25069034  0.00111564  1
  O2-  O205  1  0.33095994  0.24908533  0.24824046  1
  O2-  O206  1  0.33750737  0.25466657  0.50626277  1
  O2-  O207  1  0.33482908  0.25325258  0.75160722  1
  O2-  O208  1  0.33437219  0.58636461  -0.00268990  1
  O2-  O209  1  0.33222914  0.58718219  0.24843152  1
  O2-  O210  1  0.33215458  0.58489898  0.50202019  1
  O2-  O211  1  0.33117648  0.58541756  0.75119725  1
  O2-  O212  1  0.33443291  0.92058248  -0.00091972  1
  O2-  O213  1  0.33125018  0.91711355  0.25498530  1
  O2-  O214  1  0.33593886  0.92256498  0.49911329  1
  O2-  O215  1  0.33585111  0.91647629  0.74845492  1
  O2-  O216  1  0.83281096  0.25450856  0.00018012  1
  O2-  O217  1  0.83328374  0.25185666  0.24696074  1
  O2-  O218  1  0.83939701  0.25472770  0.49984272  1
  O2-  O219  1  0.83378514  0.25502593  0.75035534  1
  O2-  O220  1  0.83642349  0.59074814  0.00301315  1
  O2-  O221  1  0.82930304  0.58421242  0.24524005  1
  O2-  O222  1  0.83227760  0.58574600  0.50047511  1
  O2-  O223  1  0.83287093  0.58602421  0.74708062  1
  O2-  O224  1  0.83435094  0.91997496  0.00101695  1
  O2-  O225  1  0.83198073  0.92014724  0.25104319  1
  O2-  O226  1  0.83341155  0.91727616  0.49754682  1
  O2-  O227  1  0.83148266  0.91970320  0.75164830  1
  O2-  O228  1  0.16505669  0.25234244  0.00335350  1
  O2-  O229  1  0.16504850  0.25033316  0.24550803  1
  O2-  O230  1  0.16376757  0.25505806  0.50211866  1
  O2-  O231  1  0.16602294  0.25370393  0.75131739  1
  O2-  O232  1  0.16532323  0.58862642  -0.00234279  1
  O2-  O233  1  0.16655154  0.58637448  0.24561084  1
  O2-  O234  1  0.16702827  0.58215815  0.50212129  1
  O2-  O235  1  0.16622066  0.58473235  0.75372437  1
  O2-  O236  1  0.16577207  0.92185466  -0.00194120  1
  O2-  O237  1  0.16302512  0.91767444  0.25122872  1
  O2-  O238  1  0.16337316  0.92293811  0.50083458  1
  O2-  O239  1  0.16363731  0.92155528  0.74718076  1
  O2-  O240  1  0.66436128  0.25526885  -0.00149266  1
  O2-  O241  1  0.66598612  0.25234471  0.24961348  1
  O2-  O242  1  0.66017680  0.25533670  0.49919339  1
  O2-  O243  1  0.66680447  0.25617255  0.75105571  1
  O2-  O244  1  0.66467322  0.58957572  0.00326707  1
  O2-  O245  1  0.66791228  0.58614917  0.24600345  1
  O2-  O246  1  0.66866095  0.58845934  0.50250398  1
  O2-  O247  1  0.66712493  0.58452896  0.74467302  1
  O2-  O248  1  0.66566315  0.91930212  -0.00158521  1
  O2-  O249  1  0.66991951  0.91756068  0.25407135  1
  O2-  O250  1  0.66846946  0.92099497  0.50203642  1
  O2-  O251  1  0.66589087  0.92012894  0.74878953  1
  O2-  O252  1  0.32995027  0.08452463  -0.00119117  1
  O2-  O253  1  0.33137562  0.08331122  0.25383518  1
  O2-  O254  1  0.33587443  0.08096881  0.49969004  1
  O2-  O255  1  0.33108788  0.08064224  0.74858049  1
  O2-  O256  1  0.33086809  0.41530882  -0.00224983  1
  O2-  O257  1  0.33658518  0.41463668  0.24797241  1
  O2-  O258  1  0.33568122  0.41748701  0.50412204  1
  O2-  O259  1  0.33649502  0.41542697  0.75132508  1
  O2-  O260  1  0.33094405  0.74343270  -0.00155770  1
  O2-  O261  1  0.33469275  0.74703878  0.24782515  1
  O2-  O262  1  0.33242883  0.74470495  0.50095154  1
  O2-  O263  1  0.33333645  0.74617612  0.75275026  1
  O2-  O264  1  0.83664157  0.07720375  0.00150484  1
  O2-  O265  1  0.83696565  0.07909265  0.25039647  1
  O2-  O266  1  0.83467115  0.07877509  0.49799583  1
  O2-  O267  1  0.83205963  0.07587188  0.75451535  1
  O2-  O268  1  0.83577367  0.41410466  -0.00042059  1
  O2-  O269  1  0.83833985  0.41422059  0.24445214  1
  O2-  O270  1  0.83664229  0.41338356  0.50152878  1
  O2-  O271  1  0.83235655  0.41605251  0.74784185  1
  O2-  O272  1  0.83504339  0.74733797  0.00240708  1
  O2-  O273  1  0.83263972  0.74848232  0.24987594  1
  O2-  O274  1  0.83560485  0.74962191  0.50131690  1
  O2-  O275  1  0.83651619  0.74872251  0.74989135  1
  O2-  O276  1  0.05172104  0.57313930  0.73766446  1
  O2-  O277  1  0.03275668  0.11072684  0.28858093  1
  O2-  O278  1  0.45434391  0.90369182  0.51940495  1
  O2-  O279  1  0.44748018  0.08634836  0.79538144  1
  O2-  O280  1  0.94977049  0.90670579  0.23615904  1
  O2-  O281  1  0.55016438  0.43245488  0.75828532  1
  O2-  O282  1  0.45362420  0.57248359  0.99154629  1
  O2-  O283  1  0.05027171  0.56901844  0.23579235  1
  O2-  O284  1  0.95521438  0.09787020  0.01589343  1
  O2-  O285  1  0.55130255  0.90078134  0.73637858  1
  O2-  O286  1  0.04980915  0.75950118  0.01269644  1
  O2-  O287  1  0.95173027  0.76438781  0.98455630  1
  O2-  O288  1  0.45188816  0.43496300  0.48893019  1
  O2-  O289  1  0.54983786  0.76145687  0.23580366  1
  O2-  O290  1  0.96355836  0.44275603  0.53332690  1
  O2-  O291  1  0.05079195  0.24739901  0.26326676  1
  O2-  O292  1  0.45532895  0.88764686  0.29037195  1
  O2-  O293  1  0.04632188  0.42939728  0.74417749  1
  O2-  O294  1  0.45257312  0.24118313  0.73146635  1
  O2-  O295  1  0.04757212  0.09732104  0.52141865  1
  O2-  O296  1  0.03042823  0.79142332  0.49516942  1
  O2-  O297  1  0.54966111  0.09519213  0.95340806  1
  O2-  O298  1  0.46410646  0.11561581  0.28968682  1
  O2-  O299  1  0.45090242  0.56676008  0.76725223  1
  O2-  O300  1  0.55183024  0.09671668  0.75877249  1
  O2-  O301  1  0.05204306  0.09238725  0.76041895  1
  O2-  O302  1  0.45294024  0.09690022  0.48618672  1
  O2-  O303  1  0.94759851  0.57835483  0.77439450  1
  O2-  O304  1  0.05044741  0.76332711  0.76448091  1
  O2-  O305  1  0.45132231  0.90450376  0.73853892  1
  O2-  O306  1  0.45431209  0.11876326  0.02862827  1
  O2-  O307  1  0.04689848  0.09830952  0.48218156  1
  O2-  O308  1  0.04580848  0.23946266  0.75891242  1
  O2-  O309  1  0.95056723  0.56245432  0.25470935  1
  O2-  O310  1  0.04970367  0.89844519  0.25817267  1
  O2-  O311  1  0.54601144  0.75909384  0.49892289  1
  O2-  O312  1  0.95506965  0.42558279  0.25934047  1
  O2-  O313  1  0.45700370  0.55972467  0.74127236  1
  O2-  O314  1  0.54818247  0.23403572  0.24390894  1
  O2-  O315  1  0.02629075  0.79827932  0.50334231  1
  O2-  O316  1  0.95119469  0.57655773  0.23013785  1
  O2-  O317  1  0.44998139  0.24365897  0.75126342  1
  O2-  O318  1  0.55110474  0.90094209  0.26019345  1
  O2-  O319  1  0.95762167  0.11390865  0.79471943  1
  O2-  O320  1  0.46037501  0.44430129  0.95948846  1
  O2-  O321  1  0.54570267  0.23998281  0.01003141  1
  O2-  O322  1  0.55096979  0.43207247  0.98177603  1
  O2-  O323  1  0.94837416  0.23664936  0.23370942  1
  O2-  O324  1  0.06190033  0.73203900  0.27202398  1
  O2-  O325  1  0.42036229  0.39950977  0.04747117  1
  O2-  O326  1  0.55808116  0.08351524  0.94454029  1
  O2-  O327  1  0.56001683  0.74290001  0.77528335  1
  O2-  O328  1  0.43954186  0.74175841  0.71438026  1
  O2-  O329  1  0.56326654  0.92960115  0.27425858  1
  O2-  O330  1  0.55888271  0.40579967  0.78109818  1
  O2-  O331  1  0.56810875  0.08003561  0.31886154  1
  O2-  O332  1  0.42080281  0.06970210  0.19336598  1
  O2-  O333  1  0.06174383  0.26297570  0.52208822  1
  O2-  O334  1  0.93478642  0.25835527  0.98077359  1
  O2-  O335  1  0.06153859  0.73977735  0.78861497  1
  O2-  O336  1  0.43646030  0.74362704  0.97801247  1
  O2-  O337  1  0.43180143  0.06249194  0.66025531  1
  O2-  O338  1  0.56209589  0.58783021  0.47928023  1
  O2-  O339  1  0.43777408  0.26873370  0.31944943  1
  O2-  O340  1  0.44066469  0.07674896  0.80572155  1
  O2-  O341  1  0.93657148  0.26039002  0.71337924  1
  O2-  O342  1  0.43260015  0.59780447  0.72000379  1
  O2-  O343  1  0.43754856  0.59248872  0.21375028  1
  O2-  O344  1  0.07429114  0.71135170  0.57817290  1
  O2-  O345  1  0.06035166  0.58401352  0.46591322  1
  O2-  O346  1  0.56412393  0.58642434  0.27264409  1
  O2-  O347  1  0.43470528  0.74079126  0.47813700  1
  O2-  O348  1  0.58108952  0.07774126  0.07854614  1
  O2-  O349  1  0.94253666  0.58574493  0.78047313  1
  O2-  O350  1  0.93825317  0.59093734  0.02422971  1
  O2-  O351  1  0.93034881  0.58650207  0.56650099  1
  O2-  O352  1  0.43319635  0.57815829  0.43557000  1
  O2-  O353  1  0.42769586  0.24476808  0.18630693  1
  O2-  O354  1  0.56396615  0.75053956  0.47266013  1
  O2-  O355  1  0.93719856  0.92082955  0.72907473  1
  O2-  O356  1  0.92696939  0.60256623  0.27507076  1
  O2-  O357  1  0.56481895  0.59228686  0.03080958  1
  O2-  O358  1  0.56312324  0.59204875  0.77534160  1
  O2-  O359  1  0.07038393  0.05287069  0.18859794  1
  O2-  O360  1  0.56691457  0.07890309  0.19452311  1
  O2-  O361  1  0.44006868  0.59510873  0.56982419  1
  O2-  O362  1  0.43916975  0.40833541  0.47144645  1
  O2-  O363  1  0.93130693  0.38057587  0.43478697  1
  O2-  O364  1  0.93375721  0.58337797  0.43516607  1
  O2-  O365  1  0.92114095  0.06855135  0.69029736  1
  O2-  O366  1  0.42120015  0.92830812  0.18976571  1
  O2-  O367  1  0.93464020  0.41338620  0.77295460  1
  O2-  O368  1  0.43802131  0.26238124  0.47124784  1
  O2-  O369  1  0.07600037  0.72290260  0.42726634  1
  O2-  O370  1  0.56726023  0.26468755  0.71625875  1
  O2-  O371  1  0.42747506  0.04596595  0.94490685  1
  O2-  O372  1  0.74948755  0.34511806  0.86521132  1
  O2-  O373  1  0.25019766  0.65733021  0.38040415  1
  O2-  O374  1  0.75000158  0.66852083  0.40297334  1
  O2-  O375  1  0.24937768  0.00095798  0.85118059  1
  O2-  O376  1  0.24954369  0.66672206  0.10643310  1
  O2-  O377  1  0.74974157  0.35217511  0.65610661  1
  O2-  O378  1  0.75061724  0.33576218  0.11019614  1
  O2-  O379  1  0.75013795  0.66644696  0.92190175  1
  O2-  O380  1  0.75061042  -0.00898724  0.39742218  1
  O2-  O381  1  0.75006496  0.33103574  0.56384888  1
  O2-  O382  1  0.24933781  0.34370524  0.42002266  1
  O2-  O383  1  0.75019558  -0.00451626  0.60513191  1
  O2-  O384  1  0.25011234  0.64150365  0.58869488  1
  O2-  O385  1  0.25058770  0.00102677  0.39535637  1
  O2-  O386  1  0.24962849  0.66462114  0.85176157  1
  O2-  O387  1  0.25016230  0.33332296  0.88448425  1
  O2-  O388  1  0.75062351  -0.00500245  0.88957108  1
  O2-  O389  1  0.24944476  0.33003124  0.32768791  1
  O2-  O390  1  0.74999780  0.66575519  0.83137296  1
  O2-  O391  1  0.24986205  0.67144627  0.68395214  1
  O2-  O392  1  0.25038228  0.00306853  0.17800591  1
  O2-  O393  1  0.25052544  0.33767178  0.64764200  1
  O2-  O394  1  0.74980180  0.32731776  0.34575803  1
  O2-  O395  1  0.24895505  0.01168869  0.08623760  1
  O2-  O396  1  0.75007211  0.17349124  0.16316592  1
  O2-  O397  1  0.75023831  0.17789600  0.88147906  1
  O2-  O398  1  0.24938515  0.83203152  0.36747351  1
  O2-  O399  1  0.24985169  0.15412303  0.34878573  1
  O2-  O400  1  0.74993033  0.50450382  0.34941831  1
  O2-  O401  1  0.75010471  0.16815904  0.33878325  1
  O2-  O402  1  0.24961494  0.49762922  0.83770653  1
  O2-  O403  1  0.24968252  0.50067297  0.37074727  1
  O2-  O404  1  0.25029039  0.83361329  0.28650254  1
  O2-  O405  1  0.74963395  0.82724317  0.83040291  1
  O2-  O406  1  0.24962103  0.49874108  0.65882912  1
  O2-  O407  1  0.75005582  0.51083781  0.61196164  1
  O2-  O408  1  0.25004239  0.83258497  0.62038211  1
  O2-  O409  1  0.74997604  0.49742229  0.84489332  1
  O2-  O410  1  0.74994020  0.83358501  0.16999723  1
  O2-  O411  1  0.75011999  0.82442819  0.08289543  1
  O2-  O412  1  0.24985043  0.83090703  0.85114896  1
  O2-  O413  1  0.75022910  0.15826306  0.60941984  1
  O2-  O414  1  0.24974109  0.18228575  0.67729525  1
  O2-  O415  1  0.24977168  0.85043546  0.70524420  1
  O2-  O416  1  0.24980682  0.15312590  0.58916011  1
  O2-  O417  1  0.24995679  0.49593426  0.10906234  1
  O2-  O418  1  0.75024536  0.83810923  0.64756050  1
  O2-  O419  1  0.75058006  0.82494935  0.91995693  1
  O2-  O420  1  0.02388931  -0.00668021  0.38117113  1
  O2-  O421  1  0.03464512  -0.00288416  0.62792426  1
  O2-  O422  1  0.53126274  0.33647941  0.37506847  1
  O2-  O423  1  0.97663881  0.67864928  0.13093163  1
  O2-  O424  1  0.46723432  0.33554623  0.12759649  1
  O2-  O425  1  0.46614338  -0.00222914  0.09699038  1
  O2-  O426  1  0.53517687  0.67106141  0.36951388  1
  O2-  O427  1  0.47219391  0.33129460  0.88035212  1
  O2-  O428  1  0.54132870  0.66831651  0.89684750  1
  O2-  O429  1  0.02344357  0.33803482  0.62829962  1
  O2-  O430  1  0.97508946  -0.00249369  0.60743406  1
  O2-  O431  1  0.52782815  -0.00092027  0.62152685  1
  O2-  O432  1  0.04815445  0.33762455  0.88613317  1
  O2-  O433  1  0.97962919  0.68128090  0.37258672  1
  O2-  O434  1  0.52341392  0.67351327  0.12415070  1
  O2-  O435  1  0.52072847  -0.00591761  0.39109338  1
  O2-  O436  1  0.46108440  0.67005751  0.86556485  1
  O2-  O437  1  0.02707808  -0.00505609  0.87434567  1
  O2-  O438  1  0.97484289  0.67471443  0.63322102  1
  O2-  O439  1  0.53585805  -0.03315154  0.13034687  1
  O2-  O440  1  0.45845450  0.67446898  0.35123845  1
  O2-  O441  1  0.96276538  0.33226443  0.87224077  1
  O2-  O442  1  0.54951778  0.34248984  0.12847425  1
  O2-  O443  1  0.52390761  -0.02398901  0.86625135  1
