# generated using pymatgen
data_La7(Ru4O11)2
_symmetry_space_group_name_H-M   'P 1'
_cell_length_a   23.99114869
_cell_length_b   16.83084259
_cell_length_c   15.42775407
_cell_angle_alpha   90.00051332
_cell_angle_beta   90.00005179
_cell_angle_gamma   89.99721956
_symmetry_Int_Tables_number   1
_chemical_formula_structural   La7(Ru4O11)2
_chemical_formula_sum   'La84 Ru96 O264'
_cell_volume   6229.59204927
_cell_formula_units_Z   12
loop_
 _symmetry_equiv_pos_site_id
 _symmetry_equiv_pos_as_xyz
  1  'x, y, z'
loop_
 _atom_type_symbol
 _atom_type_oxidation_number
  La3+  3.0
  Ru4+  4.0
  O2-  -2.0
loop_
 _atom_site_type_symbol
 _atom_site_label
 _atom_site_symmetry_multiplicity
 _atom_site_fract_x
 _atom_site_fract_y
 _atom_site_fract_z
 _atom_site_occupancy
  La3+  La0  1  0.13623530  -0.00191529  0.12531070  1
  La3+  La1  1  0.13826381  -0.00127821  0.37248266  1
  La3+  La2  1  0.14108849  -0.00332802  0.62689913  1
  La3+  La3  1  0.13860842  -0.00035639  0.87338042  1
  La3+  La4  1  0.13492410  0.32899517  0.12690444  1
  La3+  La5  1  0.13505688  0.33365904  0.37139877  1
  La3+  La6  1  0.13593903  0.33235043  0.62784831  1
  La3+  La7  1  0.13858063  0.32937853  0.87184171  1
  La3+  La8  1  0.13907715  0.67029843  0.12143501  1
  La3+  La9  1  0.13697696  0.66884476  0.37661274  1
  La3+  La10  1  0.13892492  0.66964235  0.62776879  1
  La3+  La11  1  0.13987062  0.66879301  0.87398737  1
  La3+  La12  1  0.63716772  -0.00036952  0.12216313  1
  La3+  La13  1  0.63090769  0.00479667  0.37531562  1
  La3+  La14  1  0.63971913  0.00209938  0.62384789  1
  La3+  La15  1  0.63742418  -0.00119706  0.87879718  1
  La3+  La16  1  0.62969445  0.34544222  0.11382836  1
  La3+  La17  1  0.63840765  0.33160196  0.36931812  1
  La3+  La18  1  0.63807712  0.32941180  0.62751126  1
  La3+  La19  1  0.63449374  0.33975174  0.88222565  1
  La3+  La20  1  0.64304938  0.66704051  0.12558145  1
  La3+  La21  1  0.63630278  0.66991571  0.37151955  1
  La3+  La22  1  0.63770808  0.66833462  0.62409727  1
  La3+  La23  1  0.64019631  0.66722909  0.87678872  1
  La3+  La24  1  0.36275718  -0.00232453  0.12257831  1
  La3+  La25  1  0.36186220  -0.00418676  0.37735763  1
  La3+  La26  1  0.36016595  -0.00260516  0.62606529  1
  La3+  La27  1  0.36168836  -0.00399003  0.87203457  1
  La3+  La28  1  0.36212177  0.33075420  0.12565510  1
  La3+  La29  1  0.35787660  0.32985145  0.37288099  1
  La3+  La30  1  0.36213060  0.33359101  0.62469955  1
  La3+  La31  1  0.35835818  0.33299003  0.87152861  1
  La3+  La32  1  0.36129081  0.67201865  0.11875278  1
  La3+  La33  1  0.36163752  0.66975640  0.37599677  1
  La3+  La34  1  0.35872720  0.67011954  0.62814064  1
  La3+  La35  1  0.36113786  0.67167054  0.87534708  1
  La3+  La36  1  0.86212159  -0.00228199  0.12430560  1
  La3+  La37  1  0.86398827  0.00126816  0.37676199  1
  La3+  La38  1  0.86731111  -0.01045853  0.63699859  1
  La3+  La39  1  0.86395250  -0.00877645  0.86921195  1
  La3+  La40  1  0.85759499  0.33467812  0.12281804  1
  La3+  La41  1  0.86097235  0.32878947  0.37582802  1
  La3+  La42  1  0.86478270  0.32921975  0.62381369  1
  La3+  La43  1  0.86005316  0.33062244  0.87677071  1
  La3+  La44  1  0.85161252  0.66939254  0.12401772  1
  La3+  La45  1  0.85506423  0.67371874  0.37435020  1
  La3+  La46  1  0.86153948  0.66573855  0.62686819  1
  La3+  La47  1  0.86146481  0.66710306  0.87588944  1
  La3+  La48  1  -0.00419187  0.50415666  0.11561856  1
  La3+  La49  1  -0.00563640  0.50062459  0.38839275  1
  La3+  La50  1  0.50068849  0.16745214  0.87860356  1
  La3+  La51  1  0.00331362  0.49569925  0.37137713  1
  La3+  La52  1  0.50007449  0.83279989  0.63283027  1
  La3+  La53  1  0.50191752  0.50278442  0.64840655  1
  La3+  La54  1  -0.00084643  0.17703393  0.35908307  1
  La3+  La55  1  0.50250253  0.48989666  0.37062522  1
  La3+  La56  1  0.00210300  0.16988136  0.10807383  1
  La3+  La57  1  0.00462872  0.83904517  0.37717476  1
  La3+  La58  1  0.49800470  0.83793196  0.61127697  1
  La3+  La59  1  -0.00391408  0.83685997  0.87833087  1
  La3+  La60  1  0.50283175  0.16085378  0.37645560  1
  La3+  La61  1  0.49969370  0.16565160  0.61205471  1
  La3+  La62  1  0.50915117  0.50446153  0.62933652  1
  La3+  La63  1  0.50065153  0.49701322  0.88563763  1
  La3+  La64  1  -0.00338525  0.15908279  0.63472265  1
  La3+  La65  1  0.50314861  0.49320580  0.10820602  1
  La3+  La66  1  0.50230817  0.16369644  0.11743237  1
  La3+  La67  1  0.00166363  0.50085748  0.63387154  1
  La3+  La68  1  -0.00054840  0.83637625  0.12031502  1
  La3+  La69  1  -0.00073452  0.16808655  0.61449658  1
  La3+  La70  1  0.50325506  0.50063959  0.38953889  1
  La3+  La71  1  -0.00723792  0.83903748  0.86183657  1
  La3+  La72  1  0.25027498  0.55405608  -0.03572757  1
  La3+  La73  1  0.75019644  0.16750574  0.53338959  1
  La3+  La74  1  0.24919875  0.48768497  0.28937269  1
  La3+  La75  1  0.24953016  0.45378412  0.71554027  1
  La3+  La76  1  0.24951005  0.16854295  0.49654144  1
  La3+  La77  1  0.74983746  0.53387969  0.45063784  1
  La3+  La78  1  0.75039748  0.49651206  -0.01440403  1
  La3+  La79  1  0.74949177  0.54297277  0.79459179  1
  La3+  La80  1  0.75113207  0.84852753  0.50295321  1
  La3+  La81  1  0.25021360  0.16989325  0.75587006  1
  La3+  La82  1  0.74982587  0.49579500  0.24665355  1
  La3+  La83  1  0.74971300  0.20305145  -0.00099381  1
  Ru4+  Ru84  1  -0.00003094  -0.00129085  0.00424759  1
  Ru4+  Ru85  1  -0.00452382  -0.00152434  0.24806131  1
  Ru4+  Ru86  1  -0.00264853  -0.00238178  0.50161035  1
  Ru4+  Ru87  1  0.00241850  -0.00486301  0.74522935  1
  Ru4+  Ru88  1  -0.00798265  0.33543334  -0.00172659  1
  Ru4+  Ru89  1  -0.00384454  0.32927321  0.25073053  1
  Ru4+  Ru90  1  0.00169653  0.33829637  0.49868810  1
  Ru4+  Ru91  1  -0.00485741  0.33988922  0.74806649  1
  Ru4+  Ru92  1  -0.00144012  0.66456634  -0.00547843  1
  Ru4+  Ru93  1  0.00519891  0.66679404  0.24453348  1
  Ru4+  Ru94  1  0.00083282  0.67293815  0.50724920  1
  Ru4+  Ru95  1  -0.00530143  0.65705722  0.74729926  1
  Ru4+  Ru96  1  0.49759691  -0.00569200  -0.00080191  1
  Ru4+  Ru97  1  0.49621308  -0.00563450  0.25068366  1
  Ru4+  Ru98  1  0.49433648  -0.00445800  0.49217739  1
  Ru4+  Ru99  1  0.49960920  0.00132112  0.75398205  1
  Ru4+  Ru100  1  0.49774574  0.33782837  -0.00077250  1
  Ru4+  Ru101  1  0.49207746  0.33052503  0.24527927  1
  Ru4+  Ru102  1  0.49835989  0.33219955  0.50576703  1
  Ru4+  Ru103  1  0.50145087  0.33013047  0.74701083  1
  Ru4+  Ru104  1  0.50279357  0.67227447  0.00435151  1
  Ru4+  Ru105  1  0.50182392  0.66957835  0.24040376  1
  Ru4+  Ru106  1  0.49560760  0.66613431  0.49712684  1
  Ru4+  Ru107  1  0.50028616  0.66388680  0.75434301  1
  Ru4+  Ru108  1  0.11648466  0.16256060  -0.00044863  1
  Ru4+  Ru109  1  0.11671478  0.17339136  0.24774458  1
  Ru4+  Ru110  1  0.11168209  0.16349183  0.49930661  1
  Ru4+  Ru111  1  0.11431794  0.15912292  0.75487776  1
  Ru4+  Ru112  1  0.11173796  0.50119562  -0.00166343  1
  Ru4+  Ru113  1  0.11629664  0.50613556  0.24730694  1
  Ru4+  Ru114  1  0.11566987  0.49830361  0.50282101  1
  Ru4+  Ru115  1  0.10854240  0.50132198  0.75040246  1
  Ru4+  Ru116  1  0.11483359  0.83385780  -0.00104787  1
  Ru4+  Ru117  1  0.11247098  0.83419368  0.24973086  1
  Ru4+  Ru118  1  0.11307781  0.83456971  0.50072060  1
  Ru4+  Ru119  1  0.12164354  0.83607175  0.74885523  1
  Ru4+  Ru120  1  0.61501163  0.17418366  0.00204404  1
  Ru4+  Ru121  1  0.61953948  0.16651680  0.25062255  1
  Ru4+  Ru122  1  0.61542293  0.17312410  0.50208768  1
  Ru4+  Ru123  1  0.61424228  0.17042015  0.74989804  1
  Ru4+  Ru124  1  0.61009175  0.49987008  -0.00180404  1
  Ru4+  Ru125  1  0.61574163  0.50560227  0.24800872  1
  Ru4+  Ru126  1  0.61277816  0.50415931  0.50176546  1
  Ru4+  Ru127  1  0.60954363  0.50105550  0.75435614  1
  Ru4+  Ru128  1  0.61207333  0.83273691  0.00051160  1
  Ru4+  Ru129  1  0.61380705  0.82798581  0.25159690  1
  Ru4+  Ru130  1  0.61420015  0.83797366  0.49864409  1
  Ru4+  Ru131  1  0.61476652  0.83702534  0.75310189  1
  Ru4+  Ru132  1  0.38673946  0.16887864  -0.00049321  1
  Ru4+  Ru133  1  0.38558341  0.16673481  0.24976363  1
  Ru4+  Ru134  1  0.38912693  0.16425814  0.50086097  1
  Ru4+  Ru135  1  0.39133354  0.16628003  0.75007299  1
  Ru4+  Ru136  1  0.39257613  0.50012623  -0.00007360  1
  Ru4+  Ru137  1  0.38831308  0.50187777  0.24456889  1
  Ru4+  Ru138  1  0.38473968  0.49554420  0.49928115  1
  Ru4+  Ru139  1  0.38813748  0.50238983  0.75278221  1
  Ru4+  Ru140  1  0.38568121  0.82944983  -0.00128081  1
  Ru4+  Ru141  1  0.38691178  0.83397889  0.24956703  1
  Ru4+  Ru142  1  0.38706182  0.83225614  0.49391088  1
  Ru4+  Ru143  1  0.38418700  0.83406434  0.75228648  1
  Ru4+  Ru144  1  0.88948877  0.16898665  -0.00087034  1
  Ru4+  Ru145  1  0.88586408  0.16610064  0.25144607  1
  Ru4+  Ru146  1  0.88504334  0.16061396  0.49878331  1
  Ru4+  Ru147  1  0.88560646  0.16817180  0.75243113  1
  Ru4+  Ru148  1  0.88844895  0.49961706  0.00013124  1
  Ru4+  Ru149  1  0.88794968  0.50800178  0.24732058  1
  Ru4+  Ru150  1  0.88816008  0.50122302  0.50345730  1
  Ru4+  Ru151  1  0.88990279  0.49758808  0.74970547  1
  Ru4+  Ru152  1  0.88579888  0.83739592  -0.00138064  1
  Ru4+  Ru153  1  0.88401443  0.83302139  0.24830322  1
  Ru4+  Ru154  1  0.89178389  0.83340743  0.50123919  1
  Ru4+  Ru155  1  0.88725176  0.83422865  0.74771875  1
  Ru4+  Ru156  1  0.25014293  0.76730299  0.24775214  1
  Ru4+  Ru157  1  0.24971400  0.30991008  0.50147726  1
  Ru4+  Ru158  1  0.75023628  0.74712586  0.76512863  1
  Ru4+  Ru159  1  0.25010820  0.02366374  0.48758185  1
  Ru4+  Ru160  1  0.25037678  0.08483991  0.00006927  1
  Ru4+  Ru161  1  0.24986278  0.76592511  0.49793819  1
  Ru4+  Ru162  1  0.74987621  0.09223042  0.75626143  1
  Ru4+  Ru163  1  0.25004147  0.38813787  -0.00233123  1
  Ru4+  Ru164  1  0.75011258  0.98249856  0.48539888  1
  Ru4+  Ru165  1  0.75069005  0.07821579  0.24491261  1
  Ru4+  Ru166  1  0.74971231  0.74810173  -0.00011577  1
  Ru4+  Ru167  1  0.74964925  0.92298426  0.24534147  1
  Ru4+  Ru168  1  0.74936583  0.71193501  0.49197859  1
  Ru4+  Ru169  1  0.75007519  0.39665458  0.51276165  1
  Ru4+  Ru170  1  0.25011415  0.57153552  0.50315574  1
  Ru4+  Ru171  1  0.24992931  0.35746464  0.24445863  1
  Ru4+  Ru172  1  0.25017141  0.24781499  -0.00898999  1
  Ru4+  Ru173  1  0.25015872  0.91287764  0.25151260  1
  Ru4+  Ru174  1  0.24993484  0.08413710  0.24809436  1
  Ru4+  Ru175  1  0.75011610  0.39730024  0.74108101  1
  Ru4+  Ru176  1  0.25060568  0.61205240  0.22828144  1
  Ru4+  Ru177  1  0.74994412  0.25577336  0.23463749  1
  Ru4+  Ru178  1  0.75062468  0.05297909  0.00288776  1
  Ru4+  Ru179  1  0.25010650  0.59864893  0.75943757  1
  O2-  O180  1  0.16956563  0.08213745  -0.00290937  1
  O2-  O181  1  0.16701228  0.08130355  0.25274055  1
  O2-  O182  1  0.16742543  0.07805342  0.49858374  1
  O2-  O183  1  0.17294430  0.08095181  0.75020798  1
  O2-  O184  1  0.16966494  0.41141481  -0.00011653  1
  O2-  O185  1  0.16554216  0.41058390  0.24793587  1
  O2-  O186  1  0.16595554  0.41149454  0.50108959  1
  O2-  O187  1  0.16126500  0.41073902  0.74746064  1
  O2-  O188  1  0.16498824  0.74739112  0.00129087  1
  O2-  O189  1  0.16664029  0.74773959  0.24963881  1
  O2-  O190  1  0.16740742  0.74784744  0.50138052  1
  O2-  O191  1  0.16926788  0.75174107  0.74990705  1
  O2-  O192  1  0.66741677  0.08030450  0.00045068  1
  O2-  O193  1  0.66772130  0.08001505  0.25057613  1
  O2-  O194  1  0.66833756  0.07957525  0.49983573  1
  O2-  O195  1  0.66564201  0.08003372  0.74802428  1
  O2-  O196  1  0.66916567  0.41496739  0.00106595  1
  O2-  O197  1  0.66534191  0.41411952  0.24910954  1
  O2-  O198  1  0.66652910  0.41119978  0.49926202  1
  O2-  O199  1  0.66800914  0.41223089  0.74939934  1
  O2-  O200  1  0.66600588  0.75040477  0.00204487  1
  O2-  O201  1  0.66696028  0.74864480  0.24836357  1
  O2-  O202  1  0.66608889  0.74375977  0.49992316  1
  O2-  O203  1  0.66541067  0.74635334  0.75002517  1
  O2-  O204  1  0.33316030  0.25213302  0.00019909  1
  O2-  O205  1  0.33374763  0.25139500  0.24818521  1
  O2-  O206  1  0.33348527  0.25435871  0.50015353  1
  O2-  O207  1  0.33166605  0.25242911  0.74774614  1
  O2-  O208  1  0.33730253  0.58934896  0.00159779  1
  O2-  O209  1  0.33116689  0.58893152  0.25145097  1
  O2-  O210  1  0.33411490  0.58431580  0.49945852  1
  O2-  O211  1  0.33289783  0.58506888  0.74976815  1
  O2-  O212  1  0.33568569  0.91929776  -0.00002519  1
  O2-  O213  1  0.33397221  0.92020418  0.24969948  1
  O2-  O214  1  0.33385478  0.91858763  0.50013385  1
  O2-  O215  1  0.33205808  0.91958115  0.75210080  1
  O2-  O216  1  0.83477616  0.25309523  0.00088940  1
  O2-  O217  1  0.83296995  0.25106024  0.24759486  1
  O2-  O218  1  0.83412713  0.25124245  0.50319977  1
  O2-  O219  1  0.83496480  0.25277194  0.74768468  1
  O2-  O220  1  0.83540937  0.58497410  -0.00278668  1
  O2-  O221  1  0.82569258  0.58371820  0.25115989  1
  O2-  O222  1  0.83273553  0.58564718  0.50017829  1
  O2-  O223  1  0.83446933  0.58755978  0.75062749  1
  O2-  O224  1  0.83260642  0.91843270  0.00088417  1
  O2-  O225  1  0.83270869  0.91903473  0.25047666  1
  O2-  O226  1  0.83509886  0.92227446  0.50033400  1
  O2-  O227  1  0.83223286  0.91736383  0.75283984  1
  O2-  O228  1  0.16760236  0.25147645  -0.00034430  1
  O2-  O229  1  0.16868850  0.25235480  0.25190329  1
  O2-  O230  1  0.16752040  0.25695942  0.50118170  1
  O2-  O231  1  0.16864206  0.25092479  0.74434160  1
  O2-  O232  1  0.16235169  0.58763019  0.00375859  1
  O2-  O233  1  0.16818591  0.59009578  0.24733937  1
  O2-  O234  1  0.16654205  0.58532172  0.50007686  1
  O2-  O235  1  0.16776214  0.58658892  0.74841858  1
  O2-  O236  1  0.16862091  0.91966439  -0.00169250  1
  O2-  O237  1  0.16885990  0.91934873  0.25116006  1
  O2-  O238  1  0.16335856  0.91928420  0.49849124  1
  O2-  O239  1  0.16659095  0.92243904  0.75294244  1
  O2-  O240  1  0.66514265  0.25605425  0.00018490  1
  O2-  O241  1  0.66660686  0.25354797  0.24615071  1
  O2-  O242  1  0.66680835  0.25431491  0.50194606  1
  O2-  O243  1  0.66591210  0.25098015  0.74796498  1
  O2-  O244  1  0.66288683  0.58386765  -0.00032759  1
  O2-  O245  1  0.67100885  0.58747870  0.25010438  1
  O2-  O246  1  0.66526122  0.58753454  0.50151366  1
  O2-  O247  1  0.66408683  0.58704296  0.74917676  1
  O2-  O248  1  0.66660464  0.91733612  0.00298597  1
  O2-  O249  1  0.66428858  0.92003929  0.24951156  1
  O2-  O250  1  0.66542033  0.92447143  0.49778220  1
  O2-  O251  1  0.66505909  0.92054521  0.74893369  1
  O2-  O252  1  0.33152956  0.07919830  -0.00046765  1
  O2-  O253  1  0.33315664  0.08012291  0.24957923  1
  O2-  O254  1  0.33074017  0.07899341  0.49859926  1
  O2-  O255  1  0.33019778  0.08003408  0.75095976  1
  O2-  O256  1  0.33332956  0.41066565  -0.00055487  1
  O2-  O257  1  0.33581572  0.41228453  0.24881743  1
  O2-  O258  1  0.33124710  0.41334982  0.50163719  1
  O2-  O259  1  0.33792841  0.41069551  0.74840513  1
  O2-  O260  1  0.33181079  0.75057486  -0.00071156  1
  O2-  O261  1  0.33410519  0.74910085  0.25024161  1
  O2-  O262  1  0.33317803  0.74773785  0.50076908  1
  O2-  O263  1  0.33388166  0.74990163  0.75164441  1
  O2-  O264  1  0.83421994  0.08014534  0.00136802  1
  O2-  O265  1  0.83177462  0.08015770  0.24770905  1
  O2-  O266  1  0.82838545  0.08048512  0.49828198  1
  O2-  O267  1  0.83301601  0.07863768  0.75044897  1
  O2-  O268  1  0.83605957  0.41471486  -0.00055900  1
  O2-  O269  1  0.83544971  0.41606155  0.24992494  1
  O2-  O270  1  0.83485925  0.41272382  0.50001757  1
  O2-  O271  1  0.83401503  0.41381307  0.74922720  1
  O2-  O272  1  0.83433197  0.74855061  -0.00275566  1
  O2-  O273  1  0.83203604  0.75023002  0.25154580  1
  O2-  O274  1  0.83497862  0.74663091  0.50328374  1
  O2-  O275  1  0.83455847  0.74876067  0.75127398  1
  O2-  O276  1  0.95333509  0.89492154  0.77320427  1
  O2-  O277  1  0.95371015  0.90345388  0.74665959  1
  O2-  O278  1  0.55141598  0.23488536  0.27025466  1
  O2-  O279  1  0.54740849  0.09797694  0.49019292  1
  O2-  O280  1  0.96895508  0.11033281  0.46346516  1
  O2-  O281  1  0.97143761  0.53458800  0.24127251  1
  O2-  O282  1  0.95191439  0.56468284  0.73505042  1
  O2-  O283  1  0.55092254  0.42581252  0.48802313  1
  O2-  O284  1  0.95461665  0.77757895  0.27879326  1
  O2-  O285  1  0.04125078  0.43700287  0.02422414  1
  O2-  O286  1  0.04398791  0.76768211  0.75476613  1
  O2-  O287  1  0.45047218  0.57563672  0.51251233  1
  O2-  O288  1  0.05093556  0.23135637  0.76672989  1
  O2-  O289  1  0.45132047  0.09607542  0.98654267  1
  O2-  O290  1  0.05286557  0.10362208  0.23434639  1
  O2-  O291  1  0.04909595  0.24373654  0.72987593  1
  O2-  O292  1  0.95342336  0.89788793  0.49227540  1
  O2-  O293  1  0.04807876  0.42507899  0.25267762  1
  O2-  O294  1  0.45711531  0.44333526  0.53906397  1
  O2-  O295  1  0.45027334  0.23574355  0.26624736  1
  O2-  O296  1  0.04263332  0.24044369  0.98618340  1
  O2-  O297  1  0.04803938  0.23287367  0.48971313  1
  O2-  O298  1  0.45552852  0.23336136  0.48870250  1
  O2-  O299  1  0.04987466  0.76555284  0.25653569  1
  O2-  O300  1  0.03786100  0.10146999  0.96532175  1
  O2-  O301  1  0.95647028  0.11615254  0.20601700  1
  O2-  O302  1  0.46127282  0.55880393  0.27930051  1
  O2-  O303  1  0.54362717  0.09111583  0.26278107  1
  O2-  O304  1  0.54854105  0.75574517  0.73882505  1
  O2-  O305  1  0.97123476  0.54758717  0.25231061  1
  O2-  O306  1  0.95669070  0.77150097  0.98631766  1
  O2-  O307  1  0.54396275  0.43639399  0.99478386  1
  O2-  O308  1  0.55212831  0.10151355  0.98919152  1
  O2-  O309  1  0.55074650  0.42623262  0.01870527  1
  O2-  O310  1  0.54478296  0.43178183  0.22735518  1
  O2-  O311  1  0.94851785  0.23875274  0.48777292  1
  O2-  O312  1  0.95153417  0.23170188  0.76186644  1
  O2-  O313  1  0.04831594  0.08876214  0.26948245  1
  O2-  O314  1  0.04778724  0.42715522  0.49975193  1
  O2-  O315  1  0.55050686  0.76183661  0.51380869  1
  O2-  O316  1  0.45501324  0.43367695  0.76521787  1
  O2-  O317  1  0.05504664  0.23649611  0.01993216  1
  O2-  O318  1  0.54891447  0.23618103  0.23112214  1
  O2-  O319  1  0.54647508  0.90031037  0.76047471  1
  O2-  O320  1  0.04742767  0.56939136  0.49063294  1
  O2-  O321  1  0.04089811  0.77926361  0.73115590  1
  O2-  O322  1  0.53827479  0.77764780  0.03971258  1
  O2-  O323  1  0.55059266  0.42271149  0.26417573  1
  O2-  O324  1  0.93038688  0.73530085  0.20344384  1
  O2-  O325  1  0.06302624  0.26188695  0.21337179  1
  O2-  O326  1  0.56431106  0.07434875  0.47646494  1
  O2-  O327  1  0.56037825  0.73900439  0.28095676  1
  O2-  O328  1  0.06394150  0.92706511  0.22671983  1
  O2-  O329  1  0.43530586  0.07706780  0.52856712  1
  O2-  O330  1  0.06561093  0.74352728  0.47430806  1
  O2-  O331  1  0.43881154  0.59403892  0.78571222  1
  O2-  O332  1  0.91837123  0.06501797  0.55020026  1
  O2-  O333  1  0.92454045  0.06415065  0.30185014  1
  O2-  O334  1  0.56217855  0.73801489  0.53707954  1
  O2-  O335  1  0.06290949  0.58806266  0.77512887  1
  O2-  O336  1  0.93531281  0.26261329  0.28163027  1
  O2-  O337  1  0.43657496  0.92621544  0.46867441  1
  O2-  O338  1  0.07580437  0.39906602  0.95867718  1
  O2-  O339  1  0.93514315  0.73357408  0.71551947  1
  O2-  O340  1  0.56069596  0.25949748  0.03784605  1
  O2-  O341  1  0.07268314  0.06904348  0.04133649  1
  O2-  O342  1  0.56677686  0.08177426  0.27494773  1
  O2-  O343  1  0.43554556  0.73524829  0.96567789  1
  O2-  O344  1  0.56467827  0.92341960  0.95544748  1
  O2-  O345  1  0.07138621  0.74166303  0.81052236  1
  O2-  O346  1  0.93138370  0.93910295  0.79058086  1
  O2-  O347  1  0.91399998  0.60354595  0.32488819  1
  O2-  O348  1  0.93497442  0.26084566  0.97604384  1
  O2-  O349  1  0.43486120  0.93018712  0.78249321  1
  O2-  O350  1  0.56353095  0.93045411  0.04990072  1
  O2-  O351  1  0.91355767  0.60081659  0.16921387  1
  O2-  O352  1  0.56944319  0.72111587  0.94240781  1
  O2-  O353  1  0.06564463  0.41142167  0.27679313  1
  O2-  O354  1  0.56320616  0.40768945  0.78367298  1
  O2-  O355  1  0.06233192  0.06519034  0.78238068  1
  O2-  O356  1  0.43716908  0.73660458  0.42854319  1
  O2-  O357  1  0.93735759  0.59654004  0.53547873  1
  O2-  O358  1  0.43497631  0.73837333  0.56856119  1
  O2-  O359  1  0.43056600  0.38290784  0.43196322  1
  O2-  O360  1  0.93718220  0.92527260  0.21562152  1
  O2-  O361  1  0.56816932  0.40119949  0.96716390  1
  O2-  O362  1  0.42008705  0.60761753  0.19366376  1
  O2-  O363  1  0.43628888  0.73975445  0.71929533  1
  O2-  O364  1  0.56397352  0.59535501  0.28388182  1
  O2-  O365  1  0.93700043  0.26491453  0.46748399  1
  O2-  O366  1  0.93829351  0.93098852  0.03032467  1
  O2-  O367  1  0.06310485  0.92124721  0.02458171  1
  O2-  O368  1  0.06886905  0.73940006  0.69043649  1
  O2-  O369  1  0.06914415  0.59584545  0.27252715  1
  O2-  O370  1  0.56087555  0.25937665  0.78462417  1
  O2-  O371  1  0.56479856  0.07248390  0.97649693  1
  O2-  O372  1  0.24989101  0.66551014  0.43901065  1
  O2-  O373  1  0.74971646  0.64614997  0.58771371  1
  O2-  O374  1  0.24958054  0.32709429  0.13040909  1
  O2-  O375  1  0.24993744  0.67655752  0.68150872  1
  O2-  O376  1  0.74935657  0.00496002  0.60635214  1
  O2-  O377  1  0.25025044  0.00075710  0.60594436  1
  O2-  O378  1  0.74987936  0.32267783  0.10781962  1
  O2-  O379  1  0.74904615  0.65603480  0.38305000  1
  O2-  O380  1  0.74962268  0.32279438  0.43018351  1
  O2-  O381  1  0.74862808  0.67310449  0.09217200  1
  O2-  O382  1  0.24955417  0.68275026  0.13314370  1
  O2-  O383  1  0.74959646  0.66481201  0.89776209  1
  O2-  O384  1  0.75002979  0.00145496  0.89876966  1
  O2-  O385  1  0.24994960  0.66757313  0.56779066  1
  O2-  O386  1  0.75038982  0.32410015  0.83133824  1
  O2-  O387  1  0.75041467  0.33770941  0.92234941  1
  O2-  O388  1  0.25030181  0.67120802  0.85614594  1
  O2-  O389  1  0.74975606  0.66165365  0.68406341  1
  O2-  O390  1  0.25012766  0.68126849  0.32442394  1
  O2-  O391  1  0.74956841  0.00016494  0.14696862  1
  O2-  O392  1  0.25005416  0.00230443  0.34658572  1
  O2-  O393  1  0.24977892  0.32662016  0.36394603  1
  O2-  O394  1  0.74982103  0.33873449  0.30979925  1
  O2-  O395  1  0.24983783  0.32958486  0.85967446  1
  O2-  O396  1  0.25008374  0.82981686  0.40388001  1
  O2-  O397  1  0.74980611  0.82412075  0.28986398  1
  O2-  O398  1  0.24996858  0.49983413  0.58819347  1
  O2-  O399  1  0.24987790  0.47631638  0.07404650  1
  O2-  O400  1  0.74997870  0.82407457  0.62571326  1
  O2-  O401  1  0.75020941  0.49235633  0.66935290  1
  O2-  O402  1  0.74998135  0.16394361  0.67056976  1
  O2-  O403  1  0.25052263  0.51242356  0.15593953  1
  O2-  O404  1  0.75006269  0.16146490  0.84362284  1
  O2-  O405  1  0.74997747  0.49239308  0.58119564  1
  O2-  O406  1  0.74971962  0.84481076  0.70665188  1
  O2-  O407  1  0.75024065  0.16682860  0.40084354  1
  O2-  O408  1  0.25026991  0.50255206  0.41711397  1
  O2-  O409  1  0.25011613  0.83103604  0.66747118  1
  O2-  O410  1  0.74971198  0.83077505  0.37591192  1
  O2-  O411  1  0.25014492  0.83862927  0.15517620  1
  O2-  O412  1  0.24988255  0.16884772  0.17041815  1
  O2-  O413  1  0.74988621  0.83330143  0.92575667  1
  O2-  O414  1  0.25003038  0.83890775  0.58454568  1
  O2-  O415  1  0.25019874  0.50112486  0.84306256  1
  O2-  O416  1  0.74955898  0.83543546  0.83726478  1
  O2-  O417  1  0.25004782  0.16698538  0.08028359  1
  O2-  O418  1  0.74998487  0.16821896  0.31330569  1
  O2-  O419  1  0.75027393  0.50142742  0.11535899  1
  O2-  O420  1  0.01791573  0.00367586  0.13049589  1
  O2-  O421  1  0.02763267  0.32888151  0.86428187  1
  O2-  O422  1  0.52115630  0.00893671  0.86653517  1
  O2-  O423  1  0.46921885  0.33243086  0.12267459  1
  O2-  O424  1  0.97149739  0.33501501  0.12373989  1
  O2-  O425  1  0.98011614  -0.01317637  0.37868038  1
  O2-  O426  1  0.96229347  -0.00361920  0.63365062  1
  O2-  O427  1  0.02782555  0.66606898  0.36999746  1
  O2-  O428  1  0.02553537  0.32778676  0.37513604  1
  O2-  O429  1  0.52234738  -0.01067147  0.37221412  1
  O2-  O430  1  0.95559953  0.66684428  0.86752347  1
  O2-  O431  1  0.47106577  0.00194644  0.12785076  1
  O2-  O432  1  0.04746774  0.00203495  0.62029340  1
  O2-  O433  1  0.04297138  0.66587607  0.90354478  1
  O2-  O434  1  0.47814460  0.67241930  0.11698959  1
  O2-  O435  1  0.97231270  0.33596481  0.62460962  1
  O2-  O436  1  0.02484570  0.65581357  0.62268398  1
  O2-  O437  1  0.45358720  0.32811387  0.63284550  1
  O2-  O438  1  0.96898496  0.68103594  0.39460670  1
  O2-  O439  1  0.54507390  0.33205953  0.62403797  1
  O2-  O440  1  0.96856141  0.34318990  0.87027369  1
  O2-  O441  1  0.47172245  0.32901504  0.87686463  1
  O2-  O442  1  0.47576622  -0.00578212  0.62839314  1
  O2-  O443  1  0.98514394  0.66914605  0.11136660  1
