# generated using pymatgen
data_La7(Ru4O11)2
_symmetry_space_group_name_H-M   'P 1'
_cell_length_a   23.98998572
_cell_length_b   16.83024881
_cell_length_c   15.42754393
_cell_angle_alpha   90.00027023
_cell_angle_beta   90.00029869
_cell_angle_gamma   90.00146418
_symmetry_Int_Tables_number   1
_chemical_formula_structural   La7(Ru4O11)2
_chemical_formula_sum   'La84 Ru96 O264'
_cell_volume   6228.98546565
_cell_formula_units_Z   12
loop_
 _symmetry_equiv_pos_site_id
 _symmetry_equiv_pos_as_xyz
  1  'x, y, z'
loop_
 _atom_type_symbol
 _atom_type_oxidation_number
  La3+  3.0
  Ru4+  4.0
  O2-  -2.0
loop_
 _atom_site_type_symbol
 _atom_site_label
 _atom_site_symmetry_multiplicity
 _atom_site_fract_x
 _atom_site_fract_y
 _atom_site_fract_z
 _atom_site_occupancy
  La3+  La0  1  0.13685058  0.00509526  0.11901951  1
  La3+  La1  1  0.13987690  0.00042891  0.37453259  1
  La3+  La2  1  0.13836271  0.00094684  0.62464399  1
  La3+  La3  1  0.13592919  0.00452269  0.88091792  1
  La3+  La4  1  0.14124183  0.33205853  0.12680821  1
  La3+  La5  1  0.14314860  0.33271725  0.37448799  1
  La3+  La6  1  0.14059397  0.33449242  0.62457867  1
  La3+  La7  1  0.13670515  0.33252372  0.87335482  1
  La3+  La8  1  0.13757548  0.66682665  0.12380952  1
  La3+  La9  1  0.14094286  0.66528623  0.37554601  1
  La3+  La10  1  0.13814683  0.66519419  0.62272842  1
  La3+  La11  1  0.13638237  0.66699888  0.87581208  1
  La3+  La12  1  0.63556555  0.00045164  0.12539275  1
  La3+  La13  1  0.63722066  -0.00160992  0.37583519  1
  La3+  La14  1  0.63771327  -0.00236213  0.62671910  1
  La3+  La15  1  0.63674337  0.00003087  0.87255846  1
  La3+  La16  1  0.63798865  0.33337019  0.12506256  1
  La3+  La17  1  0.63743879  0.33235028  0.37509525  1
  La3+  La18  1  0.63579676  0.33061383  0.62510220  1
  La3+  La19  1  0.63540835  0.33104961  0.87372980  1
  La3+  La20  1  0.63697146  0.66714233  0.12638075  1
  La3+  La21  1  0.63710854  0.66847748  0.37538552  1
  La3+  La22  1  0.63565828  0.67108972  0.62531928  1
  La3+  La23  1  0.63721530  0.67091353  0.87434614  1
  La3+  La24  1  0.35767542  0.00106575  0.12606849  1
  La3+  La25  1  0.36138707  0.00011242  0.37411134  1
  La3+  La26  1  0.36101861  0.00033471  0.62383549  1
  La3+  La27  1  0.36067017  -0.00025189  0.87646491  1
  La3+  La28  1  0.36069892  0.33272854  0.12672214  1
  La3+  La29  1  0.35960126  0.33486894  0.37709093  1
  La3+  La30  1  0.35930600  0.33618859  0.62282682  1
  La3+  La31  1  0.36332891  0.33316325  0.87510028  1
  La3+  La32  1  0.36340028  0.66833005  0.12583821  1
  La3+  La33  1  0.36086788  0.66662347  0.37517811  1
  La3+  La34  1  0.36321565  0.66412081  0.62539400  1
  La3+  La35  1  0.36217630  0.66755724  0.87468706  1
  La3+  La36  1  0.86138321  -0.00030722  0.12319796  1
  La3+  La37  1  0.86084790  -0.00172920  0.37827299  1
  La3+  La38  1  0.86125851  -0.00045734  0.62460418  1
  La3+  La39  1  0.86242017  0.00029976  0.87340575  1
  La3+  La40  1  0.86406805  0.33423178  0.12327972  1
  La3+  La41  1  0.86222557  0.33292518  0.37534113  1
  La3+  La42  1  0.86305436  0.33086600  0.62402439  1
  La3+  La43  1  0.86445414  0.33176454  0.87687579  1
  La3+  La44  1  0.86117736  0.66795772  0.12653514  1
  La3+  La45  1  0.86171792  0.66813665  0.37471799  1
  La3+  La46  1  0.86243795  0.66929129  0.62330567  1
  La3+  La47  1  0.86150972  0.67059150  0.87504542  1
  La3+  La48  1  0.00375831  0.16242100  0.12975044  1
  La3+  La49  1  0.00051625  0.49461009  0.11588491  1
  La3+  La50  1  -0.00181799  0.50191192  0.36720089  1
  La3+  La51  1  -0.00174104  0.49850978  0.63431031  1
  La3+  La52  1  -0.00059523  0.49966102  0.38808187  1
  La3+  La53  1  0.00015002  0.83402677  0.63195090  1
  La3+  La54  1  -0.00240922  0.50108615  0.13121032  1
  La3+  La55  1  0.50326638  0.49741217  0.87321663  1
  La3+  La56  1  0.50046895  0.83098300  0.61555236  1
  La3+  La57  1  0.50296734  0.17148412  0.61498280  1
  La3+  La58  1  0.00048471  0.83408454  0.86780698  1
  La3+  La59  1  0.50198000  0.49879764  0.38052140  1
  La3+  La60  1  0.50195718  0.16420278  0.87959503  1
  La3+  La61  1  0.00010941  0.16501119  0.88110546  1
  La3+  La62  1  0.50050137  0.16662788  0.11564918  1
  La3+  La63  1  -0.00073082  0.16746144  0.37107283  1
  La3+  La64  1  0.50094453  0.83265405  0.13639350  1
  La3+  La65  1  0.00083194  0.83157214  0.14138638  1
  La3+  La66  1  -0.00143696  0.49732063  0.88350388  1
  La3+  La67  1  0.50187766  0.16102129  0.63443610  1
  La3+  La68  1  0.00265083  0.16868246  0.63270056  1
  La3+  La69  1  -0.00229559  0.16740658  0.11035604  1
  La3+  La70  1  0.00421470  0.82492159  0.12107509  1
  La3+  La71  1  0.50011369  0.49275911  0.61108182  1
  La3+  La72  1  0.74973251  0.50389896  0.47531607  1
  La3+  La73  1  0.24958126  0.46410657  0.73522847  1
  La3+  La74  1  0.24997007  0.44279373  -0.02377567  1
  La3+  La75  1  0.25038852  0.79620792  0.53465826  1
  La3+  La76  1  0.25015126  0.44587765  0.27937306  1
  La3+  La77  1  0.75007279  0.16790024  0.31081552  1
  La3+  La78  1  0.74939854  0.49433096  0.01547930  1
  La3+  La79  1  0.25030619  0.21242056  0.73580280  1
  La3+  La80  1  0.24969521  0.83601568  0.75441975  1
  La3+  La81  1  0.75052637  0.50092000  0.77970170  1
  La3+  La82  1  0.74997481  0.20693694  0.76244702  1
  La3+  La83  1  0.75004591  0.50116046  0.24888490  1
  Ru4+  Ru84  1  -0.00073792  0.00032628  -0.00587085  1
  Ru4+  Ru85  1  -0.00225016  0.00270838  0.25496727  1
  Ru4+  Ru86  1  0.00366689  -0.00190780  0.49821156  1
  Ru4+  Ru87  1  0.00324067  -0.00571233  0.75115526  1
  Ru4+  Ru88  1  0.00251992  0.32922860  -0.00073801  1
  Ru4+  Ru89  1  -0.00110358  0.33173341  0.25038542  1
  Ru4+  Ru90  1  0.00004102  0.33484907  0.50011993  1
  Ru4+  Ru91  1  0.00021433  0.33445817  0.74985941  1
  Ru4+  Ru92  1  -0.00206561  0.67131755  -0.00428311  1
  Ru4+  Ru93  1  0.00079876  0.66795762  0.24934913  1
  Ru4+  Ru94  1  -0.00145725  0.66790970  0.50003721  1
  Ru4+  Ru95  1  0.00044760  0.66628431  0.75076781  1
  Ru4+  Ru96  1  0.49903480  -0.00057781  0.00102929  1
  Ru4+  Ru97  1  0.49768712  -0.00504238  0.25115914  1
  Ru4+  Ru98  1  0.49906636  0.00034373  0.49415036  1
  Ru4+  Ru99  1  0.49293163  -0.00320280  0.74821062  1
  Ru4+  Ru100  1  0.49876811  0.33471192  0.00062106  1
  Ru4+  Ru101  1  0.49959589  0.33014977  0.24742500  1
  Ru4+  Ru102  1  0.50483635  0.32730772  0.50306397  1
  Ru4+  Ru103  1  0.49810510  0.33887927  0.74851862  1
  Ru4+  Ru104  1  0.50005031  0.66860237  0.00118785  1
  Ru4+  Ru105  1  0.50530845  0.66377156  0.24442313  1
  Ru4+  Ru106  1  0.50082463  0.66909126  0.50385242  1
  Ru4+  Ru107  1  0.50453257  0.67668982  0.75091596  1
  Ru4+  Ru108  1  0.11278617  0.16309096  -0.00160400  1
  Ru4+  Ru109  1  0.11368805  0.16951856  0.24883211  1
  Ru4+  Ru110  1  0.11357832  0.16569105  0.50015569  1
  Ru4+  Ru111  1  0.11100414  0.16803418  0.75252001  1
  Ru4+  Ru112  1  0.11462908  0.49412594  -0.00030356  1
  Ru4+  Ru113  1  0.11259179  0.50138300  0.25082442  1
  Ru4+  Ru114  1  0.11519164  0.49858813  0.50025136  1
  Ru4+  Ru115  1  0.11123926  0.49787523  0.74956278  1
  Ru4+  Ru116  1  0.11341364  0.83293689  -0.00162316  1
  Ru4+  Ru117  1  0.11478031  0.83457536  0.25149830  1
  Ru4+  Ru118  1  0.10910530  0.83295990  0.49828456  1
  Ru4+  Ru119  1  0.11029003  0.83340394  0.74963519  1
  Ru4+  Ru120  1  0.61425889  0.16739977  -0.00028953  1
  Ru4+  Ru121  1  0.61202481  0.17317964  0.25187087  1
  Ru4+  Ru122  1  0.61479425  0.16605406  0.49847916  1
  Ru4+  Ru123  1  0.61905597  0.16646071  0.75137507  1
  Ru4+  Ru124  1  0.60890942  0.50070095  0.00041741  1
  Ru4+  Ru125  1  0.61117038  0.50366111  0.24893571  1
  Ru4+  Ru126  1  0.61113096  0.50037655  0.49896170  1
  Ru4+  Ru127  1  0.61217052  0.49827243  0.75111802  1
  Ru4+  Ru128  1  0.61272052  0.83047094  0.00017156  1
  Ru4+  Ru129  1  0.61040856  0.83333730  0.25226933  1
  Ru4+  Ru130  1  0.61460497  0.83188999  0.49952228  1
  Ru4+  Ru131  1  0.61514512  0.83046142  0.74975153  1
  Ru4+  Ru132  1  0.38610992  0.16416911  -0.00026362  1
  Ru4+  Ru133  1  0.38535554  0.16897505  0.24976981  1
  Ru4+  Ru134  1  0.38649273  0.16594243  0.49876965  1
  Ru4+  Ru135  1  0.38657998  0.16675398  0.75138111  1
  Ru4+  Ru136  1  0.38987389  0.50057135  -0.00040575  1
  Ru4+  Ru137  1  0.38835664  0.49879303  0.25066573  1
  Ru4+  Ru138  1  0.38217068  0.50160396  0.50227751  1
  Ru4+  Ru139  1  0.38297929  0.49445228  0.74966902  1
  Ru4+  Ru140  1  0.38930539  0.83271664  -0.00055162  1
  Ru4+  Ru141  1  0.38525454  0.83849576  0.25015210  1
  Ru4+  Ru142  1  0.38883114  0.83322205  0.50153460  1
  Ru4+  Ru143  1  0.38958230  0.83315061  0.75037167  1
  Ru4+  Ru144  1  0.88709334  0.16850416  0.00010078  1
  Ru4+  Ru145  1  0.88990498  0.16622365  0.24966832  1
  Ru4+  Ru146  1  0.88627744  0.16605083  0.49988304  1
  Ru4+  Ru147  1  0.88651167  0.17165885  0.74930573  1
  Ru4+  Ru148  1  0.88454482  0.50322238  -0.00077464  1
  Ru4+  Ru149  1  0.88863017  0.50000251  0.25100642  1
  Ru4+  Ru150  1  0.89028366  0.50017521  0.50078922  1
  Ru4+  Ru151  1  0.88966544  0.49816034  0.75059673  1
  Ru4+  Ru152  1  0.88476991  0.83143549  -0.00262785  1
  Ru4+  Ru153  1  0.88677238  0.83429290  0.25104814  1
  Ru4+  Ru154  1  0.88656714  0.83101451  0.49990728  1
  Ru4+  Ru155  1  0.88571009  0.83473112  0.75028149  1
  Ru4+  Ru156  1  0.25025666  0.60454551  0.24851481  1
  Ru4+  Ru157  1  0.25020890  0.76293138  0.00232688  1
  Ru4+  Ru158  1  0.75004873  0.36943502  0.49402775  1
  Ru4+  Ru159  1  0.74976482  0.90430895  -0.00401562  1
  Ru4+  Ru160  1  0.25022829  0.93816290  0.50685232  1
  Ru4+  Ru161  1  0.24984426  0.06216689  0.74968479  1
  Ru4+  Ru162  1  0.75004506  0.36988192  0.74452522  1
  Ru4+  Ru163  1  0.74996509  0.36648664  -0.02588400  1
  Ru4+  Ru164  1  0.74995346  0.90251618  0.25024463  1
  Ru4+  Ru165  1  0.74965548  0.62635152  -0.00786542  1
  Ru4+  Ru166  1  0.74994340  0.05687148  0.74970647  1
  Ru4+  Ru167  1  0.25014557  0.59576893  0.00279660  1
  Ru4+  Ru168  1  0.75002050  0.63166133  0.74624216  1
  Ru4+  Ru169  1  0.75019689  0.63337986  0.50411806  1
  Ru4+  Ru170  1  0.24957426  0.60296118  0.73273927  1
  Ru4+  Ru171  1  0.24975709  0.08659244  0.25138307  1
  Ru4+  Ru172  1  0.75003207  0.08849142  -0.00852589  1
  Ru4+  Ru173  1  0.75000222  0.05234591  0.25074888  1
  Ru4+  Ru174  1  0.74991035  0.75686402  0.25163616  1
  Ru4+  Ru175  1  0.75022357  0.28420994  0.25171797  1
  Ru4+  Ru176  1  0.25042502  0.24969027  0.00340411  1
  Ru4+  Ru177  1  0.25004886  0.75146717  0.24714142  1
  Ru4+  Ru178  1  0.25000371  0.24196571  0.49316500  1
  Ru4+  Ru179  1  0.25039939  0.91353315  0.00271174  1
  O2-  O180  1  0.16814536  0.08227556  -0.00019042  1
  O2-  O181  1  0.16859107  0.08045119  0.24906604  1
  O2-  O182  1  0.16555614  0.08135187  0.50113873  1
  O2-  O183  1  0.16590345  0.07932804  0.74994066  1
  O2-  O184  1  0.16366282  0.41004131  0.00101977  1
  O2-  O185  1  0.16189277  0.41248557  0.24766738  1
  O2-  O186  1  0.16477392  0.41452723  0.49902526  1
  O2-  O187  1  0.16444463  0.41223763  0.75197913  1
  O2-  O188  1  0.16824370  0.74819953  0.00066366  1
  O2-  O189  1  0.16622847  0.74728075  0.24827111  1
  O2-  O190  1  0.16803785  0.74679045  0.50214112  1
  O2-  O191  1  0.16827780  0.74669484  0.74890477  1
  O2-  O192  1  0.66792536  0.08079414  -0.00047424  1
  O2-  O193  1  0.66568319  0.07894019  0.25047955  1
  O2-  O194  1  0.66652925  0.08080671  0.50025136  1
  O2-  O195  1  0.66837601  0.07934104  0.74909979  1
  O2-  O196  1  0.66556472  0.41184262  -0.00051827  1
  O2-  O197  1  0.66742151  0.41377744  0.24931160  1
  O2-  O198  1  0.66699761  0.41148697  0.49986761  1
  O2-  O199  1  0.66730737  0.41186837  0.74975683  1
  O2-  O200  1  0.66513168  0.74871425  -0.00025981  1
  O2-  O201  1  0.66672544  0.74773972  0.25019529  1
  O2-  O202  1  0.66868699  0.74784660  0.49932216  1
  O2-  O203  1  0.66769650  0.74887191  0.74975319  1
  O2-  O204  1  0.33289779  0.25351138  -0.00005449  1
  O2-  O205  1  0.33509811  0.25038118  0.24940532  1
  O2-  O206  1  0.33190987  0.25186429  0.49892882  1
  O2-  O207  1  0.33649928  0.25496259  0.75222814  1
  O2-  O208  1  0.33298083  0.58687168  0.00021012  1
  O2-  O209  1  0.33371864  0.58779605  0.24987103  1
  O2-  O210  1  0.33524737  0.58724733  0.49956854  1
  O2-  O211  1  0.33217027  0.58695974  0.74857403  1
  O2-  O212  1  0.33091405  0.91734586  -0.00197522  1
  O2-  O213  1  0.33273532  0.91771497  0.25117082  1
  O2-  O214  1  0.33230367  0.92084265  0.50075299  1
  O2-  O215  1  0.33256407  0.91735418  0.74987411  1
  O2-  O216  1  0.83427635  0.25268898  -0.00067824  1
  O2-  O217  1  0.83290670  0.25557471  0.25074986  1
  O2-  O218  1  0.83394121  0.25276498  0.49859876  1
  O2-  O219  1  0.83601863  0.25574866  0.74979625  1
  O2-  O220  1  0.83403781  0.58850491  -0.00086290  1
  O2-  O221  1  0.83200638  0.58712187  0.25010788  1
  O2-  O222  1  0.83202681  0.58918610  0.49995705  1
  O2-  O223  1  0.83334188  0.58913379  0.75010270  1
  O2-  O224  1  0.83177365  0.91941842  0.00010203  1
  O2-  O225  1  0.83278841  0.91931368  0.25018486  1
  O2-  O226  1  0.83435932  0.91852706  0.50138038  1
  O2-  O227  1  0.83385733  0.91911187  0.74768771  1
  O2-  O228  1  0.16575002  0.25235232  0.00038431  1
  O2-  O229  1  0.16501490  0.25056365  0.24931784  1
  O2-  O230  1  0.16668220  0.25203965  0.49998672  1
  O2-  O231  1  0.16456038  0.25522381  0.75112116  1
  O2-  O232  1  0.16645433  0.58804509  0.00009498  1
  O2-  O233  1  0.16778553  0.58739768  0.24779671  1
  O2-  O234  1  0.16605641  0.58694591  0.50075898  1
  O2-  O235  1  0.16669805  0.58805547  0.74884079  1
  O2-  O236  1  0.16742368  0.91909368  -0.00087988  1
  O2-  O237  1  0.16802132  0.91876004  0.24887055  1
  O2-  O238  1  0.16609255  0.91972150  0.50161292  1
  O2-  O239  1  0.16757272  0.91886221  0.74994864  1
  O2-  O240  1  0.66599384  0.25264464  0.00000921  1
  O2-  O241  1  0.66702759  0.25404003  0.24938454  1
  O2-  O242  1  0.66603630  0.25214822  0.49960654  1
  O2-  O243  1  0.66472508  0.25607343  0.74988379  1
  O2-  O244  1  0.66576400  0.58812569  -0.00007327  1
  O2-  O245  1  0.66758097  0.58503366  0.25210470  1
  O2-  O246  1  0.66701593  0.58871095  0.49954734  1
  O2-  O247  1  0.66783823  0.58866624  0.74895083  1
  O2-  O248  1  0.66818473  0.91924998  -0.00118344  1
  O2-  O249  1  0.66750664  0.91880223  0.24978689  1
  O2-  O250  1  0.66579780  0.91907010  0.50049209  1
  O2-  O251  1  0.66627693  0.91845923  0.74884911  1
  O2-  O252  1  0.33444822  0.08223030  -0.00116113  1
  O2-  O253  1  0.33205474  0.08163443  0.25023936  1
  O2-  O254  1  0.33447587  0.08157868  0.50054938  1
  O2-  O255  1  0.33315704  0.07956882  0.75063983  1
  O2-  O256  1  0.33654773  0.41233724  0.00126551  1
  O2-  O257  1  0.33832368  0.41288226  0.24830550  1
  O2-  O258  1  0.33258911  0.41649671  0.49786290  1
  O2-  O259  1  0.33360307  0.41169458  0.75293001  1
  O2-  O260  1  0.33303692  0.74897549  0.00001871  1
  O2-  O261  1  0.33405892  0.74883616  0.25011248  1
  O2-  O262  1  0.33414252  0.74523489  0.49983029  1
  O2-  O263  1  0.33150790  0.74715451  0.74771999  1
  O2-  O264  1  0.83183135  0.08028942  -0.00069304  1
  O2-  O265  1  0.83467503  0.07829385  0.25054828  1
  O2-  O266  1  0.83397563  0.08114444  0.50046179  1
  O2-  O267  1  0.83232142  0.08013007  0.74887230  1
  O2-  O268  1  0.83325147  0.41188326  -0.00140833  1
  O2-  O269  1  0.83439819  0.41290523  0.25022305  1
  O2-  O270  1  0.83448694  0.41103985  0.49868827  1
  O2-  O271  1  0.83380002  0.41158715  0.74960635  1
  O2-  O272  1  0.83332301  0.74853096  0.00010330  1
  O2-  O273  1  0.83250166  0.74811442  0.25034351  1
  O2-  O274  1  0.83112674  0.74787773  0.50092260  1
  O2-  O275  1  0.83343066  0.74680353  0.74942427  1
  O2-  O276  1  0.54720324  0.76445121  0.26624096  1
  O2-  O277  1  0.04156896  0.10569314  0.99402081  1
  O2-  O278  1  0.04589508  0.90494056  0.48818267  1
  O2-  O279  1  0.44757979  0.76261520  0.23528815  1
  O2-  O280  1  0.54887785  0.09910951  0.23504563  1
  O2-  O281  1  0.45600623  0.56303195  0.74063507  1
  O2-  O282  1  0.95494053  0.09617880  0.76979963  1
  O2-  O283  1  0.53907652  0.44127111  0.22167461  1
  O2-  O284  1  0.54883528  0.76520967  0.01442257  1
  O2-  O285  1  0.45392713  0.76639179  0.74326550  1
  O2-  O286  1  0.45202851  0.23910571  0.73640807  1
  O2-  O287  1  0.04797702  0.90186444  0.98397090  1
  O2-  O288  1  0.95247927  0.09471839  0.73049970  1
  O2-  O289  1  0.54987788  0.23589481  0.73863675  1
  O2-  O290  1  0.95304398  0.23597610  0.73807937  1
  O2-  O291  1  0.45466379  0.76627069  0.75280743  1
  O2-  O292  1  0.45077958  0.76016003  0.98495087  1
  O2-  O293  1  0.02984643  0.78323468  0.49975309  1
  O2-  O294  1  0.04593091  0.42993828  0.26379327  1
  O2-  O295  1  0.04881018  0.56970104  0.02204850  1
  O2-  O296  1  0.05153077  0.09339792  0.01397242  1
  O2-  O297  1  0.45384823  0.57116620  0.51329135  1
  O2-  O298  1  0.04614984  0.09923125  0.26292289  1
  O2-  O299  1  0.46189756  0.89054079  0.28293561  1
  O2-  O300  1  0.95452847  0.76382702  0.76196261  1
  O2-  O301  1  0.46412432  0.22361100  0.46334503  1
  O2-  O302  1  0.45102035  0.23312083  0.98801202  1
  O2-  O303  1  0.04857268  0.56702561  0.98289466  1
  O2-  O304  1  0.04485343  0.10116018  0.51206109  1
  O2-  O305  1  0.54634182  0.56501812  0.01173832  1
  O2-  O306  1  0.95509179  0.23134343  0.51236065  1
  O2-  O307  1  0.45035179  0.09429703  0.51634161  1
  O2-  O308  1  0.46974673  0.88417240  0.00028401  1
  O2-  O309  1  0.04682820  0.23756255  0.98768849  1
  O2-  O310  1  0.45599315  0.56317683  0.74056930  1
  O2-  O311  1  0.04794294  0.56919202  0.73420745  1
  O2-  O312  1  0.54769950  0.09738475  0.48377344  1
  O2-  O313  1  0.55021597  0.09903786  0.76655201  1
  O2-  O314  1  0.45246996  0.09397798  0.76348650  1
  O2-  O315  1  0.95892459  0.89165792  0.03274114  1
  O2-  O316  1  0.95017668  0.57058947  0.01248414  1
  O2-  O317  1  0.54954666  0.90264167  0.73265652  1
  O2-  O318  1  0.95219845  0.56806543  0.76600441  1
  O2-  O319  1  0.04511734  0.56826116  0.51587803  1
  O2-  O320  1  0.54810427  0.23595917  0.99048407  1
  O2-  O321  1  0.54573036  0.55574397  0.71861625  1
  O2-  O322  1  0.95410242  0.42882976  0.01347281  1
  O2-  O323  1  0.45130531  0.43984577  0.46721997  1
  O2-  O324  1  0.93665906  0.73769065  0.96576006  1
  O2-  O325  1  0.43513138  0.40759160  0.97187304  1
  O2-  O326  1  0.06642556  0.92444158  0.30545382  1
  O2-  O327  1  0.56574275  0.40737256  0.52629324  1
  O2-  O328  1  0.57088623  0.40323565  0.29144195  1
  O2-  O329  1  0.56404754  0.07355542  0.97257581  1
  O2-  O330  1  0.44132601  0.40751302  0.46297008  1
  O2-  O331  1  0.06835338  0.92489066  0.19307672  1
  O2-  O332  1  0.56624900  0.93072863  0.28303233  1
  O2-  O333  1  0.92373543  0.93793852  0.94916733  1
  O2-  O334  1  0.56434889  0.74226772  0.52678171  1
  O2-  O335  1  0.42243705  0.95474407  0.04373397  1
  O2-  O336  1  0.42686702  0.27212871  0.55491023  1
  O2-  O337  1  0.06347662  0.59807815  0.28400168  1
  O2-  O338  1  0.93502588  0.93106661  0.18519687  1
  O2-  O339  1  0.56274706  0.07108300  0.22334443  1
  O2-  O340  1  0.56542636  0.07172603  0.77578024  1
  O2-  O341  1  0.56605799  0.73954592  0.72078877  1
  O2-  O342  1  0.56487544  0.59524568  0.22572431  1
  O2-  O343  1  0.43060401  0.39777314  0.56033506  1
  O2-  O344  1  0.93677303  0.59446790  0.53328862  1
  O2-  O345  1  0.93549407  0.41000921  0.02994373  1
  O2-  O346  1  0.43578970  0.40430568  0.71817523  1
  O2-  O347  1  0.56449349  0.40770646  0.77901323  1
  O2-  O348  1  0.56825153  0.92217252  0.95192532  1
  O2-  O349  1  0.57218056  0.59978900  0.79392326  1
  O2-  O350  1  0.42910246  0.94323668  0.20013632  1
  O2-  O351  1  0.43574429  0.59698121  0.06075118  1
  O2-  O352  1  0.93580387  0.92920791  0.31436408  1
  O2-  O353  1  0.06684749  0.06621766  0.96668211  1
  O2-  O354  1  0.43710645  0.92959526  0.53396533  1
  O2-  O355  1  0.06552175  0.25842516  0.77819010  1
  O2-  O356  1  0.43648546  0.59504556  0.93938984  1
  O2-  O357  1  0.56537957  0.25871348  0.27680743  1
  O2-  O358  1  0.93460889  0.07571899  0.97296883  1
  O2-  O359  1  0.93613083  0.73595006  0.43487778  1
  O2-  O360  1  0.93467629  0.74096982  0.22222524  1
  O2-  O361  1  0.56499586  0.25950868  0.72077154  1
  O2-  O362  1  0.43808629  0.73357281  0.21749383  1
  O2-  O363  1  0.56202819  0.93124421  0.71881281  1
  O2-  O364  1  0.56797985  0.92438389  0.04803195  1
  O2-  O365  1  0.93672480  0.74027506  0.56657212  1
  O2-  O366  1  0.93625989  0.59574591  0.28467737  1
  O2-  O367  1  0.93502313  0.25876049  0.22320778  1
  O2-  O368  1  0.42592869  0.61483501  0.79562325  1
  O2-  O369  1  0.56358286  0.59388964  0.46462578  1
  O2-  O370  1  0.07681617  0.71197885  0.45543623  1
  O2-  O371  1  0.06498640  0.73974916  0.97258416  1
  O2-  O372  1  0.24972747  0.33365417  0.57808219  1
  O2-  O373  1  0.24984581  0.33415487  0.67085106  1
  O2-  O374  1  0.75004911  0.34223272  0.35825663  1
  O2-  O375  1  0.74976667  0.35775856  0.16074694  1
  O2-  O376  1  0.74973587  0.31512382  0.08277781  1
  O2-  O377  1  0.25026157  0.67078162  0.34975203  1
  O2-  O378  1  0.25003350  0.00981938  0.41556201  1
  O2-  O379  1  0.74991433  -0.00810709  0.35730292  1
  O2-  O380  1  0.75010225  0.66325423  0.18013103  1
  O2-  O381  1  0.24967887  -0.00308416  0.09219077  1
  O2-  O382  1  0.25009476  0.67642184  0.81813626  1
  O2-  O383  1  0.75021531  0.00064456  0.06292251  1
  O2-  O384  1  0.75008519  -0.01849887  0.16174378  1
  O2-  O385  1  0.24988103  0.33121747  0.35086700  1
  O2-  O386  1  0.75023535  0.67492393  0.88629235  1
  O2-  O387  1  0.24990193  0.67176350  0.10168112  1
  O2-  O388  1  0.75012066  0.68395885  0.09250402  1
  O2-  O389  1  0.24999127  -0.00540114  0.65126528  1
  O2-  O390  1  0.24984167  0.33651145  0.07932880  1
  O2-  O391  1  0.24979085  0.33325644  0.17069718  1
  O2-  O392  1  0.25013942  -0.00203884  0.32448495  1
  O2-  O393  1  0.24988358  -0.00432292  0.84850468  1
  O2-  O394  1  0.25011884  0.67684014  0.92596294  1
  O2-  O395  1  0.75021986  0.32999672  0.60478541  1
  O2-  O396  1  0.75006063  0.17016777  0.06417000  1
  O2-  O397  1  0.75001470  0.83189333  0.34276127  1
  O2-  O398  1  0.74979994  0.50004881  0.89486348  1
  O2-  O399  1  0.74966477  0.49960470  0.66350997  1
  O2-  O400  1  0.74997250  0.15716191  0.63829399  1
  O2-  O401  1  0.24996881  0.83888756  0.31511714  1
  O2-  O402  1  0.24997186  0.51334201  0.16843824  1
  O2-  O403  1  0.74982361  0.49997010  0.59040531  1
  O2-  O404  1  0.25001108  0.15954470  0.61433788  1
  O2-  O405  1  0.25022174  0.51223600  0.08333300  1
  O2-  O406  1  0.24986973  0.15984340  0.94308349  1
  O2-  O407  1  0.75008551  0.15688969  0.88755697  1
  O2-  O408  1  0.25012727  0.15634318  0.85532540  1
  O2-  O409  1  0.75001061  0.49801008  0.36207244  1
  O2-  O410  1  0.75004767  0.50107731  0.13445051  1
  O2-  O411  1  0.24991025  0.50561447  0.60153447  1
  O2-  O412  1  0.75003406  0.83808323  0.08896948  1
  O2-  O413  1  0.74996804  0.16678497  0.55659074  1
  O2-  O414  1  0.24998121  0.51522281  0.86780954  1
  O2-  O415  1  0.75010529  0.16572971  0.15651063  1
  O2-  O416  1  0.24972506  0.51246889  0.38458127  1
  O2-  O417  1  0.24991131  0.17047387  0.41319451  1
  O2-  O418  1  0.24970814  0.83688602  0.40435577  1
  O2-  O419  1  0.75007377  0.83720273  0.84786020  1
  O2-  O420  1  0.95862879  0.33322223  0.87426589  1
  O2-  O421  1  0.52519082  -0.00136038  0.87153441  1
  O2-  O422  1  0.46893864  0.33121415  0.86844303  1
  O2-  O423  1  0.53191590  0.33035380  0.88012343  1
  O2-  O424  1  0.02279408  0.00859915  0.38096923  1
  O2-  O425  1  0.02596438  0.66483421  0.87016513  1
  O2-  O426  1  0.52589387  0.67098586  0.12162519  1
  O2-  O427  1  0.97406092  0.66396806  0.12062300  1
  O2-  O428  1  0.97792072  -0.00156628  0.86650663  1
  O2-  O429  1  0.02716995  -0.00183698  0.62866431  1
  O2-  O430  1  0.52538176  0.67054518  0.88188349  1
  O2-  O431  1  0.52253681  0.00107756  0.12479726  1
  O2-  O432  1  0.47263327  0.33184517  0.12663323  1
  O2-  O433  1  0.52800987  0.33286843  0.38381134  1
  O2-  O434  1  0.02363304  0.00410570  0.12000024  1
  O2-  O435  1  0.47221858  0.00225502  0.37529760  1
  O2-  O436  1  0.95837916  0.33857818  0.62632399  1
  O2-  O437  1  0.52371588  0.33346744  0.62446757  1
  O2-  O438  1  0.52262549  0.66011091  0.62299692  1
  O2-  O439  1  0.46554026  0.00001646  0.87733645  1
  O2-  O440  1  0.04172999  0.33332310  0.62519195  1
  O2-  O441  1  0.46878085  0.33338190  0.36680981  1
  O2-  O442  1  0.03830105  0.34131168  0.87884482  1
  O2-  O443  1  0.97766020  0.33174470  0.12360930  1
