# generated using pymatgen
data_La7(Ru4O11)2
_symmetry_space_group_name_H-M   'P 1'
_cell_length_a   23.98896500
_cell_length_b   16.82838291
_cell_length_c   15.42528793
_cell_angle_alpha   89.99943597
_cell_angle_beta   90.00008071
_cell_angle_gamma   90.00017738
_symmetry_Int_Tables_number   1
_chemical_formula_structural   La7(Ru4O11)2
_chemical_formula_sum   'La84 Ru96 O264'
_cell_volume   6227.11914812
_cell_formula_units_Z   12
loop_
 _symmetry_equiv_pos_site_id
 _symmetry_equiv_pos_as_xyz
  1  'x, y, z'
loop_
 _atom_type_symbol
 _atom_type_oxidation_number
  La3+  3.0
  Ru4+  4.0
  O2-  -2.0
loop_
 _atom_site_type_symbol
 _atom_site_label
 _atom_site_symmetry_multiplicity
 _atom_site_fract_x
 _atom_site_fract_y
 _atom_site_fract_z
 _atom_site_occupancy
  La3+  La0  1  0.13900624  0.00030327  0.12476069  1
  La3+  La1  1  0.13787211  -0.00032982  0.37557897  1
  La3+  La2  1  0.13780725  0.00025479  0.62475050  1
  La3+  La3  1  0.14015670  0.00005015  0.87466318  1
  La3+  La4  1  0.13962524  0.33273436  0.12591435  1
  La3+  La5  1  0.13952282  0.33313169  0.37298602  1
  La3+  La6  1  0.13786200  0.33348112  0.62523845  1
  La3+  La7  1  0.13818904  0.33331068  0.87612827  1
  La3+  La8  1  0.13984745  0.66687488  0.12525103  1
  La3+  La9  1  0.13970515  0.66651654  0.37483089  1
  La3+  La10  1  0.13826415  0.66599414  0.62317208  1
  La3+  La11  1  0.13839399  0.66612833  0.87621361  1
  La3+  La12  1  0.63826521  -0.00000443  0.12422643  1
  La3+  La13  1  0.63842859  -0.00074007  0.37530041  1
  La3+  La14  1  0.63868823  -0.00014126  0.62440801  1
  La3+  La15  1  0.63884453  0.00074129  0.87652215  1
  La3+  La16  1  0.63885083  0.33252764  0.12465460  1
  La3+  La17  1  0.63883525  0.33375483  0.37397047  1
  La3+  La18  1  0.63785221  0.33404045  0.62741638  1
  La3+  La19  1  0.63855546  0.33371712  0.87396265  1
  La3+  La20  1  0.63769928  0.66594151  0.12418808  1
  La3+  La21  1  0.63749645  0.66727534  0.37607638  1
  La3+  La22  1  0.63801639  0.66733194  0.62381995  1
  La3+  La23  1  0.63782712  0.66511370  0.87497900  1
  La3+  La24  1  0.36126983  0.00004856  0.12356926  1
  La3+  La25  1  0.36157008  0.00007159  0.37597557  1
  La3+  La26  1  0.36098004  -0.00011730  0.62643023  1
  La3+  La27  1  0.35991433  0.00023560  0.87509704  1
  La3+  La28  1  0.36025447  0.33308704  0.12482932  1
  La3+  La29  1  0.36065579  0.33376078  0.37309844  1
  La3+  La30  1  0.36209190  0.33391366  0.62507825  1
  La3+  La31  1  0.36306824  0.33372085  0.87664626  1
  La3+  La32  1  0.36022568  0.66585187  0.12530011  1
  La3+  La33  1  0.35962108  0.66642706  0.37472123  1
  La3+  La34  1  0.36245692  0.66628291  0.62544102  1
  La3+  La35  1  0.36193669  0.66573836  0.87521088  1
  La3+  La36  1  0.86202708  0.00050850  0.12463517  1
  La3+  La37  1  0.86212074  -0.00058509  0.37519913  1
  La3+  La38  1  0.86167005  -0.00012354  0.62461190  1
  La3+  La39  1  0.86188060  0.00119608  0.87550476  1
  La3+  La40  1  0.86115745  0.33234386  0.12493428  1
  La3+  La41  1  0.86140573  0.33307802  0.37445897  1
  La3+  La42  1  0.86137427  0.33387445  0.62586966  1
  La3+  La43  1  0.86038084  0.33298052  0.87468635  1
  La3+  La44  1  0.86154164  0.66621944  0.12456781  1
  La3+  La45  1  0.86124982  0.66707621  0.37615856  1
  La3+  La46  1  0.86102602  0.66701290  0.62433789  1
  La3+  La47  1  0.86067265  0.66634729  0.87453456  1
  La3+  La48  1  0.50015787  0.17021189  0.36631369  1
  La3+  La49  1  -0.00274643  0.83228551  0.88488239  1
  La3+  La50  1  0.50021233  0.50053592  0.11169232  1
  La3+  La51  1  0.00123346  0.49868155  0.86493033  1
  La3+  La52  1  0.00045505  0.50058628  0.38635127  1
  La3+  La53  1  0.50005589  0.50045574  0.13433759  1
  La3+  La54  1  -0.00068796  0.16635326  0.88663011  1
  La3+  La55  1  0.00041126  0.16660139  0.61524607  1
  La3+  La56  1  0.00036747  0.50071269  0.63326046  1
  La3+  La57  1  0.50036679  0.83216494  0.88624134  1
  La3+  La58  1  0.49953756  0.16637697  0.11374586  1
  La3+  La59  1  -0.00018046  0.83374934  0.61393063  1
  La3+  La60  1  0.00115279  0.17143136  0.86730157  1
  La3+  La61  1  0.50039771  0.49867627  0.63630852  1
  La3+  La62  1  0.50096184  0.83036990  0.13242424  1
  La3+  La63  1  0.49986717  0.49958657  0.38587629  1
  La3+  La64  1  0.49793605  0.83574990  0.86444416  1
  La3+  La65  1  -0.00194911  0.83410418  0.86465347  1
  La3+  La66  1  0.50119434  0.83315904  0.36905849  1
  La3+  La67  1  0.00014870  0.16604509  0.38436207  1
  La3+  La68  1  0.00030189  0.49944368  0.88720137  1
  La3+  La69  1  0.50014007  0.49971471  0.86518461  1
  La3+  La70  1  0.49989185  0.16554687  0.38866226  1
  La3+  La71  1  -0.00055679  0.49796773  0.13288312  1
  La3+  La72  1  0.74990589  0.52359203  -0.00081275  1
  La3+  La73  1  0.25008825  0.13703915  0.72776440  1
  La3+  La74  1  0.24999894  0.83187426  0.48200389  1
  La3+  La75  1  0.25006579  0.53016019  0.49851805  1
  La3+  La76  1  0.74963238  0.83226412  0.01546289  1
  La3+  La77  1  0.74996670  0.19526868  0.24566767  1
  La3+  La78  1  0.75005133  0.13553431  0.49297916  1
  La3+  La79  1  0.25014356  0.86179143  0.75273086  1
  La3+  La80  1  0.25005647  0.14190622  0.49801437  1
  La3+  La81  1  0.74993647  0.85983823  0.25272005  1
  La3+  La82  1  0.75000112  0.80667461  0.71936872  1
  La3+  La83  1  0.74987539  0.53105443  0.50834010  1
  Ru4+  Ru84  1  -0.00236632  0.00060179  0.00054193  1
  Ru4+  Ru85  1  -0.00011264  0.00082404  0.25139232  1
  Ru4+  Ru86  1  0.00055836  -0.00129981  0.49854272  1
  Ru4+  Ru87  1  -0.00090008  -0.00474767  0.74918961  1
  Ru4+  Ru88  1  -0.00002950  0.33350071  0.00064112  1
  Ru4+  Ru89  1  0.00035214  0.33291242  0.24974899  1
  Ru4+  Ru90  1  -0.00020075  0.33295738  0.49841381  1
  Ru4+  Ru91  1  -0.00001633  0.33223224  0.75052894  1
  Ru4+  Ru92  1  0.00095164  0.66843116  0.00014159  1
  Ru4+  Ru93  1  -0.00000352  0.66962569  0.25148332  1
  Ru4+  Ru94  1  0.00125836  0.66893300  0.49841373  1
  Ru4+  Ru95  1  0.00233550  0.66518075  0.75038439  1
  Ru4+  Ru96  1  0.50031672  0.00100589  0.00142963  1
  Ru4+  Ru97  1  0.49812584  0.00232606  0.25008152  1
  Ru4+  Ru98  1  0.50068549  -0.00093254  0.49859402  1
  Ru4+  Ru99  1  0.49835669  -0.00036108  0.74935951  1
  Ru4+  Ru100  1  0.50110538  0.32906552  -0.00233475  1
  Ru4+  Ru101  1  0.50015848  0.33462170  0.24827850  1
  Ru4+  Ru102  1  0.49863840  0.33535540  0.50247392  1
  Ru4+  Ru103  1  0.49976667  0.33090525  0.75074067  1
  Ru4+  Ru104  1  0.49877557  0.66921906  0.00039886  1
  Ru4+  Ru105  1  0.50236935  0.66550810  0.25142306  1
  Ru4+  Ru106  1  0.50069971  0.66892860  0.49937697  1
  Ru4+  Ru107  1  0.49846606  0.66523312  0.74849584  1
  Ru4+  Ru108  1  0.11485459  0.16852431  0.00024644  1
  Ru4+  Ru109  1  0.11323858  0.16800219  0.24933951  1
  Ru4+  Ru110  1  0.11223831  0.16632468  0.49999855  1
  Ru4+  Ru111  1  0.11400145  0.16875733  0.74917282  1
  Ru4+  Ru112  1  0.11319000  0.50059566  0.00008162  1
  Ru4+  Ru113  1  0.11479449  0.49921776  0.24973902  1
  Ru4+  Ru114  1  0.11266998  0.50013736  0.50014691  1
  Ru4+  Ru115  1  0.11269087  0.50068250  0.74977049  1
  Ru4+  Ru116  1  0.11478938  0.83312903  0.00083970  1
  Ru4+  Ru117  1  0.11247649  0.83161472  0.24964757  1
  Ru4+  Ru118  1  0.11218166  0.83427524  0.49977742  1
  Ru4+  Ru119  1  0.11272791  0.83398028  0.74971533  1
  Ru4+  Ru120  1  0.61361734  0.16674555  -0.00014771  1
  Ru4+  Ru121  1  0.61354354  0.16833613  0.24941721  1
  Ru4+  Ru122  1  0.61304375  0.16472547  0.50018329  1
  Ru4+  Ru123  1  0.61289846  0.16878903  0.74958152  1
  Ru4+  Ru124  1  0.61340719  0.49808662  -0.00004571  1
  Ru4+  Ru125  1  0.61185231  0.49986800  0.24993895  1
  Ru4+  Ru126  1  0.61190812  0.50042591  0.49987230  1
  Ru4+  Ru127  1  0.61455365  0.50067348  0.74972079  1
  Ru4+  Ru128  1  0.61158668  0.83347616  0.00002439  1
  Ru4+  Ru129  1  0.61256339  0.82970286  0.25047012  1
  Ru4+  Ru130  1  0.61207998  0.83055152  0.50106938  1
  Ru4+  Ru131  1  0.61507381  0.83748663  0.74895322  1
  Ru4+  Ru132  1  0.38642147  0.16746235  -0.00012966  1
  Ru4+  Ru133  1  0.38584830  0.16790260  0.24958786  1
  Ru4+  Ru134  1  0.38722874  0.16734179  0.50099579  1
  Ru4+  Ru135  1  0.38774682  0.16429464  0.74915336  1
  Ru4+  Ru136  1  0.38530386  0.50268969  0.00077640  1
  Ru4+  Ru137  1  0.38596709  0.49944289  0.25028418  1
  Ru4+  Ru138  1  0.38781264  0.50024102  0.49959618  1
  Ru4+  Ru139  1  0.38614046  0.49778311  0.75034750  1
  Ru4+  Ru140  1  0.38633760  0.83369207  0.00028350  1
  Ru4+  Ru141  1  0.38464125  0.83235439  0.24978935  1
  Ru4+  Ru142  1  0.38748158  0.83206425  0.50020095  1
  Ru4+  Ru143  1  0.38792800  0.83367348  0.74935820  1
  Ru4+  Ru144  1  0.88584983  0.16685837  -0.00013239  1
  Ru4+  Ru145  1  0.88848984  0.16716547  0.24990798  1
  Ru4+  Ru146  1  0.88847469  0.16622955  0.50004922  1
  Ru4+  Ru147  1  0.88617998  0.16838021  0.74940785  1
  Ru4+  Ru148  1  0.88713591  0.49839637  0.00020018  1
  Ru4+  Ru149  1  0.88772846  0.49960688  0.24986961  1
  Ru4+  Ru150  1  0.88711146  0.49869005  0.50014246  1
  Ru4+  Ru151  1  0.88570799  0.49881273  0.74970465  1
  Ru4+  Ru152  1  0.88828639  0.83343530  0.00013682  1
  Ru4+  Ru153  1  0.88825350  0.83460815  0.25047900  1
  Ru4+  Ru154  1  0.88709950  0.83257270  0.49986411  1
  Ru4+  Ru155  1  0.88682571  0.83438648  0.74917422  1
  Ru4+  Ru156  1  0.25007262  0.73571402  0.74582791  1
  Ru4+  Ru157  1  0.75010636  0.08390519  0.75451615  1
  Ru4+  Ru158  1  0.74997307  0.57969384  0.75282812  1
  Ru4+  Ru159  1  0.75009000  0.73239995  0.24384213  1
  Ru4+  Ru160  1  0.75002324  0.25188453  0.75500132  1
  Ru4+  Ru161  1  0.75003709  0.93897535  -0.00863372  1
  Ru4+  Ru162  1  0.75010904  0.07245610  0.24954497  1
  Ru4+  Ru163  1  0.24996676  0.91580194  0.24951958  1
  Ru4+  Ru164  1  0.24999713  0.42315051  0.74903716  1
  Ru4+  Ru165  1  0.25017140  0.39925554  0.49728258  1
  Ru4+  Ru166  1  0.74998437  0.93759739  0.75034798  1
  Ru4+  Ru167  1  0.24982920  0.08896904  0.24861468  1
  Ru4+  Ru168  1  0.75002016  0.72457674  -0.00521771  1
  Ru4+  Ru169  1  0.25013781  0.75807951  0.00196705  1
  Ru4+  Ru170  1  0.25003804  0.57725993  0.74882844  1
  Ru4+  Ru171  1  0.24994460  0.26910019  0.49811395  1
  Ru4+  Ru172  1  0.74985212  0.58201897  0.24560373  1
  Ru4+  Ru173  1  0.74987912  0.39864871  0.49968354  1
  Ru4+  Ru174  1  0.75005194  0.39547715  0.00023166  1
  Ru4+  Ru175  1  0.74975842  0.41567424  0.24707140  1
  Ru4+  Ru176  1  0.25006013  0.26340688  0.74802712  1
  Ru4+  Ru177  1  0.75008472  0.26825213  0.50075261  1
  Ru4+  Ru178  1  0.24992899  0.41846972  0.00343741  1
  Ru4+  Ru179  1  0.75003822  0.91239990  0.50192470  1
  O2-  O180  1  0.16801123  0.08087901  0.00040408  1
  O2-  O181  1  0.16800066  0.08055129  0.25036723  1
  O2-  O182  1  0.16816196  0.08013342  0.50030082  1
  O2-  O183  1  0.16697887  0.08044764  0.74964184  1
  O2-  O184  1  0.16806407  0.41425677  -0.00030113  1
  O2-  O185  1  0.16674061  0.41506932  0.24997709  1
  O2-  O186  1  0.16713481  0.41356744  0.49996220  1
  O2-  O187  1  0.16811812  0.41375053  0.74994071  1
  O2-  O188  1  0.16720230  0.74762183  -0.00044201  1
  O2-  O189  1  0.16740351  0.74835016  0.25042332  1
  O2-  O190  1  0.16714192  0.74747714  0.50057681  1
  O2-  O191  1  0.16700358  0.74659585  0.74989493  1
  O2-  O192  1  0.66697514  0.08094157  -0.00011042  1
  O2-  O193  1  0.66730336  0.07972620  0.25040894  1
  O2-  O194  1  0.66673150  0.07998389  0.50020636  1
  O2-  O195  1  0.66852635  0.08095905  0.74994311  1
  O2-  O196  1  0.66784012  0.41365984  0.00036187  1
  O2-  O197  1  0.66809483  0.41388800  0.25000666  1
  O2-  O198  1  0.66743738  0.41324808  0.49982287  1
  O2-  O199  1  0.66685166  0.41526624  0.74945523  1
  O2-  O200  1  0.66695950  0.74598058  -0.00016057  1
  O2-  O201  1  0.66746454  0.74672277  0.24964379  1
  O2-  O202  1  0.66806624  0.74790105  0.49983316  1
  O2-  O203  1  0.66753085  0.74664452  0.75009369  1
  O2-  O204  1  0.33233135  0.25168278  0.00037686  1
  O2-  O205  1  0.33331408  0.25153361  0.24941779  1
  O2-  O206  1  0.33286493  0.25299748  0.50014973  1
  O2-  O207  1  0.33286804  0.25332352  0.75009371  1
  O2-  O208  1  0.33230108  0.58517220  -0.00053004  1
  O2-  O209  1  0.33244224  0.58528093  0.25053582  1
  O2-  O210  1  0.33387231  0.58646929  0.50067478  1
  O2-  O211  1  0.33212179  0.58571049  0.74989317  1
  O2-  O212  1  0.33294408  0.91924532  0.00026503  1
  O2-  O213  1  0.33144894  0.91916866  0.25007085  1
  O2-  O214  1  0.33146172  0.91943221  0.49933687  1
  O2-  O215  1  0.33294463  0.91912869  0.74977206  1
  O2-  O216  1  0.83252012  0.25238278  0.00030046  1
  O2-  O217  1  0.83339236  0.25273456  0.25040361  1
  O2-  O218  1  0.83257819  0.25358119  0.49981113  1
  O2-  O219  1  0.83244951  0.25185432  0.74998300  1
  O2-  O220  1  0.83192680  0.58671318  0.00022648  1
  O2-  O221  1  0.83177498  0.58637736  0.24976393  1
  O2-  O222  1  0.83299241  0.58659906  0.50012045  1
  O2-  O223  1  0.83194059  0.58599100  0.74951621  1
  O2-  O224  1  0.83324134  0.92077555  -0.00027120  1
  O2-  O225  1  0.83208361  0.91976300  0.24963935  1
  O2-  O226  1  0.83211204  0.91933388  0.49987486  1
  O2-  O227  1  0.83240875  0.91993668  0.75023740  1
  O2-  O228  1  0.16674077  0.25153902  -0.00012018  1
  O2-  O229  1  0.16692938  0.25142968  0.25003633  1
  O2-  O230  1  0.16737097  0.25312605  0.50005732  1
  O2-  O231  1  0.16732426  0.25307650  0.75003887  1
  O2-  O232  1  0.16737671  0.58546691  -0.00025819  1
  O2-  O233  1  0.16774191  0.58509000  0.25063362  1
  O2-  O234  1  0.16715463  0.58629919  0.50038425  1
  O2-  O235  1  0.16791416  0.58586543  0.75011183  1
  O2-  O236  1  0.16752882  0.91883459  -0.00011596  1
  O2-  O237  1  0.16826267  0.91896639  0.25030120  1
  O2-  O238  1  0.16849274  0.91994225  0.50025118  1
  O2-  O239  1  0.16695990  0.91939671  0.74905658  1
  O2-  O240  1  0.66694310  0.25222928  0.00025852  1
  O2-  O241  1  0.66681415  0.25279004  0.25025789  1
  O2-  O242  1  0.66785040  0.25356309  0.50011168  1
  O2-  O243  1  0.66805508  0.25179865  0.74985580  1
  O2-  O244  1  0.66747004  0.58624126  0.00024064  1
  O2-  O245  1  0.66829214  0.58643729  0.24972515  1
  O2-  O246  1  0.66668889  0.58665388  0.50011086  1
  O2-  O247  1  0.66811715  0.58557058  0.74926418  1
  O2-  O248  1  0.66697586  0.92049094  -0.00012555  1
  O2-  O249  1  0.66732506  0.91972185  0.24986059  1
  O2-  O250  1  0.66763234  0.91915281  0.49964167  1
  O2-  O251  1  0.66738676  0.91994834  0.74993242  1
  O2-  O252  1  0.33295988  0.08112327  0.00041405  1
  O2-  O253  1  0.33219552  0.08034191  0.24996500  1
  O2-  O254  1  0.33144478  0.08059712  0.49959046  1
  O2-  O255  1  0.33272009  0.08146668  0.75005422  1
  O2-  O256  1  0.33234941  0.41440618  -0.00024241  1
  O2-  O257  1  0.33256617  0.41497445  0.24953197  1
  O2-  O258  1  0.33217860  0.41326740  0.50037257  1
  O2-  O259  1  0.33187719  0.41461446  0.74966421  1
  O2-  O260  1  0.33257097  0.74736211  -0.00050001  1
  O2-  O261  1  0.33245488  0.74852284  0.25064203  1
  O2-  O262  1  0.33282680  0.74784421  0.50018402  1
  O2-  O263  1  0.33256932  0.74661782  0.75025655  1
  O2-  O264  1  0.83326506  0.08066105  -0.00015605  1
  O2-  O265  1  0.83304345  0.07961214  0.24993830  1
  O2-  O266  1  0.83310584  0.07962442  0.50029441  1
  O2-  O267  1  0.83141891  0.08032062  0.75030867  1
  O2-  O268  1  0.83269411  0.41353404  0.00012718  1
  O2-  O269  1  0.83233469  0.41433192  0.25027677  1
  O2-  O270  1  0.83230537  0.41359954  0.49976433  1
  O2-  O271  1  0.83320910  0.41503334  0.74973089  1
  O2-  O272  1  0.83308191  0.74595987  -0.00015616  1
  O2-  O273  1  0.83311207  0.74650533  0.24963970  1
  O2-  O274  1  0.83286057  0.74788371  0.50019473  1
  O2-  O275  1  0.83259509  0.74683990  0.75000823  1
  O2-  O276  1  0.45798803  0.77044877  0.27412870  1
  O2-  O277  1  0.03763701  0.55494761  0.24619948  1
  O2-  O278  1  0.45541369  0.90175645  0.73568163  1
  O2-  O279  1  0.95246607  0.56802868  0.23645986  1
  O2-  O280  1  0.55339510  0.75476588  0.27113650  1
  O2-  O281  1  0.54467454  0.09782217  0.98573425  1
  O2-  O282  1  0.45540876  0.90062189  0.01490236  1
  O2-  O283  1  0.46508871  0.11161549  0.50970929  1
  O2-  O284  1  0.55407906  0.75126095  0.78111673  1
  O2-  O285  1  0.54271450  0.10268868  0.27314000  1
  O2-  O286  1  0.04510535  0.43174635  0.51402554  1
  O2-  O287  1  0.95581444  0.10462323  0.77405925  1
  O2-  O288  1  0.05109001  0.57625240  0.51882230  1
  O2-  O289  1  0.95481364  0.09897384  0.23561571  1
  O2-  O290  1  0.45279408  0.56973270  0.73391744  1
  O2-  O291  1  0.95961685  0.56000278  0.02680780  1
  O2-  O292  1  0.04556485  0.76355028  0.98685652  1
  O2-  O293  1  0.44848395  0.75421995  0.72931511  1
  O2-  O294  1  0.04587377  0.09907449  0.72974409  1
  O2-  O295  1  0.04169325  0.89687937  0.97735436  1
  O2-  O296  1  0.54733186  0.43087990  0.76583484  1
  O2-  O297  1  0.04495552  0.42952750  0.23592464  1
  O2-  O298  1  0.95754403  0.56091319  0.52414573  1
  O2-  O299  1  0.53055042  0.12013663  0.76505635  1
  O2-  O300  1  0.95362792  0.43049939  0.73647117  1
  O2-  O301  1  0.95447323  0.56967374  0.76402602  1
  O2-  O302  1  0.55393078  0.75411280  0.52237277  1
  O2-  O303  1  0.04552456  0.90384807  0.76279946  1
  O2-  O304  1  0.54520579  0.23580253  0.01448452  1
  O2-  O305  1  0.54649804  0.90236269  0.26990133  1
  O2-  O306  1  0.45307817  0.23593724  0.26311515  1
  O2-  O307  1  0.04519316  0.76611291  0.23555897  1
  O2-  O308  1  0.45311154  0.23616408  0.51534532  1
  O2-  O309  1  0.45629098  0.89606979  0.22513330  1
  O2-  O310  1  0.46510910  0.88802943  0.50787401  1
  O2-  O311  1  0.54599261  0.23506335  0.23414015  1
  O2-  O312  1  0.04543569  0.76419233  0.76261502  1
  O2-  O313  1  0.54218618  0.22737991  0.52569215  1
  O2-  O314  1  0.04692991  0.09720492  0.76882191  1
  O2-  O315  1  0.54709084  0.90159452  0.23054418  1
  O2-  O316  1  0.04688829  0.43242435  0.73581807  1
  O2-  O317  1  0.45332871  0.09738671  0.26297363  1
  O2-  O318  1  0.45343899  0.76312294  0.48402080  1
  O2-  O319  1  0.04045391  0.10542592  0.02682464  1
  O2-  O320  1  0.45329666  0.43184656  0.98415059  1
  O2-  O321  1  0.95492667  0.90127059  0.48566984  1
  O2-  O322  1  0.54646953  0.56958419  0.98351197  1
  O2-  O323  1  0.45886639  0.22826969  0.77376162  1
  O2-  O324  1  0.06380950  0.26414896  0.46720769  1
  O2-  O325  1  0.07487710  0.61119101  0.21234525  1
  O2-  O326  1  0.43063969  0.93691423  0.29070413  1
  O2-  O327  1  0.56415106  0.40210498  0.96816259  1
  O2-  O328  1  0.43155526  0.72987276  0.20672058  1
  O2-  O329  1  0.43644762  0.59639487  0.21728580  1
  O2-  O330  1  0.43398028  0.07032894  0.71915834  1
  O2-  O331  1  0.57592598  0.05561757  0.80152569  1
  O2-  O332  1  0.05973661  0.58919505  0.52655425  1
  O2-  O333  1  0.43498628  0.40435989  0.78013854  1
  O2-  O334  1  0.56156991  0.40441607  0.78123726  1
  O2-  O335  1  0.93167652  0.60445701  0.45686546  1
  O2-  O336  1  0.93468156  0.40352074  0.53003572  1
  O2-  O337  1  0.56856838  0.06120560  0.20597753  1
  O2-  O338  1  0.43235724  0.26948966  0.70826249  1
  O2-  O339  1  0.43569603  0.40412939  0.27993010  1
  O2-  O340  1  0.93618536  0.92986369  0.71732630  1
  O2-  O341  1  0.06466911  0.40310970  0.97018789  1
  O2-  O342  1  0.44231599  0.74593151  0.72416199  1
  O2-  O343  1  0.06397681  0.26448526  0.21815799  1
  O2-  O344  1  0.55648112  0.74649620  0.52542438  1
  O2-  O345  1  0.43547443  0.40437782  0.47050029  1
  O2-  O346  1  0.93123778  0.60629673  0.95525348  1
  O2-  O347  1  0.56992615  0.26928934  0.46083707  1
  O2-  O348  1  0.93503609  0.73481938  0.79881092  1
  O2-  O349  1  0.42537199  0.05903988  0.53781982  1
  O2-  O350  1  0.06514897  0.92877090  0.47052637  1
  O2-  O351  1  0.06360754  0.06994725  0.53301054  1
  O2-  O352  1  0.43514584  0.26296796  0.97068391  1
  O2-  O353  1  0.56612697  0.73088352  0.70266593  1
  O2-  O354  1  0.93606480  0.26499215  0.96760393  1
  O2-  O355  1  0.43785950  0.59513247  0.71884056  1
  O2-  O356  1  0.56198217  0.59513461  0.96936301  1
  O2-  O357  1  0.56925311  0.06635104  0.69757768  1
  O2-  O358  1  0.06498525  0.26313061  0.71945746  1
  O2-  O359  1  0.42573336  0.94021265  0.53782643  1
  O2-  O360  1  0.56416865  0.59743683  0.78232150  1
  O2-  O361  1  0.93158044  0.06242711  0.70577390  1
  O2-  O362  1  0.55764806  0.74872958  0.27374589  1
  O2-  O363  1  0.43593608  0.59787392  0.03293654  1
  O2-  O364  1  0.43704910  0.40659349  0.97152856  1
  O2-  O365  1  0.06427256  0.06814593  0.21770552  1
  O2-  O366  1  0.93600354  0.93172612  0.28199731  1
  O2-  O367  1  0.06850256  0.06194889  0.95684736  1
  O2-  O368  1  0.56552176  0.26308501  0.71972042  1
  O2-  O369  1  0.55409426  0.75144946  0.78150726  1
  O2-  O370  1  0.93423306  0.73833031  0.70406819  1
  O2-  O371  1  0.06847938  0.93804618  0.04379706  1
  O2-  O372  1  0.74994564  0.00573018  0.08097558  1
  O2-  O373  1  0.74998106  0.66632130  0.84190924  1
  O2-  O374  1  0.24991560  -0.00002252  0.84155339  1
  O2-  O375  1  0.75009360  0.66269580  0.33454448  1
  O2-  O376  1  0.75005704  0.33159268  0.65724902  1
  O2-  O377  1  0.25011845  0.66746376  0.40774234  1
  O2-  O378  1  0.24994024  0.66394210  0.65404994  1
  O2-  O379  1  0.24993046  0.33342971  0.34676291  1
  O2-  O380  1  0.74989159  0.00074672  0.42232169  1
  O2-  O381  1  0.25005450  0.33502870  0.09096820  1
  O2-  O382  1  0.74996809  -0.00740159  0.16802129  1
  O2-  O383  1  0.25001882  0.66584139  0.08226913  1
  O2-  O384  1  0.75010710  0.66484951  0.09465909  1
  O2-  O385  1  0.24997817  0.33556396  0.65468475  1
  O2-  O386  1  0.74998607  0.33405186  0.15751985  1
  O2-  O387  1  0.74989750  -0.00641843  0.33332833  1
  O2-  O388  1  0.75004374  0.33199587  0.84231406  1
  O2-  O389  1  0.24998049  0.33839646  0.83400190  1
  O2-  O390  1  0.24995918  0.33236096  0.92216749  1
  O2-  O391  1  0.75004791  0.66624113  0.42212309  1
  O2-  O392  1  0.24996358  0.66220922  0.83397932  1
  O2-  O393  1  0.24997135  0.66696973  0.16718281  1
  O2-  O394  1  0.75002520  0.33360931  0.34270675  1
  O2-  O395  1  0.25003216  0.66516116  0.92228163  1
  O2-  O396  1  0.75010914  0.49681878  0.61900054  1
  O2-  O397  1  0.74993535  0.17010098  0.38169301  1
  O2-  O398  1  0.24998073  0.83139837  0.91042409  1
  O2-  O399  1  0.24992991  0.49672831  0.61557975  1
  O2-  O400  1  0.24999114  0.83325972  0.60689079  1
  O2-  O401  1  0.24999856  0.50076956  0.08365826  1
  O2-  O402  1  0.75008610  0.50182365  0.83892892  1
  O2-  O403  1  0.75005738  0.83501570  0.58725775  1
  O2-  O404  1  0.24998672  0.16680892  0.92594771  1
  O2-  O405  1  0.25000835  0.16927087  0.84569049  1
  O2-  O406  1  0.25001730  0.16352489  0.16212539  1
  O2-  O407  1  0.24999726  0.49612810  0.38720726  1
  O2-  O408  1  0.75004187  0.16640694  0.90573328  1
  O2-  O409  1  0.75002479  0.49526415  0.39846886  1
  O2-  O410  1  0.75004921  0.50032364  0.32093148  1
  O2-  O411  1  0.24998645  0.83160142  0.08868644  1
  O2-  O412  1  0.75007414  0.83353752  0.12264343  1
  O2-  O413  1  0.74996089  0.83718436  0.83231803  1
  O2-  O414  1  0.75002396  0.16609684  0.67994085  1
  O2-  O415  1  0.25000873  0.16430347  0.34023649  1
  O2-  O416  1  0.25000132  0.49972524  0.16572429  1
  O2-  O417  1  0.75001308  0.16631057  0.09284101  1
  O2-  O418  1  0.75002410  0.83239631  0.90499094  1
  O2-  O419  1  0.74998683  0.17149343  0.60202959  1
  O2-  O420  1  0.47500699  0.33213898  0.87332500  1
  O2-  O421  1  0.02793815  0.66553066  0.87492593  1
  O2-  O422  1  0.97196017  0.33378970  0.12435717  1
  O2-  O423  1  0.03017497  0.66886841  0.62743984  1
  O2-  O424  1  0.02672170  0.00257894  0.37235666  1
  O2-  O425  1  0.47219863  0.00103193  0.12386393  1
  O2-  O426  1  0.47331389  -0.00083316  0.62812014  1
  O2-  O427  1  0.47050342  0.33057730  0.37544458  1
  O2-  O428  1  0.52682525  0.66377271  0.37686781  1
  O2-  O429  1  0.53061623  0.33596635  0.37192515  1
  O2-  O430  1  0.02928100  0.33366336  0.62366469  1
  O2-  O431  1  0.46764461  0.00017375  0.87482931  1
  O2-  O432  1  0.02696507  0.33170397  0.87290453  1
  O2-  O433  1  0.52679504  0.33649642  0.62328526  1
  O2-  O434  1  0.97040622  0.33115180  0.62682376  1
  O2-  O435  1  0.47325646  0.00120475  0.37878446  1
  O2-  O436  1  0.52800995  0.66627104  0.12472725  1
  O2-  O437  1  0.96978268  0.66777995  0.12511104  1
  O2-  O438  1  0.02746432  0.66630171  0.37444904  1
  O2-  O439  1  0.53037878  -0.00401622  0.87823218  1
  O2-  O440  1  0.52899452  -0.00266523  0.62211791  1
  O2-  O441  1  0.02856771  0.66796006  0.12106855  1
  O2-  O442  1  0.52746630  0.33517257  0.12522590  1
  O2-  O443  1  0.97042041  0.66481766  0.62197858  1
