# generated using pymatgen
data_Na2MnFe(PO4)2
_symmetry_space_group_name_H-M   'P 1'
_cell_length_a   20.78720000
_cell_length_b   18.59304000
_cell_length_c   19.74268000
_cell_angle_alpha   90.00000000
_cell_angle_beta   90.00000000
_cell_angle_gamma   90.00000000
_symmetry_Int_Tables_number   1
_chemical_formula_structural   Na2MnFe(PO4)2
_chemical_formula_sum   'Na96 Mn48 Fe48 P96 O384'
_cell_volume   7630.49135168
_cell_formula_units_Z   48
loop_
 _symmetry_equiv_pos_site_id
 _symmetry_equiv_pos_as_xyz
  1  'x, y, z'
loop_
 _atom_site_type_symbol
 _atom_site_label
 _atom_site_symmetry_multiplicity
 _atom_site_fract_x
 _atom_site_fract_y
 _atom_site_fract_z
 _atom_site_occupancy
  Na  Na1  1  0.14375000  0.25000000  0.24632500  1.0
  Na  Na1  1  0.14375000  0.25000000  0.49632500  1.0
  Na  Na1  1  0.14375000  0.25000000  0.74632500  1.0
  Na  Na1  1  0.14375000  0.25000000  0.99632500  1.0
  Na  Na1  1  0.14375000  0.58333333  0.24632500  1.0
  Na  Na1  1  0.14375000  0.58333333  0.49632500  1.0
  Na  Na1  1  0.14375000  0.58333333  0.74632500  1.0
  Na  Na1  1  0.14375000  0.58333333  0.99632500  1.0
  Na  Na1  1  0.14375000  0.91666667  0.24632500  1.0
  Na  Na1  1  0.14375000  0.91666667  0.49632500  1.0
  Na  Na1  1  0.14375000  0.91666667  0.74632500  1.0
  Na  Na1  1  0.14375000  0.91666667  0.99632500  1.0
  Na  Na1  1  0.64375000  0.25000000  0.24632500  1.0
  Na  Na1  1  0.64375000  0.25000000  0.49632500  1.0
  Na  Na1  1  0.64375000  0.25000000  0.74632500  1.0
  Na  Na1  1  0.64375000  0.25000000  0.99632500  1.0
  Na  Na1  1  0.64375000  0.58333333  0.24632500  1.0
  Na  Na1  1  0.64375000  0.58333333  0.49632500  1.0
  Na  Na1  1  0.64375000  0.58333333  0.74632500  1.0
  Na  Na1  1  0.64375000  0.58333333  0.99632500  1.0
  Na  Na1  1  0.64375000  0.91666667  0.24632500  1.0
  Na  Na1  1  0.64375000  0.91666667  0.49632500  1.0
  Na  Na1  1  0.64375000  0.91666667  0.74632500  1.0
  Na  Na1  1  0.64375000  0.91666667  0.99632500  1.0
  Na  Na1  1  0.35625000  0.08333333  0.00367500  1.0
  Na  Na1  1  0.35625000  0.08333333  0.25367500  1.0
  Na  Na1  1  0.35625000  0.08333333  0.50367500  1.0
  Na  Na1  1  0.35625000  0.08333333  0.75367500  1.0
  Na  Na1  1  0.35625000  0.41666667  0.00367500  1.0
  Na  Na1  1  0.35625000  0.41666667  0.25367500  1.0
  Na  Na1  1  0.35625000  0.41666667  0.50367500  1.0
  Na  Na1  1  0.35625000  0.41666667  0.75367500  1.0
  Na  Na1  1  0.35625000  0.75000000  0.00367500  1.0
  Na  Na1  1  0.35625000  0.75000000  0.25367500  1.0
  Na  Na1  1  0.35625000  0.75000000  0.50367500  1.0
  Na  Na1  1  0.35625000  0.75000000  0.75367500  1.0
  Na  Na1  1  0.85625000  0.08333333  0.00367500  1.0
  Na  Na1  1  0.85625000  0.08333333  0.25367500  1.0
  Na  Na1  1  0.85625000  0.08333333  0.50367500  1.0
  Na  Na1  1  0.85625000  0.08333333  0.75367500  1.0
  Na  Na1  1  0.85625000  0.41666667  0.00367500  1.0
  Na  Na1  1  0.85625000  0.41666667  0.25367500  1.0
  Na  Na1  1  0.85625000  0.41666667  0.50367500  1.0
  Na  Na1  1  0.85625000  0.41666667  0.75367500  1.0
  Na  Na1  1  0.85625000  0.75000000  0.00367500  1.0
  Na  Na1  1  0.85625000  0.75000000  0.25367500  1.0
  Na  Na1  1  0.85625000  0.75000000  0.50367500  1.0
  Na  Na1  1  0.85625000  0.75000000  0.75367500  1.0
  Na  Na1  1  0.10625000  0.08333333  0.12132500  1.0
  Na  Na1  1  0.10625000  0.08333333  0.37132500  1.0
  Na  Na1  1  0.10625000  0.08333333  0.62132500  1.0
  Na  Na1  1  0.10625000  0.08333333  0.87132500  1.0
  Na  Na1  1  0.10625000  0.41666667  0.12132500  1.0
  Na  Na1  1  0.10625000  0.41666667  0.37132500  1.0
  Na  Na1  1  0.10625000  0.41666667  0.62132500  1.0
  Na  Na1  1  0.10625000  0.41666667  0.87132500  1.0
  Na  Na1  1  0.10625000  0.75000000  0.12132500  1.0
  Na  Na1  1  0.10625000  0.75000000  0.37132500  1.0
  Na  Na1  1  0.10625000  0.75000000  0.62132500  1.0
  Na  Na1  1  0.10625000  0.75000000  0.87132500  1.0
  Na  Na1  1  0.60625000  0.08333333  0.12132500  1.0
  Na  Na1  1  0.60625000  0.08333333  0.37132500  1.0
  Na  Na1  1  0.60625000  0.08333333  0.62132500  1.0
  Na  Na1  1  0.60625000  0.08333333  0.87132500  1.0
  Na  Na1  1  0.60625000  0.41666667  0.12132500  1.0
  Na  Na1  1  0.60625000  0.41666667  0.37132500  1.0
  Na  Na1  1  0.60625000  0.41666667  0.62132500  1.0
  Na  Na1  1  0.60625000  0.41666667  0.87132500  1.0
  Na  Na1  1  0.60625000  0.75000000  0.12132500  1.0
  Na  Na1  1  0.60625000  0.75000000  0.37132500  1.0
  Na  Na1  1  0.60625000  0.75000000  0.62132500  1.0
  Na  Na1  1  0.60625000  0.75000000  0.87132500  1.0
  Na  Na1  1  0.39375000  0.25000000  0.12867500  1.0
  Na  Na1  1  0.39375000  0.25000000  0.37867500  1.0
  Na  Na1  1  0.39375000  0.25000000  0.62867500  1.0
  Na  Na1  1  0.39375000  0.25000000  0.87867500  1.0
  Na  Na1  1  0.39375000  0.58333333  0.12867500  1.0
  Na  Na1  1  0.39375000  0.58333333  0.37867500  1.0
  Na  Na1  1  0.39375000  0.58333333  0.62867500  1.0
  Na  Na1  1  0.39375000  0.58333333  0.87867500  1.0
  Na  Na1  1  0.39375000  0.91666667  0.12867500  1.0
  Na  Na1  1  0.39375000  0.91666667  0.37867500  1.0
  Na  Na1  1  0.39375000  0.91666667  0.62867500  1.0
  Na  Na1  1  0.39375000  0.91666667  0.87867500  1.0
  Na  Na1  1  0.89375000  0.25000000  0.12867500  1.0
  Na  Na1  1  0.89375000  0.25000000  0.37867500  1.0
  Na  Na1  1  0.89375000  0.25000000  0.62867500  1.0
  Na  Na1  1  0.89375000  0.25000000  0.87867500  1.0
  Na  Na1  1  0.89375000  0.58333333  0.12867500  1.0
  Na  Na1  1  0.89375000  0.58333333  0.37867500  1.0
  Na  Na1  1  0.89375000  0.58333333  0.62867500  1.0
  Na  Na1  1  0.89375000  0.58333333  0.87867500  1.0
  Na  Na1  1  0.89375000  0.91666667  0.12867500  1.0
  Na  Na1  1  0.89375000  0.91666667  0.37867500  1.0
  Na  Na1  1  0.89375000  0.91666667  0.62867500  1.0
  Na  Na1  1  0.89375000  0.91666667  0.87867500  1.0
  Mn  Mn1  1  0.75000000  0.66666667  0.12500000  1.0
  Mn  Mn1  1  0.75000000  0.50000000  0.87500000  1.0
  Mn  Mn1  1  0.00000000  0.00000000  0.75000000  1.0
  Mn  Mn1  1  0.75000000  0.66666667  0.87500000  1.0
  Mn  Mn1  1  0.75000000  0.66666667  0.37500000  1.0
  Mn  Mn1  1  0.00000000  0.66666667  0.75000000  1.0
  Mn  Mn1  1  0.75000000  0.33333333  0.12500000  1.0
  Mn  Mn1  1  0.25000000  0.33333333  0.87500000  1.0
  Mn  Mn1  1  0.25000000  0.66666667  0.37500000  1.0
  Mn  Mn1  1  0.00000000  0.83333333  0.25000000  1.0
  Mn  Mn1  1  0.75000000  0.33333333  0.37500000  1.0
  Mn  Mn1  1  0.50000000  0.33333333  0.75000000  1.0
  Mn  Mn1  1  0.50000000  0.33333333  0.25000000  1.0
  Mn  Mn1  1  0.50000000  0.00000000  0.50000000  1.0
  Mn  Mn1  1  0.50000000  0.16666667  0.00000000  1.0
  Mn  Mn1  1  0.50000000  0.66666667  0.25000000  1.0
  Mn  Mn1  1  0.50000000  0.00000000  0.25000000  1.0
  Mn  Mn1  1  0.00000000  0.33333333  0.50000000  1.0
  Mn  Mn1  1  0.25000000  0.83333333  0.62500000  1.0
  Mn  Mn1  1  0.50000000  0.00000000  0.00000000  1.0
  Mn  Mn1  1  0.00000000  0.50000000  0.50000000  1.0
  Mn  Mn1  1  0.25000000  0.66666667  0.62500000  1.0
  Mn  Mn1  1  0.50000000  0.66666667  0.75000000  1.0
  Mn  Mn1  1  0.50000000  0.16666667  0.75000000  1.0
  Mn  Mn1  1  0.50000000  0.83333333  0.50000000  1.0
  Mn  Mn1  1  0.50000000  0.50000000  0.25000000  1.0
  Mn  Mn1  1  0.00000000  0.83333333  0.50000000  1.0
  Mn  Mn1  1  0.25000000  0.33333333  0.12500000  1.0
  Mn  Mn1  1  0.25000000  0.00000000  0.87500000  1.0
  Mn  Mn1  1  0.75000000  0.00000000  0.37500000  1.0
  Mn  Mn1  1  0.75000000  0.00000000  0.62500000  1.0
  Mn  Mn1  1  0.25000000  0.83333333  0.87500000  1.0
  Mn  Mn1  1  0.25000000  0.83333333  0.12500000  1.0
  Mn  Mn1  1  0.50000000  0.83333333  0.00000000  1.0
  Mn  Mn1  1  0.50000000  0.50000000  0.75000000  1.0
  Mn  Mn1  1  0.00000000  0.33333333  0.25000000  1.0
  Mn  Mn1  1  0.25000000  0.00000000  0.62500000  1.0
  Mn  Mn1  1  0.50000000  0.66666667  0.00000000  1.0
  Mn  Mn1  1  0.00000000  0.83333333  0.00000000  1.0
  Mn  Mn1  1  0.00000000  0.00000000  0.00000000  1.0
  Mn  Mn1  1  0.75000000  0.33333333  0.87500000  1.0
  Mn  Mn1  1  0.00000000  0.66666667  0.00000000  1.0
  Mn  Mn1  1  0.00000000  0.66666667  0.25000000  1.0
  Mn  Mn1  1  0.00000000  0.00000000  0.50000000  1.0
  Mn  Mn1  1  0.75000000  0.16666667  0.87500000  1.0
  Mn  Mn1  1  0.00000000  0.16666667  0.25000000  1.0
  Mn  Mn1  1  0.00000000  0.16666667  0.75000000  1.0
  Mn  Mn1  1  0.25000000  0.33333333  0.37500000  1.0
  Fe  Mn1  1  0.50000000  0.66666667  0.50000000  1.0
  Fe  Mn1  1  0.25000000  0.66666667  0.12500000  1.0
  Fe  Mn1  1  0.75000000  0.50000000  0.62500000  1.0
  Fe  Mn1  1  0.75000000  0.83333333  0.87500000  1.0
  Fe  Mn1  1  0.00000000  0.16666667  0.00000000  1.0
  Fe  Mn1  1  0.50000000  0.83333333  0.75000000  1.0
  Fe  Mn1  1  0.00000000  0.50000000  0.75000000  1.0
  Fe  Mn1  1  0.00000000  0.16666667  0.50000000  1.0
  Fe  Mn1  1  0.25000000  0.16666667  0.12500000  1.0
  Fe  Mn1  1  0.25000000  0.16666667  0.62500000  1.0
  Fe  Mn1  1  0.25000000  0.16666667  0.87500000  1.0
  Fe  Mn1  1  0.25000000  0.00000000  0.37500000  1.0
  Fe  Mn1  1  0.75000000  0.50000000  0.37500000  1.0
  Fe  Mn1  1  0.50000000  0.33333333  0.50000000  1.0
  Fe  Mn1  1  0.50000000  0.50000000  0.50000000  1.0
  Fe  Mn1  1  0.50000000  0.50000000  0.00000000  1.0
  Fe  Mn1  1  0.50000000  0.83333333  0.25000000  1.0
  Fe  Mn1  1  0.75000000  0.33333333  0.62500000  1.0
  Fe  Mn1  1  0.25000000  0.50000000  0.37500000  1.0
  Fe  Mn1  1  0.25000000  0.16666667  0.37500000  1.0
  Fe  Mn1  1  0.50000000  0.00000000  0.75000000  1.0
  Fe  Mn1  1  0.75000000  0.83333333  0.62500000  1.0
  Fe  Mn1  1  0.75000000  0.00000000  0.87500000  1.0
  Fe  Mn1  1  0.25000000  0.00000000  0.12500000  1.0
  Fe  Mn1  1  0.00000000  0.33333333  0.75000000  1.0
  Fe  Mn1  1  0.25000000  0.50000000  0.62500000  1.0
  Fe  Mn1  1  0.75000000  0.83333333  0.12500000  1.0
  Fe  Mn1  1  0.25000000  0.66666667  0.87500000  1.0
  Fe  Mn1  1  0.00000000  0.50000000  0.00000000  1.0
  Fe  Mn1  1  0.00000000  0.00000000  0.25000000  1.0
  Fe  Mn1  1  0.00000000  0.50000000  0.25000000  1.0
  Fe  Mn1  1  0.75000000  0.83333333  0.37500000  1.0
  Fe  Mn1  1  0.75000000  0.16666667  0.62500000  1.0
  Fe  Mn1  1  0.25000000  0.50000000  0.12500000  1.0
  Fe  Mn1  1  0.75000000  0.16666667  0.12500000  1.0
  Fe  Mn1  1  0.25000000  0.50000000  0.87500000  1.0
  Fe  Mn1  1  0.75000000  0.16666667  0.37500000  1.0
  Fe  Mn1  1  0.00000000  0.33333333  0.00000000  1.0
  Fe  Mn1  1  0.75000000  0.00000000  0.12500000  1.0
  Fe  Mn1  1  0.75000000  0.66666667  0.62500000  1.0
  Fe  Mn1  1  0.75000000  0.50000000  0.12500000  1.0
  Fe  Mn1  1  0.00000000  0.83333333  0.75000000  1.0
  Fe  Mn1  1  0.25000000  0.33333333  0.62500000  1.0
  Fe  Mn1  1  0.50000000  0.16666667  0.25000000  1.0
  Fe  Mn1  1  0.50000000  0.16666667  0.50000000  1.0
  Fe  Mn1  1  0.50000000  0.33333333  0.00000000  1.0
  Fe  Mn1  1  0.25000000  0.83333333  0.37500000  1.0
  Fe  Mn1  1  0.00000000  0.66666667  0.50000000  1.0
  P  P1  1  0.05390000  0.25000000  0.11047500  1.0
  P  P1  1  0.05390000  0.25000000  0.36047500  1.0
  P  P1  1  0.05390000  0.25000000  0.61047500  1.0
  P  P1  1  0.05390000  0.25000000  0.86047500  1.0
  P  P1  1  0.05390000  0.58333333  0.11047500  1.0
  P  P1  1  0.05390000  0.58333333  0.36047500  1.0
  P  P1  1  0.05390000  0.58333333  0.61047500  1.0
  P  P1  1  0.05390000  0.58333333  0.86047500  1.0
  P  P1  1  0.05390000  0.91666667  0.11047500  1.0
  P  P1  1  0.05390000  0.91666667  0.36047500  1.0
  P  P1  1  0.05390000  0.91666667  0.61047500  1.0
  P  P1  1  0.05390000  0.91666667  0.86047500  1.0
  P  P1  1  0.55390000  0.25000000  0.11047500  1.0
  P  P1  1  0.55390000  0.25000000  0.36047500  1.0
  P  P1  1  0.55390000  0.25000000  0.61047500  1.0
  P  P1  1  0.55390000  0.25000000  0.86047500  1.0
  P  P1  1  0.55390000  0.58333333  0.11047500  1.0
  P  P1  1  0.55390000  0.58333333  0.36047500  1.0
  P  P1  1  0.55390000  0.58333333  0.61047500  1.0
  P  P1  1  0.55390000  0.58333333  0.86047500  1.0
  P  P1  1  0.55390000  0.91666667  0.11047500  1.0
  P  P1  1  0.55390000  0.91666667  0.36047500  1.0
  P  P1  1  0.55390000  0.91666667  0.61047500  1.0
  P  P1  1  0.55390000  0.91666667  0.86047500  1.0
  P  P1  1  0.44610000  0.08333333  0.13952500  1.0
  P  P1  1  0.44610000  0.08333333  0.38952500  1.0
  P  P1  1  0.44610000  0.08333333  0.63952500  1.0
  P  P1  1  0.44610000  0.08333333  0.88952500  1.0
  P  P1  1  0.44610000  0.41666667  0.13952500  1.0
  P  P1  1  0.44610000  0.41666667  0.38952500  1.0
  P  P1  1  0.44610000  0.41666667  0.63952500  1.0
  P  P1  1  0.44610000  0.41666667  0.88952500  1.0
  P  P1  1  0.44610000  0.75000000  0.13952500  1.0
  P  P1  1  0.44610000  0.75000000  0.38952500  1.0
  P  P1  1  0.44610000  0.75000000  0.63952500  1.0
  P  P1  1  0.44610000  0.75000000  0.88952500  1.0
  P  P1  1  0.94610000  0.08333333  0.13952500  1.0
  P  P1  1  0.94610000  0.08333333  0.38952500  1.0
  P  P1  1  0.94610000  0.08333333  0.63952500  1.0
  P  P1  1  0.94610000  0.08333333  0.88952500  1.0
  P  P1  1  0.94610000  0.41666667  0.13952500  1.0
  P  P1  1  0.94610000  0.41666667  0.38952500  1.0
  P  P1  1  0.94610000  0.41666667  0.63952500  1.0
  P  P1  1  0.94610000  0.41666667  0.88952500  1.0
  P  P1  1  0.94610000  0.75000000  0.13952500  1.0
  P  P1  1  0.94610000  0.75000000  0.38952500  1.0
  P  P1  1  0.94610000  0.75000000  0.63952500  1.0
  P  P1  1  0.94610000  0.75000000  0.88952500  1.0
  P  P1  1  0.19610000  0.08333333  0.23547500  1.0
  P  P1  1  0.19610000  0.08333333  0.48547500  1.0
  P  P1  1  0.19610000  0.08333333  0.73547500  1.0
  P  P1  1  0.19610000  0.08333333  0.98547500  1.0
  P  P1  1  0.19610000  0.41666667  0.23547500  1.0
  P  P1  1  0.19610000  0.41666667  0.48547500  1.0
  P  P1  1  0.19610000  0.41666667  0.73547500  1.0
  P  P1  1  0.19610000  0.41666667  0.98547500  1.0
  P  P1  1  0.19610000  0.75000000  0.23547500  1.0
  P  P1  1  0.19610000  0.75000000  0.48547500  1.0
  P  P1  1  0.19610000  0.75000000  0.73547500  1.0
  P  P1  1  0.19610000  0.75000000  0.98547500  1.0
  P  P1  1  0.69610000  0.08333333  0.23547500  1.0
  P  P1  1  0.69610000  0.08333333  0.48547500  1.0
  P  P1  1  0.69610000  0.08333333  0.73547500  1.0
  P  P1  1  0.69610000  0.08333333  0.98547500  1.0
  P  P1  1  0.69610000  0.41666667  0.23547500  1.0
  P  P1  1  0.69610000  0.41666667  0.48547500  1.0
  P  P1  1  0.69610000  0.41666667  0.73547500  1.0
  P  P1  1  0.69610000  0.41666667  0.98547500  1.0
  P  P1  1  0.69610000  0.75000000  0.23547500  1.0
  P  P1  1  0.69610000  0.75000000  0.48547500  1.0
  P  P1  1  0.69610000  0.75000000  0.73547500  1.0
  P  P1  1  0.69610000  0.75000000  0.98547500  1.0
  P  P1  1  0.30390000  0.25000000  0.01452500  1.0
  P  P1  1  0.30390000  0.25000000  0.26452500  1.0
  P  P1  1  0.30390000  0.25000000  0.51452500  1.0
  P  P1  1  0.30390000  0.25000000  0.76452500  1.0
  P  P1  1  0.30390000  0.58333333  0.01452500  1.0
  P  P1  1  0.30390000  0.58333333  0.26452500  1.0
  P  P1  1  0.30390000  0.58333333  0.51452500  1.0
  P  P1  1  0.30390000  0.58333333  0.76452500  1.0
  P  P1  1  0.30390000  0.91666667  0.01452500  1.0
  P  P1  1  0.30390000  0.91666667  0.26452500  1.0
  P  P1  1  0.30390000  0.91666667  0.51452500  1.0
  P  P1  1  0.30390000  0.91666667  0.76452500  1.0
  P  P1  1  0.80390000  0.25000000  0.01452500  1.0
  P  P1  1  0.80390000  0.25000000  0.26452500  1.0
  P  P1  1  0.80390000  0.25000000  0.51452500  1.0
  P  P1  1  0.80390000  0.25000000  0.76452500  1.0
  P  P1  1  0.80390000  0.58333333  0.01452500  1.0
  P  P1  1  0.80390000  0.58333333  0.26452500  1.0
  P  P1  1  0.80390000  0.58333333  0.51452500  1.0
  P  P1  1  0.80390000  0.58333333  0.76452500  1.0
  P  P1  1  0.80390000  0.91666667  0.01452500  1.0
  P  P1  1  0.80390000  0.91666667  0.26452500  1.0
  P  P1  1  0.80390000  0.91666667  0.51452500  1.0
  P  P1  1  0.80390000  0.91666667  0.76452500  1.0
  O  O1  1  0.05570000  0.25000000  0.18857500  1.0
  O  O1  1  0.05570000  0.25000000  0.43857500  1.0
  O  O1  1  0.05570000  0.25000000  0.68857500  1.0
  O  O1  1  0.05570000  0.25000000  0.93857500  1.0
  O  O1  1  0.05570000  0.58333333  0.18857500  1.0
  O  O1  1  0.05570000  0.58333333  0.43857500  1.0
  O  O1  1  0.05570000  0.58333333  0.68857500  1.0
  O  O1  1  0.05570000  0.58333333  0.93857500  1.0
  O  O1  1  0.05570000  0.91666667  0.18857500  1.0
  O  O1  1  0.05570000  0.91666667  0.43857500  1.0
  O  O1  1  0.05570000  0.91666667  0.68857500  1.0
  O  O1  1  0.05570000  0.91666667  0.93857500  1.0
  O  O1  1  0.55570000  0.25000000  0.18857500  1.0
  O  O1  1  0.55570000  0.25000000  0.43857500  1.0
  O  O1  1  0.55570000  0.25000000  0.68857500  1.0
  O  O1  1  0.55570000  0.25000000  0.93857500  1.0
  O  O1  1  0.55570000  0.58333333  0.18857500  1.0
  O  O1  1  0.55570000  0.58333333  0.43857500  1.0
  O  O1  1  0.55570000  0.58333333  0.68857500  1.0
  O  O1  1  0.55570000  0.58333333  0.93857500  1.0
  O  O1  1  0.55570000  0.91666667  0.18857500  1.0
  O  O1  1  0.55570000  0.91666667  0.43857500  1.0
  O  O1  1  0.55570000  0.91666667  0.68857500  1.0
  O  O1  1  0.55570000  0.91666667  0.93857500  1.0
  O  O1  1  0.44430000  0.08333333  0.06142500  1.0
  O  O1  1  0.44430000  0.08333333  0.31142500  1.0
  O  O1  1  0.44430000  0.08333333  0.56142500  1.0
  O  O1  1  0.44430000  0.08333333  0.81142500  1.0
  O  O1  1  0.44430000  0.41666667  0.06142500  1.0
  O  O1  1  0.44430000  0.41666667  0.31142500  1.0
  O  O1  1  0.44430000  0.41666667  0.56142500  1.0
  O  O1  1  0.44430000  0.41666667  0.81142500  1.0
  O  O1  1  0.44430000  0.75000000  0.06142500  1.0
  O  O1  1  0.44430000  0.75000000  0.31142500  1.0
  O  O1  1  0.44430000  0.75000000  0.56142500  1.0
  O  O1  1  0.44430000  0.75000000  0.81142500  1.0
  O  O1  1  0.94430000  0.08333333  0.06142500  1.0
  O  O1  1  0.94430000  0.08333333  0.31142500  1.0
  O  O1  1  0.94430000  0.08333333  0.56142500  1.0
  O  O1  1  0.94430000  0.08333333  0.81142500  1.0
  O  O1  1  0.94430000  0.41666667  0.06142500  1.0
  O  O1  1  0.94430000  0.41666667  0.31142500  1.0
  O  O1  1  0.94430000  0.41666667  0.56142500  1.0
  O  O1  1  0.94430000  0.41666667  0.81142500  1.0
  O  O1  1  0.94430000  0.75000000  0.06142500  1.0
  O  O1  1  0.94430000  0.75000000  0.31142500  1.0
  O  O1  1  0.94430000  0.75000000  0.56142500  1.0
  O  O1  1  0.94430000  0.75000000  0.81142500  1.0
  O  O1  1  0.19430000  0.08333333  0.06357500  1.0
  O  O1  1  0.19430000  0.08333333  0.31357500  1.0
  O  O1  1  0.19430000  0.08333333  0.56357500  1.0
  O  O1  1  0.19430000  0.08333333  0.81357500  1.0
  O  O1  1  0.19430000  0.41666667  0.06357500  1.0
  O  O1  1  0.19430000  0.41666667  0.31357500  1.0
  O  O1  1  0.19430000  0.41666667  0.56357500  1.0
  O  O1  1  0.19430000  0.41666667  0.81357500  1.0
  O  O1  1  0.19430000  0.75000000  0.06357500  1.0
  O  O1  1  0.19430000  0.75000000  0.31357500  1.0
  O  O1  1  0.19430000  0.75000000  0.56357500  1.0
  O  O1  1  0.19430000  0.75000000  0.81357500  1.0
  O  O1  1  0.69430000  0.08333333  0.06357500  1.0
  O  O1  1  0.69430000  0.08333333  0.31357500  1.0
  O  O1  1  0.69430000  0.08333333  0.56357500  1.0
  O  O1  1  0.69430000  0.08333333  0.81357500  1.0
  O  O1  1  0.69430000  0.41666667  0.06357500  1.0
  O  O1  1  0.69430000  0.41666667  0.31357500  1.0
  O  O1  1  0.69430000  0.41666667  0.56357500  1.0
  O  O1  1  0.69430000  0.41666667  0.81357500  1.0
  O  O1  1  0.69430000  0.75000000  0.06357500  1.0
  O  O1  1  0.69430000  0.75000000  0.31357500  1.0
  O  O1  1  0.69430000  0.75000000  0.56357500  1.0
  O  O1  1  0.69430000  0.75000000  0.81357500  1.0
  O  O1  1  0.30570000  0.25000000  0.18642500  1.0
  O  O1  1  0.30570000  0.25000000  0.43642500  1.0
  O  O1  1  0.30570000  0.25000000  0.68642500  1.0
  O  O1  1  0.30570000  0.25000000  0.93642500  1.0
  O  O1  1  0.30570000  0.58333333  0.18642500  1.0
  O  O1  1  0.30570000  0.58333333  0.43642500  1.0
  O  O1  1  0.30570000  0.58333333  0.68642500  1.0
  O  O1  1  0.30570000  0.58333333  0.93642500  1.0
  O  O1  1  0.30570000  0.91666667  0.18642500  1.0
  O  O1  1  0.30570000  0.91666667  0.43642500  1.0
  O  O1  1  0.30570000  0.91666667  0.68642500  1.0
  O  O1  1  0.30570000  0.91666667  0.93642500  1.0
  O  O1  1  0.80570000  0.25000000  0.18642500  1.0
  O  O1  1  0.80570000  0.25000000  0.43642500  1.0
  O  O1  1  0.80570000  0.25000000  0.68642500  1.0
  O  O1  1  0.80570000  0.25000000  0.93642500  1.0
  O  O1  1  0.80570000  0.58333333  0.18642500  1.0
  O  O1  1  0.80570000  0.58333333  0.43642500  1.0
  O  O1  1  0.80570000  0.58333333  0.68642500  1.0
  O  O1  1  0.80570000  0.58333333  0.93642500  1.0
  O  O1  1  0.80570000  0.91666667  0.18642500  1.0
  O  O1  1  0.80570000  0.91666667  0.43642500  1.0
  O  O1  1  0.80570000  0.91666667  0.68642500  1.0
  O  O1  1  0.80570000  0.91666667  0.93642500  1.0
  O  O2  1  0.23320000  0.25000000  0.04057500  1.0
  O  O2  1  0.23320000  0.25000000  0.29057500  1.0
  O  O2  1  0.23320000  0.25000000  0.54057500  1.0
  O  O2  1  0.23320000  0.25000000  0.79057500  1.0
  O  O2  1  0.23320000  0.58333333  0.04057500  1.0
  O  O2  1  0.23320000  0.58333333  0.29057500  1.0
  O  O2  1  0.23320000  0.58333333  0.54057500  1.0
  O  O2  1  0.23320000  0.58333333  0.79057500  1.0
  O  O2  1  0.23320000  0.91666667  0.04057500  1.0
  O  O2  1  0.23320000  0.91666667  0.29057500  1.0
  O  O2  1  0.23320000  0.91666667  0.54057500  1.0
  O  O2  1  0.23320000  0.91666667  0.79057500  1.0
  O  O2  1  0.73320000  0.25000000  0.04057500  1.0
  O  O2  1  0.73320000  0.25000000  0.29057500  1.0
  O  O2  1  0.73320000  0.25000000  0.54057500  1.0
  O  O2  1  0.73320000  0.25000000  0.79057500  1.0
  O  O2  1  0.73320000  0.58333333  0.04057500  1.0
  O  O2  1  0.73320000  0.58333333  0.29057500  1.0
  O  O2  1  0.73320000  0.58333333  0.54057500  1.0
  O  O2  1  0.73320000  0.58333333  0.79057500  1.0
  O  O2  1  0.73320000  0.91666667  0.04057500  1.0
  O  O2  1  0.73320000  0.91666667  0.29057500  1.0
  O  O2  1  0.73320000  0.91666667  0.54057500  1.0
  O  O2  1  0.73320000  0.91666667  0.79057500  1.0
  O  O2  1  0.26680000  0.08333333  0.20942500  1.0
  O  O2  1  0.26680000  0.08333333  0.45942500  1.0
  O  O2  1  0.26680000  0.08333333  0.70942500  1.0
  O  O2  1  0.26680000  0.08333333  0.95942500  1.0
  O  O2  1  0.26680000  0.41666667  0.20942500  1.0
  O  O2  1  0.26680000  0.41666667  0.45942500  1.0
  O  O2  1  0.26680000  0.41666667  0.70942500  1.0
  O  O2  1  0.26680000  0.41666667  0.95942500  1.0
  O  O2  1  0.26680000  0.75000000  0.20942500  1.0
  O  O2  1  0.26680000  0.75000000  0.45942500  1.0
  O  O2  1  0.26680000  0.75000000  0.70942500  1.0
  O  O2  1  0.26680000  0.75000000  0.95942500  1.0
  O  O2  1  0.76680000  0.08333333  0.20942500  1.0
  O  O2  1  0.76680000  0.08333333  0.45942500  1.0
  O  O2  1  0.76680000  0.08333333  0.70942500  1.0
  O  O2  1  0.76680000  0.08333333  0.95942500  1.0
  O  O2  1  0.76680000  0.41666667  0.20942500  1.0
  O  O2  1  0.76680000  0.41666667  0.45942500  1.0
  O  O2  1  0.76680000  0.41666667  0.70942500  1.0
  O  O2  1  0.76680000  0.41666667  0.95942500  1.0
  O  O2  1  0.76680000  0.75000000  0.20942500  1.0
  O  O2  1  0.76680000  0.75000000  0.45942500  1.0
  O  O2  1  0.76680000  0.75000000  0.70942500  1.0
  O  O2  1  0.76680000  0.75000000  0.95942500  1.0
  O  O2  1  0.01680000  0.08333333  0.16557500  1.0
  O  O2  1  0.01680000  0.08333333  0.41557500  1.0
  O  O2  1  0.01680000  0.08333333  0.66557500  1.0
  O  O2  1  0.01680000  0.08333333  0.91557500  1.0
  O  O2  1  0.01680000  0.41666667  0.16557500  1.0
  O  O2  1  0.01680000  0.41666667  0.41557500  1.0
  O  O2  1  0.01680000  0.41666667  0.66557500  1.0
  O  O2  1  0.01680000  0.41666667  0.91557500  1.0
  O  O2  1  0.01680000  0.75000000  0.16557500  1.0
  O  O2  1  0.01680000  0.75000000  0.41557500  1.0
  O  O2  1  0.01680000  0.75000000  0.66557500  1.0
  O  O2  1  0.01680000  0.75000000  0.91557500  1.0
  O  O2  1  0.51680000  0.08333333  0.16557500  1.0
  O  O2  1  0.51680000  0.08333333  0.41557500  1.0
  O  O2  1  0.51680000  0.08333333  0.66557500  1.0
  O  O2  1  0.51680000  0.08333333  0.91557500  1.0
  O  O2  1  0.51680000  0.41666667  0.16557500  1.0
  O  O2  1  0.51680000  0.41666667  0.41557500  1.0
  O  O2  1  0.51680000  0.41666667  0.66557500  1.0
  O  O2  1  0.51680000  0.41666667  0.91557500  1.0
  O  O2  1  0.51680000  0.75000000  0.16557500  1.0
  O  O2  1  0.51680000  0.75000000  0.41557500  1.0
  O  O2  1  0.51680000  0.75000000  0.66557500  1.0
  O  O2  1  0.51680000  0.75000000  0.91557500  1.0
  O  O2  1  0.48320000  0.25000000  0.08442500  1.0
  O  O2  1  0.48320000  0.25000000  0.33442500  1.0
  O  O2  1  0.48320000  0.25000000  0.58442500  1.0
  O  O2  1  0.48320000  0.25000000  0.83442500  1.0
  O  O2  1  0.48320000  0.58333333  0.08442500  1.0
  O  O2  1  0.48320000  0.58333333  0.33442500  1.0
  O  O2  1  0.48320000  0.58333333  0.58442500  1.0
  O  O2  1  0.48320000  0.58333333  0.83442500  1.0
  O  O2  1  0.48320000  0.91666667  0.08442500  1.0
  O  O2  1  0.48320000  0.91666667  0.33442500  1.0
  O  O2  1  0.48320000  0.91666667  0.58442500  1.0
  O  O2  1  0.48320000  0.91666667  0.83442500  1.0
  O  O2  1  0.98320000  0.25000000  0.08442500  1.0
  O  O2  1  0.98320000  0.25000000  0.33442500  1.0
  O  O2  1  0.98320000  0.25000000  0.58442500  1.0
  O  O2  1  0.98320000  0.25000000  0.83442500  1.0
  O  O2  1  0.98320000  0.58333333  0.08442500  1.0
  O  O2  1  0.98320000  0.58333333  0.33442500  1.0
  O  O2  1  0.98320000  0.58333333  0.58442500  1.0
  O  O2  1  0.98320000  0.58333333  0.83442500  1.0
  O  O2  1  0.98320000  0.91666667  0.08442500  1.0
  O  O2  1  0.98320000  0.91666667  0.33442500  1.0
  O  O2  1  0.98320000  0.91666667  0.58442500  1.0
  O  O2  1  0.98320000  0.91666667  0.83442500  1.0
  O  O3  1  0.08765000  0.31443333  0.07755000  1.0
  O  O3  1  0.08765000  0.31443333  0.32755000  1.0
  O  O3  1  0.08765000  0.31443333  0.57755000  1.0
  O  O3  1  0.08765000  0.31443333  0.82755000  1.0
  O  O3  1  0.08765000  0.64776667  0.07755000  1.0
  O  O3  1  0.08765000  0.64776667  0.32755000  1.0
  O  O3  1  0.08765000  0.64776667  0.57755000  1.0
  O  O3  1  0.08765000  0.64776667  0.82755000  1.0
  O  O3  1  0.08765000  0.98110000  0.07755000  1.0
  O  O3  1  0.08765000  0.98110000  0.32755000  1.0
  O  O3  1  0.08765000  0.98110000  0.57755000  1.0
  O  O3  1  0.08765000  0.98110000  0.82755000  1.0
  O  O3  1  0.58765000  0.31443333  0.07755000  1.0
  O  O3  1  0.58765000  0.31443333  0.32755000  1.0
  O  O3  1  0.58765000  0.31443333  0.57755000  1.0
  O  O3  1  0.58765000  0.31443333  0.82755000  1.0
  O  O3  1  0.58765000  0.64776667  0.07755000  1.0
  O  O3  1  0.58765000  0.64776667  0.32755000  1.0
  O  O3  1  0.58765000  0.64776667  0.57755000  1.0
  O  O3  1  0.58765000  0.64776667  0.82755000  1.0
  O  O3  1  0.58765000  0.98110000  0.07755000  1.0
  O  O3  1  0.58765000  0.98110000  0.32755000  1.0
  O  O3  1  0.58765000  0.98110000  0.57755000  1.0
  O  O3  1  0.58765000  0.98110000  0.82755000  1.0
  O  O3  1  0.41235000  0.01890000  0.17245000  1.0
  O  O3  1  0.41235000  0.01890000  0.42245000  1.0
  O  O3  1  0.41235000  0.01890000  0.67245000  1.0
  O  O3  1  0.41235000  0.01890000  0.92245000  1.0
  O  O3  1  0.41235000  0.35223333  0.17245000  1.0
  O  O3  1  0.41235000  0.35223333  0.42245000  1.0
  O  O3  1  0.41235000  0.35223333  0.67245000  1.0
  O  O3  1  0.41235000  0.35223333  0.92245000  1.0
  O  O3  1  0.41235000  0.68556667  0.17245000  1.0
  O  O3  1  0.41235000  0.68556667  0.42245000  1.0
  O  O3  1  0.41235000  0.68556667  0.67245000  1.0
  O  O3  1  0.41235000  0.68556667  0.92245000  1.0
  O  O3  1  0.91235000  0.01890000  0.17245000  1.0
  O  O3  1  0.91235000  0.01890000  0.42245000  1.0
  O  O3  1  0.91235000  0.01890000  0.67245000  1.0
  O  O3  1  0.91235000  0.01890000  0.92245000  1.0
  O  O3  1  0.91235000  0.35223333  0.17245000  1.0
  O  O3  1  0.91235000  0.35223333  0.42245000  1.0
  O  O3  1  0.91235000  0.35223333  0.67245000  1.0
  O  O3  1  0.91235000  0.35223333  0.92245000  1.0
  O  O3  1  0.91235000  0.68556667  0.17245000  1.0
  O  O3  1  0.91235000  0.68556667  0.42245000  1.0
  O  O3  1  0.91235000  0.68556667  0.67245000  1.0
  O  O3  1  0.91235000  0.68556667  0.92245000  1.0
  O  O3  1  0.16235000  0.01890000  0.20255000  1.0
  O  O3  1  0.16235000  0.01890000  0.45255000  1.0
  O  O3  1  0.16235000  0.01890000  0.70255000  1.0
  O  O3  1  0.16235000  0.01890000  0.95255000  1.0
  O  O3  1  0.16235000  0.35223333  0.20255000  1.0
  O  O3  1  0.16235000  0.35223333  0.45255000  1.0
  O  O3  1  0.16235000  0.35223333  0.70255000  1.0
  O  O3  1  0.16235000  0.35223333  0.95255000  1.0
  O  O3  1  0.16235000  0.68556667  0.20255000  1.0
  O  O3  1  0.16235000  0.68556667  0.45255000  1.0
  O  O3  1  0.16235000  0.68556667  0.70255000  1.0
  O  O3  1  0.16235000  0.68556667  0.95255000  1.0
  O  O3  1  0.66235000  0.01890000  0.20255000  1.0
  O  O3  1  0.66235000  0.01890000  0.45255000  1.0
  O  O3  1  0.66235000  0.01890000  0.70255000  1.0
  O  O3  1  0.66235000  0.01890000  0.95255000  1.0
  O  O3  1  0.66235000  0.35223333  0.20255000  1.0
  O  O3  1  0.66235000  0.35223333  0.45255000  1.0
  O  O3  1  0.66235000  0.35223333  0.70255000  1.0
  O  O3  1  0.66235000  0.35223333  0.95255000  1.0
  O  O3  1  0.66235000  0.68556667  0.20255000  1.0
  O  O3  1  0.66235000  0.68556667  0.45255000  1.0
  O  O3  1  0.66235000  0.68556667  0.70255000  1.0
  O  O3  1  0.66235000  0.68556667  0.95255000  1.0
  O  O3  1  0.33765000  0.31443333  0.04745000  1.0
  O  O3  1  0.33765000  0.31443333  0.29745000  1.0
  O  O3  1  0.33765000  0.31443333  0.54745000  1.0
  O  O3  1  0.33765000  0.31443333  0.79745000  1.0
  O  O3  1  0.33765000  0.64776667  0.04745000  1.0
  O  O3  1  0.33765000  0.64776667  0.29745000  1.0
  O  O3  1  0.33765000  0.64776667  0.54745000  1.0
  O  O3  1  0.33765000  0.64776667  0.79745000  1.0
  O  O3  1  0.33765000  0.98110000  0.04745000  1.0
  O  O3  1  0.33765000  0.98110000  0.29745000  1.0
  O  O3  1  0.33765000  0.98110000  0.54745000  1.0
  O  O3  1  0.33765000  0.98110000  0.79745000  1.0
  O  O3  1  0.83765000  0.31443333  0.04745000  1.0
  O  O3  1  0.83765000  0.31443333  0.29745000  1.0
  O  O3  1  0.83765000  0.31443333  0.54745000  1.0
  O  O3  1  0.83765000  0.31443333  0.79745000  1.0
  O  O3  1  0.83765000  0.64776667  0.04745000  1.0
  O  O3  1  0.83765000  0.64776667  0.29745000  1.0
  O  O3  1  0.83765000  0.64776667  0.54745000  1.0
  O  O3  1  0.83765000  0.64776667  0.79745000  1.0
  O  O3  1  0.83765000  0.98110000  0.04745000  1.0
  O  O3  1  0.83765000  0.98110000  0.29745000  1.0
  O  O3  1  0.83765000  0.98110000  0.54745000  1.0
  O  O3  1  0.83765000  0.98110000  0.79745000  1.0
  O  O3  1  0.41235000  0.14776667  0.17245000  1.0
  O  O3  1  0.41235000  0.14776667  0.42245000  1.0
  O  O3  1  0.41235000  0.14776667  0.67245000  1.0
  O  O3  1  0.41235000  0.14776667  0.92245000  1.0
  O  O3  1  0.41235000  0.48110000  0.17245000  1.0
  O  O3  1  0.41235000  0.48110000  0.42245000  1.0
  O  O3  1  0.41235000  0.48110000  0.67245000  1.0
  O  O3  1  0.41235000  0.48110000  0.92245000  1.0
  O  O3  1  0.41235000  0.81443333  0.17245000  1.0
  O  O3  1  0.41235000  0.81443333  0.42245000  1.0
  O  O3  1  0.41235000  0.81443333  0.67245000  1.0
  O  O3  1  0.41235000  0.81443333  0.92245000  1.0
  O  O3  1  0.91235000  0.14776667  0.17245000  1.0
  O  O3  1  0.91235000  0.14776667  0.42245000  1.0
  O  O3  1  0.91235000  0.14776667  0.67245000  1.0
  O  O3  1  0.91235000  0.14776667  0.92245000  1.0
  O  O3  1  0.91235000  0.48110000  0.17245000  1.0
  O  O3  1  0.91235000  0.48110000  0.42245000  1.0
  O  O3  1  0.91235000  0.48110000  0.67245000  1.0
  O  O3  1  0.91235000  0.48110000  0.92245000  1.0
  O  O3  1  0.91235000  0.81443333  0.17245000  1.0
  O  O3  1  0.91235000  0.81443333  0.42245000  1.0
  O  O3  1  0.91235000  0.81443333  0.67245000  1.0
  O  O3  1  0.91235000  0.81443333  0.92245000  1.0
  O  O3  1  0.08765000  0.18556667  0.07755000  1.0
  O  O3  1  0.08765000  0.18556667  0.32755000  1.0
  O  O3  1  0.08765000  0.18556667  0.57755000  1.0
  O  O3  1  0.08765000  0.18556667  0.82755000  1.0
  O  O3  1  0.08765000  0.51890000  0.07755000  1.0
  O  O3  1  0.08765000  0.51890000  0.32755000  1.0
  O  O3  1  0.08765000  0.51890000  0.57755000  1.0
  O  O3  1  0.08765000  0.51890000  0.82755000  1.0
  O  O3  1  0.08765000  0.85223333  0.07755000  1.0
  O  O3  1  0.08765000  0.85223333  0.32755000  1.0
  O  O3  1  0.08765000  0.85223333  0.57755000  1.0
  O  O3  1  0.08765000  0.85223333  0.82755000  1.0
  O  O3  1  0.58765000  0.18556667  0.07755000  1.0
  O  O3  1  0.58765000  0.18556667  0.32755000  1.0
  O  O3  1  0.58765000  0.18556667  0.57755000  1.0
  O  O3  1  0.58765000  0.18556667  0.82755000  1.0
  O  O3  1  0.58765000  0.51890000  0.07755000  1.0
  O  O3  1  0.58765000  0.51890000  0.32755000  1.0
  O  O3  1  0.58765000  0.51890000  0.57755000  1.0
  O  O3  1  0.58765000  0.51890000  0.82755000  1.0
  O  O3  1  0.58765000  0.85223333  0.07755000  1.0
  O  O3  1  0.58765000  0.85223333  0.32755000  1.0
  O  O3  1  0.58765000  0.85223333  0.57755000  1.0
  O  O3  1  0.58765000  0.85223333  0.82755000  1.0
  O  O3  1  0.33765000  0.18556667  0.04745000  1.0
  O  O3  1  0.33765000  0.18556667  0.29745000  1.0
  O  O3  1  0.33765000  0.18556667  0.54745000  1.0
  O  O3  1  0.33765000  0.18556667  0.79745000  1.0
  O  O3  1  0.33765000  0.51890000  0.04745000  1.0
  O  O3  1  0.33765000  0.51890000  0.29745000  1.0
  O  O3  1  0.33765000  0.51890000  0.54745000  1.0
  O  O3  1  0.33765000  0.51890000  0.79745000  1.0
  O  O3  1  0.33765000  0.85223333  0.04745000  1.0
  O  O3  1  0.33765000  0.85223333  0.29745000  1.0
  O  O3  1  0.33765000  0.85223333  0.54745000  1.0
  O  O3  1  0.33765000  0.85223333  0.79745000  1.0
  O  O3  1  0.83765000  0.18556667  0.04745000  1.0
  O  O3  1  0.83765000  0.18556667  0.29745000  1.0
  O  O3  1  0.83765000  0.18556667  0.54745000  1.0
  O  O3  1  0.83765000  0.18556667  0.79745000  1.0
  O  O3  1  0.83765000  0.51890000  0.04745000  1.0
  O  O3  1  0.83765000  0.51890000  0.29745000  1.0
  O  O3  1  0.83765000  0.51890000  0.54745000  1.0
  O  O3  1  0.83765000  0.51890000  0.79745000  1.0
  O  O3  1  0.83765000  0.85223333  0.04745000  1.0
  O  O3  1  0.83765000  0.85223333  0.29745000  1.0
  O  O3  1  0.83765000  0.85223333  0.54745000  1.0
  O  O3  1  0.83765000  0.85223333  0.79745000  1.0
  O  O3  1  0.16235000  0.14776667  0.20255000  1.0
  O  O3  1  0.16235000  0.14776667  0.45255000  1.0
  O  O3  1  0.16235000  0.14776667  0.70255000  1.0
  O  O3  1  0.16235000  0.14776667  0.95255000  1.0
  O  O3  1  0.16235000  0.48110000  0.20255000  1.0
  O  O3  1  0.16235000  0.48110000  0.45255000  1.0
  O  O3  1  0.16235000  0.48110000  0.70255000  1.0
  O  O3  1  0.16235000  0.48110000  0.95255000  1.0
  O  O3  1  0.16235000  0.81443333  0.20255000  1.0
  O  O3  1  0.16235000  0.81443333  0.45255000  1.0
  O  O3  1  0.16235000  0.81443333  0.70255000  1.0
  O  O3  1  0.16235000  0.81443333  0.95255000  1.0
  O  O3  1  0.66235000  0.14776667  0.20255000  1.0
  O  O3  1  0.66235000  0.14776667  0.45255000  1.0
  O  O3  1  0.66235000  0.14776667  0.70255000  1.0
  O  O3  1  0.66235000  0.14776667  0.95255000  1.0
  O  O3  1  0.66235000  0.48110000  0.20255000  1.0
  O  O3  1  0.66235000  0.48110000  0.45255000  1.0
  O  O3  1  0.66235000  0.48110000  0.70255000  1.0
  O  O3  1  0.66235000  0.48110000  0.95255000  1.0
  O  O3  1  0.66235000  0.81443333  0.20255000  1.0
  O  O3  1  0.66235000  0.81443333  0.45255000  1.0
  O  O3  1  0.66235000  0.81443333  0.70255000  1.0
  O  O3  1  0.66235000  0.81443333  0.95255000  1.0
