# generated using pymatgen
data_Cs27Sn13.5Pb13.5I81
_symmetry_space_group_name_H-M   'P 1'
_cell_length_a   17.77485000
_cell_length_b   17.77485000
_cell_length_c   17.77485000
_cell_angle_alpha   90.00000000
_cell_angle_beta   90.00000000
_cell_angle_gamma   90.00000000
_symmetry_Int_Tables_number   1
_chemical_formula_structural   Cs27Sn13.5Pb13.5I81
_chemical_formula_sum   'Cs27 Sn13.5 Pb13.5 I81'
_cell_volume   5615.88018279
_cell_formula_units_Z   1
loop_
 _symmetry_equiv_pos_site_id
 _symmetry_equiv_pos_as_xyz
  1  'x, y, z'
loop_
 _atom_site_type_symbol
 _atom_site_label
 _atom_site_symmetry_multiplicity
 _atom_site_fract_x
 _atom_site_fract_y
 _atom_site_fract_z
 _atom_site_occupancy
  Cs  Cs1  1  0.00000000  0.00000000  0.00000000  1.0
  Cs  Cs1  1  0.00000000  0.00000000  0.33333333  1.0
  Cs  Cs1  1  0.00000000  0.00000000  0.66666667  1.0
  Cs  Cs1  1  0.00000000  0.33333333  0.00000000  1.0
  Cs  Cs1  1  0.00000000  0.33333333  0.33333333  1.0
  Cs  Cs1  1  0.00000000  0.33333333  0.66666667  1.0
  Cs  Cs1  1  0.00000000  0.66666667  0.00000000  1.0
  Cs  Cs1  1  0.00000000  0.66666667  0.33333333  1.0
  Cs  Cs1  1  0.00000000  0.66666667  0.66666667  1.0
  Cs  Cs1  1  0.33333333  0.00000000  0.00000000  1.0
  Cs  Cs1  1  0.33333333  0.00000000  0.33333333  1.0
  Cs  Cs1  1  0.33333333  0.00000000  0.66666667  1.0
  Cs  Cs1  1  0.33333333  0.33333333  0.00000000  1.0
  Cs  Cs1  1  0.33333333  0.33333333  0.33333333  1.0
  Cs  Cs1  1  0.33333333  0.33333333  0.66666667  1.0
  Cs  Cs1  1  0.33333333  0.66666667  0.00000000  1.0
  Cs  Cs1  1  0.33333333  0.66666667  0.33333333  1.0
  Cs  Cs1  1  0.33333333  0.66666667  0.66666667  1.0
  Cs  Cs1  1  0.66666667  0.00000000  0.00000000  1.0
  Cs  Cs1  1  0.66666667  0.00000000  0.33333333  1.0
  Cs  Cs1  1  0.66666667  0.00000000  0.66666667  1.0
  Cs  Cs1  1  0.66666667  0.33333333  0.00000000  1.0
  Cs  Cs1  1  0.66666667  0.33333333  0.33333333  1.0
  Cs  Cs1  1  0.66666667  0.33333333  0.66666667  1.0
  Cs  Cs1  1  0.66666667  0.66666667  0.00000000  1.0
  Cs  Cs1  1  0.66666667  0.66666667  0.33333333  1.0
  Cs  Cs1  1  0.66666667  0.66666667  0.66666667  1.0
  Sn  Sn1  1  0.16666667  0.83333333  0.83333333  1.0
  Sn  Sn1  1  0.16666667  0.83333333  0.16666667  1.0
  Sn  Sn1  1  0.50000000  0.83333333  0.83333333  1.0
  Sn  Sn1  1  0.83333333  0.83333333  0.50000000  1.0
  Sn  Sn1  1  0.83333333  0.50000000  0.16666667  1.0
  Sn  Sn1  1  0.50000000  0.50000000  0.50000000  1.0
  Sn  Sn1  1  0.50000000  0.16666667  0.83333333  1.0
  Sn  Sn1  1  0.50000000  0.16666667  0.50000000  1.0
  Sn  Sn1  1  0.83333333  0.16666667  0.16666667  1.0
  Sn  Sn1  1  0.83333333  0.83333333  0.83333333  1.0
  Sn  Sn1  1  0.16666667  0.16666667  0.83333333  1.0
  Sn  Sn1  1  0.16666667  0.50000000  0.50000000  1.0
  Sn  Sn1  1  0.83333333  0.83333333  0.16666667  1.0
  Sn  Sn1  1  0.50000000  0.16666667  0.16666667  1.0
  Pb  Sn1  1  0.83333333  0.16666667  0.50000000  1.0
  Pb  Sn1  1  0.16666667  0.16666667  0.50000000  1.0
  Pb  Sn1  1  0.16666667  0.83333333  0.50000000  1.0
  Pb  Sn1  1  0.83333333  0.16666667  0.83333333  1.0
  Pb  Sn1  1  0.16666667  0.50000000  0.16666667  1.0
  Pb  Sn1  1  0.50000000  0.83333333  0.50000000  1.0
  Pb  Sn1  1  0.83333333  0.50000000  0.50000000  1.0
  Pb  Sn1  1  0.50000000  0.50000000  0.83333333  1.0
  Pb  Sn1  1  0.83333333  0.50000000  0.83333333  1.0
  Pb  Sn1  1  0.16666667  0.50000000  0.83333333  1.0
  Pb  Sn1  1  0.50000000  0.83333333  0.16666667  1.0
  Pb  Sn1  1  0.16666667  0.16666667  0.16666667  1.0
  Pb  Sn1  1  0.50000000  0.50000000  0.16666667  1.0
  I  I1  1  0.16666667  0.00000000  0.16666667  1.0
  I  I1  1  0.16666667  0.00000000  0.50000000  1.0
  I  I1  1  0.16666667  0.00000000  0.83333333  1.0
  I  I1  1  0.16666667  0.33333333  0.16666667  1.0
  I  I1  1  0.16666667  0.33333333  0.50000000  1.0
  I  I1  1  0.16666667  0.33333333  0.83333333  1.0
  I  I1  1  0.16666667  0.66666667  0.16666667  1.0
  I  I1  1  0.16666667  0.66666667  0.50000000  1.0
  I  I1  1  0.16666667  0.66666667  0.83333333  1.0
  I  I1  1  0.50000000  0.00000000  0.16666667  1.0
  I  I1  1  0.50000000  0.00000000  0.50000000  1.0
  I  I1  1  0.50000000  0.00000000  0.83333333  1.0
  I  I1  1  0.50000000  0.33333333  0.16666667  1.0
  I  I1  1  0.50000000  0.33333333  0.50000000  1.0
  I  I1  1  0.50000000  0.33333333  0.83333333  1.0
  I  I1  1  0.50000000  0.66666667  0.16666667  1.0
  I  I1  1  0.50000000  0.66666667  0.50000000  1.0
  I  I1  1  0.50000000  0.66666667  0.83333333  1.0
  I  I1  1  0.83333333  0.00000000  0.16666667  1.0
  I  I1  1  0.83333333  0.00000000  0.50000000  1.0
  I  I1  1  0.83333333  0.00000000  0.83333333  1.0
  I  I1  1  0.83333333  0.33333333  0.16666667  1.0
  I  I1  1  0.83333333  0.33333333  0.50000000  1.0
  I  I1  1  0.83333333  0.33333333  0.83333333  1.0
  I  I1  1  0.83333333  0.66666667  0.16666667  1.0
  I  I1  1  0.83333333  0.66666667  0.50000000  1.0
  I  I1  1  0.83333333  0.66666667  0.83333333  1.0
  I  I2  1  0.16666667  0.16666667  0.00000000  1.0
  I  I2  1  0.16666667  0.16666667  0.33333333  1.0
  I  I2  1  0.16666667  0.16666667  0.66666667  1.0
  I  I2  1  0.16666667  0.50000000  0.00000000  1.0
  I  I2  1  0.16666667  0.50000000  0.33333333  1.0
  I  I2  1  0.16666667  0.50000000  0.66666667  1.0
  I  I2  1  0.16666667  0.83333333  0.00000000  1.0
  I  I2  1  0.16666667  0.83333333  0.33333333  1.0
  I  I2  1  0.16666667  0.83333333  0.66666667  1.0
  I  I2  1  0.50000000  0.16666667  0.00000000  1.0
  I  I2  1  0.50000000  0.16666667  0.33333333  1.0
  I  I2  1  0.50000000  0.16666667  0.66666667  1.0
  I  I2  1  0.50000000  0.50000000  0.00000000  1.0
  I  I2  1  0.50000000  0.50000000  0.33333333  1.0
  I  I2  1  0.50000000  0.50000000  0.66666667  1.0
  I  I2  1  0.50000000  0.83333333  0.00000000  1.0
  I  I2  1  0.50000000  0.83333333  0.33333333  1.0
  I  I2  1  0.50000000  0.83333333  0.66666667  1.0
  I  I2  1  0.83333333  0.16666667  0.00000000  1.0
  I  I2  1  0.83333333  0.16666667  0.33333333  1.0
  I  I2  1  0.83333333  0.16666667  0.66666667  1.0
  I  I2  1  0.83333333  0.50000000  0.00000000  1.0
  I  I2  1  0.83333333  0.50000000  0.33333333  1.0
  I  I2  1  0.83333333  0.50000000  0.66666667  1.0
  I  I2  1  0.83333333  0.83333333  0.00000000  1.0
  I  I2  1  0.83333333  0.83333333  0.33333333  1.0
  I  I2  1  0.83333333  0.83333333  0.66666667  1.0
  I  I3  1  0.00000000  0.16666667  0.16666667  1.0
  I  I3  1  0.00000000  0.16666667  0.50000000  1.0
  I  I3  1  0.00000000  0.16666667  0.83333333  1.0
  I  I3  1  0.00000000  0.50000000  0.16666667  1.0
  I  I3  1  0.00000000  0.50000000  0.50000000  1.0
  I  I3  1  0.00000000  0.50000000  0.83333333  1.0
  I  I3  1  0.00000000  0.83333333  0.16666667  1.0
  I  I3  1  0.00000000  0.83333333  0.50000000  1.0
  I  I3  1  0.00000000  0.83333333  0.83333333  1.0
  I  I3  1  0.33333333  0.16666667  0.16666667  1.0
  I  I3  1  0.33333333  0.16666667  0.50000000  1.0
  I  I3  1  0.33333333  0.16666667  0.83333333  1.0
  I  I3  1  0.33333333  0.50000000  0.16666667  1.0
  I  I3  1  0.33333333  0.50000000  0.50000000  1.0
  I  I3  1  0.33333333  0.50000000  0.83333333  1.0
  I  I3  1  0.33333333  0.83333333  0.16666667  1.0
  I  I3  1  0.33333333  0.83333333  0.50000000  1.0
  I  I3  1  0.33333333  0.83333333  0.83333333  1.0
  I  I3  1  0.66666667  0.16666667  0.16666667  1.0
  I  I3  1  0.66666667  0.16666667  0.50000000  1.0
  I  I3  1  0.66666667  0.16666667  0.83333333  1.0
  I  I3  1  0.66666667  0.50000000  0.16666667  1.0
  I  I3  1  0.66666667  0.50000000  0.50000000  1.0
  I  I3  1  0.66666667  0.50000000  0.83333333  1.0
  I  I3  1  0.66666667  0.83333333  0.16666667  1.0
  I  I3  1  0.66666667  0.83333333  0.50000000  1.0
  I  I3  1  0.66666667  0.83333333  0.83333333  1.0








































































































































































































































































































































































































































































































































































































































































































































































































































































































































































































































































