# generated using pymatgen
data_La9Ce10Pr6Nd4Sm3(BiS2)32
_symmetry_space_group_name_H-M   'P 1'
_cell_length_a   16.23842437
_cell_length_b   16.22995200
_cell_length_c   27.05783399
_cell_angle_alpha   89.99845362
_cell_angle_beta   89.96310621
_cell_angle_gamma   90.07859456
_symmetry_Int_Tables_number   1
_chemical_formula_structural   La9Ce10Pr6Nd4Sm3(BiS2)32
_chemical_formula_sum   'La18 Ce20 Pr12 Nd8 Sm6 Bi64 S128'
_cell_volume   7131.05279213
_cell_formula_units_Z   2
loop_
 _symmetry_equiv_pos_site_id
 _symmetry_equiv_pos_as_xyz
  1  'x, y, z'
loop_
 _atom_type_symbol
 _atom_type_oxidation_number
  La3+  3.0
  Ce3+  3.0
  Pr3+  3.0
  Nd3+  3.0
  Sm3+  3.0
  Bi2+  2.0
  S2-  -2.0
loop_
 _atom_site_type_symbol
 _atom_site_label
 _atom_site_symmetry_multiplicity
 _atom_site_fract_x
 _atom_site_fract_y
 _atom_site_fract_z
 _atom_site_occupancy
  La3+  La0  1  0.37955288  -0.00434730  0.90124136  1
  La3+  La1  1  0.88101534  -0.00197849  0.40683767  1
  La3+  La2  1  0.51148795  0.86634082  0.59199803  1
  La3+  La3  1  0.87858942  0.48861112  0.42805969  1
  La3+  La4  1  0.12184631  0.26122304  0.92163663  1
  La3+  La5  1  0.61949372  0.24857071  0.93277733  1
  La3+  La6  1  0.12849218  0.73879928  0.42316119  1
  La3+  La7  1  0.49738999  0.12808860  0.06931445  1
  La3+  La8  1  0.25156355  0.36970126  0.56103277  1
  La3+  La9  1  0.63103784  0.50022381  0.92182870  1
  La3+  La10  1  0.49548425  0.87439772  0.07126452  1
  La3+  La11  1  0.11947326  0.76204010  0.92747883  1
  La3+  La12  1  0.87427523  0.75287674  0.94639473  1
  La3+  La13  1  0.00657973  0.88341769  0.08089295  1
  La3+  La14  1  0.37828346  0.49490869  0.43014694  1
  La3+  La15  1  0.11774649  0.01095874  0.92372229  1
  La3+  La16  1  0.50662564  0.61654708  0.08134315  1
  La3+  La17  1  0.87525501  0.00330836  0.94341101  1
  Ce3+  Ce18  1  0.24893607  0.37897605  0.05724948  1
  Ce3+  Ce19  1  0.37363856  0.25299013  0.94495090  1
  Ce3+  Ce20  1  0.50363426  0.11270125  0.55938640  1
  Ce3+  Ce21  1  0.74948427  0.62307934  0.06532230  1
  Ce3+  Ce22  1  0.75044414  0.12734895  0.06107008  1
  Ce3+  Ce23  1  0.00359140  0.86895306  0.55327700  1
  Ce3+  Ce24  1  0.62501674  0.49121844  0.43090974  1
  Ce3+  Ce25  1  0.38014078  0.51050157  0.93898065  1
  Ce3+  Ce26  1  0.75139393  0.87863415  0.06730425  1
  Ce3+  Ce27  1  0.00599713  0.11308559  0.55706634  1
  Ce3+  Ce28  1  0.87869717  0.23776704  0.43457952  1
  Ce3+  Ce29  1  0.00219526  0.62638222  0.06230547  1
  Ce3+  Ce30  1  0.75130413  0.86938412  0.55334969  1
  Ce3+  Ce31  1  0.00516312  0.61794418  0.55426115  1
  Ce3+  Ce32  1  0.37843343  -0.01380195  0.45173348  1
  Ce3+  Ce33  1  0.24742049  0.12493828  0.04829259  1
  Ce3+  Ce34  1  0.75528648  0.11499056  0.55311946  1
  Ce3+  Ce35  1  0.12864209  0.24020887  0.43613192  1
  Ce3+  Ce36  1  0.24882683  0.87678006  0.05186331  1
  Ce3+  Ce37  1  0.13136170  -0.01674333  0.43136033  1
  Pr3+  Pr38  1  0.25405708  0.62011144  0.55893342  1
  Pr3+  Pr39  1  0.61905501  -0.00306122  0.94205204  1
  Pr3+  Pr40  1  0.87267629  0.24977377  0.93636372  1
  Pr3+  Pr41  1  0.87952119  0.74273744  0.43530929  1
  Pr3+  Pr42  1  0.75772160  0.61315850  0.55867034  1
  Pr3+  Pr43  1  0.01229287  0.13641470  0.07290488  1
  Pr3+  Pr44  1  0.87365676  0.50362243  0.93811733  1
  Pr3+  Pr45  1  0.38832651  0.74632463  0.43624593  1
  Pr3+  Pr46  1  0.37850699  0.24056514  0.44192655  1
  Pr3+  Pr47  1  0.50585967  0.36624661  0.56511675  1
  Pr3+  Pr48  1  0.50731800  0.61234486  0.57053601  1
  Pr3+  Pr49  1  0.75500236  0.36381645  0.55400080  1
  Nd3+  Nd50  1  0.50068469  0.37820529  0.05927231  1
  Nd3+  Nd51  1  0.37549614  0.74751361  0.93660018  1
  Nd3+  Nd52  1  0.75069628  0.37520636  0.05690121  1
  Nd3+  Nd53  1  0.62912786  0.74031685  0.44120457  1
  Nd3+  Nd54  1  0.12717469  0.50579080  0.93690490  1
  Nd3+  Nd55  1  0.24986611  0.85867798  0.57384732  1
  Nd3+  Nd56  1  0.12921067  0.48203529  0.39546883  1
  Nd3+  Nd57  1  0.62135477  -0.01142464  0.43297711  1
  Sm3+  Sm58  1  0.24821899  0.62796227  0.06493098  1
  Sm3+  Sm59  1  0.62067027  0.75133280  0.95141819  1
  Sm3+  Sm60  1  0.00129881  0.37622869  0.05782356  1
  Sm3+  Sm61  1  0.00496632  0.36574088  0.55273668  1
  Sm3+  Sm62  1  0.25176397  0.11329343  0.55648015  1
  Sm3+  Sm63  1  0.62642387  0.23967028  0.44134349  1
  Bi2+  Bi64  1  0.04714346  0.14634972  0.28749332  1
  Bi2+  Bi65  1  -0.03617091  0.13975689  0.80289776  1
  Bi2+  Bi66  1  -0.08186521  0.33998831  0.31254522  1
  Bi2+  Bi67  1  0.01959641  0.39304572  0.75226911  1
  Bi2+  Bi68  1  0.00417361  0.61931216  0.27495633  1
  Bi2+  Bi69  1  0.04450878  0.55299137  0.81265152  1
  Bi2+  Bi70  1  0.00537788  0.87002860  0.28886210  1
  Bi2+  Bi71  1  0.00617554  0.86591876  0.78908936  1
  Bi2+  Bi72  1  0.23906772  0.12995573  0.29031063  1
  Bi2+  Bi73  1  0.27146167  0.19130875  0.79256079  1
  Bi2+  Bi74  1  0.18061998  0.40319763  0.26431754  1
  Bi2+  Bi75  1  0.24660511  0.38624973  0.77812130  1
  Bi2+  Bi76  1  0.26275088  0.60648946  0.27451467  1
  Bi2+  Bi77  1  0.26727781  0.58415432  0.79176861  1
  Bi2+  Bi78  1  0.25866140  0.93020410  0.28019696  1
  Bi2+  Bi79  1  0.25238493  0.83993238  0.78260547  1
  Bi2+  Bi80  1  0.45482795  0.13748703  0.31293457  1
  Bi2+  Bi81  1  0.57704803  0.14910701  0.77802622  1
  Bi2+  Bi82  1  0.52060095  0.36985668  0.30002799  1
  Bi2+  Bi83  1  0.50277783  0.37505990  0.79703428  1
  Bi2+  Bi84  1  0.48618132  0.65059894  0.29538274  1
  Bi2+  Bi85  1  0.52699217  0.65516774  0.77541886  1
  Bi2+  Bi86  1  0.51561698  0.89693538  0.29148397  1
  Bi2+  Bi87  1  0.52070122  0.87335979  0.79063175  1
  Bi2+  Bi88  1  0.75312974  0.23661924  0.28965648  1
  Bi2+  Bi89  1  0.76285071  0.15332729  0.81589455  1
  Bi2+  Bi90  1  0.74676908  0.44285305  0.31975164  1
  Bi2+  Bi91  1  0.80015120  0.37979460  0.80701938  1
  Bi2+  Bi92  1  0.70652215  0.63447997  0.31505884  1
  Bi2+  Bi93  1  0.82271700  0.68865371  0.80605503  1
  Bi2+  Bi94  1  0.74806978  0.80978408  0.26879309  1
  Bi2+  Bi95  1  0.72143994  0.87562398  0.80605566  1
  Bi2+  Bi96  1  0.11967561  0.01241987  0.20952750  1
  Bi2+  Bi97  1  0.11112453  0.01512545  0.69933448  1
  Bi2+  Bi98  1  0.22181416  0.25952741  0.19182595  1
  Bi2+  Bi99  1  0.10665206  0.23836532  0.68920610  1
  Bi2+  Bi100  1  0.03278767  0.44339598  0.19516726  1
  Bi2+  Bi101  1  0.21716382  0.50293417  0.67686883  1
  Bi2+  Bi102  1  0.11706356  0.75268948  0.19667542  1
  Bi2+  Bi103  1  0.10460492  0.64842778  0.71267598  1
  Bi2+  Bi104  1  0.37778272  0.05394504  0.21746681  1
  Bi2+  Bi105  1  0.36121363  0.02001922  0.70302028  1
  Bi2+  Bi106  1  0.42082728  0.24337218  0.18861581  1
  Bi2+  Bi107  1  0.42673154  0.24620359  0.71868387  1
  Bi2+  Bi108  1  0.38993018  0.43004719  0.21897414  1
  Bi2+  Bi109  1  0.39965059  0.48372897  0.71920700  1
  Bi2+  Bi110  1  0.34789918  0.78880808  0.19609415  1
  Bi2+  Bi111  1  0.36970378  0.71584109  0.70106309  1
  Bi2+  Bi112  1  0.65014424  0.06412774  0.23264290  1
  Bi2+  Bi113  1  0.65335263  0.01463537  0.70603756  1
  Bi2+  Bi114  1  0.61014540  0.28318482  0.20834490  1
  Bi2+  Bi115  1  0.60741069  0.28672828  0.69161295  1
  Bi2+  Bi116  1  0.62562346  0.48054656  0.22204746  1
  Bi2+  Bi117  1  0.65902371  0.47557907  0.70473973  1
  Bi2+  Bi118  1  0.59889747  0.74320928  0.20459965  1
  Bi2+  Bi119  1  0.71362162  0.75081745  0.71542876  1
  Bi2+  Bi120  1  0.84819632  -0.00243510  0.21123741  1
  Bi2+  Bi121  1  0.84374254  -0.00945233  0.74796767  1
  Bi2+  Bi122  1  0.91906109  0.22362005  0.21926039  1
  Bi2+  Bi123  1  0.80272634  0.25424403  0.71819988  1
  Bi2+  Bi124  1  0.84308561  0.45689379  0.20918339  1
  Bi2+  Bi125  1  0.89628974  0.54420075  0.73850942  1
  Bi2+  Bi126  1  0.83405200  0.64908473  0.22390866  1
  Bi2+  Bi127  1  0.89843308  0.81099421  0.70296603  1
  S2-  S128  1  -0.01560965  0.02048170  0.14892004  1
  S2-  S129  1  -0.00295730  0.12671299  0.65671395  1
  S2-  S130  1  0.00591217  0.28196275  0.14096595  1
  S2-  S131  1  0.01030030  0.35635542  0.65285207  1
  S2-  S132  1  0.04138901  0.60575196  0.15796371  1
  S2-  S133  1  -0.03002333  0.61505494  0.65212241  1
  S2-  S134  1  -0.02172859  0.82346349  0.18031706  1
  S2-  S135  1  0.02569244  0.88973416  0.65099048  1
  S2-  S136  1  0.16679623  0.12817924  0.13534057  1
  S2-  S137  1  0.23418856  0.11823681  0.65579659  1
  S2-  S138  1  0.25533435  0.42524469  0.15228490  1
  S2-  S139  1  0.24576687  0.33500616  0.66031472  1
  S2-  S140  1  0.25446003  0.65085492  0.16499182  1
  S2-  S141  1  0.22289477  0.71888880  0.64209255  1
  S2-  S142  1  0.20878334  0.87975640  0.14910593  1
  S2-  S143  1  0.23270671  0.91717962  0.67383917  1
  S2-  S144  1  0.53827437  0.07952275  0.16529791  1
  S2-  S145  1  0.50810739  0.04796863  0.64944968  1
  S2-  S146  1  0.50094455  0.46702685  0.14510668  1
  S2-  S147  1  0.51160777  0.48016610  0.64262936  1
  S2-  S148  1  0.45365660  0.66795138  0.17741818  1
  S2-  S149  1  0.51298463  0.69867850  0.66053250  1
  S2-  S150  1  0.49123248  0.87077270  0.17407283  1
  S2-  S151  1  0.43335827  0.87189377  0.68746702  1
  S2-  S152  1  0.76470709  0.11479215  0.16005647  1
  S2-  S153  1  0.75034069  0.12491532  0.65121190  1
  S2-  S154  1  0.74232035  0.35137532  0.15600815  1
  S2-  S155  1  0.77622440  0.39183224  0.65336356  1
  S2-  S156  1  0.66178130  0.60920567  0.14934133  1
  S2-  S157  1  0.71674314  0.60575717  0.65729719  1
  S2-  S158  1  0.74160685  0.88669369  0.16668174  1
  S2-  S159  1  0.66902755  0.87470944  0.64130006  1
  S2-  S160  1  0.03027080  0.01050270  0.34858872  1
  S2-  S161  1  0.15126294  -0.09142512  0.84334051  1
  S2-  S162  1  0.12804902  0.32422214  0.35039208  1
  S2-  S163  1  0.12040983  0.14739131  0.84526997  1
  S2-  S164  1  0.13617304  0.63002513  0.33968311  1
  S2-  S165  1  0.13973202  0.39997856  0.85600303  1
  S2-  S166  1  0.16429174  0.86333893  0.35238175  1
  S2-  S167  1  0.18938368  0.72015879  0.83635264  1
  S2-  S168  1  0.41586476  -0.03265965  0.35571640  1
  S2-  S169  1  0.32507199  0.03977516  0.80408755  1
  S2-  S170  1  0.38590298  0.27705681  0.34256177  1
  S2-  S171  1  0.40734154  0.24827647  0.84960456  1
  S2-  S172  1  0.28076861  0.48419995  0.34378878  1
  S2-  S173  1  0.37646704  0.62085581  0.86459224  1
  S2-  S174  1  0.34329647  0.70692418  0.33428167  1
  S2-  S175  1  0.38593297  0.84291041  0.84811246  1
  S2-  S176  1  0.63451670  -0.01384428  0.33081686  1
  S2-  S177  1  0.53592833  0.00787601  0.85212860  1
  S2-  S178  1  0.59993104  0.21225990  0.34496799  1
  S2-  S179  1  0.64470607  0.34938957  0.85115232  1
  S2-  S180  1  0.50667393  0.51236221  0.35886418  1
  S2-  S181  1  0.54153501  0.52875584  0.83464504  1
  S2-  S182  1  0.52619179  0.76799307  0.36206638  1
  S2-  S183  1  0.59536768  0.74585360  0.85181486  1
  S2-  S184  1  0.84798952  -0.07122813  0.31160941  1
  S2-  S185  1  0.96326601  -0.00554570  0.85670118  1
  S2-  S186  1  0.85889452  0.14769348  0.35091934  1
  S2-  S187  1  0.94427452  0.29342791  0.84717207  1
  S2-  S188  1  0.97605757  0.49700163  0.34258209  1
  S2-  S189  1  0.77526343  0.53095411  0.85466458  1
  S2-  S190  1  0.96093586  0.74699684  0.34480728  1
  S2-  S191  1  0.96458596  0.75943571  0.85887048  1
  S2-  S192  1  0.00518431  0.11724992  0.45201994  1
  S2-  S193  1  -0.00159592  0.13300377  0.95900633  1
  S2-  S194  1  0.00418636  0.36428285  0.45031980  1
  S2-  S195  1  -0.00276803  0.38303120  0.95507114  1
  S2-  S196  1  0.00213378  0.61407027  0.44888528  1
  S2-  S197  1  0.00039848  0.62468555  0.95556194  1
  S2-  S198  1  -0.00227370  0.87161156  0.44878723  1
  S2-  S199  1  -0.00220233  0.87832593  0.96583888  1
  S2-  S200  1  0.25443414  0.11372370  0.44970462  1
  S2-  S201  1  0.25824277  0.12251740  0.94334200  1
  S2-  S202  1  0.25318156  0.36552097  0.45312344  1
  S2-  S203  1  0.25732100  0.38216220  0.95206021  1
  S2-  S204  1  0.26005526  0.62253813  0.45271500  1
  S2-  S205  1  0.24382680  0.62947918  0.95897704  1
  S2-  S206  1  0.25885265  0.86378704  0.46276901  1
  S2-  S207  1  0.25546296  0.87945691  0.94902412  1
  S2-  S208  1  0.50333723  0.11505212  0.45389269  1
  S2-  S209  1  0.49520714  0.12400861  0.95856177  1
  S2-  S210  1  0.50475154  0.36257038  0.45722965  1
  S2-  S211  1  0.49949545  0.37865944  0.95318744  1
  S2-  S212  1  0.50677712  0.61894224  0.46195692  1
  S2-  S213  1  0.50666725  0.62670064  0.96524086  1
  S2-  S214  1  0.50730442  0.86898504  0.46902054  1
  S2-  S215  1  0.49695652  0.87398918  0.96166383  1
  S2-  S216  1  0.74638615  0.11248150  0.44796151  1
  S2-  S217  1  0.74432106  0.12452017  0.95319524  1
  S2-  S218  1  0.75123487  0.36071240  0.44689525  1
  S2-  S219  1  0.75260514  0.37402690  0.95295394  1
  S2-  S220  1  0.75401943  0.61633679  0.45026148  1
  S2-  S221  1  0.74723216  0.63112809  0.95977274  1
  S2-  S222  1  0.75341773  0.86894963  0.44331570  1
  S2-  S223  1  0.74668674  0.87586560  0.95746835  1
  S2-  S224  1  0.12580655  0.00118183  0.03689741  1
  S2-  S225  1  0.13183281  -0.00925501  0.54230334  1
  S2-  S226  1  0.12881965  0.25932954  0.03321819  1
  S2-  S227  1  0.12897334  0.23962547  0.54413445  1
  S2-  S228  1  0.12364311  0.50133460  0.04489987  1
  S2-  S229  1  0.12486589  0.49289919  0.55000968  1
  S2-  S230  1  0.12420198  0.74995655  0.04658988  1
  S2-  S231  1  0.12278688  0.74388329  0.53676391  1
  S2-  S232  1  0.37232675  0.00278138  0.06067082  1
  S2-  S233  1  0.37326556  -0.01133772  0.55653855  1
  S2-  S234  1  0.37262779  0.25434199  0.05152795  1
  S2-  S235  1  0.37789249  0.23855003  0.55148599  1
  S2-  S236  1  0.37221039  0.50594152  0.04610475  1
  S2-  S237  1  0.37809352  0.49181779  0.54416510  1
  S2-  S238  1  0.37243112  0.74694219  0.05007570  1
  S2-  S239  1  0.38389491  0.74431276  0.55101598  1
  S2-  S240  1  0.62437414  0.00002454  0.05080095  1
  S2-  S241  1  0.63009363  -0.00508036  0.54120190  1
  S2-  S242  1  0.62344400  0.25238704  0.04589914  1
  S2-  S243  1  0.62793088  0.23953166  0.54694794  1
  S2-  S244  1  0.62979199  0.49634804  0.04016414  1
  S2-  S245  1  0.63343342  0.48883550  0.53962229  1
  S2-  S246  1  0.62612064  0.75346595  0.05610795  1
  S2-  S247  1  0.63341910  0.73809531  0.54642551  1
  S2-  S248  1  0.87228516  0.00306869  0.04973448  1
  S2-  S249  1  0.87756303  -0.00878215  0.54838087  1
  S2-  S250  1  0.87483480  0.25079501  0.04467549  1
  S2-  S251  1  0.88174688  0.24098081  0.54381718  1
  S2-  S252  1  0.87635854  0.49941188  0.04983432  1
  S2-  S253  1  0.88177898  0.48785071  0.54021630  1
  S2-  S254  1  0.87517670  0.75138138  0.05702386  1
  S2-  S255  1  0.87663048  0.74391338  0.54395384  1
