# generated using pymatgen
data_La9Ce10Pr6Nd4Sm3(BiS2)32
_symmetry_space_group_name_H-M   'P 1'
_cell_length_a   16.19258317
_cell_length_b   16.23982125
_cell_length_c   27.29903702
_cell_angle_alpha   89.76955529
_cell_angle_beta   90.11376427
_cell_angle_gamma   90.02439459
_symmetry_Int_Tables_number   1
_chemical_formula_structural   La9Ce10Pr6Nd4Sm3(BiS2)32
_chemical_formula_sum   'La18 Ce20 Pr12 Nd8 Sm6 Bi64 S128'
_cell_volume   7178.60904494
_cell_formula_units_Z   2
loop_
 _symmetry_equiv_pos_site_id
 _symmetry_equiv_pos_as_xyz
  1  'x, y, z'
loop_
 _atom_type_symbol
 _atom_type_oxidation_number
  La3+  3.0
  Ce3+  3.0
  Pr3+  3.0
  Nd3+  3.0
  Sm3+  3.0
  Bi2+  2.0
  S2-  -2.0
loop_
 _atom_site_type_symbol
 _atom_site_label
 _atom_site_symmetry_multiplicity
 _atom_site_fract_x
 _atom_site_fract_y
 _atom_site_fract_z
 _atom_site_occupancy
  La3+  La0  1  0.49677292  0.37128898  0.55515128  1
  La3+  La1  1  0.35637062  0.75512858  0.90582771  1
  La3+  La2  1  0.11391612  0.25489172  0.93909082  1
  La3+  La3  1  0.23180517  0.12437965  0.07925493  1
  La3+  La4  1  0.74345684  0.61378698  0.12075508  1
  La3+  La5  1  0.49123010  0.86212661  0.58239963  1
  La3+  La6  1  0.72979444  0.87228391  0.07855799  1
  La3+  La7  1  0.85970070  0.25280436  0.93984512  1
  La3+  La8  1  0.60641378  0.25594225  0.92886848  1
  La3+  La9  1  0.75345703  0.86701868  0.57615997  1
  La3+  La10  1  0.85852547  0.75115347  0.94229876  1
  La3+  La11  1  0.62238808  -0.00097913  0.44375362  1
  La3+  La12  1  0.61682637  0.75699707  0.42756536  1
  La3+  La13  1  -0.00310927  0.37231636  0.56118935  1
  La3+  La14  1  -0.00833539  0.62874750  0.07295705  1
  La3+  La15  1  0.24026542  0.87622097  0.06709877  1
  La3+  La16  1  0.72812644  0.12254289  0.07486202  1
  La3+  La17  1  0.35042708  0.00563111  0.92639278  1
  Ce3+  Ce18  1  0.24448792  0.87112832  0.56057846  1
  Ce3+  Ce19  1  0.24434617  0.12112084  0.55860601  1
  Ce3+  Ce20  1  0.86853582  0.24417275  0.44588040  1
  Ce3+  Ce21  1  0.49592431  0.62562417  0.55293018  1
  Ce3+  Ce22  1  0.49038210  0.87183104  0.05110388  1
  Ce3+  Ce23  1  -0.01246510  0.37494330  0.06549989  1
  Ce3+  Ce24  1  0.49762856  0.11990333  0.56335026  1
  Ce3+  Ce25  1  0.37024688  -0.00412544  0.45164307  1
  Ce3+  Ce26  1  0.11831641  0.74624365  0.44090238  1
  Ce3+  Ce27  1  0.86783275  -0.00164780  0.44739818  1
  Ce3+  Ce28  1  0.62298656  0.23983300  0.43335294  1
  Ce3+  Ce29  1  0.36864787  0.49657685  0.44175465  1
  Ce3+  Ce30  1  0.85739633  0.00343932  0.94287782  1
  Ce3+  Ce31  1  0.49038302  0.12270148  0.04863917  1
  Ce3+  Ce32  1  -0.00644260  0.62230219  0.54744896  1
  Ce3+  Ce33  1  0.11744362  0.24826290  0.43690026  1
  Ce3+  Ce34  1  0.24536284  0.62381400  0.55653367  1
  Ce3+  Ce35  1  0.49144872  0.37636072  0.06079468  1
  Ce3+  Ce36  1  0.35739820  0.25541562  0.94695743  1
  Ce3+  Ce37  1  0.86045055  0.49438900  0.42901490  1
  Pr3+  Pr38  1  0.60766893  0.50578163  0.93921880  1
  Pr3+  Pr39  1  0.74644154  0.62222466  0.55829037  1
  Pr3+  Pr40  1  0.73721611  0.13221182  0.58873861  1
  Pr3+  Pr41  1  0.61168043  -0.00039695  0.92941202  1
  Pr3+  Pr42  1  0.11643737  0.49726334  0.43398868  1
  Pr3+  Pr43  1  0.12159297  -0.00333583  0.43623608  1
  Pr3+  Pr44  1  0.11257135  0.75064043  0.93741442  1
  Pr3+  Pr45  1  0.60870233  0.75218109  0.93250807  1
  Pr3+  Pr46  1  0.86146217  0.74812483  0.42378078  1
  Pr3+  Pr47  1  0.73617879  0.37689799  0.06054593  1
  Pr3+  Pr48  1  0.86067916  0.50440663  0.94794569  1
  Pr3+  Pr49  1  0.61795293  0.49614169  0.43186304  1
  Nd3+  Nd50  1  0.23717395  0.62367924  0.07169706  1
  Nd3+  Nd51  1  0.36927474  0.74908242  0.43132902  1
  Nd3+  Nd52  1  0.74376072  0.37435390  0.55716063  1
  Nd3+  Nd53  1  0.11188216  0.00083162  0.94565630  1
  Nd3+  Nd54  1  0.36918771  0.24461042  0.43897545  1
  Nd3+  Nd55  1  0.24588272  0.37037256  0.55742267  1
  Nd3+  Nd56  1  -0.01484664  0.12475337  0.06186221  1
  Nd3+  Nd57  1  -0.00445223  0.12255399  0.55973883  1
  Sm3+  Sm58  1  0.49211112  0.62781504  0.05467059  1
  Sm3+  Sm59  1  -0.00431455  0.87099790  0.55449711  1
  Sm3+  Sm60  1  0.24333405  0.36752204  0.07369709  1
  Sm3+  Sm61  1  0.35708835  0.50378312  0.94988272  1
  Sm3+  Sm62  1  0.11339971  0.50351395  0.95179999  1
  Sm3+  Sm63  1  -0.01766432  0.87331094  0.05563777  1
  Bi2+  Bi64  1  -0.00541940  0.15351712  0.28964578  1
  Bi2+  Bi65  1  0.11588394  0.02999891  0.76956817  1
  Bi2+  Bi66  1  0.03169495  0.34671935  0.30008725  1
  Bi2+  Bi67  1  0.00168145  0.37005405  0.81577249  1
  Bi2+  Bi68  1  0.09908520  0.60947531  0.29801915  1
  Bi2+  Bi69  1  0.02642838  0.62030278  0.78725851  1
  Bi2+  Bi70  1  0.03570481  0.93446140  0.25564298  1
  Bi2+  Bi71  1  0.02759729  0.81550761  0.81264233  1
  Bi2+  Bi72  1  0.27800124  0.09064264  0.31236155  1
  Bi2+  Bi73  1  0.28683415  0.13034683  0.79142526  1
  Bi2+  Bi74  1  0.27137857  0.45049203  0.25544314  1
  Bi2+  Bi75  1  0.24818534  0.38146796  0.81873278  1
  Bi2+  Bi76  1  0.28894420  0.64772339  0.31277617  1
  Bi2+  Bi77  1  0.29537120  0.58453062  0.75860225  1
  Bi2+  Bi78  1  0.28346473  0.84107284  0.29673541  1
  Bi2+  Bi79  1  0.21847021  0.84737729  0.78565002  1
  Bi2+  Bi80  1  0.52122000  0.19345536  0.30483439  1
  Bi2+  Bi81  1  0.43796945  0.13062944  0.71881167  1
  Bi2+  Bi82  1  0.52724143  0.45911605  0.31045422  1
  Bi2+  Bi83  1  0.50402869  0.35260684  0.80377537  1
  Bi2+  Bi84  1  0.48127203  0.64175394  0.27582866  1
  Bi2+  Bi85  1  0.56979609  0.57085565  0.75162009  1
  Bi2+  Bi86  1  0.50519720  0.89118064  0.29398410  1
  Bi2+  Bi87  1  0.50435679  0.85903141  0.80131585  1
  Bi2+  Bi88  1  0.77526974  0.10897616  0.29233493  1
  Bi2+  Bi89  1  0.77863513  0.14173244  0.79439481  1
  Bi2+  Bi90  1  0.68408352  0.34567359  0.29972298  1
  Bi2+  Bi91  1  0.77839426  0.41734630  0.78349545  1
  Bi2+  Bi92  1  0.82540898  0.60876206  0.29923746  1
  Bi2+  Bi93  1  0.76082807  0.61154339  0.75462249  1
  Bi2+  Bi94  1  0.77431611  0.86177348  0.30308771  1
  Bi2+  Bi95  1  0.75783477  0.88544732  0.80889975  1
  Bi2+  Bi96  1  0.17467838  0.05594742  0.22157615  1
  Bi2+  Bi97  1  0.11554821  -0.08350520  0.66853198  1
  Bi2+  Bi98  1  0.12339183  0.28765686  0.19210390  1
  Bi2+  Bi99  1  0.11062634  0.26201175  0.69712806  1
  Bi2+  Bi100  1  0.04389483  0.53225843  0.20359918  1
  Bi2+  Bi101  1  0.13589671  0.47826801  0.73999348  1
  Bi2+  Bi102  1  0.18978601  0.84574249  0.19747021  1
  Bi2+  Bi103  1  0.11232410  0.73633372  0.71021893  1
  Bi2+  Bi104  1  0.43940534  0.05071567  0.24022823  1
  Bi2+  Bi105  1  0.28694232  0.01155316  0.69709728  1
  Bi2+  Bi106  1  0.37072500  0.28629943  0.23342143  1
  Bi2+  Bi107  1  0.33848043  0.29466017  0.70538960  1
  Bi2+  Bi108  1  0.33407382  0.60986807  0.19805310  1
  Bi2+  Bi109  1  0.42396566  0.47144030  0.70608326  1
  Bi2+  Bi110  1  0.37977105  0.79851552  0.20027602  1
  Bi2+  Bi111  1  0.37796559  0.73272323  0.70579117  1
  Bi2+  Bi112  1  0.61795450  0.00396694  0.20566382  1
  Bi2+  Bi113  1  0.62525043  0.02847090  0.72121739  1
  Bi2+  Bi114  1  0.57881113  0.26757506  0.20299119  1
  Bi2+  Bi115  1  0.64181475  0.31301446  0.73271658  1
  Bi2+  Bi116  1  0.58205592  0.48978741  0.20079573  1
  Bi2+  Bi117  1  0.69280367  0.48515382  0.67423875  1
  Bi2+  Bi118  1  0.62591280  0.75617649  0.20927576  1
  Bi2+  Bi119  1  0.62822610  0.78604781  0.70095534  1
  Bi2+  Bi120  1  0.89853624  0.08557323  0.20035230  1
  Bi2+  Bi121  1  0.95456829  -0.05872216  0.73360153  1
  Bi2+  Bi122  1  0.77208436  0.23257114  0.19195334  1
  Bi2+  Bi123  1  0.87490166  0.24501445  0.70406840  1
  Bi2+  Bi124  1  0.85881595  0.37533499  0.24845286  1
  Bi2+  Bi125  1  0.91486926  0.51159685  0.70865824  1
  Bi2+  Bi126  1  0.92597643  0.76238967  0.21524546  1
  Bi2+  Bi127  1  0.88698215  0.74409831  0.70340365  1
  S2-  S128  1  0.07838881  0.13644303  0.14606823  1
  S2-  S129  1  0.00074100  0.15715626  0.65802205  1
  S2-  S130  1  -0.02501097  0.37471190  0.16429964  1
  S2-  S131  1  -0.01885050  0.36980195  0.66140095  1
  S2-  S132  1  -0.09089553  0.61023311  0.16389298  1
  S2-  S133  1  -0.01344917  0.63139976  0.64509231  1
  S2-  S134  1  -0.00654083  0.86878481  0.15472773  1
  S2-  S135  1  -0.08745762  0.86882163  0.64048051  1
  S2-  S136  1  0.27095667  0.24329643  0.15147403  1
  S2-  S137  1  0.21876532  0.16016447  0.65223411  1
  S2-  S138  1  0.19725364  0.42970573  0.16287412  1
  S2-  S139  1  0.20835686  0.38715028  0.65375696  1
  S2-  S140  1  0.12144634  0.64056150  0.14632074  1
  S2-  S141  1  0.26722296  0.62876145  0.65383510  1
  S2-  S142  1  0.26066806  0.98986281  0.14368473  1
  S2-  S143  1  0.33552993  0.84671699  0.64251297  1
  S2-  S144  1  0.57273173  0.12760523  0.13505340  1
  S2-  S145  1  0.58353312  0.13295609  0.64731568  1
  S2-  S146  1  0.45823168  0.37829660  0.15776305  1
  S2-  S147  1  0.48434264  0.33912558  0.65341053  1
  S2-  S148  1  0.56735842  0.63467991  0.14343137  1
  S2-  S149  1  0.50703635  0.70065973  0.64112829  1
  S2-  S150  1  0.57233774  0.87495443  0.13860985  1
  S2-  S151  1  0.52003185  0.91208672  0.68363796  1
  S2-  S152  1  0.75646094  0.00235815  0.14890550  1
  S2-  S153  1  0.79583889  0.10791265  0.68857507  1
  S2-  S154  1  0.71923503  0.44827054  0.15158499  1
  S2-  S155  1  0.74183560  0.29130631  0.64441843  1
  S2-  S156  1  0.71522272  0.61329048  0.22975961  1
  S2-  S157  1  0.75112748  0.72000915  0.64043858  1
  S2-  S158  1  0.77031310  0.77802049  0.16264619  1
  S2-  S159  1  0.71558813  0.91588813  0.67497573  1
  S2-  S160  1  0.12543693  -0.00993647  0.33587949  1
  S2-  S161  1  0.20234728  0.03456000  0.86329590  1
  S2-  S162  1  0.13340749  0.22193101  0.34071230  1
  S2-  S163  1  0.11426513  0.26135426  0.83779312  1
  S2-  S164  1  0.14937457  0.45119252  0.33860681  1
  S2-  S165  1  0.10797820  0.49370491  0.85326686  1
  S2-  S166  1  0.14297452  0.75739205  0.34469819  1
  S2-  S167  1  0.20919933  0.72721667  0.85478651  1
  S2-  S168  1  0.39492427  -0.00924773  0.35584853  1
  S2-  S169  1  0.36579962  -0.09768252  0.84422343  1
  S2-  S170  1  0.35730337  0.24248778  0.33892116  1
  S2-  S171  1  0.36759576  0.26039297  0.84908483  1
  S2-  S172  1  0.36762714  0.47735229  0.34549384  1
  S2-  S173  1  0.34081283  0.50351751  0.85182984  1
  S2-  S174  1  0.48467258  0.75095269  0.35517707  1
  S2-  S175  1  0.44971336  0.71361901  0.82193710  1
  S2-  S176  1  0.63550804  -0.09647189  0.35760974  1
  S2-  S177  1  0.61265434  -0.00301829  0.82778847  1
  S2-  S178  1  0.64287928  0.11952164  0.36317013  1
  S2-  S179  1  0.63563115  0.23216763  0.83040022  1
  S2-  S180  1  0.72421846  0.49730036  0.35234271  1
  S2-  S181  1  0.58681132  0.48132300  0.84010958  1
  S2-  S182  1  0.72688173  0.72157179  0.35029824  1
  S2-  S183  1  0.64823740  0.77590893  0.83364975  1
  S2-  S184  1  0.85462794  -0.02028735  0.34897280  1
  S2-  S185  1  0.85733019  0.02247034  0.84466554  1
  S2-  S186  1  0.86588995  0.22291334  0.34842273  1
  S2-  S187  1  0.88226703  0.24396765  0.83965433  1
  S2-  S188  1  0.92513357  0.47506463  0.33743356  1
  S2-  S189  1  0.88014790  0.49074043  0.84844600  1
  S2-  S190  1  0.91469399  0.75545464  0.32278821  1
  S2-  S191  1  0.86161439  0.77375346  0.84186849  1
  S2-  S192  1  -0.00339995  0.12099523  0.45250503  1
  S2-  S193  1  -0.01138620  0.12675297  0.95408748  1
  S2-  S194  1  -0.00736601  0.37193927  0.45252819  1
  S2-  S195  1  -0.01222236  0.37889546  0.95815727  1
  S2-  S196  1  -0.00906701  0.62152552  0.44170208  1
  S2-  S197  1  -0.01055823  0.62601014  0.95780661  1
  S2-  S198  1  -0.00555376  0.87221769  0.44897840  1
  S2-  S199  1  -0.01344921  0.87907507  0.95101745  1
  S2-  S200  1  0.24430982  0.12232430  0.45235258  1
  S2-  S201  1  0.23498205  0.13130613  0.96684516  1
  S2-  S202  1  0.24482366  0.37036841  0.45095073  1
  S2-  S203  1  0.23652465  0.38008144  0.96458093  1
  S2-  S204  1  0.24431285  0.62189302  0.44965497  1
  S2-  S205  1  0.23685902  0.62523502  0.96440194  1
  S2-  S206  1  0.24476569  0.87085750  0.45249394  1
  S2-  S207  1  0.23611355  0.87440178  0.95761958  1
  S2-  S208  1  0.49203595  0.12323528  0.45769978  1
  S2-  S209  1  0.48390265  0.12622362  0.94112452  1
  S2-  S210  1  0.49524337  0.36725937  0.44755832  1
  S2-  S211  1  0.48179343  0.38085193  0.95375811  1
  S2-  S212  1  0.49262073  0.61887144  0.44885180  1
  S2-  S213  1  0.47842946  0.62894635  0.94942465  1
  S2-  S214  1  0.49043458  0.87424576  0.46392770  1
  S2-  S215  1  0.48378360  0.87547616  0.94612899  1
  S2-  S216  1  0.74969430  0.12281598  0.46813630  1
  S2-  S217  1  0.73237151  0.12870970  0.95238570  1
  S2-  S218  1  0.74242419  0.36669161  0.45211924  1
  S2-  S219  1  0.73421209  0.37921514  0.95054854  1
  S2-  S220  1  0.74228684  0.62097921  0.45397618  1
  S2-  S221  1  0.73483539  0.62588942  0.93768969  1
  S2-  S222  1  0.74993528  0.87303929  0.46238972  1
  S2-  S223  1  0.73544595  0.87797315  0.95247946  1
  S2-  S224  1  0.10602810  -0.00329647  0.04919543  1
  S2-  S225  1  0.11854198  -0.00268947  0.54331694  1
  S2-  S226  1  0.11171325  0.25580128  0.04742880  1
  S2-  S227  1  0.12097553  0.24711761  0.54360660  1
  S2-  S228  1  0.11559211  0.49476882  0.05309881  1
  S2-  S229  1  0.12220222  0.49767379  0.54271166  1
  S2-  S230  1  0.11173032  0.75595272  0.04442846  1
  S2-  S231  1  0.11868836  0.74818584  0.54734983  1
  S2-  S232  1  0.36857479  -0.00008289  0.03840683  1
  S2-  S233  1  0.37048962  -0.00157725  0.55602348  1
  S2-  S234  1  0.37017899  0.24955984  0.04944282  1
  S2-  S235  1  0.36912476  0.24507202  0.54653942  1
  S2-  S236  1  0.36319063  0.50086375  0.05503948  1
  S2-  S237  1  0.36963089  0.49703006  0.54877493  1
  S2-  S238  1  0.36463441  0.74662257  0.05699283  1
  S2-  S239  1  0.36796151  0.74346086  0.53725129  1
  S2-  S240  1  0.61153276  -0.00108541  0.03581287  1
  S2-  S241  1  0.62001333  -0.00662166  0.55377479  1
  S2-  S242  1  0.61310145  0.25382379  0.03802083  1
  S2-  S243  1  0.62009580  0.24780798  0.54081598  1
  S2-  S244  1  0.61188576  0.50278011  0.04391036  1
  S2-  S245  1  0.61926046  0.49887276  0.54047061  1
  S2-  S246  1  0.61266284  0.74785983  0.03796068  1
  S2-  S247  1  0.61999409  0.74713581  0.53917144  1
  S2-  S248  1  0.86322923  0.00015064  0.04677440  1
  S2-  S249  1  0.87080147  0.00340763  0.55328826  1
  S2-  S250  1  0.85930576  0.24829066  0.04945706  1
  S2-  S251  1  0.87084934  0.24660838  0.55052243  1
  S2-  S252  1  0.86091059  0.50258574  0.05356198  1
  S2-  S253  1  0.86908205  0.49591165  0.54229301  1
  S2-  S254  1  0.86185581  0.74973677  0.04951195  1
  S2-  S255  1  0.87577222  0.74578470  0.53415659  1
