# generated using pymatgen
data_La9Ce10Pr6Nd4Sm3(BiS2)32
_symmetry_space_group_name_H-M   'P 1'
_cell_length_a   16.21816786
_cell_length_b   16.24592939
_cell_length_c   27.13784233
_cell_angle_alpha   90.12557718
_cell_angle_beta   90.23150317
_cell_angle_gamma   89.89155791
_symmetry_Int_Tables_number   1
_chemical_formula_structural   La9Ce10Pr6Nd4Sm3(BiS2)32
_chemical_formula_sum   'La18 Ce20 Pr12 Nd8 Sm6 Bi64 S128'
_cell_volume   7150.16902595
_cell_formula_units_Z   2
loop_
 _symmetry_equiv_pos_site_id
 _symmetry_equiv_pos_as_xyz
  1  'x, y, z'
loop_
 _atom_type_symbol
 _atom_type_oxidation_number
  La3+  3.0
  Ce3+  3.0
  Pr3+  3.0
  Nd3+  3.0
  Sm3+  3.0
  Bi2+  2.0
  S2-  -2.0
loop_
 _atom_site_type_symbol
 _atom_site_label
 _atom_site_symmetry_multiplicity
 _atom_site_fract_x
 _atom_site_fract_y
 _atom_site_fract_z
 _atom_site_occupancy
  La3+  La0  1  -0.01036391  0.12570768  0.06313982  1
  La3+  La1  1  0.24637592  0.87692120  0.57434983  1
  La3+  La2  1  0.10881297  0.74341714  0.92468623  1
  La3+  La3  1  0.36570755  0.24706462  0.92761863  1
  La3+  La4  1  0.38430670  0.50860671  0.89135670  1
  La3+  La5  1  0.74679655  0.86758970  0.56923547  1
  La3+  La6  1  0.13365893  0.50031494  0.42529473  1
  La3+  La7  1  0.85972181  0.24839675  0.93745241  1
  La3+  La8  1  0.50468888  0.36717888  0.58573244  1
  La3+  La9  1  -0.00587391  0.62070692  0.55471214  1
  La3+  La10  1  0.36473193  0.25187910  0.43628965  1
  La3+  La11  1  0.23237721  0.36469350  0.57937198  1
  La3+  La12  1  0.23358045  0.87114855  0.07324482  1
  La3+  La13  1  0.36008064  0.75431745  0.92638928  1
  La3+  La14  1  0.73296071  0.62848105  0.10047678  1
  La3+  La15  1  0.50452266  0.63325515  0.58096978  1
  La3+  La16  1  0.10593624  0.23763063  0.91553010  1
  La3+  La17  1  0.74463804  0.36870984  0.07998310  1
  Ce3+  Ce18  1  -0.00456194  0.87356069  0.55671400  1
  Ce3+  Ce19  1  0.24711204  0.12516507  0.56094526  1
  Ce3+  Ce20  1  0.36460827  -0.00529455  0.43794804  1
  Ce3+  Ce21  1  0.49428603  0.87682720  0.56051378  1
  Ce3+  Ce22  1  0.12175972  0.24670018  0.43157887  1
  Ce3+  Ce23  1  0.86354724  0.49694679  0.41805809  1
  Ce3+  Ce24  1  0.61885285  0.49959270  0.94506671  1
  Ce3+  Ce25  1  0.86668811  0.24932766  0.43404638  1
  Ce3+  Ce26  1  0.37207865  0.49778218  0.46045991  1
  Ce3+  Ce27  1  0.86857372  0.49718239  0.95675930  1
  Ce3+  Ce28  1  -0.00363635  0.37504559  0.54356903  1
  Ce3+  Ce29  1  0.11921563  -0.00145378  0.44480325  1
  Ce3+  Ce30  1  0.61940926  0.24881255  0.94046646  1
  Ce3+  Ce31  1  0.48938403  0.37474649  0.05584283  1
  Ce3+  Ce32  1  0.48915863  0.61983661  0.05898368  1
  Ce3+  Ce33  1  0.87016420  0.74734123  0.43375644  1
  Ce3+  Ce34  1  0.12163087  0.74981266  0.44438066  1
  Ce3+  Ce35  1  0.61847604  0.74710502  0.43799269  1
  Ce3+  Ce36  1  0.86524369  0.74184826  0.94367339  1
  Ce3+  Ce37  1  0.24156604  0.62118986  0.04132158  1
  Pr3+  Pr38  1  0.74015064  0.87096840  0.06402712  1
  Pr3+  Pr39  1  -0.00735567  0.12411304  0.55690856  1
  Pr3+  Pr40  1  0.74338120  0.37306611  0.55315494  1
  Pr3+  Pr41  1  0.36452387  -0.00180773  0.93433465  1
  Pr3+  Pr42  1  0.61593510  0.49846297  0.43440767  1
  Pr3+  Pr43  1  0.24355438  0.12308970  0.06315578  1
  Pr3+  Pr44  1  0.49069961  0.12350093  0.05565571  1
  Pr3+  Pr45  1  0.61089026  0.24265788  0.42349078  1
  Pr3+  Pr46  1  0.73786616  0.12106455  0.07306789  1
  Pr3+  Pr47  1  0.86123203  -0.00596093  0.94428821  1
  Pr3+  Pr48  1  0.36960340  0.74760583  0.45133422  1
  Pr3+  Pr49  1  0.00767473  0.37558346  0.07007145  1
  Nd3+  Nd50  1  0.48615455  0.86951883  0.05790030  1
  Nd3+  Nd51  1  0.61934057  -0.00355887  0.44390288  1
  Nd3+  Nd52  1  0.10518167  0.49325422  0.92227878  1
  Nd3+  Nd53  1  0.74375982  0.12512556  0.55674689  1
  Nd3+  Nd54  1  0.00542583  0.62312166  0.07045425  1
  Nd3+  Nd55  1  0.86657191  -0.00200996  0.43861237  1
  Nd3+  Nd56  1  0.24242078  0.62102507  0.57182481  1
  Nd3+  Nd57  1  0.11538830  -0.00428427  0.94003841  1
  Sm3+  Sm58  1  -0.00952451  0.87027917  0.05851891  1
  Sm3+  Sm59  1  0.61713957  -0.00410336  0.94530188  1
  Sm3+  Sm60  1  0.61626067  0.74240298  0.94459246  1
  Sm3+  Sm61  1  0.74674084  0.62094630  0.54972756  1
  Sm3+  Sm62  1  0.49359918  0.12322706  0.55903525  1
  Sm3+  Sm63  1  0.24077846  0.37310566  0.03864551  1
  Bi2+  Bi64  1  0.06699599  0.12673397  0.31087851  1
  Bi2+  Bi65  1  -0.02413523  0.12094284  0.78686944  1
  Bi2+  Bi66  1  0.05623966  0.28817920  0.24561828  1
  Bi2+  Bi67  1  0.02666545  0.38021216  0.79917539  1
  Bi2+  Bi68  1  -0.00017507  0.63417659  0.29685045  1
  Bi2+  Bi69  1  -0.06499746  0.61242491  0.79151272  1
  Bi2+  Bi70  1  0.02361137  0.85980687  0.23754837  1
  Bi2+  Bi71  1  0.02195877  0.91957647  0.75712560  1
  Bi2+  Bi72  1  0.25693380  0.13988704  0.28728762  1
  Bi2+  Bi73  1  0.35785203  0.10693306  0.81751376  1
  Bi2+  Bi74  1  0.24264586  0.39725898  0.28992460  1
  Bi2+  Bi75  1  0.27928248  0.36673297  0.77429236  1
  Bi2+  Bi76  1  0.24561298  0.63513664  0.31248484  1
  Bi2+  Bi77  1  0.23369039  0.64977361  0.78456447  1
  Bi2+  Bi78  1  0.26844797  0.90190425  0.30278695  1
  Bi2+  Bi79  1  0.22350716  0.96660352  0.81096660  1
  Bi2+  Bi80  1  0.53538805  0.04648035  0.26894392  1
  Bi2+  Bi81  1  0.53093010  0.19036908  0.80410255  1
  Bi2+  Bi82  1  0.49513028  0.37749204  0.29951321  1
  Bi2+  Bi83  1  0.57931436  0.41519498  0.76464127  1
  Bi2+  Bi84  1  0.51064211  0.56825257  0.32083257  1
  Bi2+  Bi85  1  0.53268000  0.65039502  0.78674193  1
  Bi2+  Bi86  1  0.47603232  0.85741666  0.28445269  1
  Bi2+  Bi87  1  0.47999541  0.92158924  0.78489927  1
  Bi2+  Bi88  1  0.78390523  0.13867537  0.30866539  1
  Bi2+  Bi89  1  0.70153812  0.09454910  0.80079374  1
  Bi2+  Bi90  1  0.76749505  0.37356124  0.28257016  1
  Bi2+  Bi91  1  0.75940652  0.38916632  0.80368804  1
  Bi2+  Bi92  1  0.68473357  0.63202708  0.29272517  1
  Bi2+  Bi93  1  0.75062855  0.61555191  0.82381946  1
  Bi2+  Bi94  1  0.72446884  0.92357460  0.29659187  1
  Bi2+  Bi95  1  0.86281563  0.86742063  0.81385706  1
  Bi2+  Bi96  1  0.12886228  0.02377929  0.21929589  1
  Bi2+  Bi97  1  0.19412099  -0.00147973  0.69965774  1
  Bi2+  Bi98  1  0.22824808  0.25734079  0.19440591  1
  Bi2+  Bi99  1  0.13193178  0.17873651  0.72273194  1
  Bi2+  Bi100  1  0.10358777  0.50414812  0.19017905  1
  Bi2+  Bi101  1  0.10570551  0.50022892  0.69142296  1
  Bi2+  Bi102  1  0.17818682  0.74727399  0.20639140  1
  Bi2+  Bi103  1  0.06136430  0.75355099  0.70345727  1
  Bi2+  Bi104  1  0.36340022  -0.05641385  0.20231071  1
  Bi2+  Bi105  1  0.38347424  0.00145816  0.65472899  1
  Bi2+  Bi106  1  0.41824750  0.23165569  0.22872657  1
  Bi2+  Bi107  1  0.38274807  0.17638868  0.71182243  1
  Bi2+  Bi108  1  0.36260364  0.49479325  0.22038225  1
  Bi2+  Bi109  1  0.38056195  0.53926353  0.69031997  1
  Bi2+  Bi110  1  0.40734061  0.67871407  0.24372477  1
  Bi2+  Bi111  1  0.38128036  0.82673344  0.70207807  1
  Bi2+  Bi112  1  0.68112469  0.00584088  0.19025982  1
  Bi2+  Bi113  1  0.57060101  0.04317572  0.71339631  1
  Bi2+  Bi114  1  0.60051337  0.18129272  0.19181429  1
  Bi2+  Bi115  1  0.64115362  0.25542633  0.70376326  1
  Bi2+  Bi116  1  0.56694174  0.47597216  0.20952609  1
  Bi2+  Bi117  1  0.70758932  0.54060712  0.70784799  1
  Bi2+  Bi118  1  0.58924221  0.76298914  0.20925655  1
  Bi2+  Bi119  1  0.63709270  0.85824105  0.72241684  1
  Bi2+  Bi120  1  0.87388817  -0.03084570  0.19411052  1
  Bi2+  Bi121  1  0.87912883  0.03694964  0.69746430  1
  Bi2+  Bi122  1  0.89095916  0.16024272  0.21428006  1
  Bi2+  Bi123  1  0.83617640  0.26914410  0.72224485  1
  Bi2+  Bi124  1  0.87440497  0.49317515  0.21474169  1
  Bi2+  Bi125  1  0.88596010  0.45442537  0.71851952  1
  Bi2+  Bi126  1  0.84229582  0.78493380  0.23334991  1
  Bi2+  Bi127  1  0.80338088  0.73740703  0.73728662  1
  S2-  S128  1  0.03553166  0.13253628  0.16082683  1
  S2-  S129  1  -0.00042942  0.13463567  0.65822044  1
  S2-  S130  1  -0.02985747  0.36501456  0.17068147  1
  S2-  S131  1  0.05778561  0.37764180  0.63493331  1
  S2-  S132  1  -0.01907912  0.61225616  0.17166080  1
  S2-  S133  1  -0.00748280  0.62704339  0.65610580  1
  S2-  S134  1  0.08617737  0.84501598  0.13896094  1
  S2-  S135  1  -0.03284020  0.86341681  0.65302789  1
  S2-  S136  1  0.24323552  0.01060315  0.14105665  1
  S2-  S137  1  0.23486466  0.21579278  0.64575089  1
  S2-  S138  1  0.17052417  0.38353486  0.12935530  1
  S2-  S139  1  0.24797560  0.42336925  0.67482733  1
  S2-  S140  1  0.17228020  0.61879523  0.13283205  1
  S2-  S141  1  0.22551144  0.62485356  0.67266453  1
  S2-  S142  1  0.30854488  0.79777031  0.15761470  1
  S2-  S143  1  0.21497755  0.82882461  0.67135755  1
  S2-  S144  1  0.43846605  0.12910727  0.15162527  1
  S2-  S145  1  0.50000946  0.21494434  0.64238862  1
  S2-  S146  1  0.45686062  0.38745827  0.15242163  1
  S2-  S147  1  0.46029770  0.40171167  0.68690227  1
  S2-  S148  1  0.57044363  0.62306318  0.14719961  1
  S2-  S149  1  0.53332197  0.60342667  0.68131785  1
  S2-  S150  1  0.51319291  0.88882921  0.15587618  1
  S2-  S151  1  0.52668077  0.79963241  0.64549001  1
  S2-  S152  1  0.75826527  0.22365688  0.15328449  1
  S2-  S153  1  0.76770517  0.14843040  0.65492601  1
  S2-  S154  1  0.72898706  0.42560729  0.17644992  1
  S2-  S155  1  0.66079956  0.38253506  0.64109823  1
  S2-  S156  1  0.77400207  0.61859669  0.20523392  1
  S2-  S157  1  0.74592001  0.66657131  0.64438304  1
  S2-  S158  1  0.73502939  0.78526180  0.15077763  1
  S2-  S159  1  0.75256229  0.92569254  0.66446638  1
  S2-  S160  1  0.12628386  -0.03238082  0.34868449  1
  S2-  S161  1  0.10769463  0.07979450  0.85259786  1
  S2-  S162  1  0.23723069  0.27185941  0.35948378  1
  S2-  S163  1  0.15889089  0.27910278  0.81732441  1
  S2-  S164  1  0.11630108  0.51104317  0.32225178  1
  S2-  S165  1  0.14387238  0.52707320  0.82197266  1
  S2-  S166  1  0.12067059  0.72949832  0.34668470  1
  S2-  S167  1  0.18967970  0.77273854  0.83724360  1
  S2-  S168  1  0.36005701  0.03165128  0.34195298  1
  S2-  S169  1  0.36521626  -0.11224610  0.85681765  1
  S2-  S170  1  0.47217661  0.24818658  0.35727469  1
  S2-  S171  1  0.38319772  0.34544865  0.84516772  1
  S2-  S172  1  0.30459535  0.49706501  0.36992233  1
  S2-  S173  1  0.34650810  0.51426221  0.78790408  1
  S2-  S174  1  0.34810491  0.76429009  0.35149808  1
  S2-  S175  1  0.40183124  0.67316305  0.84018563  1
  S2-  S176  1  0.62827187  0.05962578  0.35115760  1
  S2-  S177  1  0.62029096  -0.02250992  0.84744868  1
  S2-  S178  1  0.67500628  0.26712499  0.32605003  1
  S2-  S179  1  0.72864210  0.24739967  0.86373185  1
  S2-  S180  1  0.72024644  0.49107689  0.35076129  1
  S2-  S181  1  0.55313638  0.50920165  0.85116856  1
  S2-  S182  1  0.64627998  0.78066582  0.34350737  1
  S2-  S183  1  0.63124432  0.73851899  0.84475706  1
  S2-  S184  1  0.86055376  -0.01810993  0.33918087  1
  S2-  S185  1  0.85169483  0.03607571  0.84653430  1
  S2-  S186  1  0.88057195  0.27292502  0.33607185  1
  S2-  S187  1  0.96024329  0.25608695  0.85299146  1
  S2-  S188  1  0.91405346  0.50313003  0.32111572  1
  S2-  S189  1  0.94877104  0.48967114  0.86743875  1
  S2-  S190  1  0.88009569  0.73041837  0.33540957  1
  S2-  S191  1  0.96351311  0.74015997  0.85989486  1
  S2-  S192  1  -0.00841946  0.12244939  0.44847393  1
  S2-  S193  1  -0.01568902  0.11792905  0.95583160  1
  S2-  S194  1  -0.00109130  0.37603989  0.43777541  1
  S2-  S195  1  -0.01009553  0.36825464  0.96202885  1
  S2-  S196  1  -0.00390971  0.62077975  0.44565274  1
  S2-  S197  1  -0.01115692  0.62104885  0.96252819  1
  S2-  S198  1  -0.00758241  0.87352765  0.44950881  1
  S2-  S199  1  -0.01085790  0.87503776  0.95488971  1
  S2-  S200  1  0.24184381  0.12043922  0.45367379  1
  S2-  S201  1  0.24031905  0.12233377  0.95357555  1
  S2-  S202  1  0.24341505  0.37548926  0.46810597  1
  S2-  S203  1  0.23120352  0.36890369  0.93683773  1
  S2-  S204  1  0.24548279  0.62674367  0.46441423  1
  S2-  S205  1  0.24305404  0.61345308  0.93655442  1
  S2-  S206  1  0.24325177  0.87305493  0.46209702  1
  S2-  S207  1  0.23473767  0.87422192  0.95832946  1
  S2-  S208  1  0.49126793  0.11611611  0.45523732  1
  S2-  S209  1  0.49525262  0.12133718  0.94832192  1
  S2-  S210  1  0.49543999  0.37725029  0.45953647  1
  S2-  S211  1  0.49505359  0.37334673  0.95081552  1
  S2-  S212  1  0.49468553  0.62461239  0.46376572  1
  S2-  S213  1  0.49219195  0.62259073  0.95423440  1
  S2-  S214  1  0.49453803  0.87383401  0.45119732  1
  S2-  S215  1  0.49813941  0.87085444  0.95231721  1
  S2-  S216  1  0.74426073  0.12391980  0.45114644  1
  S2-  S217  1  0.73753960  0.11796855  0.96488419  1
  S2-  S218  1  0.74023009  0.36886755  0.44792546  1
  S2-  S219  1  0.74085587  0.37732558  0.96651211  1
  S2-  S220  1  0.74515638  0.62510543  0.44601769  1
  S2-  S221  1  0.74169882  0.62179430  0.96097026  1
  S2-  S222  1  0.74518737  0.87303848  0.45561391  1
  S2-  S223  1  0.73763223  0.86783394  0.95586699  1
  S2-  S224  1  0.10990273  -0.00109137  0.04481312  1
  S2-  S225  1  0.11890885  0.00015244  0.55287705  1
  S2-  S226  1  0.11987183  0.24384597  0.03873619  1
  S2-  S227  1  0.11491734  0.24389938  0.53702532  1
  S2-  S228  1  0.11829817  0.49890838  0.02992464  1
  S2-  S229  1  0.12193719  0.50156528  0.54022056  1
  S2-  S230  1  0.11560399  0.74637074  0.03386658  1
  S2-  S231  1  0.12060742  0.74842853  0.55196711  1
  S2-  S232  1  0.36813362  -0.00322010  0.04104670  1
  S2-  S233  1  0.36971113  -0.00023676  0.54228142  1
  S2-  S234  1  0.36372167  0.24990332  0.03921011  1
  S2-  S235  1  0.37122375  0.24784409  0.54568699  1
  S2-  S236  1  0.36258482  0.49588206  0.04563801  1
  S2-  S237  1  0.37440972  0.50048337  0.56524947  1
  S2-  S238  1  0.36644878  0.74524232  0.03889976  1
  S2-  S239  1  0.36797139  0.74698096  0.55833226  1
  S2-  S240  1  0.61353242  -0.00440865  0.05049506  1
  S2-  S241  1  0.62020508  -0.00069448  0.55185229  1
  S2-  S242  1  0.61445416  0.24890170  0.04896538  1
  S2-  S243  1  0.62002474  0.24388199  0.53740781  1
  S2-  S244  1  0.61789008  0.49663612  0.05196498  1
  S2-  S245  1  0.61998236  0.50454435  0.54421571  1
  S2-  S246  1  0.61336190  0.74702850  0.04778646  1
  S2-  S247  1  0.62480897  0.74801176  0.54236082  1
  S2-  S248  1  0.86544293  -0.00475429  0.05225750  1
  S2-  S249  1  0.86772031  -0.00178979  0.54579364  1
  S2-  S250  1  0.86963455  0.25137304  0.04966848  1
  S2-  S251  1  0.86960497  0.25003540  0.54358390  1
  S2-  S252  1  0.86795382  0.50293642  0.06389404  1
  S2-  S253  1  0.86698795  0.49664989  0.53722201  1
  S2-  S254  1  0.87039354  0.74513755  0.05371564  1
  S2-  S255  1  0.86995732  0.74677209  0.54215259  1
