# generated using pymatgen
data_La9Ce10Pr6Nd4Sm3(BiS2)32
_symmetry_space_group_name_H-M   'P 1'
_cell_length_a   16.09032489
_cell_length_b   16.13014819
_cell_length_c   27.31363464
_cell_angle_alpha   89.82895968
_cell_angle_beta   90.01841707
_cell_angle_gamma   89.94404610
_symmetry_Int_Tables_number   1
_chemical_formula_structural   La9Ce10Pr6Nd4Sm3(BiS2)32
_chemical_formula_sum   'La18 Ce20 Pr12 Nd8 Sm6 Bi64 S128'
_cell_volume   7088.92695519
_cell_formula_units_Z   2
loop_
 _symmetry_equiv_pos_site_id
 _symmetry_equiv_pos_as_xyz
  1  'x, y, z'
loop_
 _atom_type_symbol
 _atom_type_oxidation_number
  La3+  3.0
  Ce3+  3.0
  Pr3+  3.0
  Nd3+  3.0
  Sm3+  3.0
  Bi2+  2.0
  S2-  -2.0
loop_
 _atom_site_type_symbol
 _atom_site_label
 _atom_site_symmetry_multiplicity
 _atom_site_fract_x
 _atom_site_fract_y
 _atom_site_fract_z
 _atom_site_occupancy
  La3+  La0  1  0.11508284  -0.00291403  0.90636605  1
  La3+  La1  1  0.16174801  0.77062103  0.41709718  1
  La3+  La2  1  0.12342607  0.74658041  0.92759488  1
  La3+  La3  1  0.28785264  0.39439611  0.57920475  1
  La3+  La4  1  0.78145469  0.62993370  0.57153860  1
  La3+  La5  1  0.02718626  0.14423614  0.58269301  1
  La3+  La6  1  0.75790341  0.12381171  0.06950048  1
  La3+  La7  1  0.66381585  0.01000731  0.42522070  1
  La3+  La8  1  0.11986583  0.25138478  0.89412649  1
  La3+  La9  1  0.53604392  0.89833147  0.58542090  1
  La3+  La10  1  0.28168375  0.64561802  0.56600095  1
  La3+  La11  1  0.50451527  0.36178544  0.07823621  1
  La3+  La12  1  0.64931486  0.26066598  0.41706321  1
  La3+  La13  1  0.74698526  0.63005120  0.09768348  1
  La3+  La14  1  0.89088940  0.75516606  0.41678233  1
  La3+  La15  1  0.00010837  0.62252138  0.07188003  1
  La3+  La16  1  0.78095184  0.38202604  0.56385403  1
  La3+  La17  1  0.24733975  0.62502300  0.07472374  1
  Ce3+  Ce18  1  0.52542804  0.38251627  0.55466070  1
  Ce3+  Ce19  1  0.50268275  0.62110516  0.06865902  1
  Ce3+  Ce20  1  0.87517846  -0.00247696  0.93737270  1
  Ce3+  Ce21  1  0.24543736  0.37029011  0.05682550  1
  Ce3+  Ce22  1  0.49932392  0.87033994  0.05412002  1
  Ce3+  Ce23  1  0.02887444  0.88517319  0.55050068  1
  Ce3+  Ce24  1  0.00102582  0.86975400  0.05474024  1
  Ce3+  Ce25  1  0.91347385  0.51062373  0.43745958  1
  Ce3+  Ce26  1  0.90436823  0.26286258  0.43916008  1
  Ce3+  Ce27  1  -0.00183745  0.37212140  0.05370898  1
  Ce3+  Ce28  1  0.40073532  0.26307371  0.43502226  1
  Ce3+  Ce29  1  0.62824324  0.24697212  0.93954638  1
  Ce3+  Ce30  1  0.74662989  0.86699361  0.05945886  1
  Ce3+  Ce31  1  0.37132464  -0.00025017  0.93739971  1
  Ce3+  Ce32  1  0.39789952  0.51236950  0.43662844  1
  Ce3+  Ce33  1  0.49983709  0.11918068  0.05675838  1
  Ce3+  Ce34  1  0.78248887  0.87952545  0.56885791  1
  Ce3+  Ce35  1  0.12473849  0.50106856  0.93040191  1
  Ce3+  Ce36  1  0.03947058  0.39122545  0.56902826  1
  Ce3+  Ce37  1  0.27592323  0.88733933  0.56888638  1
  Pr3+  Pr38  1  0.03422463  0.64419243  0.55490448  1
  Pr3+  Pr39  1  0.37338925  0.49479511  0.94603531  1
  Pr3+  Pr40  1  0.77558933  0.13705136  0.56463200  1
  Pr3+  Pr41  1  0.52930334  0.63952377  0.55828335  1
  Pr3+  Pr42  1  0.62588672  -0.00681171  0.93564058  1
  Pr3+  Pr43  1  0.37416441  0.24964191  0.93366430  1
  Pr3+  Pr44  1  0.15646520  0.51277220  0.43698069  1
  Pr3+  Pr45  1  0.24497919  0.12121446  0.05198551  1
  Pr3+  Pr46  1  0.27775357  0.13795448  0.57081272  1
  Pr3+  Pr47  1  0.15250358  0.01506577  0.43805652  1
  Pr3+  Pr48  1  0.65660686  0.51581804  0.43567467  1
  Pr3+  Pr49  1  0.86992701  0.25082216  0.92829684  1
  Nd3+  Nd50  1  0.62160704  0.73985036  0.93463054  1
  Nd3+  Nd51  1  0.87217397  0.49851352  0.94205972  1
  Nd3+  Nd52  1  0.90299401  0.01469904  0.44693715  1
  Nd3+  Nd53  1  0.15818127  0.25927846  0.43965330  1
  Nd3+  Nd54  1  0.00047414  0.12043430  0.05270642  1
  Nd3+  Nd55  1  0.37323535  0.74364900  0.94122691  1
  Nd3+  Nd56  1  0.62907732  0.49831099  0.93945110  1
  Nd3+  Nd57  1  0.40538769  0.76844621  0.44188522  1
  Sm3+  Sm58  1  0.40493921  0.01273156  0.44820353  1
  Sm3+  Sm59  1  0.24607771  0.87304267  0.05044688  1
  Sm3+  Sm60  1  0.53200732  0.13689576  0.55345197  1
  Sm3+  Sm61  1  0.87247904  0.74364228  0.94605400  1
  Sm3+  Sm62  1  0.65402611  0.76430671  0.44633069  1
  Sm3+  Sm63  1  0.75405024  0.37989087  0.07123355  1
  Bi2+  Bi64  1  -0.01044663  0.14463992  0.30202645  1
  Bi2+  Bi65  1  -0.04360984  0.12803010  0.77486945  1
  Bi2+  Bi66  1  0.00060244  0.34368757  0.30599236  1
  Bi2+  Bi67  1  -0.09488774  0.42571414  0.80743196  1
  Bi2+  Bi68  1  -0.00687431  0.61672485  0.29634941  1
  Bi2+  Bi69  1  -0.00791416  0.60513285  0.80215593  1
  Bi2+  Bi70  1  0.01210513  0.93074273  0.28482428  1
  Bi2+  Bi71  1  0.01078876  0.87618273  0.78127106  1
  Bi2+  Bi72  1  0.22183685  0.04185178  0.29722476  1
  Bi2+  Bi73  1  0.27511222  0.11808078  0.78350049  1
  Bi2+  Bi74  1  0.23199980  0.38346690  0.29650278  1
  Bi2+  Bi75  1  0.26039400  0.39408979  0.78648252  1
  Bi2+  Bi76  1  0.28289649  0.64321505  0.29042921  1
  Bi2+  Bi77  1  0.25059915  0.59076359  0.77628565  1
  Bi2+  Bi78  1  0.30472911  0.90122927  0.23131111  1
  Bi2+  Bi79  1  0.28034990  0.85500311  0.77981201  1
  Bi2+  Bi80  1  0.48543092  0.13840222  0.29229194  1
  Bi2+  Bi81  1  0.49346717  0.14416484  0.78485189  1
  Bi2+  Bi82  1  0.42398668  0.37161457  0.27253819  1
  Bi2+  Bi83  1  0.51169893  0.31619320  0.83433796  1
  Bi2+  Bi84  1  0.48075835  0.54327783  0.31133422  1
  Bi2+  Bi85  1  0.51570357  0.73378166  0.79698283  1
  Bi2+  Bi86  1  0.44060535  0.87731879  0.31576722  1
  Bi2+  Bi87  1  0.44898761  0.93382082  0.74736510  1
  Bi2+  Bi88  1  0.77659509  0.12712498  0.29250204  1
  Bi2+  Bi89  1  0.75708420  0.13507485  0.79402035  1
  Bi2+  Bi90  1  0.80901413  0.36047610  0.27421833  1
  Bi2+  Bi91  1  0.65331119  0.35792757  0.75764259  1
  Bi2+  Bi92  1  0.71894892  0.62840479  0.29813597  1
  Bi2+  Bi93  1  0.73950998  0.64221473  0.82108759  1
  Bi2+  Bi94  1  0.63490145  0.89294378  0.30400703  1
  Bi2+  Bi95  1  0.72502079  0.94175051  0.78850859  1
  Bi2+  Bi96  1  0.04801346  0.06246384  0.20116945  1
  Bi2+  Bi97  1  0.14401637  -0.07212643  0.70349997  1
  Bi2+  Bi98  1  0.10572543  0.25923871  0.21955159  1
  Bi2+  Bi99  1  0.10924678  0.26748414  0.71096458  1
  Bi2+  Bi100  1  0.15383609  0.48583091  0.20970469  1
  Bi2+  Bi101  1  0.07045961  0.48170671  0.72563847  1
  Bi2+  Bi102  1  0.12083303  0.76276685  0.20774649  1
  Bi2+  Bi103  1  0.13412823  0.70800695  0.69691550  1
  Bi2+  Bi104  1  0.42836341  0.04183209  0.19104831  1
  Bi2+  Bi105  1  0.31121375  0.02125833  0.68272785  1
  Bi2+  Bi106  1  0.28102803  0.16908638  0.21414108  1
  Bi2+  Bi107  1  0.37993649  0.22715804  0.69844407  1
  Bi2+  Bi108  1  0.33956037  0.54788262  0.19493615  1
  Bi2+  Bi109  1  0.44733147  0.41664435  0.74195189  1
  Bi2+  Bi110  1  0.39098285  0.73324958  0.19431774  1
  Bi2+  Bi111  1  0.39198107  0.66910607  0.69443005  1
  Bi2+  Bi112  1  0.60670901  -0.03858751  0.19832929  1
  Bi2+  Bi113  1  0.70307651  0.06377578  0.69118068  1
  Bi2+  Bi114  1  0.59512616  0.22204206  0.21294130  1
  Bi2+  Bi115  1  0.57660841  0.21907720  0.68363644  1
  Bi2+  Bi116  1  0.61301862  0.48000092  0.20371528  1
  Bi2+  Bi117  1  0.59406169  0.54846763  0.75073645  1
  Bi2+  Bi118  1  0.54197150  0.71786279  0.27572269  1
  Bi2+  Bi119  1  0.64920041  0.75678742  0.69526973  1
  Bi2+  Bi120  1  0.81097152  -0.04868572  0.25317904  1
  Bi2+  Bi121  1  0.87362036  -0.04293998  0.70851723  1
  Bi2+  Bi122  1  0.83964786  0.23133419  0.19537564  1
  Bi2+  Bi123  1  0.84050527  0.34320104  0.70973209  1
  Bi2+  Bi124  1  0.91259703  0.48394686  0.21051373  1
  Bi2+  Bi125  1  0.82877763  0.55836646  0.72872029  1
  Bi2+  Bi126  1  0.87035267  0.77525523  0.21230650  1
  Bi2+  Bi127  1  0.87048310  0.75635081  0.74079171  1
  S2-  S128  1  -0.09228052  0.11297449  0.13902933  1
  S2-  S129  1  -0.05522971  0.09786198  0.67508722  1
  S2-  S130  1  -0.06504568  0.35246029  0.14512215  1
  S2-  S131  1  -0.01969230  0.30272675  0.64878822  1
  S2-  S132  1  -0.09879891  0.63388763  0.15910945  1
  S2-  S133  1  0.03197526  0.59635125  0.65427891  1
  S2-  S134  1  0.00194941  0.84376154  0.15313601  1
  S2-  S135  1  0.04280593  0.82649442  0.64262651  1
  S2-  S136  1  0.19405161  0.07459536  0.14624796  1
  S2-  S137  1  0.16284334  0.15298469  0.65150177  1
  S2-  S138  1  0.21513692  0.35735248  0.15381869  1
  S2-  S139  1  0.16342020  0.39140942  0.65197433  1
  S2-  S140  1  0.12286126  0.63126398  0.14996097  1
  S2-  S141  1  0.30646529  0.55435627  0.65305861  1
  S2-  S142  1  0.23606147  0.81913841  0.14415008  1
  S2-  S143  1  0.27335296  0.76911621  0.64340491  1
  S2-  S144  1  0.47523918  0.20360307  0.14085225  1
  S2-  S145  1  0.54245892  0.06131491  0.64315862  1
  S2-  S146  1  0.45437008  0.41975001  0.17406447  1
  S2-  S147  1  0.43661133  0.37811259  0.64113071  1
  S2-  S148  1  0.59302048  0.61501820  0.15255544  1
  S2-  S149  1  0.56483937  0.61526589  0.65730916  1
  S2-  S150  1  0.51065700  0.84111842  0.15046754  1
  S2-  S151  1  0.48662075  0.81909638  0.67423900  1
  S2-  S152  1  0.68187346  0.10873597  0.16335426  1
  S2-  S153  1  0.75900512  0.25789570  0.64009953  1
  S2-  S154  1  0.64396095  0.33923946  0.14544713  1
  S2-  S155  1  0.78646965  0.49554144  0.64229103  1
  S2-  S156  1  0.76187635  0.48709268  0.15727311  1
  S2-  S157  1  0.80477496  0.74696960  0.64521899  1
  S2-  S158  1  0.74591427  0.78945011  0.14859106  1
  S2-  S159  1  0.67727740  0.89969422  0.64852398  1
  S2-  S160  1  0.14782673  -0.08460134  0.35103713  1
  S2-  S161  1  0.14108391  -0.14385236  0.84495453  1
  S2-  S162  1  0.12763860  0.13713491  0.36329653  1
  S2-  S163  1  0.12807884  0.10850951  0.82840022  1
  S2-  S164  1  0.03755448  0.48856746  0.35945152  1
  S2-  S165  1  0.12652147  0.40677039  0.84652395  1
  S2-  S166  1  0.13164099  0.68229581  0.32748378  1
  S2-  S167  1  0.13950526  0.62556368  0.85510111  1
  S2-  S168  1  0.37904499  0.03949476  0.35163758  1
  S2-  S169  1  0.35933962  -0.01563825  0.83947164  1
  S2-  S170  1  0.27999718  0.27599870  0.36494647  1
  S2-  S171  1  0.28326684  0.25288615  0.84598456  1
  S2-  S172  1  0.28094772  0.51239290  0.36224263  1
  S2-  S173  1  0.34891308  0.51254784  0.84502727  1
  S2-  S174  1  0.31687646  0.77198546  0.35583115  1
  S2-  S175  1  0.36442452  0.74280619  0.84091084  1
  S2-  S176  1  0.63135312  0.11784794  0.34582605  1
  S2-  S177  1  0.61270077  0.04970831  0.83993541  1
  S2-  S178  1  0.50345340  0.28132203  0.35072361  1
  S2-  S179  1  0.73225979  0.25595937  0.86135614  1
  S2-  S180  1  0.64428418  0.48590257  0.33521701  1
  S2-  S181  1  0.58442424  0.60734538  0.86173430  1
  S2-  S182  1  0.73148900  0.76584900  0.35825988  1
  S2-  S183  1  0.63734434  0.82364576  0.84502371  1
  S2-  S184  1  0.81863721  -0.00219545  0.35932548  1
  S2-  S185  1  0.94768753  -0.00259903  0.84814171  1
  S2-  S186  1  0.79502233  0.26750080  0.35831113  1
  S2-  S187  1  0.96301029  0.25800329  0.83914527  1
  S2-  S188  1  0.85348847  0.59034277  0.35600449  1
  S2-  S189  1  0.76442833  0.48922260  0.86246201  1
  S2-  S190  1  0.94647930  0.78370650  0.31858253  1
  S2-  S191  1  0.88914604  0.73555599  0.84794525  1
  S2-  S192  1  0.02463538  0.13778766  0.46611135  1
  S2-  S193  1  -0.00101484  0.12688950  0.94796677  1
  S2-  S194  1  0.03332007  0.38073549  0.46142324  1
  S2-  S195  1  -0.00123844  0.37457811  0.94987082  1
  S2-  S196  1  0.03204458  0.64450634  0.44824534  1
  S2-  S197  1  -0.00433440  0.62149122  0.95798811  1
  S2-  S198  1  0.02064750  0.88593500  0.44604332  1
  S2-  S199  1  -0.00365726  0.86926852  0.94908523  1
  S2-  S200  1  0.28078612  0.13274273  0.46387691  1
  S2-  S201  1  0.24360157  0.12235243  0.94570253  1
  S2-  S202  1  0.28104826  0.38919095  0.46714159  1
  S2-  S203  1  0.24572852  0.37168826  0.95260046  1
  S2-  S204  1  0.28219652  0.64354672  0.45817220  1
  S2-  S205  1  0.25127816  0.62191668  0.96187993  1
  S2-  S206  1  0.28182977  0.89370662  0.46099416  1
  S2-  S207  1  0.25172853  0.87330085  0.94820516  1
  S2-  S208  1  0.52760492  0.13426409  0.45179098  1
  S2-  S209  1  0.49888776  0.12157961  0.94977777  1
  S2-  S210  1  0.52768455  0.39235612  0.45083754  1
  S2-  S211  1  0.50196818  0.37281111  0.96104959  1
  S2-  S212  1  0.52856715  0.64117958  0.44921888  1
  S2-  S213  1  0.49500688  0.62051471  0.96372113  1
  S2-  S214  1  0.53276369  0.89081982  0.45117431  1
  S2-  S215  1  0.49646579  0.87143337  0.94719011  1
  S2-  S216  1  0.77909733  0.13999225  0.45813080  1
  S2-  S217  1  0.75071299  0.11710916  0.95689899  1
  S2-  S218  1  0.78130618  0.39315617  0.45409972  1
  S2-  S219  1  0.74779247  0.37287028  0.96606047  1
  S2-  S220  1  0.77444223  0.63770964  0.46379856  1
  S2-  S221  1  0.74914344  0.62461849  0.95975474  1
  S2-  S222  1  0.78028289  0.88333986  0.46120759  1
  S2-  S223  1  0.75166719  0.86962082  0.95210692  1
  S2-  S224  1  0.12117850  -0.00693849  0.03660301  1
  S2-  S225  1  0.15132791  0.01102357  0.54946899  1
  S2-  S226  1  0.12037332  0.24550070  0.05023552  1
  S2-  S227  1  0.15820439  0.26454507  0.54667338  1
  S2-  S228  1  0.12439589  0.49655387  0.04516037  1
  S2-  S229  1  0.15951955  0.51758596  0.54464509  1
  S2-  S230  1  0.12520885  0.74786133  0.03853818  1
  S2-  S231  1  0.15662729  0.76859705  0.53383942  1
  S2-  S232  1  0.37143676  -0.00517423  0.04495277  1
  S2-  S233  1  0.40469325  0.01185457  0.55130258  1
  S2-  S234  1  0.36975771  0.24627734  0.04063737  1
  S2-  S235  1  0.40471429  0.25491065  0.54367778  1
  S2-  S236  1  0.37323003  0.49583920  0.05352090  1
  S2-  S237  1  0.40887643  0.51557050  0.54115429  1
  S2-  S238  1  0.37229347  0.74738920  0.04681640  1
  S2-  S239  1  0.41313137  0.77263244  0.54691704  1
  S2-  S240  1  0.62549089  -0.00487384  0.04495584  1
  S2-  S241  1  0.65701126  0.01243173  0.53833980  1
  S2-  S242  1  0.62810873  0.23947486  0.04294789  1
  S2-  S243  1  0.64857521  0.26131451  0.53384607  1
  S2-  S244  1  0.62433326  0.49627541  0.04742255  1
  S2-  S245  1  0.64853469  0.50818060  0.54361877  1
  S2-  S246  1  0.62230110  0.74549037  0.04212439  1
  S2-  S247  1  0.65185989  0.76343438  0.54885821  1
  S2-  S248  1  0.87420011  -0.00960903  0.04232784  1
  S2-  S249  1  0.90224171  0.01141821  0.55313993  1
  S2-  S250  1  0.87403928  0.24937401  0.03803572  1
  S2-  S251  1  0.90444238  0.25923258  0.54238409  1
  S2-  S252  1  0.87404045  0.50135358  0.04725327  1
  S2-  S253  1  0.91396507  0.51147410  0.54367696  1
  S2-  S254  1  0.87418986  0.74695552  0.04818261  1
  S2-  S255  1  0.90598110  0.76074307  0.53711334  1
