# generated using pymatgen
data_La9Ce10Pr6Nd4Sm3(BiS2)32
_symmetry_space_group_name_H-M   'P 1'
_cell_length_a   16.14384063
_cell_length_b   16.19406661
_cell_length_c   27.21400451
_cell_angle_alpha   90.29797242
_cell_angle_beta   89.81547035
_cell_angle_gamma   90.02288045
_symmetry_Int_Tables_number   1
_chemical_formula_structural   La9Ce10Pr6Nd4Sm3(BiS2)32
_chemical_formula_sum   'La18 Ce20 Pr12 Nd8 Sm6 Bi64 S128'
_cell_volume   7114.54413485
_cell_formula_units_Z   2
loop_
 _symmetry_equiv_pos_site_id
 _symmetry_equiv_pos_as_xyz
  1  'x, y, z'
loop_
 _atom_type_symbol
 _atom_type_oxidation_number
  La3+  3.0
  Ce3+  3.0
  Pr3+  3.0
  Nd3+  3.0
  Sm3+  3.0
  Bi2+  2.0
  S2-  -2.0
loop_
 _atom_site_type_symbol
 _atom_site_label
 _atom_site_symmetry_multiplicity
 _atom_site_fract_x
 _atom_site_fract_y
 _atom_site_fract_z
 _atom_site_occupancy
  La3+  La0  1  0.73107373  0.87882575  0.59649944  1
  La3+  La1  1  0.10804149  0.48781484  0.43447535  1
  La3+  La2  1  0.00237689  0.62931967  0.07360031  1
  La3+  La3  1  0.36034293  0.49066566  0.41799448  1
  La3+  La4  1  -0.00452668  0.63575916  0.57511507  1
  La3+  La5  1  0.26367034  0.61275665  0.11677295  1
  La3+  La6  1  0.63529484  0.73959762  0.91926350  1
  La3+  La7  1  0.25760192  0.12546918  0.06434043  1
  La3+  La8  1  0.74624710  0.87461891  0.06203091  1
  La3+  La9  1  0.74428144  0.12983530  0.06619968  1
  La3+  La10  1  -0.01330357  0.37227640  0.59328004  1
  La3+  La11  1  0.11073897  0.74671767  0.42624370  1
  La3+  La12  1  0.35025890  0.24182136  0.87729317  1
  La3+  La13  1  0.75393016  0.37658931  0.05172318  1
  La3+  La14  1  0.23917868  0.61149418  0.56389700  1
  La3+  La15  1  0.50110794  0.37621487  0.06560712  1
  La3+  La16  1  0.37231302  -0.01064242  0.92396244  1
  La3+  La17  1  0.86829958  -0.00060621  0.42551700  1
  Ce3+  Ce18  1  0.73661895  0.12125447  0.56290436  1
  Ce3+  Ce19  1  0.48085863  0.87556544  0.56559678  1
  Ce3+  Ce20  1  0.12765511  -0.00164029  0.94915088  1
  Ce3+  Ce21  1  0.24160507  0.87435370  0.55411436  1
  Ce3+  Ce22  1  0.62805911  -0.00955140  0.92656626  1
  Ce3+  Ce23  1  0.50267237  0.62852542  0.06137254  1
  Ce3+  Ce24  1  0.87304322  -0.00179829  0.93709071  1
  Ce3+  Ce25  1  0.25182752  0.36863884  0.06831569  1
  Ce3+  Ce26  1  0.24188948  0.12763998  0.56533834  1
  Ce3+  Ce27  1  0.11511025  -0.00003375  0.44532239  1
  Ce3+  Ce28  1  0.12856283  0.49713433  0.94989123  1
  Ce3+  Ce29  1  0.74152015  0.37080734  0.56425938  1
  Ce3+  Ce30  1  0.12803653  0.24778079  0.94673186  1
  Ce3+  Ce31  1  0.87044764  0.49871932  0.45051095  1
  Ce3+  Ce32  1  0.75988076  0.62836099  0.05358743  1
  Ce3+  Ce33  1  0.11375599  0.24910146  0.44978314  1
  Ce3+  Ce34  1  0.86423362  0.75368521  0.43770231  1
  Ce3+  Ce35  1  0.48948333  0.62155341  0.55637333  1
  Ce3+  Ce36  1  0.36436535  0.00438358  0.43404022  1
  Ce3+  Ce37  1  -0.01374430  0.87744807  0.56160623  1
  Pr3+  Pr38  1  -0.01535038  0.11966021  0.56528214  1
  Pr3+  Pr39  1  0.61275013  0.75071729  0.44183033  1
  Pr3+  Pr40  1  0.36391134  0.74661911  0.43624119  1
  Pr3+  Pr41  1  -0.00678243  0.87819596  0.07308322  1
  Pr3+  Pr42  1  0.87572457  0.24850297  0.93197864  1
  Pr3+  Pr43  1  0.37616513  0.49452408  0.94325299  1
  Pr3+  Pr44  1  0.25301416  0.87333661  0.07195217  1
  Pr3+  Pr45  1  0.62102949  0.25047124  0.92651461  1
  Pr3+  Pr46  1  0.37331150  0.74710915  0.94302506  1
  Pr3+  Pr47  1  0.74004474  0.62693924  0.56513990  1
  Pr3+  Pr48  1  0.61748919  -0.00202226  0.43830863  1
  Pr3+  Pr49  1  0.88482491  0.75472015  0.92340345  1
  Nd3+  Nd50  1  0.12352751  0.74843523  0.94679487  1
  Nd3+  Nd51  1  0.89438957  0.49516120  0.91441892  1
  Nd3+  Nd52  1  0.00172787  0.37500472  0.06263759  1
  Nd3+  Nd53  1  0.24388643  0.36760279  0.56743673  1
  Nd3+  Nd54  1  0.62058830  0.25367039  0.43224958  1
  Nd3+  Nd55  1  0.61784511  0.49876544  0.44162783  1
  Nd3+  Nd56  1  0.36452321  0.24328130  0.42895381  1
  Nd3+  Nd57  1  0.86708390  0.24703967  0.44035997  1
  Sm3+  Sm58  1  0.50556099  0.87603774  0.05609791  1
  Sm3+  Sm59  1  -0.00256463  0.12383162  0.05305501  1
  Sm3+  Sm60  1  0.63075809  0.50448867  0.94486255  1
  Sm3+  Sm61  1  0.49161505  0.12387501  0.55304394  1
  Sm3+  Sm62  1  0.50002343  0.12517060  0.03919260  1
  Sm3+  Sm63  1  0.49010396  0.37218524  0.55215472  1
  Bi2+  Bi64  1  0.00974794  0.11509903  0.29813935  1
  Bi2+  Bi65  1  0.01560341  0.13178361  0.79504564  1
  Bi2+  Bi66  1  -0.05766312  0.34445719  0.32199462  1
  Bi2+  Bi67  1  0.05023423  0.34630203  0.80114436  1
  Bi2+  Bi68  1  -0.02481869  0.59936844  0.28292541  1
  Bi2+  Bi69  1  0.00584944  0.62329648  0.79810788  1
  Bi2+  Bi70  1  -0.02193978  0.85719760  0.29617342  1
  Bi2+  Bi71  1  -0.01883094  0.93957369  0.76831525  1
  Bi2+  Bi72  1  0.22104021  0.13747595  0.31293379  1
  Bi2+  Bi73  1  0.22525469  0.07974993  0.79316937  1
  Bi2+  Bi74  1  0.21982418  0.37699773  0.29231932  1
  Bi2+  Bi75  1  0.27806690  0.41722114  0.76180239  1
  Bi2+  Bi76  1  0.30678279  0.65072580  0.31736702  1
  Bi2+  Bi77  1  0.27157184  0.61447133  0.79085152  1
  Bi2+  Bi78  1  0.26654426  0.95207721  0.28221638  1
  Bi2+  Bi79  1  0.21465024  0.80570559  0.81143443  1
  Bi2+  Bi80  1  0.47078685  0.10357810  0.23032080  1
  Bi2+  Bi81  1  0.60091822  0.17411438  0.77022969  1
  Bi2+  Bi82  1  0.52149275  0.37469736  0.30251888  1
  Bi2+  Bi83  1  0.49704241  0.41747398  0.78962805  1
  Bi2+  Bi84  1  0.53129432  0.66744068  0.27795299  1
  Bi2+  Bi85  1  0.46635179  0.61497650  0.80168976  1
  Bi2+  Bi86  1  0.53153160  0.93958824  0.28211078  1
  Bi2+  Bi87  1  0.45598831  0.92576202  0.78581703  1
  Bi2+  Bi88  1  0.72682156  0.16832715  0.30319245  1
  Bi2+  Bi89  1  0.82835132  0.11996071  0.82406820  1
  Bi2+  Bi90  1  0.76452720  0.35565096  0.28074217  1
  Bi2+  Bi91  1  0.74578069  0.30003421  0.80350032  1
  Bi2+  Bi92  1  0.78409012  0.62061816  0.29688413  1
  Bi2+  Bi93  1  0.70938540  0.61984074  0.77520530  1
  Bi2+  Bi94  1  0.72429983  0.82781206  0.27442551  1
  Bi2+  Bi95  1  0.73920015  0.87682990  0.79459084  1
  Bi2+  Bi96  1  0.12494810  -0.00339192  0.20553416  1
  Bi2+  Bi97  1  0.11717859  -0.03380264  0.67882747  1
  Bi2+  Bi98  1  0.12880323  0.20866065  0.21716814  1
  Bi2+  Bi99  1  0.13269602  0.15843634  0.70027627  1
  Bi2+  Bi100  1  0.11285281  0.47483691  0.22022430  1
  Bi2+  Bi101  1  0.11917618  0.53704168  0.70727214  1
  Bi2+  Bi102  1  0.13853211  0.73808169  0.22493618  1
  Bi2+  Bi103  1  0.09974761  0.78009253  0.71745386  1
  Bi2+  Bi104  1  0.31467877  0.01376359  0.17351039  1
  Bi2+  Bi105  1  0.31598179  -0.02068131  0.71142602  1
  Bi2+  Bi106  1  0.33181419  0.23770128  0.23315758  1
  Bi2+  Bi107  1  0.41021745  0.22704398  0.68874543  1
  Bi2+  Bi108  1  0.39738671  0.48797088  0.21178842  1
  Bi2+  Bi109  1  0.40381068  0.51722385  0.69364081  1
  Bi2+  Bi110  1  0.39463874  0.85466569  0.21457960  1
  Bi2+  Bi111  1  0.31897273  0.75898727  0.71486993  1
  Bi2+  Bi112  1  0.67488251  -0.01431443  0.21061004  1
  Bi2+  Bi113  1  0.58782285  0.00481975  0.70924321  1
  Bi2+  Bi114  1  0.62488662  0.24626955  0.18570031  1
  Bi2+  Bi115  1  0.68864508  0.25639371  0.67993525  1
  Bi2+  Bi116  1  0.65961629  0.54235883  0.21800222  1
  Bi2+  Bi117  1  0.65860249  0.43011517  0.72957921  1
  Bi2+  Bi118  1  0.64025674  0.72436208  0.18415498  1
  Bi2+  Bi119  1  0.51490254  0.76069941  0.73070116  1
  Bi2+  Bi120  1  0.93045776  0.00429428  0.21408430  1
  Bi2+  Bi121  1  0.91168238  0.00048076  0.67015632  1
  Bi2+  Bi122  1  0.93203830  0.26330709  0.21940559  1
  Bi2+  Bi123  1  0.86438810  0.17906187  0.71628985  1
  Bi2+  Bi124  1  0.85300287  0.50083567  0.21101536  1
  Bi2+  Bi125  1  0.88032544  0.45391962  0.72807259  1
  Bi2+  Bi126  1  0.86874193  0.76250718  0.20146641  1
  Bi2+  Bi127  1  0.86531628  0.70065324  0.70633172  1
  S2-  S128  1  -0.04161250  0.13352568  0.14824461  1
  S2-  S129  1  -0.00938959  0.21621396  0.64933146  1
  S2-  S130  1  -0.00401199  0.39529665  0.16253163  1
  S2-  S131  1  0.03906148  0.38758873  0.70091862  1
  S2-  S132  1  0.09773264  0.60600265  0.16006621  1
  S2-  S133  1  -0.04240908  0.55957251  0.66570169  1
  S2-  S134  1  0.02295889  0.78948047  0.16262696  1
  S2-  S135  1  -0.02220626  0.77900746  0.64206614  1
  S2-  S136  1  0.25360047  0.23981179  0.14426265  1
  S2-  S137  1  0.25761999  0.23997025  0.64145852  1
  S2-  S138  1  0.25705366  0.44792365  0.15707783  1
  S2-  S139  1  0.24892723  0.48051637  0.64499455  1
  S2-  S140  1  0.27114665  0.61226073  0.22716454  1
  S2-  S141  1  0.14872231  0.66400424  0.64480110  1
  S2-  S142  1  0.26112796  0.77982275  0.15741831  1
  S2-  S143  1  0.34460966  0.87190558  0.63434631  1
  S2-  S144  1  0.53154943  0.12412125  0.13710274  1
  S2-  S145  1  0.47556291  0.07808629  0.64837854  1
  S2-  S146  1  0.50011352  0.37295055  0.16815237  1
  S2-  S147  1  0.46954485  0.36342194  0.65033020  1
  S2-  S148  1  0.43786897  0.60802838  0.15169781  1
  S2-  S149  1  0.50291893  0.63276862  0.65422532  1
  S2-  S150  1  0.61234094  0.87664980  0.13505877  1
  S2-  S151  1  0.57309064  0.86489397  0.64999342  1
  S2-  S152  1  0.73887158  0.11566001  0.16811593  1
  S2-  S153  1  0.73282552  0.03304067  0.64899708  1
  S2-  S154  1  0.74461768  0.32978421  0.14779508  1
  S2-  S155  1  0.83101439  0.37569017  0.64826276  1
  S2-  S156  1  0.85641080  0.62478276  0.13719912  1
  S2-  S157  1  0.73709182  0.61763527  0.66739838  1
  S2-  S158  1  0.85393957  0.90023444  0.14227315  1
  S2-  S159  1  0.77344978  0.83105538  0.69659961  1
  S2-  S160  1  0.05014460  -0.01945038  0.35577971  1
  S2-  S161  1  0.16223107  -0.03852695  0.85514526  1
  S2-  S162  1  0.10101547  0.32671007  0.36294679  1
  S2-  S163  1  0.17310565  0.26354155  0.85309088  1
  S2-  S164  1  0.21557966  0.51347249  0.35387264  1
  S2-  S165  1  0.06096284  0.49385536  0.85770172  1
  S2-  S166  1  0.18215114  0.75777134  0.32965289  1
  S2-  S167  1  0.02883161  0.74228528  0.86030087  1
  S2-  S168  1  0.36985921  0.11104201  0.35769468  1
  S2-  S169  1  0.37550893  0.08006984  0.83697437  1
  S2-  S170  1  0.36469808  0.34832096  0.34912147  1
  S2-  S171  1  0.32971702  0.25915715  0.76936283  1
  S2-  S172  1  0.45252183  0.53630351  0.32903318  1
  S2-  S173  1  0.35544890  0.41736901  0.85309066  1
  S2-  S174  1  0.43341630  0.76289238  0.34257649  1
  S2-  S175  1  0.36572959  0.84583779  0.85820773  1
  S2-  S176  1  0.65203169  0.02703526  0.33961304  1
  S2-  S177  1  0.67450097  0.05098013  0.83421847  1
  S2-  S178  1  0.56962178  0.23285051  0.33607411  1
  S2-  S179  1  0.51938768  0.26859929  0.84427205  1
  S2-  S180  1  0.65112686  0.42914457  0.35165041  1
  S2-  S181  1  0.61847816  0.58673539  0.85777828  1
  S2-  S182  1  0.65365729  0.71207536  0.34584367  1
  S2-  S183  1  0.60231445  0.86678701  0.85102447  1
  S2-  S184  1  0.84281709  -0.11167881  0.34593589  1
  S2-  S185  1  0.88384518  -0.09226635  0.85233334  1
  S2-  S186  1  0.86123685  0.13751821  0.35730893  1
  S2-  S187  1  0.90338809  0.34848569  0.84942146  1
  S2-  S188  1  0.96642161  0.49990312  0.36676415  1
  S2-  S189  1  0.84860540  0.54756569  0.81975838  1
  S2-  S190  1  0.97228129  0.72623209  0.35989490  1
  S2-  S191  1  0.76727549  0.73957383  0.84290576  1
  S2-  S192  1  -0.00843930  0.12394549  0.45882984  1
  S2-  S193  1  0.00160960  0.12305715  0.94782381  1
  S2-  S194  1  -0.01578595  0.36737536  0.47107934  1
  S2-  S195  1  0.00328614  0.37063925  0.95784109  1
  S2-  S196  1  -0.01078984  0.62541001  0.46696854  1
  S2-  S197  1  0.00264197  0.61927903  0.96116395  1
  S2-  S198  1  -0.00982852  0.87547364  0.45786975  1
  S2-  S199  1  0.00267728  0.87998330  0.96287472  1
  S2-  S200  1  0.23754347  0.12416370  0.45854926  1
  S2-  S201  1  0.25455969  0.12417055  0.95351989  1
  S2-  S202  1  0.24187173  0.36860835  0.46040217  1
  S2-  S203  1  0.25067768  0.37049663  0.96077977  1
  S2-  S204  1  0.23774271  0.62302560  0.45469372  1
  S2-  S205  1  0.24893359  0.62346067  0.94222366  1
  S2-  S206  1  0.24210476  0.87663023  0.44612501  1
  S2-  S207  1  0.24802817  0.87138252  0.96475845  1
  S2-  S208  1  0.49720190  0.12712029  0.45050889  1
  S2-  S209  1  0.50262921  0.11764378  0.93784036  1
  S2-  S210  1  0.49431303  0.37317486  0.44872233  1
  S2-  S211  1  0.51174148  0.38477582  0.95668968  1
  S2-  S212  1  0.49101333  0.61981050  0.44981036  1
  S2-  S213  1  0.49863081  0.62316112  0.95568452  1
  S2-  S214  1  0.48732573  0.87689085  0.45281696  1
  S2-  S215  1  0.50182076  0.86873077  0.95528142  1
  S2-  S216  1  0.73785103  0.12528780  0.45672667  1
  S2-  S217  1  0.74841581  0.12797296  0.95269782  1
  S2-  S218  1  0.74544341  0.37284128  0.45761080  1
  S2-  S219  1  0.75076670  0.37897445  0.94383016  1
  S2-  S220  1  0.74169998  0.62298625  0.45675721  1
  S2-  S221  1  0.76724026  0.61662946  0.94969736  1
  S2-  S222  1  0.73727967  0.87333970  0.45050895  1
  S2-  S223  1  0.75253764  0.87292156  0.95292284  1
  S2-  S224  1  0.12460076  0.00197240  0.05635675  1
  S2-  S225  1  0.11730132  0.00084673  0.55013282  1
  S2-  S226  1  0.12046265  0.24547454  0.05139312  1
  S2-  S227  1  0.11264071  0.24810687  0.55215618  1
  S2-  S228  1  0.12914953  0.49675581  0.05342296  1
  S2-  S229  1  0.10887836  0.49005320  0.55014615  1
  S2-  S230  1  0.12539476  0.75392877  0.05091795  1
  S2-  S231  1  0.11923833  0.75702311  0.53766537  1
  S2-  S232  1  0.38174339  -0.00362804  0.04046042  1
  S2-  S233  1  0.36397728  0.00548899  0.53900133  1
  S2-  S234  1  0.38362771  0.24872774  0.04840226  1
  S2-  S235  1  0.37187088  0.24681700  0.53714753  1
  S2-  S236  1  0.37383032  0.50292640  0.04909238  1
  S2-  S237  1  0.37072101  0.49345009  0.53827605  1
  S2-  S238  1  0.38149984  0.75335091  0.04959205  1
  S2-  S239  1  0.36311016  0.74159120  0.54230254  1
  S2-  S240  1  0.62504308  0.00249984  0.03493076  1
  S2-  S241  1  0.61124872  -0.00319387  0.54446292  1
  S2-  S242  1  0.62393179  0.25111195  0.03560295  1
  S2-  S243  1  0.61319978  0.24873601  0.54236932  1
  S2-  S244  1  0.62966807  0.50515103  0.05077309  1
  S2-  S245  1  0.61576557  0.49605851  0.54956330  1
  S2-  S246  1  0.62763527  0.74422377  0.03425430  1
  S2-  S247  1  0.61364549  0.74983680  0.54843356  1
  S2-  S248  1  0.87147340  0.00748356  0.04200396  1
  S2-  S249  1  0.85844617  -0.00391200  0.54186926  1
  S2-  S250  1  0.87736346  0.24882608  0.04140913  1
  S2-  S251  1  0.85956797  0.24341861  0.54720429  1
  S2-  S252  1  0.88064479  0.49636074  0.04205042  1
  S2-  S253  1  0.86426617  0.50187568  0.55347579  1
  S2-  S254  1  0.87738897  0.75478759  0.03793138  1
  S2-  S255  1  0.85307141  0.75820531  0.54770070  1
