# generated using pymatgen
data_La9Ce10Pr6Nd4Sm3(BiS2)32
_symmetry_space_group_name_H-M   'P 1'
_cell_length_a   16.16721824
_cell_length_b   16.19497197
_cell_length_c   27.31027672
_cell_angle_alpha   89.62345209
_cell_angle_beta   90.06453786
_cell_angle_gamma   89.90750668
_symmetry_Int_Tables_number   1
_chemical_formula_structural   La9Ce10Pr6Nd4Sm3(BiS2)32
_chemical_formula_sum   'La18 Ce20 Pr12 Nd8 Sm6 Bi64 S128'
_cell_volume   7150.41711289
_cell_formula_units_Z   2
loop_
 _symmetry_equiv_pos_site_id
 _symmetry_equiv_pos_as_xyz
  1  'x, y, z'
loop_
 _atom_type_symbol
 _atom_type_oxidation_number
  La3+  3.0
  Ce3+  3.0
  Pr3+  3.0
  Nd3+  3.0
  Sm3+  3.0
  Bi2+  2.0
  S2-  -2.0
loop_
 _atom_site_type_symbol
 _atom_site_label
 _atom_site_symmetry_multiplicity
 _atom_site_fract_x
 _atom_site_fract_y
 _atom_site_fract_z
 _atom_site_occupancy
  La3+  La0  1  0.75216734  0.37767012  0.57738833  1
  La3+  La1  1  0.84735839  0.25432713  0.93280626  1
  La3+  La2  1  0.12603761  0.74824681  0.43169437  1
  La3+  La3  1  0.38081444  -0.00349220  0.42985615  1
  La3+  La4  1  0.13064340  0.25363258  0.42843333  1
  La3+  La5  1  0.26282483  0.37305775  0.56995664  1
  La3+  La6  1  0.47270181  0.61444048  0.08503454  1
  La3+  La7  1  0.72830698  0.12108666  0.06613435  1
  La3+  La8  1  0.87280539  0.25575740  0.39639911  1
  La3+  La9  1  -0.02500038  0.36898917  0.07799089  1
  La3+  La10  1  0.35091799  0.50819410  0.92889684  1
  La3+  La11  1  0.76002194  0.62913137  0.57635447  1
  La3+  La12  1  0.85522924  0.00016790  0.93251171  1
  La3+  La13  1  0.10218687  0.00012110  0.93133729  1
  La3+  La14  1  0.09286193  0.50502023  0.91834300  1
  La3+  La15  1  0.12066199  -0.00586105  0.41736571  1
  La3+  La16  1  0.49481961  0.12085919  0.57862430  1
  La3+  La17  1  0.10206993  0.75409731  0.92997909  1
  Ce3+  Ce18  1  0.63678683  0.49749813  0.43957689  1
  Ce3+  Ce19  1  0.87933460  0.49335725  0.44379260  1
  Ce3+  Ce20  1  0.59989905  0.74760516  0.94685484  1
  Ce3+  Ce21  1  0.59946834  0.23993831  0.93438006  1
  Ce3+  Ce22  1  0.60158085  0.00123931  0.93832337  1
  Ce3+  Ce23  1  -0.01783682  0.62746565  0.06478687  1
  Ce3+  Ce24  1  0.50355869  0.37301400  0.54894894  1
  Ce3+  Ce25  1  0.25471279  0.12396059  0.54695661  1
  Ce3+  Ce26  1  0.35113864  0.25069490  0.93863916  1
  Ce3+  Ce27  1  0.09944844  0.25277700  0.94238870  1
  Ce3+  Ce28  1  0.35225215  0.74787912  0.95117348  1
  Ce3+  Ce29  1  0.24982119  0.87602933  0.55889267  1
  Ce3+  Ce30  1  0.62934029  0.75068432  0.44056396  1
  Ce3+  Ce31  1  0.87368253  0.00171269  0.43570043  1
  Ce3+  Ce32  1  0.75540866  0.87399213  0.56546988  1
  Ce3+  Ce33  1  0.22613433  0.87590386  0.06583178  1
  Ce3+  Ce34  1  0.00559459  0.12653720  0.54932128  1
  Ce3+  Ce35  1  0.63418536  0.24899735  0.44876782  1
  Ce3+  Ce36  1  0.75733310  0.12302766  0.56305720  1
  Ce3+  Ce37  1  0.25689499  0.62680277  0.55421553  1
  Pr3+  Pr38  1  0.38895451  0.75069862  0.42025891  1
  Pr3+  Pr39  1  0.22473756  0.62074183  0.06657186  1
  Pr3+  Pr40  1  0.00565636  0.36930633  0.56778498  1
  Pr3+  Pr41  1  0.72738350  0.37099342  0.06756637  1
  Pr3+  Pr42  1  0.47935585  0.12740860  0.07219383  1
  Pr3+  Pr43  1  0.72648469  0.87069275  0.06090766  1
  Pr3+  Pr44  1  0.87718838  0.74879051  0.44406064  1
  Pr3+  Pr45  1  0.38187563  0.25723928  0.42042233  1
  Pr3+  Pr46  1  0.47678979  0.87429463  0.06160953  1
  Pr3+  Pr47  1  0.72844122  0.62400163  0.05773953  1
  Pr3+  Pr48  1  0.49555831  0.87159322  0.56730878  1
  Pr3+  Pr49  1  0.50237542  0.62360193  0.55568548  1
  Nd3+  Nd50  1  -0.01849030  0.86843169  0.06606427  1
  Nd3+  Nd51  1  0.63288709  0.00356273  0.44357642  1
  Nd3+  Nd52  1  0.22515155  0.37490072  0.05277443  1
  Nd3+  Nd53  1  0.12895020  0.49439163  0.44937135  1
  Nd3+  Nd54  1  0.60310187  0.49948970  0.94315804  1
  Nd3+  Nd55  1  0.00583499  0.62367747  0.56287129  1
  Nd3+  Nd56  1  -0.02796783  0.11284236  0.07438723  1
  Nd3+  Nd57  1  0.85407161  0.49900757  0.94615736  1
  Sm3+  Sm58  1  0.35369785  0.00084770  0.95118550  1
  Sm3+  Sm59  1  0.47409254  0.37506834  0.05564959  1
  Sm3+  Sm60  1  0.37918602  0.50398191  0.42738389  1
  Sm3+  Sm61  1  0.85351408  0.75127389  0.94175714  1
  Sm3+  Sm62  1  0.01154525  0.87908596  0.55998029  1
  Sm3+  Sm63  1  0.22516272  0.12593428  0.05509551  1
  Bi2+  Bi64  1  0.02649170  0.12127289  0.29066709  1
  Bi2+  Bi65  1  -0.08515628  0.10267185  0.77704554  1
  Bi2+  Bi66  1  -0.00058561  0.39990074  0.28411948  1
  Bi2+  Bi67  1  -0.00168398  0.35163263  0.80041375  1
  Bi2+  Bi68  1  -0.01174235  0.59847796  0.27848202  1
  Bi2+  Bi69  1  -0.07513914  0.65129715  0.74920559  1
  Bi2+  Bi70  1  -0.00525774  0.86823473  0.28452738  1
  Bi2+  Bi71  1  0.01996941  0.88030360  0.79580173  1
  Bi2+  Bi72  1  0.29421184  0.16436192  0.27826084  1
  Bi2+  Bi73  1  0.27575986  0.10093804  0.78981947  1
  Bi2+  Bi74  1  0.26120795  0.40612143  0.28960131  1
  Bi2+  Bi75  1  0.26194071  0.34350065  0.78960619  1
  Bi2+  Bi76  1  0.18717732  0.59634108  0.29079125  1
  Bi2+  Bi77  1  0.23309826  0.59023134  0.80183982  1
  Bi2+  Bi78  1  0.25038730  0.91423318  0.28642417  1
  Bi2+  Bi79  1  0.31383783  0.84480060  0.81808032  1
  Bi2+  Bi80  1  0.47213417  0.09336670  0.32301358  1
  Bi2+  Bi81  1  0.51865676  0.11356703  0.76066797  1
  Bi2+  Bi82  1  0.49594658  0.28411484  0.28996606  1
  Bi2+  Bi83  1  0.51297271  0.38587201  0.74799159  1
  Bi2+  Bi84  1  0.45852943  0.68725980  0.27726212  1
  Bi2+  Bi85  1  0.49181600  0.63634880  0.80415938  1
  Bi2+  Bi86  1  0.58894619  0.92588257  0.32116344  1
  Bi2+  Bi87  1  0.51118611  0.85766762  0.79015951  1
  Bi2+  Bi88  1  0.69550226  0.13391597  0.30065500  1
  Bi2+  Bi89  1  0.73436022  0.04342287  0.82108579  1
  Bi2+  Bi90  1  0.70536629  0.39903336  0.27366778  1
  Bi2+  Bi91  1  0.76198145  0.41705028  0.81509395  1
  Bi2+  Bi92  1  0.72687861  0.62264560  0.29155392  1
  Bi2+  Bi93  1  0.73688982  0.69706187  0.75327426  1
  Bi2+  Bi94  1  0.77941227  0.81120247  0.29943551  1
  Bi2+  Bi95  1  0.79496083  0.86579305  0.80095685  1
  Bi2+  Bi96  1  0.11774385  0.02232642  0.19275019  1
  Bi2+  Bi97  1  0.17060835  -0.02225876  0.72558388  1
  Bi2+  Bi98  1  0.15749942  0.27787602  0.19813395  1
  Bi2+  Bi99  1  0.10721972  0.16033324  0.74626628  1
  Bi2+  Bi100  1  0.10052749  0.60195236  0.18408570  1
  Bi2+  Bi101  1  0.08568507  0.63302959  0.68825597  1
  Bi2+  Bi102  1  0.24081905  0.72926153  0.21168294  1
  Bi2+  Bi103  1  0.19481862  0.76650488  0.74106727  1
  Bi2+  Bi104  1  0.39368908  0.05410635  0.20409857  1
  Bi2+  Bi105  1  0.37322433  -0.01567437  0.69583072  1
  Bi2+  Bi106  1  0.43601987  0.24583805  0.18475558  1
  Bi2+  Bi107  1  0.38859312  0.25469027  0.69509003  1
  Bi2+  Bi108  1  0.36331770  0.48323757  0.20942702  1
  Bi2+  Bi109  1  0.36274681  0.50054882  0.69442396  1
  Bi2+  Bi110  1  0.39677590  0.85336326  0.21867273  1
  Bi2+  Bi111  1  0.39886808  0.74133508  0.71925057  1
  Bi2+  Bi112  1  0.59430702  0.02488182  0.22587321  1
  Bi2+  Bi113  1  0.64862530  -0.02602017  0.72610026  1
  Bi2+  Bi114  1  0.62680527  0.27209900  0.20119582  1
  Bi2+  Bi115  1  0.65179587  0.25211504  0.74839813  1
  Bi2+  Bi116  1  0.57150398  0.53253951  0.23652706  1
  Bi2+  Bi117  1  0.61042618  0.55195774  0.72848129  1
  Bi2+  Bi118  1  0.65084759  0.78619265  0.20309031  1
  Bi2+  Bi119  1  0.59967790  0.79203947  0.69102842  1
  Bi2+  Bi120  1  0.85316191  -0.00920056  0.21583972  1
  Bi2+  Bi121  1  0.87146694  -0.03519334  0.69872548  1
  Bi2+  Bi122  1  0.88721180  0.24773554  0.20566824  1
  Bi2+  Bi123  1  0.91186822  0.22994452  0.68025789  1
  Bi2+  Bi124  1  0.83776705  0.50996755  0.22143048  1
  Bi2+  Bi125  1  0.85040948  0.46716294  0.70293356  1
  Bi2+  Bi126  1  0.87896240  0.73101298  0.21226627  1
  Bi2+  Bi127  1  0.99172942  0.81157205  0.68552247  1
  S2-  S128  1  0.02976941  0.17182251  0.16480519  1
  S2-  S129  1  0.04621596  0.14995721  0.64467563  1
  S2-  S130  1  0.04301436  0.38376165  0.17514514  1
  S2-  S131  1  -0.00939723  0.37952882  0.66979099  1
  S2-  S132  1  -0.00574326  0.73896875  0.13931838  1
  S2-  S133  1  -0.09151830  0.60564765  0.64641061  1
  S2-  S134  1  -0.02532779  0.97052970  0.14709207  1
  S2-  S135  1  0.12861664  0.89994021  0.63265485  1
  S2-  S136  1  0.23662620  0.12456750  0.15320392  1
  S2-  S137  1  0.33177317  0.12802909  0.63591221  1
  S2-  S138  1  0.25867379  0.37636825  0.15121867  1
  S2-  S139  1  0.25430341  0.35958714  0.67221235  1
  S2-  S140  1  0.32844521  0.61204411  0.14889773  1
  S2-  S141  1  0.25190934  0.59281585  0.65134761  1
  S2-  S142  1  0.18284829  0.88349534  0.16097676  1
  S2-  S143  1  0.35658581  0.84542842  0.63650692  1
  S2-  S144  1  0.60941421  0.12274053  0.14247572  1
  S2-  S145  1  0.55452039  0.18864059  0.67111346  1
  S2-  S146  1  0.48707257  0.45863210  0.14191352  1
  S2-  S147  1  0.47322668  0.38886017  0.64420119  1
  S2-  S148  1  0.53350596  0.67051898  0.17757740  1
  S2-  S149  1  0.47655557  0.61718248  0.65591638  1
  S2-  S150  1  0.53231915  0.88909289  0.15622117  1
  S2-  S151  1  0.51337158  0.98459258  0.64596043  1
  S2-  S152  1  0.83376567  0.12527955  0.14898781  1
  S2-  S153  1  0.78991030  0.10092755  0.65934420  1
  S2-  S154  1  0.83261316  0.37147926  0.14866888  1
  S2-  S155  1  0.76253263  0.32552556  0.67728119  1
  S2-  S156  1  0.74553280  0.67719067  0.15263128  1
  S2-  S157  1  0.71461402  0.51446257  0.64836249  1
  S2-  S158  1  0.75449590  0.91277018  0.15782896  1
  S2-  S159  1  0.74708034  0.76830783  0.64432352  1
  S2-  S160  1  0.17793144  0.06154106  0.32758968  1
  S2-  S161  1  0.14650214  -0.12118542  0.85894418  1
  S2-  S162  1  0.02998536  0.25958661  0.34277508  1
  S2-  S163  1  0.10101409  0.23665009  0.84403452  1
  S2-  S164  1  0.12574110  0.46134632  0.35195792  1
  S2-  S165  1  0.13694068  0.44863987  0.82364772  1
  S2-  S166  1  0.13209976  0.84539870  0.34729385  1
  S2-  S167  1  0.10959679  0.64219529  0.85272254  1
  S2-  S168  1  0.36509148  -0.11594012  0.35120338  1
  S2-  S169  1  0.36153172  -0.00416533  0.85282495  1
  S2-  S170  1  0.24813235  0.26408403  0.35051585  1
  S2-  S171  1  0.35676342  0.23532729  0.84038306  1
  S2-  S172  1  0.39904145  0.39822731  0.34839799  1
  S2-  S173  1  0.35338186  0.45558864  0.82992050  1
  S2-  S174  1  0.37128523  0.62305889  0.34956874  1
  S2-  S175  1  0.35567502  0.66358881  0.86531397  1
  S2-  S176  1  0.74140372  0.00324446  0.36356131  1
  S2-  S177  1  0.57945279  0.10619556  0.86209432  1
  S2-  S178  1  0.70095538  0.26953614  0.35918254  1
  S2-  S179  1  0.68907136  0.28711585  0.85564442  1
  S2-  S180  1  0.62016817  0.50961638  0.34107460  1
  S2-  S181  1  0.63279174  0.50293182  0.84492822  1
  S2-  S182  1  0.54847477  0.76317180  0.35360925  1
  S2-  S183  1  0.60062490  0.74429421  0.84954595  1
  S2-  S184  1  0.97095108  -0.00531988  0.35257611  1
  S2-  S185  1  0.97694834  0.01350549  0.85681989  1
  S2-  S186  1  0.86259294  0.17581308  0.29968738  1
  S2-  S187  1  0.88676570  0.25233424  0.83282748  1
  S2-  S188  1  0.87994152  0.41898428  0.35557200  1
  S2-  S189  1  0.91604678  0.48109470  0.85310331  1
  S2-  S190  1  0.93326459  0.75798022  0.34865950  1
  S2-  S191  1  0.91641364  0.76738035  0.85129988  1
  S2-  S192  1  -0.00377658  0.13211703  0.44548545  1
  S2-  S193  1  -0.02388432  0.12939145  0.95884306  1
  S2-  S194  1  0.00247663  0.37154005  0.46007614  1
  S2-  S195  1  -0.02189194  0.37515232  0.96040662  1
  S2-  S196  1  0.00360234  0.62031359  0.45438155  1
  S2-  S197  1  -0.02668510  0.62669137  0.95798553  1
  S2-  S198  1  0.00072617  0.87311185  0.45714420  1
  S2-  S199  1  -0.02340139  0.87367162  0.95997157  1
  S2-  S200  1  0.25895500  0.12416194  0.44350764  1
  S2-  S201  1  0.22848398  0.12422593  0.95009663  1
  S2-  S202  1  0.26032825  0.38042673  0.45752666  1
  S2-  S203  1  0.22521758  0.37815338  0.94648940  1
  S2-  S204  1  0.25040793  0.62188765  0.44916147  1
  S2-  S205  1  0.22334894  0.62379395  0.96030967  1
  S2-  S206  1  0.25155044  0.87031532  0.45327636  1
  S2-  S207  1  0.23500569  0.87720250  0.96278136  1
  S2-  S208  1  0.50681886  0.12627040  0.45360352  1
  S2-  S209  1  0.47137014  0.12446852  0.96492336  1
  S2-  S210  1  0.51090171  0.37621968  0.44663100  1
  S2-  S211  1  0.47914831  0.37499763  0.94940186  1
  S2-  S212  1  0.50887153  0.61953384  0.44989232  1
  S2-  S213  1  0.48072351  0.62261419  0.96541020  1
  S2-  S214  1  0.51017431  0.87800894  0.45894746  1
  S2-  S215  1  0.47629457  0.87535107  0.95403524  1
  S2-  S216  1  0.76178984  0.13267654  0.45833820  1
  S2-  S217  1  0.72882080  0.12300073  0.95742897  1
  S2-  S218  1  0.75634336  0.37336095  0.46459667  1
  S2-  S219  1  0.72717701  0.37838298  0.96207275  1
  S2-  S220  1  0.75574501  0.62344252  0.45768697  1
  S2-  S221  1  0.73021113  0.62566144  0.95051295  1
  S2-  S222  1  0.75360038  0.87141758  0.45960196  1
  S2-  S223  1  0.72686356  0.87274056  0.95208760  1
  S2-  S224  1  0.10511895  0.00143527  0.04292786  1
  S2-  S225  1  0.12799717  0.00592519  0.52824128  1
  S2-  S226  1  0.10284865  0.24765229  0.04869011  1
  S2-  S227  1  0.13529298  0.25257884  0.54130543  1
  S2-  S228  1  0.09961878  0.49671276  0.05011611  1
  S2-  S229  1  0.13081228  0.49682655  0.55477006  1
  S2-  S230  1  0.10982435  0.75045571  0.04106760  1
  S2-  S231  1  0.12782596  0.74591844  0.54155141  1
  S2-  S232  1  0.35204223  0.00245178  0.05607646  1
  S2-  S233  1  0.37610171  -0.00248300  0.53749400  1
  S2-  S234  1  0.35168660  0.25019477  0.04566436  1
  S2-  S235  1  0.38186112  0.24955779  0.53528479  1
  S2-  S236  1  0.35036315  0.49559699  0.03914887  1
  S2-  S237  1  0.37929778  0.49965773  0.53742038  1
  S2-  S238  1  0.35154536  0.75096070  0.05590483  1
  S2-  S239  1  0.37863994  0.74589201  0.53192364  1
  S2-  S240  1  0.60101103  -0.00341373  0.04383384  1
  S2-  S241  1  0.63265832  -0.00042727  0.54848926  1
  S2-  S242  1  0.59933624  0.25490145  0.04354316  1
  S2-  S243  1  0.62912920  0.24724753  0.55418307  1
  S2-  S244  1  0.60611404  0.49791377  0.04913690  1
  S2-  S245  1  0.62607400  0.49965259  0.54417910  1
  S2-  S246  1  0.59923018  0.74603836  0.05188632  1
  S2-  S247  1  0.62557846  0.74941533  0.54544940  1
  S2-  S248  1  0.85200449  -0.00730064  0.04081919  1
  S2-  S249  1  0.88331765  -0.00235556  0.54591416  1
  S2-  S250  1  0.85289621  0.24785641  0.04419286  1
  S2-  S251  1  0.87865836  0.24932563  0.55875979  1
  S2-  S252  1  0.85490468  0.50196223  0.05210759  1
  S2-  S253  1  0.88180025  0.49542151  0.54776522  1
  S2-  S254  1  0.85265815  0.74889186  0.04471102  1
  S2-  S255  1  0.88804068  0.75449289  0.54879359  1
