# generated using pymatgen
data_La9Ce10Pr6Nd4Sm3(BiS2)32
_symmetry_space_group_name_H-M   'P 1'
_cell_length_a   16.18437191
_cell_length_b   16.18507893
_cell_length_c   27.16579808
_cell_angle_alpha   89.95898835
_cell_angle_beta   89.87078732
_cell_angle_gamma   90.04524352
_symmetry_Int_Tables_number   1
_chemical_formula_structural   La9Ce10Pr6Nd4Sm3(BiS2)32
_chemical_formula_sum   'La18 Ce20 Pr12 Nd8 Sm6 Bi64 S128'
_cell_volume   7115.93198119
_cell_formula_units_Z   2
loop_
 _symmetry_equiv_pos_site_id
 _symmetry_equiv_pos_as_xyz
  1  'x, y, z'
loop_
 _atom_type_symbol
 _atom_type_oxidation_number
  La3+  3.0
  Ce3+  3.0
  Pr3+  3.0
  Nd3+  3.0
  Sm3+  3.0
  Bi2+  2.0
  S2-  -2.0
loop_
 _atom_site_type_symbol
 _atom_site_label
 _atom_site_symmetry_multiplicity
 _atom_site_fract_x
 _atom_site_fract_y
 _atom_site_fract_z
 _atom_site_occupancy
  La3+  La0  1  0.11177767  0.75021665  0.92352795  1
  La3+  La1  1  0.37753201  0.00115304  0.93016464  1
  La3+  La2  1  0.89623416  0.00729107  0.41246482  1
  La3+  La3  1  0.90198743  0.74782285  0.42241066  1
  La3+  La4  1  0.36676239  0.24931159  0.93821322  1
  La3+  La5  1  0.52162400  0.88089689  0.57112487  1
  La3+  La6  1  0.61034915  0.50993002  0.91323048  1
  La3+  La7  1  -0.01103476  0.86877276  0.08318371  1
  La3+  La8  1  -0.00781778  0.13464953  0.07903653  1
  La3+  La9  1  0.27097104  0.12361885  0.57693571  1
  La3+  La10  1  0.26489300  0.85334471  0.62171019  1
  La3+  La11  1  0.01524062  0.88620970  0.56758915  1
  La3+  La12  1  0.39500711  0.75118759  0.43821147  1
  La3+  La13  1  0.87131945  0.24904540  0.92875842  1
  La3+  La14  1  0.73130580  0.87327385  0.07968438  1
  La3+  La15  1  0.61809499  0.24744987  0.93251776  1
  La3+  La16  1  0.51752913  0.62613997  0.57032688  1
  La3+  La17  1  0.10293351  0.01049381  0.91292370  1
  Ce3+  Ce18  1  0.36972756  0.50402241  0.93436763  1
  Ce3+  Ce19  1  0.73901304  0.62705011  0.04579462  1
  Ce3+  Ce20  1  0.73956316  0.37937182  0.04782788  1
  Ce3+  Ce21  1  0.26827338  0.62433666  0.56269231  1
  Ce3+  Ce22  1  0.86799537  -0.00182324  0.95394265  1
  Ce3+  Ce23  1  0.61305744  0.75822351  0.93475634  1
  Ce3+  Ce24  1  0.39594890  0.24858899  0.43767463  1
  Ce3+  Ce25  1  0.24107685  0.62962773  0.05298546  1
  Ce3+  Ce26  1  0.86942164  0.75949150  0.93689889  1
  Ce3+  Ce27  1  0.01450321  0.37326238  0.56111124  1
  Ce3+  Ce28  1  0.11648527  0.50150249  0.93580736  1
  Ce3+  Ce29  1  0.49334210  0.38391948  0.05922351  1
  Ce3+  Ce30  1  0.01790200  0.13017495  0.55019362  1
  Ce3+  Ce31  1  0.24111992  0.37932967  0.05611847  1
  Ce3+  Ce32  1  0.64503319  0.75260026  0.44493443  1
  Ce3+  Ce33  1  0.27125977  0.37240263  0.56732069  1
  Ce3+  Ce34  1  0.39171489  0.00159757  0.44819939  1
  Ce3+  Ce35  1  0.11625601  0.25427256  0.93881187  1
  Ce3+  Ce36  1  0.77690040  0.87995482  0.54948973  1
  Ce3+  Ce37  1  0.24101279  0.87989328  0.05074307  1
  Pr3+  Pr38  1  0.36213016  0.75437141  0.93195488  1
  Pr3+  Pr39  1  0.14758262  0.50325239  0.44813005  1
  Pr3+  Pr40  1  0.47833561  0.87665212  0.08874406  1
  Pr3+  Pr41  1  0.14853722  0.25447345  0.43342437  1
  Pr3+  Pr42  1  0.76771390  0.37935856  0.60652961  1
  Pr3+  Pr43  1  0.01706200  0.62896015  0.56555853  1
  Pr3+  Pr44  1  0.52503569  0.13076310  0.56104082  1
  Pr3+  Pr45  1  0.90109153  0.25579219  0.42215292  1
  Pr3+  Pr46  1  -0.00993266  0.38166914  0.06100142  1
  Pr3+  Pr47  1  0.64460558  0.50087141  0.44121700  1
  Pr3+  Pr48  1  0.14312798  0.75532091  0.44468063  1
  Pr3+  Pr49  1  -0.01186687  0.62558301  0.05992253  1
  Nd3+  Nd50  1  0.39891343  0.50000015  0.43892974  1
  Nd3+  Nd51  1  0.49067179  0.12914162  0.06796906  1
  Nd3+  Nd52  1  0.49139925  0.62602151  0.06180051  1
  Nd3+  Nd53  1  0.64068907  -0.00056216  0.43301085  1
  Nd3+  Nd54  1  0.89510146  0.49969951  0.44211508  1
  Nd3+  Nd55  1  0.77389882  0.13363963  0.55345213  1
  Nd3+  Nd56  1  0.86551660  0.50112112  0.92245429  1
  Nd3+  Nd57  1  0.64605893  0.25228900  0.43720207  1
  Sm3+  Sm58  1  0.14232653  0.00172108  0.43779798  1
  Sm3+  Sm59  1  0.23905712  0.12603508  0.05484087  1
  Sm3+  Sm60  1  0.61891004  -0.00207952  0.94859364  1
  Sm3+  Sm61  1  0.52036526  0.37585694  0.55715562  1
  Sm3+  Sm62  1  0.74119177  0.12974813  0.06160521  1
  Sm3+  Sm63  1  0.77031635  0.62367135  0.55905957  1
  Bi2+  Bi64  1  0.00487769  0.14004185  0.29324696  1
  Bi2+  Bi65  1  -0.05344137  0.12558269  0.79203055  1
  Bi2+  Bi66  1  -0.04764469  0.40022431  0.30590427  1
  Bi2+  Bi67  1  0.01354613  0.35164621  0.78508219  1
  Bi2+  Bi68  1  0.03386308  0.61315170  0.29580418  1
  Bi2+  Bi69  1  -0.07108744  0.62371719  0.80299337  1
  Bi2+  Bi70  1  -0.01683780  0.85926883  0.29065975  1
  Bi2+  Bi71  1  -0.09876268  0.87935287  0.78796039  1
  Bi2+  Bi72  1  0.20220077  0.07742352  0.30989481  1
  Bi2+  Bi73  1  0.19894058  0.11342042  0.78244440  1
  Bi2+  Bi74  1  0.24435266  0.35127536  0.26683782  1
  Bi2+  Bi75  1  0.19294839  0.37328981  0.83051376  1
  Bi2+  Bi76  1  0.23696496  0.58740054  0.28017181  1
  Bi2+  Bi77  1  0.22449023  0.55238066  0.79371023  1
  Bi2+  Bi78  1  0.22609912  0.88002092  0.27869553  1
  Bi2+  Bi79  1  0.29422105  0.88233378  0.81361523  1
  Bi2+  Bi80  1  0.38436435  0.14384427  0.29369973  1
  Bi2+  Bi81  1  0.50238301  0.16155359  0.79688475  1
  Bi2+  Bi82  1  0.50129290  0.36810225  0.29415438  1
  Bi2+  Bi83  1  0.44120793  0.45464276  0.74823272  1
  Bi2+  Bi84  1  0.49349841  0.63187210  0.30573773  1
  Bi2+  Bi85  1  0.45387081  0.65550378  0.80400646  1
  Bi2+  Bi86  1  0.50838173  0.88079764  0.30394174  1
  Bi2+  Bi87  1  0.57418781  0.90748638  0.79200956  1
  Bi2+  Bi88  1  0.72407488  0.20305168  0.28020880  1
  Bi2+  Bi89  1  0.70015693  0.07433470  0.78023055  1
  Bi2+  Bi90  1  0.75628172  0.39182806  0.30411630  1
  Bi2+  Bi91  1  0.75688280  0.32826819  0.79167479  1
  Bi2+  Bi92  1  0.76006004  0.55777837  0.23830854  1
  Bi2+  Bi93  1  0.75042754  0.70822976  0.79791381  1
  Bi2+  Bi94  1  0.72609712  0.85079652  0.28870943  1
  Bi2+  Bi95  1  0.74096389  0.89556338  0.85584267  1
  Bi2+  Bi96  1  0.13732647  0.00689025  0.20309103  1
  Bi2+  Bi97  1  0.09712732  -0.00220128  0.71886508  1
  Bi2+  Bi98  1  0.12778574  0.24838672  0.19908232  1
  Bi2+  Bi99  1  0.12904899  0.26006937  0.70569734  1
  Bi2+  Bi100  1  0.08739114  0.47712852  0.21576975  1
  Bi2+  Bi101  1  0.10739613  0.47214174  0.71095045  1
  Bi2+  Bi102  1  0.15581607  0.73101559  0.21211635  1
  Bi2+  Bi103  1  0.12247765  0.73415327  0.72296396  1
  Bi2+  Bi104  1  0.35368706  -0.00901094  0.22086811  1
  Bi2+  Bi105  1  0.40757140  0.01438759  0.70717027  1
  Bi2+  Bi106  1  0.38805049  0.26783728  0.19927804  1
  Bi2+  Bi107  1  0.31161209  0.29951971  0.74854026  1
  Bi2+  Bi108  1  0.38299618  0.46300986  0.21637217  1
  Bi2+  Bi109  1  0.29343167  0.49914832  0.67903492  1
  Bi2+  Bi110  1  0.35286424  0.74939660  0.20779725  1
  Bi2+  Bi111  1  0.42131778  0.64416536  0.69503556  1
  Bi2+  Bi112  1  0.60601210  0.03181124  0.21233028  1
  Bi2+  Bi113  1  0.62251118  -0.01057679  0.68261554  1
  Bi2+  Bi114  1  0.57809509  0.22897238  0.20040005  1
  Bi2+  Bi115  1  0.55928891  0.25268107  0.70222134  1
  Bi2+  Bi116  1  0.62244771  0.42718048  0.20071447  1
  Bi2+  Bi117  1  0.68014611  0.53386206  0.73714505  1
  Bi2+  Bi118  1  0.61752635  0.73194473  0.20893319  1
  Bi2+  Bi119  1  0.65773723  0.80114399  0.70780749  1
  Bi2+  Bi120  1  0.86487951  -0.00038797  0.20811543  1
  Bi2+  Bi121  1  0.82164950  -0.00221072  0.70668366  1
  Bi2+  Bi122  1  0.86585509  0.30782999  0.21845562  1
  Bi2+  Bi123  1  0.91645650  0.21003488  0.69107018  1
  Bi2+  Bi124  1  0.91438075  0.50861687  0.16805659  1
  Bi2+  Bi125  1  0.90839418  0.51026910  0.71440420  1
  Bi2+  Bi126  1  0.87751335  0.69693771  0.19865687  1
  Bi2+  Bi127  1  0.85240448  0.75066665  0.70086782  1
  S2-  S128  1  -0.00691659  0.10173819  0.18440847  1
  S2-  S129  1  0.01435875  0.07968656  0.64413312  1
  S2-  S130  1  -0.01557048  0.28159328  0.14309154  1
  S2-  S131  1  -0.07146214  0.37033173  0.64755147  1
  S2-  S132  1  0.01680575  0.71867388  0.14394435  1
  S2-  S133  1  -0.00806295  0.66025726  0.66427815  1
  S2-  S134  1  0.01166522  0.90852349  0.18736868  1
  S2-  S135  1  0.09704844  0.86584508  0.65769989  1
  S2-  S136  1  0.23190289  0.14097206  0.15412308  1
  S2-  S137  1  0.25894691  0.02073524  0.66080328  1
  S2-  S138  1  0.18271436  0.39029985  0.14772908  1
  S2-  S139  1  0.26484053  0.26136545  0.64345391  1
  S2-  S140  1  0.25822131  0.63158437  0.15118496  1
  S2-  S141  1  0.23100450  0.67805458  0.65313325  1
  S2-  S142  1  0.31889500  0.87763736  0.13977662  1
  S2-  S143  1  0.25896758  0.82529923  0.72815407  1
  S2-  S144  1  0.47346398  0.03017479  0.14998786  1
  S2-  S145  1  0.45212428  0.14370559  0.65390381  1
  S2-  S146  1  0.49490656  0.49503394  0.13669758  1
  S2-  S147  1  0.48353455  0.37467261  0.65374499  1
  S2-  S148  1  0.47959855  0.72335277  0.14659086  1
  S2-  S149  1  0.57459623  0.60736569  0.66524620  1
  S2-  S150  1  0.61158554  0.88308562  0.15906000  1
  S2-  S151  1  0.43296377  0.87067683  0.65793928  1
  S2-  S152  1  0.74272476  0.08972110  0.15901417  1
  S2-  S153  1  0.77224742  0.20849741  0.64397544  1
  S2-  S154  1  0.74485089  0.35256172  0.14465477  1
  S2-  S155  1  0.68510491  0.37283058  0.69960031  1
  S2-  S156  1  0.71443385  0.66155531  0.14208376  1
  S2-  S157  1  0.77685839  0.54551535  0.64837520  1
  S2-  S158  1  0.82844914  0.85611558  0.16340949  1
  S2-  S159  1  0.87169928  0.88474517  0.63237461  1
  S2-  S160  1  0.04716665  -0.00821838  0.35144449  1
  S2-  S161  1  0.13502893  -0.05470271  0.81913703  1
  S2-  S162  1  0.04303006  0.26906966  0.35112492  1
  S2-  S163  1  0.08123131  0.16632140  0.85619031  1
  S2-  S164  1  0.14111330  0.49780613  0.34750150  1
  S2-  S165  1  0.08022485  0.57300360  0.84830297  1
  S2-  S166  1  0.05291571  0.75271564  0.35772919  1
  S2-  S167  1  0.23777429  0.74418653  0.85115484  1
  S2-  S168  1  0.42892333  0.00361332  0.35172930  1
  S2-  S169  1  0.32286595  0.05714767  0.83631523  1
  S2-  S170  1  0.35496773  0.30512492  0.34794861  1
  S2-  S171  1  0.39434709  0.26727552  0.83862437  1
  S2-  S172  1  0.36301747  0.56763216  0.34983347  1
  S2-  S173  1  0.46105007  0.49477144  0.84976701  1
  S2-  S174  1  0.39918583  0.77391055  0.33694525  1
  S2-  S175  1  0.44916693  0.81041215  0.84879815  1
  S2-  S176  1  0.64101729  -0.01527259  0.33254181  1
  S2-  S177  1  0.53162313  0.02854177  0.86390315  1
  S2-  S178  1  0.59158452  0.23888822  0.34190780  1
  S2-  S179  1  0.61295953  0.28218703  0.83258887  1
  S2-  S180  1  0.56217522  0.50623905  0.35141802  1
  S2-  S181  1  0.71509641  0.48055861  0.83009386  1
  S2-  S182  1  0.61477510  0.74091087  0.34723305  1
  S2-  S183  1  0.60439768  0.66064858  0.85172144  1
  S2-  S184  1  0.84923403  -0.04274481  0.31142226  1
  S2-  S185  1  0.93951305  0.00208087  0.86326142  1
  S2-  S186  1  0.86583749  0.15000183  0.34238366  1
  S2-  S187  1  0.80611183  0.17996185  0.83966225  1
  S2-  S188  1  0.90256163  0.55650568  0.34817134  1
  S2-  S189  1  0.89000870  0.37442399  0.85197325  1
  S2-  S190  1  0.84887687  0.76286484  0.32421728  1
  S2-  S191  1  0.97711147  0.76736311  0.85662620  1
  S2-  S192  1  0.02273417  0.12945033  0.44683127  1
  S2-  S193  1  -0.00962876  0.12685077  0.96697891  1
  S2-  S194  1  0.02174862  0.38008853  0.45555697  1
  S2-  S195  1  -0.00442812  0.37905149  0.95352575  1
  S2-  S196  1  0.02049122  0.62308815  0.45848433  1
  S2-  S197  1  -0.01433060  0.62382725  0.95439332  1
  S2-  S198  1  0.01735147  0.88017602  0.45774428  1
  S2-  S199  1  -0.00537207  0.88062513  0.96543710  1
  S2-  S200  1  0.26795460  0.12679498  0.45200004  1
  S2-  S201  1  0.23800730  0.12637892  0.95059510  1
  S2-  S202  1  0.27184896  0.37857014  0.45838280  1
  S2-  S203  1  0.24493197  0.37913765  0.95059972  1
  S2-  S204  1  0.26889303  0.62911137  0.45632658  1
  S2-  S205  1  0.24175643  0.62263455  0.94850349  1
  S2-  S206  1  0.26622725  0.87938442  0.44077901  1
  S2-  S207  1  0.23589985  0.88782356  0.94610794  1
  S2-  S208  1  0.52199804  0.12630581  0.45365375  1
  S2-  S209  1  0.49323942  0.13031446  0.96232018  1
  S2-  S210  1  0.51945495  0.37462623  0.45271614  1
  S2-  S211  1  0.49371447  0.37465063  0.95231496  1
  S2-  S212  1  0.52002090  0.62688477  0.46114586  1
  S2-  S213  1  0.48727519  0.63115780  0.95484738  1
  S2-  S214  1  0.52037422  0.87647017  0.45997048  1
  S2-  S215  1  0.49523429  0.87901641  0.96303812  1
  S2-  S216  1  0.76385857  0.12547553  0.44650578  1
  S2-  S217  1  0.74117506  0.12259922  0.95630815  1
  S2-  S218  1  0.76995991  0.37614106  0.44005418  1
  S2-  S219  1  0.73990813  0.37660566  0.94395104  1
  S2-  S220  1  0.76883225  0.62554008  0.45207548  1
  S2-  S221  1  0.74750941  0.63035005  0.94189047  1
  S2-  S222  1  0.77106538  0.87696448  0.44325885  1
  S2-  S223  1  0.74107048  0.87658124  0.96864160  1
  S2-  S224  1  0.11584448  0.00225296  0.06196516  1
  S2-  S225  1  0.14403475  0.00753049  0.54165350  1
  S2-  S226  1  0.11931535  0.25363413  0.04384051  1
  S2-  S227  1  0.14310489  0.25273966  0.54131951  1
  S2-  S228  1  0.11622583  0.50445138  0.04373877  1
  S2-  S229  1  0.14095756  0.49920964  0.55554801  1
  S2-  S230  1  0.11909183  0.75248496  0.03804217  1
  S2-  S231  1  0.14316714  0.75403892  0.54961194  1
  S2-  S232  1  0.36381450  0.00844923  0.04076616  1
  S2-  S233  1  0.39918475  0.00580642  0.55144622  1
  S2-  S234  1  0.36527119  0.25341547  0.04843061  1
  S2-  S235  1  0.39785203  0.25268163  0.54319862  1
  S2-  S236  1  0.36340472  0.50233385  0.04066050  1
  S2-  S237  1  0.39569971  0.49944906  0.54748741  1
  S2-  S238  1  0.36322300  0.75241615  0.03919794  1
  S2-  S239  1  0.39056467  0.75311153  0.55045819  1
  S2-  S240  1  0.61646607  0.00909910  0.05135613  1
  S2-  S241  1  0.64962929  0.00494328  0.54225804  1
  S2-  S242  1  0.61557445  0.25165960  0.04546182  1
  S2-  S243  1  0.64674282  0.26015062  0.54540958  1
  S2-  S244  1  0.61718016  0.50320486  0.03239391  1
  S2-  S245  1  0.64708745  0.49574438  0.54903167  1
  S2-  S246  1  0.61315197  0.75024903  0.04236437  1
  S2-  S247  1  0.64860038  0.75165856  0.55362749  1
  S2-  S248  1  0.86614487  0.00405955  0.06057084  1
  S2-  S249  1  0.89178456  0.01012192  0.53076631  1
  S2-  S250  1  0.86261931  0.25302326  0.04121192  1
  S2-  S251  1  0.89455520  0.25452199  0.53377628  1
  S2-  S252  1  0.86312448  0.50100846  0.03257300  1
  S2-  S253  1  0.89229820  0.50075868  0.54713955  1
  S2-  S254  1  0.86441313  0.75080832  0.04525984  1
  S2-  S255  1  0.89148464  0.74589329  0.53773082  1
