# generated using pymatgen
data_La9Ce10Pr6Nd4Sm3(BiS2)32
_symmetry_space_group_name_H-M   'P 1'
_cell_length_a   16.11824965
_cell_length_b   16.14381521
_cell_length_c   27.25038467
_cell_angle_alpha   89.88405815
_cell_angle_beta   89.87725037
_cell_angle_gamma   90.09143299
_symmetry_Int_Tables_number   1
_chemical_formula_structural   La9Ce10Pr6Nd4Sm3(BiS2)32
_chemical_formula_sum   'La18 Ce20 Pr12 Nd8 Sm6 Bi64 S128'
_cell_volume   7090.78392114
_cell_formula_units_Z   2
loop_
 _symmetry_equiv_pos_site_id
 _symmetry_equiv_pos_as_xyz
  1  'x, y, z'
loop_
 _atom_type_symbol
 _atom_type_oxidation_number
  La3+  3.0
  Ce3+  3.0
  Pr3+  3.0
  Nd3+  3.0
  Sm3+  3.0
  Bi2+  2.0
  S2-  -2.0
loop_
 _atom_site_type_symbol
 _atom_site_label
 _atom_site_symmetry_multiplicity
 _atom_site_fract_x
 _atom_site_fract_y
 _atom_site_fract_z
 _atom_site_occupancy
  La3+  La0  1  0.01816241  0.37129459  0.09691743  1
  La3+  La1  1  0.13949002  0.26129476  0.44082679  1
  La3+  La2  1  0.90746834  0.49499223  0.39286553  1
  La3+  La3  1  0.00441308  0.36623773  0.60185242  1
  La3+  La4  1  0.27548236  0.35985438  0.58482636  1
  La3+  La5  1  0.39498640  0.25100453  0.93337925  1
  La3+  La6  1  0.89038687  0.25724101  0.92486486  1
  La3+  La7  1  0.52028102  0.62411113  0.56864759  1
  La3+  La8  1  0.50520318  0.12623653  0.09316488  1
  La3+  La9  1  0.14525341  0.25523016  0.92307885  1
  La3+  La10  1  0.40055935  -0.00470369  0.41364551  1
  La3+  La11  1  0.26852797  0.62078184  0.57089599  1
  La3+  La12  1  0.51962413  0.88051025  0.56375068  1
  La3+  La13  1  0.14181273  0.74281361  0.44229059  1
  La3+  La14  1  0.77174187  0.12560478  0.56396478  1
  La3+  La15  1  0.15341439  -0.00147381  0.42944527  1
  La3+  La16  1  0.27644070  0.87537988  0.56471936  1
  La3+  La17  1  0.64755941  0.24973205  0.43367158  1
  Ce3+  Ce18  1  0.51383215  0.62886429  0.06194523  1
  Ce3+  Ce19  1  0.02164784  0.12447673  0.55780191  1
  Ce3+  Ce20  1  0.01367706  0.13327307  0.04786102  1
  Ce3+  Ce21  1  0.89832723  -0.00223149  0.43435708  1
  Ce3+  Ce22  1  0.63698998  0.50191557  0.93299272  1
  Ce3+  Ce23  1  0.64664114  -0.00490589  0.43133360  1
  Ce3+  Ce24  1  0.76592142  0.37312273  0.06063208  1
  Ce3+  Ce25  1  0.39060234  0.49828312  0.44209547  1
  Ce3+  Ce26  1  0.39349183  0.75725125  0.93871384  1
  Ce3+  Ce27  1  0.63380391  0.75460820  0.94030281  1
  Ce3+  Ce28  1  0.76522642  0.87384065  0.05899583  1
  Ce3+  Ce29  1  0.76489626  0.13383842  0.06190480  1
  Ce3+  Ce30  1  0.63792018  0.00547928  0.95650576  1
  Ce3+  Ce31  1  0.51782440  0.37230320  0.55264790  1
  Ce3+  Ce32  1  0.76495682  0.62033863  0.05535630  1
  Ce3+  Ce33  1  0.89144624  0.50559878  0.94068681  1
  Ce3+  Ce34  1  0.27054148  0.12372664  0.55028765  1
  Ce3+  Ce35  1  0.65070436  0.50174646  0.43653820  1
  Ce3+  Ce36  1  0.89427294  0.74619195  0.44902054  1
  Ce3+  Ce37  1  0.76501382  0.87764590  0.56883274  1
  Pr3+  Pr38  1  0.51296189  0.87586455  0.07543040  1
  Pr3+  Pr39  1  0.39132105  0.25780364  0.42373475  1
  Pr3+  Pr40  1  0.39455339  0.00389514  0.94487322  1
  Pr3+  Pr41  1  0.64829921  0.74904735  0.43439791  1
  Pr3+  Pr42  1  0.14094135  0.50586069  0.92218265  1
  Pr3+  Pr43  1  0.01894838  0.63099692  0.58950151  1
  Pr3+  Pr44  1  0.89613790  0.24308612  0.43294180  1
  Pr3+  Pr45  1  0.77242325  0.37712798  0.55706641  1
  Pr3+  Pr46  1  0.02231618  0.63493202  0.07276825  1
  Pr3+  Pr47  1  0.88592748  0.00344123  0.94104329  1
  Pr3+  Pr48  1  0.02011747  0.87568599  0.56489464  1
  Pr3+  Pr49  1  0.39198123  0.50551797  0.93026506  1
  Nd3+  Nd50  1  0.14600746  0.75622741  0.92267256  1
  Nd3+  Nd51  1  0.26011963  0.87633322  0.06095644  1
  Nd3+  Nd52  1  0.26007365  0.38147545  0.05498752  1
  Nd3+  Nd53  1  0.25844135  0.13306232  0.06195388  1
  Nd3+  Nd54  1  0.51601337  0.12604411  0.55101628  1
  Nd3+  Nd55  1  0.76863743  0.62304224  0.56417094  1
  Nd3+  Nd56  1  0.51586781  0.38298173  0.06440554  1
  Nd3+  Nd57  1  0.14089975  0.00248200  0.94048512  1
  Sm3+  Sm58  1  0.13175515  0.49988802  0.46433000  1
  Sm3+  Sm59  1  0.01268952  0.87507809  0.05199440  1
  Sm3+  Sm60  1  0.88919859  0.75294153  0.93575779  1
  Sm3+  Sm61  1  0.40236591  0.74835241  0.43182957  1
  Sm3+  Sm62  1  0.26040898  0.62690995  0.05083740  1
  Sm3+  Sm63  1  0.63448482  0.25273229  0.94591608  1
  Bi2+  Bi64  1  0.03454528  0.11517109  0.29602396  1
  Bi2+  Bi65  1  -0.01466134  0.13866744  0.78362960  1
  Bi2+  Bi66  1  0.01755875  0.37130863  0.27993807  1
  Bi2+  Bi67  1  -0.04461175  0.39230321  0.79723810  1
  Bi2+  Bi68  1  0.04827012  0.62623289  0.30298345  1
  Bi2+  Bi69  1  -0.16164962  0.61311735  0.76057446  1
  Bi2+  Bi70  1  -0.04717926  0.86826842  0.28425326  1
  Bi2+  Bi71  1  -0.07428449  0.88035186  0.78764712  1
  Bi2+  Bi72  1  0.26928474  0.19193623  0.30093102  1
  Bi2+  Bi73  1  0.26751164  0.09953711  0.78931008  1
  Bi2+  Bi74  1  0.27365524  0.42225050  0.27073991  1
  Bi2+  Bi75  1  0.22767056  0.36241310  0.78993225  1
  Bi2+  Bi76  1  0.28274576  0.63189901  0.29168755  1
  Bi2+  Bi77  1  0.29301570  0.64075942  0.78920427  1
  Bi2+  Bi78  1  0.21461703  0.89261201  0.30041158  1
  Bi2+  Bi79  1  0.20147740  0.87227606  0.79201067  1
  Bi2+  Bi80  1  0.55534842  0.11468773  0.28093042  1
  Bi2+  Bi81  1  0.50451602  0.10683742  0.80495786  1
  Bi2+  Bi82  1  0.48859422  0.41085019  0.28799825  1
  Bi2+  Bi83  1  0.47693277  0.35818165  0.78565080  1
  Bi2+  Bi84  1  0.46873682  0.59358025  0.32203823  1
  Bi2+  Bi85  1  0.49232537  0.64720781  0.77924714  1
  Bi2+  Bi86  1  0.47799636  0.85494703  0.28172642  1
  Bi2+  Bi87  1  0.49875540  0.84613845  0.77658743  1
  Bi2+  Bi88  1  0.79518263  0.03348240  0.28347609  1
  Bi2+  Bi89  1  0.73405136  0.00892312  0.78175177  1
  Bi2+  Bi90  1  0.75021793  0.33713355  0.28883300  1
  Bi2+  Bi91  1  0.70951944  0.35721687  0.79256709  1
  Bi2+  Bi92  1  0.70959744  0.71952971  0.28642176  1
  Bi2+  Bi93  1  0.66455141  0.54901761  0.80390794  1
  Bi2+  Bi94  1  0.78341116  0.86761358  0.35091571  1
  Bi2+  Bi95  1  0.72011835  0.81173156  0.79919218  1
  Bi2+  Bi96  1  0.14896313  0.03558593  0.21034780  1
  Bi2+  Bi97  1  0.02977663  -0.00770231  0.71000125  1
  Bi2+  Bi98  1  0.16145950  0.22912142  0.20103143  1
  Bi2+  Bi99  1  0.14080118  0.15466178  0.70976496  1
  Bi2+  Bi100  1  0.15144329  0.52333575  0.20302309  1
  Bi2+  Bi101  1  0.13152101  0.50835923  0.73072330  1
  Bi2+  Bi102  1  0.13022041  0.77679347  0.20259845  1
  Bi2+  Bi103  1  0.05647933  0.70836774  0.72795337  1
  Bi2+  Bi104  1  0.35820331  0.01231235  0.21288396  1
  Bi2+  Bi105  1  0.33811166  -0.01110986  0.69262645  1
  Bi2+  Bi106  1  0.38025651  0.26590657  0.22261376  1
  Bi2+  Bi107  1  0.40079010  0.21993798  0.71253323  1
  Bi2+  Bi108  1  0.37999561  0.54389182  0.20084713  1
  Bi2+  Bi109  1  0.38333496  0.51142949  0.71822650  1
  Bi2+  Bi110  1  0.36001767  0.74524409  0.20899531  1
  Bi2+  Bi111  1  0.29745388  0.75553943  0.69514593  1
  Bi2+  Bi112  1  0.67423196  -0.10736810  0.23120506  1
  Bi2+  Bi113  1  0.57716413  -0.00950657  0.71420792  1
  Bi2+  Bi114  1  0.64252789  0.29536028  0.19689379  1
  Bi2+  Bi115  1  0.60194075  0.24089981  0.72246411  1
  Bi2+  Bi116  1  0.63850985  0.53254575  0.27044742  1
  Bi2+  Bi117  1  0.55888735  0.42794533  0.68301409  1
  Bi2+  Bi118  1  0.55072097  0.75154684  0.18811793  1
  Bi2+  Bi119  1  0.62278238  0.74051619  0.70637619  1
  Bi2+  Bi120  1  0.94688953  0.01812639  0.20462334  1
  Bi2+  Bi121  1  0.83989122  0.00970914  0.67567567  1
  Bi2+  Bi122  1  0.86165558  0.19687648  0.22502305  1
  Bi2+  Bi123  1  0.86098087  0.20498835  0.70578942  1
  Bi2+  Bi124  1  0.84568460  0.49863032  0.19314403  1
  Bi2+  Bi125  1  0.74648707  0.47296196  0.69735697  1
  Bi2+  Bi126  1  0.86276143  0.75031308  0.21460831  1
  Bi2+  Bi127  1  0.82193527  0.81682638  0.69595732  1
  S2-  S128  1  0.03962012  0.19827525  0.13532498  1
  S2-  S129  1  0.00753339  0.20303458  0.64561425  1
  S2-  S130  1  -0.06068353  0.34750260  0.19380648  1
  S2-  S131  1  0.02653329  0.39403873  0.70573359  1
  S2-  S132  1  0.00305342  0.52608592  0.15062166  1
  S2-  S133  1  -0.05660161  0.59694598  0.68634878  1
  S2-  S134  1  0.01308704  0.78420530  0.13675526  1
  S2-  S135  1  0.00541875  0.78612931  0.65162731  1
  S2-  S136  1  0.34979334  0.13922841  0.14815953  1
  S2-  S137  1  0.27190222  0.18833766  0.64190529  1
  S2-  S138  1  0.17840217  0.37804882  0.14400433  1
  S2-  S139  1  0.24407378  0.40585143  0.68569780  1
  S2-  S140  1  0.17828119  0.65132489  0.13664431  1
  S2-  S141  1  0.16345129  0.63742300  0.65654847  1
  S2-  S142  1  0.23323665  0.89924795  0.15947694  1
  S2-  S143  1  0.20959611  0.89805614  0.66162515  1
  S2-  S144  1  0.60283561  0.14138948  0.17808570  1
  S2-  S145  1  0.47887557  0.06395190  0.64328551  1
  S2-  S146  1  0.48691777  0.33590265  0.15857220  1
  S2-  S147  1  0.43439228  0.33021028  0.63505739  1
  S2-  S148  1  0.52987503  0.58105882  0.15494784  1
  S2-  S149  1  0.39560227  0.63100635  0.64416331  1
  S2-  S150  1  0.48227981  0.97116893  0.15871491  1
  S2-  S151  1  0.40543273  0.85722616  0.64242176  1
  S2-  S152  1  0.78482105  0.23855597  0.13763391  1
  S2-  S153  1  0.71499381  0.14929221  0.65932861  1
  S2-  S154  1  0.71181735  0.43796729  0.14679880  1
  S2-  S155  1  0.83728285  0.34543120  0.65035081  1
  S2-  S156  1  0.78849629  0.64589554  0.15160444  1
  S2-  S157  1  0.65342773  0.61843065  0.64170372  1
  S2-  S158  1  0.78628837  0.87801075  0.15598915  1
  S2-  S159  1  0.64297648  0.88383290  0.64007209  1
  S2-  S160  1  0.06307146  -0.04041745  0.34398551  1
  S2-  S161  1  0.14470292  0.00672901  0.84086930  1
  S2-  S162  1  0.11768755  0.25887717  0.33977737  1
  S2-  S163  1  0.05671026  0.26480594  0.83347835  1
  S2-  S164  1  0.09033442  0.50540406  0.36556468  1
  S2-  S165  1  0.06075622  0.50620196  0.82615703  1
  S2-  S166  1  0.16199161  0.74454856  0.34155502  1
  S2-  S167  1  0.08444481  0.76972654  0.82769045  1
  S2-  S168  1  0.27080811  0.03172417  0.34467942  1
  S2-  S169  1  0.38088371  0.01081289  0.84373505  1
  S2-  S170  1  0.44260202  0.18998979  0.33151119  1
  S2-  S171  1  0.28179611  0.25130273  0.85110013  1
  S2-  S172  1  0.36029889  0.39879154  0.36152906  1
  S2-  S173  1  0.27463247  0.49251185  0.84969632  1
  S2-  S174  1  0.36158262  0.84946073  0.35152584  1
  S2-  S175  1  0.29203103  0.77679598  0.85730028  1
  S2-  S176  1  0.54692405  -0.00513983  0.34756460  1
  S2-  S177  1  0.61473475  0.01172513  0.85963521  1
  S2-  S178  1  0.66931056  0.21482377  0.33480408  1
  S2-  S179  1  0.53168799  0.24501283  0.86513667  1
  S2-  S180  1  0.73578981  0.49485001  0.34985828  1
  S2-  S181  1  0.51990831  0.49017201  0.85805491  1
  S2-  S182  1  0.53475959  0.74313811  0.35527323  1
  S2-  S183  1  0.51743056  0.76625786  0.86623278  1
  S2-  S184  1  0.89483286  0.11128525  0.35774969  1
  S2-  S185  1  0.88206292  0.02239111  0.84135541  1
  S2-  S186  1  0.89823495  0.33454484  0.34547374  1
  S2-  S187  1  0.82565228  0.25733653  0.83007936  1
  S2-  S188  1  0.92564961  0.51061647  0.28337902  1
  S2-  S189  1  0.84025398  0.49493598  0.84652344  1
  S2-  S190  1  0.93091706  0.66883589  0.36532838  1
  S2-  S191  1  0.86914418  0.73514305  0.83858779  1
  S2-  S192  1  0.02623020  0.12137746  0.45350511  1
  S2-  S193  1  0.01464720  0.12698440  0.94263212  1
  S2-  S194  1  0.01065422  0.37974589  0.45721611  1
  S2-  S195  1  0.01480263  0.38222000  0.93709558  1
  S2-  S196  1  0.01912972  0.62732110  0.47787499  1
  S2-  S197  1  0.01530949  0.63389195  0.94341701  1
  S2-  S198  1  0.01937642  0.87224070  0.45739205  1
  S2-  S199  1  0.01229998  0.87803952  0.94713758  1
  S2-  S200  1  0.26911566  0.13375727  0.44675040  1
  S2-  S201  1  0.26560264  0.12496008  0.95583917  1
  S2-  S202  1  0.26146947  0.38095256  0.46649609  1
  S2-  S203  1  0.26834302  0.38072305  0.95185809  1
  S2-  S204  1  0.26751149  0.61937098  0.45757225  1
  S2-  S205  1  0.26583177  0.63112368  0.94927784  1
  S2-  S206  1  0.26958719  0.87010098  0.45519164  1
  S2-  S207  1  0.26483829  0.88255475  0.95611562  1
  S2-  S208  1  0.52027805  0.12611386  0.44645767  1
  S2-  S209  1  0.51566788  0.12661138  0.97003600  1
  S2-  S210  1  0.52363737  0.37708869  0.44637205  1
  S2-  S211  1  0.51358142  0.37960436  0.96010620  1
  S2-  S212  1  0.52067513  0.62033787  0.45784779  1
  S2-  S213  1  0.51398714  0.62747207  0.95778335  1
  S2-  S214  1  0.52204248  0.87285889  0.45466433  1
  S2-  S215  1  0.51569335  0.88099354  0.96883849  1
  S2-  S216  1  0.76709311  0.11993483  0.45438788  1
  S2-  S217  1  0.76223253  0.13255218  0.95385373  1
  S2-  S218  1  0.77284994  0.37485961  0.45168125  1
  S2-  S219  1  0.75832336  0.37682570  0.95167507  1
  S2-  S220  1  0.77041277  0.62364873  0.45823565  1
  S2-  S221  1  0.76184426  0.63146222  0.94817107  1
  S2-  S222  1  0.77064606  0.87614989  0.46298947  1
  S2-  S223  1  0.76313786  0.87613677  0.95094531  1
  S2-  S224  1  0.13551608  0.00253318  0.04741251  1
  S2-  S225  1  0.14491328  0.00028062  0.54419766  1
  S2-  S226  1  0.13940393  0.25673499  0.03318616  1
  S2-  S227  1  0.14107408  0.25206892  0.54865290  1
  S2-  S228  1  0.13694415  0.50541926  0.03575787  1
  S2-  S229  1  0.13757800  0.48609176  0.56746994  1
  S2-  S230  1  0.13897852  0.75697518  0.03143239  1
  S2-  S231  1  0.14823288  0.75309910  0.55032801  1
  S2-  S232  1  0.38191479  0.00219629  0.05048776  1
  S2-  S233  1  0.39342993  0.00285940  0.53079241  1
  S2-  S234  1  0.38601180  0.25785378  0.04534016  1
  S2-  S235  1  0.39363795  0.24623323  0.53065791  1
  S2-  S236  1  0.38549109  0.50505310  0.04512589  1
  S2-  S237  1  0.39256664  0.49350005  0.54760739  1
  S2-  S238  1  0.38502531  0.75249568  0.05054330  1
  S2-  S239  1  0.39576011  0.74610495  0.53643935  1
  S2-  S240  1  0.64222221  0.00311592  0.06260028  1
  S2-  S241  1  0.64449295  0.00607951  0.53936373  1
  S2-  S242  1  0.63246364  0.25183025  0.04941860  1
  S2-  S243  1  0.64381940  0.25067759  0.54391114  1
  S2-  S244  1  0.63710238  0.50430702  0.03943059  1
  S2-  S245  1  0.64426573  0.49563399  0.54190637  1
  S2-  S246  1  0.64004180  0.75182711  0.04875454  1
  S2-  S247  1  0.64448031  0.75028210  0.54114585  1
  S2-  S248  1  0.89059776  0.00277161  0.04837642  1
  S2-  S249  1  0.89624507  -0.00114421  0.54497654  1
  S2-  S250  1  0.89565895  0.25811210  0.03491639  1
  S2-  S251  1  0.89604662  0.24832110  0.54072882  1
  S2-  S252  1  0.89277541  0.49904626  0.04566425  1
  S2-  S253  1  0.89469585  0.50218597  0.56750964  1
  S2-  S254  1  0.88919536  0.75030171  0.03957596  1
  S2-  S255  1  0.88678815  0.75232645  0.55408508  1
