# generated using pymatgen
data_La9Ce10Pr6Nd4Sm3(BiS2)32
_symmetry_space_group_name_H-M   'P 1'
_cell_length_a   16.12480577
_cell_length_b   16.11797872
_cell_length_c   27.33478970
_cell_angle_alpha   89.88306405
_cell_angle_beta   89.71827900
_cell_angle_gamma   90.09877119
_symmetry_Int_Tables_number   1
_chemical_formula_structural   La9Ce10Pr6Nd4Sm3(BiS2)32
_chemical_formula_sum   'La18 Ce20 Pr12 Nd8 Sm6 Bi64 S128'
_cell_volume   7104.18070419
_cell_formula_units_Z   2
loop_
 _symmetry_equiv_pos_site_id
 _symmetry_equiv_pos_as_xyz
  1  'x, y, z'
loop_
 _atom_type_symbol
 _atom_type_oxidation_number
  La3+  3.0
  Ce3+  3.0
  Pr3+  3.0
  Nd3+  3.0
  Sm3+  3.0
  Bi2+  2.0
  S2-  -2.0
loop_
 _atom_site_type_symbol
 _atom_site_label
 _atom_site_symmetry_multiplicity
 _atom_site_fract_x
 _atom_site_fract_y
 _atom_site_fract_z
 _atom_site_occupancy
  La3+  La0  1  0.23757774  0.37516568  0.56040065  1
  La3+  La1  1  0.75106011  0.62362928  0.07207677  1
  La3+  La2  1  0.11662633  0.75959374  0.43524234  1
  La3+  La3  1  0.86728963  -0.03742116  0.88022762  1
  La3+  La4  1  0.87259945  0.24177986  0.92203240  1
  La3+  La5  1  0.73702127  0.38313967  0.56505877  1
  La3+  La6  1  0.75195673  0.87798908  0.07667653  1
  La3+  La7  1  0.37846346  0.74309786  0.89461478  1
  La3+  La8  1  0.50351900  0.13433542  0.07840228  1
  La3+  La9  1  0.86453001  0.51177869  0.38679390  1
  La3+  La10  1  0.61170750  0.25667551  0.43651032  1
  La3+  La11  1  0.49999231  0.62886956  0.06102516  1
  La3+  La12  1  0.48708542  0.13129059  0.57172600  1
  La3+  La13  1  0.63841541  0.75735872  0.93264944  1
  La3+  La14  1  0.61782797  0.00447305  0.43562805  1
  La3+  La15  1  -0.01684890  0.87819174  0.56624507  1
  La3+  La16  1  0.75461205  0.36973907  0.07142947  1
  La3+  La17  1  0.73622861  0.13545736  0.57287743  1
  Ce3+  Ce18  1  0.48242107  0.38465760  0.56111514  1
  Ce3+  Ce19  1  0.38346579  0.00037435  0.94279761  1
  Ce3+  Ce20  1  0.25002659  0.37477154  0.06146542  1
  Ce3+  Ce21  1  -0.00531413  0.62605431  0.55478087  1
  Ce3+  Ce22  1  0.25336801  0.87560726  0.05334636  1
  Ce3+  Ce23  1  0.48456116  0.87959627  0.56345976  1
  Ce3+  Ce24  1  0.87692875  0.74429618  0.94531243  1
  Ce3+  Ce25  1  0.23662255  0.12935741  0.56351818  1
  Ce3+  Ce26  1  0.73831484  0.62866028  0.55796225  1
  Ce3+  Ce27  1  0.86447159  0.75123308  0.44102345  1
  Ce3+  Ce28  1  0.00048372  0.87853385  0.05319018  1
  Ce3+  Ce29  1  0.85656419  0.26136091  0.43145406  1
  Ce3+  Ce30  1  0.25224647  0.12465296  0.05123905  1
  Ce3+  Ce31  1  0.00231184  0.62418239  0.06294202  1
  Ce3+  Ce32  1  0.25005837  0.62796637  0.06199985  1
  Ce3+  Ce33  1  0.86079792  0.00713536  0.43648610  1
  Ce3+  Ce34  1  0.62847729  0.50069097  0.94351460  1
  Ce3+  Ce35  1  0.50110500  0.37550414  0.05608430  1
  Ce3+  Ce36  1  0.50235527  0.87567872  0.05862077  1
  Ce3+  Ce37  1  0.62394827  0.00340848  0.94317967  1
  Pr3+  Pr38  1  0.73788800  0.87784005  0.56316290  1
  Pr3+  Pr39  1  0.36977395  0.00074132  0.42671890  1
  Pr3+  Pr40  1  0.11254096  0.00630580  0.43667720  1
  Pr3+  Pr41  1  0.11738979  0.51227483  0.42461390  1
  Pr3+  Pr42  1  0.22985140  0.62242457  0.60434198  1
  Pr3+  Pr43  1  0.00803988  0.36261318  0.08425110  1
  Pr3+  Pr44  1  0.87858793  0.49120083  0.94364714  1
  Pr3+  Pr45  1  -0.01857916  0.12993532  0.56191261  1
  Pr3+  Pr46  1  0.36369697  0.24837462  0.43060374  1
  Pr3+  Pr47  1  0.36296826  0.75687241  0.44396172  1
  Pr3+  Pr48  1  0.12541279  0.75167097  0.93944459  1
  Pr3+  Pr49  1  0.61531895  0.75083244  0.43790182  1
  Nd3+  Nd50  1  0.62323586  0.24746883  0.93530312  1
  Nd3+  Nd51  1  0.23266716  0.87930265  0.57113655  1
  Nd3+  Nd52  1  0.60802937  0.50696543  0.44031919  1
  Nd3+  Nd53  1  -0.01108700  0.38138903  0.55190866  1
  Nd3+  Nd54  1  0.12299430  0.00127769  0.93263262  1
  Nd3+  Nd55  1  0.37698521  0.50404932  0.93856242  1
  Nd3+  Nd56  1  0.12900850  0.49912170  0.94776329  1
  Nd3+  Nd57  1  0.11064575  0.25807700  0.43516327  1
  Sm3+  Sm58  1  0.12703776  0.25272899  0.93812348  1
  Sm3+  Sm59  1  0.48739907  0.63985218  0.57257135  1
  Sm3+  Sm60  1  0.75481341  0.12529865  0.06358308  1
  Sm3+  Sm61  1  0.38054873  0.24943669  0.93970043  1
  Sm3+  Sm62  1  0.00040053  0.12591586  0.05235566  1
  Sm3+  Sm63  1  0.36501175  0.50957938  0.44681073  1
  Bi2+  Bi64  1  0.01615535  0.15221488  0.30033779  1
  Bi2+  Bi65  1  0.08528093  0.10913337  0.78739752  1
  Bi2+  Bi66  1  0.00100293  0.38119801  0.27063588  1
  Bi2+  Bi67  1  0.00680599  0.37403663  0.79210381  1
  Bi2+  Bi68  1  0.07742630  0.61645173  0.26560635  1
  Bi2+  Bi69  1  -0.08755112  0.60419301  0.83092993  1
  Bi2+  Bi70  1  -0.03002677  0.96448092  0.32043951  1
  Bi2+  Bi71  1  0.03782336  0.75270792  0.81095342  1
  Bi2+  Bi72  1  0.18559761  0.04897075  0.30557403  1
  Bi2+  Bi73  1  0.27995061  0.14897153  0.79749698  1
  Bi2+  Bi74  1  0.27350127  0.33302312  0.30453284  1
  Bi2+  Bi75  1  0.27985833  0.34875753  0.79480894  1
  Bi2+  Bi76  1  0.31656479  0.52431551  0.31638234  1
  Bi2+  Bi77  1  0.23603087  0.56881051  0.80513950  1
  Bi2+  Bi78  1  0.23843257  0.79449928  0.30429749  1
  Bi2+  Bi79  1  0.26138741  0.95374210  0.77837520  1
  Bi2+  Bi80  1  0.45701353  0.11967011  0.29413258  1
  Bi2+  Bi81  1  0.48889883  0.12743492  0.78388617  1
  Bi2+  Bi82  1  0.54304787  0.35608430  0.28299112  1
  Bi2+  Bi83  1  0.47458674  0.35892892  0.78837966  1
  Bi2+  Bi84  1  0.45572329  0.65917298  0.29918638  1
  Bi2+  Bi85  1  0.52282443  0.54410854  0.77367869  1
  Bi2+  Bi86  1  0.48026258  0.84132521  0.25359707  1
  Bi2+  Bi87  1  0.49677751  0.89294798  0.78856766  1
  Bi2+  Bi88  1  0.73121783  0.12153788  0.28273022  1
  Bi2+  Bi89  1  0.75306499  0.10333573  0.78711018  1
  Bi2+  Bi90  1  0.74721282  0.36596626  0.28951357  1
  Bi2+  Bi91  1  0.75133583  0.36798250  0.78775984  1
  Bi2+  Bi92  1  0.70567144  0.63929742  0.29731165  1
  Bi2+  Bi93  1  0.73425894  0.61730253  0.78388247  1
  Bi2+  Bi94  1  0.75763708  0.88405239  0.28387666  1
  Bi2+  Bi95  1  0.68252531  0.83375930  0.79337282  1
  Bi2+  Bi96  1  0.09769612  -0.01035290  0.20896934  1
  Bi2+  Bi97  1  0.18519328  0.04864206  0.68975622  1
  Bi2+  Bi98  1  0.13695366  0.21797126  0.20145485  1
  Bi2+  Bi99  1  0.14866267  0.33030156  0.70925900  1
  Bi2+  Bi100  1  0.19845056  0.47863905  0.22176565  1
  Bi2+  Bi101  1  0.04452797  0.57785412  0.73571149  1
  Bi2+  Bi102  1  0.09264425  0.79275370  0.21076002  1
  Bi2+  Bi103  1  0.14876650  0.81744130  0.72678856  1
  Bi2+  Bi104  1  0.31183275  -0.05319131  0.23617280  1
  Bi2+  Bi105  1  0.36989672  -0.00187081  0.65675849  1
  Bi2+  Bi106  1  0.33402822  0.22852085  0.21676994  1
  Bi2+  Bi107  1  0.37983710  0.18452222  0.69287514  1
  Bi2+  Bi108  1  0.39102503  0.42238374  0.21683406  1
  Bi2+  Bi109  1  0.36034995  0.45214686  0.69715232  1
  Bi2+  Bi110  1  0.34372862  0.72256575  0.21022057  1
  Bi2+  Bi111  1  0.39578721  0.71647750  0.70826927  1
  Bi2+  Bi112  1  0.62976707  -0.02072933  0.21348679  1
  Bi2+  Bi113  1  0.56127024  -0.00249380  0.70209240  1
  Bi2+  Bi114  1  0.61474173  0.21708360  0.20341231  1
  Bi2+  Bi115  1  0.62923358  0.28113158  0.70569007  1
  Bi2+  Bi116  1  0.60165097  0.47778140  0.20599339  1
  Bi2+  Bi117  1  0.67272910  0.48525262  0.69891948  1
  Bi2+  Bi118  1  0.63617969  0.72382571  0.20531033  1
  Bi2+  Bi119  1  0.67729053  0.80889806  0.68488940  1
  Bi2+  Bi120  1  0.89107316  0.00067052  0.21315660  1
  Bi2+  Bi121  1  0.94344999  -0.02184653  0.69803858  1
  Bi2+  Bi122  1  0.87641484  0.19578321  0.21752249  1
  Bi2+  Bi123  1  0.91319525  0.23065331  0.69495071  1
  Bi2+  Bi124  1  0.87813378  0.57333996  0.18983508  1
  Bi2+  Bi125  1  0.86792543  0.48946428  0.71991831  1
  Bi2+  Bi126  1  0.92767740  0.78414022  0.27882535  1
  Bi2+  Bi127  1  0.89193523  0.70167877  0.72925272  1
  S2-  S128  1  0.00004687  0.20662333  0.14148087  1
  S2-  S129  1  0.04730199  0.13324320  0.65754927  1
  S2-  S130  1  -0.05192800  0.42741107  0.17635791  1
  S2-  S131  1  -0.00228700  0.34928359  0.65185635  1
  S2-  S132  1  0.03344444  0.64186005  0.15903359  1
  S2-  S133  1  0.06472647  0.63572496  0.64410674  1
  S2-  S134  1  -0.01777240  0.88323099  0.15125315  1
  S2-  S135  1  0.08153033  0.89254329  0.65046047  1
  S2-  S136  1  0.25734304  0.12413988  0.14897389  1
  S2-  S137  1  0.24329868  0.24584815  0.63866386  1
  S2-  S138  1  0.15913455  0.36266040  0.14569929  1
  S2-  S139  1  0.20835864  0.45688083  0.64823941  1
  S2-  S140  1  0.27524446  0.59729169  0.15667914  1
  S2-  S141  1  0.27663485  0.60392228  0.70883215  1
  S2-  S142  1  0.27253222  0.86421521  0.15128234  1
  S2-  S143  1  0.26393424  0.77846954  0.65326409  1
  S2-  S144  1  0.50844227  0.08358107  0.17616632  1
  S2-  S145  1  0.61044134  0.13388710  0.64824550  1
  S2-  S146  1  0.51374038  0.29868016  0.14197185  1
  S2-  S147  1  0.47616001  0.32784993  0.65401760  1
  S2-  S148  1  0.52909610  0.60432085  0.15983954  1
  S2-  S149  1  0.47152088  0.57509780  0.66417289  1
  S2-  S150  1  0.54712590  0.85152541  0.15229313  1
  S2-  S151  1  0.51058073  0.78433437  0.64527750  1
  S2-  S152  1  0.75594009  0.23978645  0.14326727  1
  S2-  S153  1  0.85433682  0.09778925  0.64521629  1
  S2-  S154  1  0.73969781  0.49434754  0.14710564  1
  S2-  S155  1  0.76361929  0.28705081  0.64964313  1
  S2-  S156  1  0.76683413  0.74414074  0.14918497  1
  S2-  S157  1  0.70446199  0.64902472  0.65322571  1
  S2-  S158  1  0.74955458  1.01092163  0.14666521  1
  S2-  S159  1  0.84698861  0.87594997  0.64404019  1
  S2-  S160  1  0.11861439  -0.11117315  0.35930184  1
  S2-  S161  1  0.04637399  -0.01803185  0.84325302  1
  S2-  S162  1  0.11210587  0.29511962  0.33612907  1
  S2-  S163  1  0.05699093  0.25021399  0.84785496  1
  S2-  S164  1  0.02458263  0.49934213  0.33646086  1
  S2-  S165  1  0.11457219  0.47833242  0.84943717  1
  S2-  S166  1  0.14331523  0.66053108  0.35163021  1
  S2-  S167  1  0.19964499  0.71717973  0.85125945  1
  S2-  S168  1  0.32339039  0.12393762  0.35496398  1
  S2-  S169  1  0.48646534  0.01346036  0.86498456  1
  S2-  S170  1  0.49387957  0.25451896  0.35798978  1
  S2-  S171  1  0.49207738  0.24226404  0.86257521  1
  S2-  S172  1  0.47503760  0.52754144  0.36646399  1
  S2-  S173  1  0.38922606  0.58319831  0.84898112  1
  S2-  S174  1  0.35538106  0.85881213  0.36032546  1
  S2-  S175  1  0.35417424  0.80502973  0.79700983  1
  S2-  S176  1  0.51126334  0.01368224  0.35499204  1
  S2-  S177  1  0.69708629  -0.00252860  0.85281552  1
  S2-  S178  1  0.72545514  0.23714681  0.35812685  1
  S2-  S179  1  0.71200655  0.24454923  0.84681891  1
  S2-  S180  1  0.69263789  0.49669203  0.35259434  1
  S2-  S181  1  0.63526399  0.50751332  0.84567222  1
  S2-  S182  1  0.64449420  0.78339349  0.34004284  1
  S2-  S183  1  0.54440737  0.75821029  0.84750991  1
  S2-  S184  1  0.74878272  0.00503094  0.35956383  1
  S2-  S185  1  0.84895495  -0.04183045  0.77160748  1
  S2-  S186  1  0.88464442  0.34822943  0.34342494  1
  S2-  S187  1  0.87696383  0.12649749  0.84376846  1
  S2-  S188  1  0.83240287  0.52071567  0.27445399  1
  S2-  S189  1  0.87842733  0.38836802  0.85941629  1
  S2-  S190  1  0.86576715  0.68386290  0.35042642  1
  S2-  S191  1  0.79466801  0.79393130  0.86469922  1
  S2-  S192  1  -0.01466235  0.13335883  0.44801655  1
  S2-  S193  1  0.00791031  0.12774221  0.95107046  1
  S2-  S194  1  -0.01107646  0.38479393  0.44806151  1
  S2-  S195  1  0.00919833  0.37305622  0.96140251  1
  S2-  S196  1  -0.01253284  0.62684394  0.45022202  1
  S2-  S197  1  0.00468872  0.62213255  0.95616430  1
  S2-  S198  1  -0.01695842  0.88019214  0.45707623  1
  S2-  S199  1  -0.00395372  0.87590923  0.94789861  1
  S2-  S200  1  0.23244293  0.13225434  0.45823331  1
  S2-  S201  1  0.25348634  0.12638030  0.94437519  1
  S2-  S202  1  0.24121744  0.38205698  0.44878659  1
  S2-  S203  1  0.25587626  0.37349965  0.95188397  1
  S2-  S204  1  0.24427016  0.62950187  0.45252431  1
  S2-  S205  1  0.25518603  0.62758852  0.95714285  1
  S2-  S206  1  0.23940682  0.88521609  0.46388687  1
  S2-  S207  1  0.25473719  0.87669148  0.94441729  1
  S2-  S208  1  0.48961474  0.12662599  0.46289457  1
  S2-  S209  1  0.49781339  0.12804745  0.96811616  1
  S2-  S210  1  0.48332887  0.38191355  0.45794785  1
  S2-  S211  1  0.49912674  0.37940878  0.95240494  1
  S2-  S212  1  0.48757404  0.63489459  0.46557966  1
  S2-  S213  1  0.50262704  0.62797247  0.95331054  1
  S2-  S214  1  0.49402181  0.87635622  0.45805517  1
  S2-  S215  1  0.49753808  0.86892882  0.95489527  1
  S2-  S216  1  0.73877721  0.13100858  0.46381890  1
  S2-  S217  1  0.74497712  0.12659343  0.95973887  1
  S2-  S218  1  0.73904260  0.38769230  0.45797991  1
  S2-  S219  1  0.74648105  0.37374675  0.96010568  1
  S2-  S220  1  0.74052166  0.62612495  0.45305224  1
  S2-  S221  1  0.75425009  0.62051676  0.95868014  1
  S2-  S222  1  0.74094574  0.87342322  0.45712663  1
  S2-  S223  1  0.75536247  0.88387973  0.96528924  1
  S2-  S224  1  0.12712098  0.00170097  0.04100127  1
  S2-  S225  1  0.11033377  0.00709050  0.54331719  1
  S2-  S226  1  0.13069053  0.24779828  0.04054630  1
  S2-  S227  1  0.10817551  0.25290621  0.54023657  1
  S2-  S228  1  0.12637112  0.50001892  0.05270118  1
  S2-  S229  1  0.11575009  0.50392931  0.53687993  1
  S2-  S230  1  0.12624441  0.75283472  0.04675792  1
  S2-  S231  1  0.11575457  0.75426463  0.54373264  1
  S2-  S232  1  0.37877198  0.00210971  0.05023084  1
  S2-  S233  1  0.36085804  0.00388079  0.54253410  1
  S2-  S234  1  0.37371452  0.25226008  0.04445285  1
  S2-  S235  1  0.36579293  0.25364276  0.53871839  1
  S2-  S236  1  0.37463291  0.49961424  0.04642566  1
  S2-  S237  1  0.35980610  0.51320660  0.55134474  1
  S2-  S238  1  0.37530020  0.75187497  0.05330031  1
  S2-  S239  1  0.36043087  0.75331698  0.54909598  1
  S2-  S240  1  0.62205703  0.00345218  0.04960817  1
  S2-  S241  1  0.61224711  -0.00046609  0.54809397  1
  S2-  S242  1  0.62620419  0.25101359  0.04225910  1
  S2-  S243  1  0.60852068  0.26205165  0.54502722  1
  S2-  S244  1  0.62370579  0.49881226  0.04713492  1
  S2-  S245  1  0.60722526  0.50907070  0.54956244  1
  S2-  S246  1  0.62815969  0.75093390  0.04347085  1
  S2-  S247  1  0.61509595  0.75305490  0.54333227  1
  S2-  S248  1  0.88183052  0.00424948  0.05289286  1
  S2-  S249  1  0.86037806  0.00378712  0.53950262  1
  S2-  S250  1  0.88038754  0.24821211  0.03957266  1
  S2-  S251  1  0.86421026  0.25848679  0.53920953  1
  S2-  S252  1  0.88354770  0.49602899  0.05002605  1
  S2-  S253  1  0.86548462  0.50589152  0.56373476  1
  S2-  S254  1  0.88047873  0.74960874  0.04809213  1
  S2-  S255  1  0.86453017  0.74736531  0.54634690  1
