# generated using pymatgen
data_La9Ce10Pr6Nd4Sm3(BiS2)32
_symmetry_space_group_name_H-M   'P 1'
_cell_length_a   16.12025190
_cell_length_b   16.12805985
_cell_length_c   27.33878286
_cell_angle_alpha   90.02537313
_cell_angle_beta   89.89308878
_cell_angle_gamma   89.85781955
_symmetry_Int_Tables_number   1
_chemical_formula_structural   La9Ce10Pr6Nd4Sm3(BiS2)32
_chemical_formula_sum   'La18 Ce20 Pr12 Nd8 Sm6 Bi64 S128'
_cell_volume   7107.73110244
_cell_formula_units_Z   2
loop_
 _symmetry_equiv_pos_site_id
 _symmetry_equiv_pos_as_xyz
  1  'x, y, z'
loop_
 _atom_type_symbol
 _atom_type_oxidation_number
  La3+  3.0
  Ce3+  3.0
  Pr3+  3.0
  Nd3+  3.0
  Sm3+  3.0
  Bi2+  2.0
  S2-  -2.0
loop_
 _atom_site_type_symbol
 _atom_site_label
 _atom_site_symmetry_multiplicity
 _atom_site_fract_x
 _atom_site_fract_y
 _atom_site_fract_z
 _atom_site_occupancy
  La3+  La0  1  0.35397120  0.48789375  0.38020146  1
  La3+  La1  1  0.24473074  0.64393242  0.09595571  1
  La3+  La2  1  0.12816652  0.27186983  0.93041285  1
  La3+  La3  1  0.13455917  0.52174396  0.93542622  1
  La3+  La4  1  0.13555125  0.73976567  0.42721637  1
  La3+  La5  1  0.76323408  0.36920410  0.58733609  1
  La3+  La6  1  0.38953817  0.23483075  0.42225947  1
  La3+  La7  1  0.89001396  -0.01283049  0.43261869  1
  La3+  La8  1  0.88288911  0.23237182  0.44314192  1
  La3+  La9  1  0.01589266  0.36888833  0.57913239  1
  La3+  La10  1  0.50323276  0.64530482  0.11319114  1
  La3+  La11  1  -0.00239565  0.38872051  0.06724301  1
  La3+  La12  1  0.88041650  0.26917511  0.91903657  1
  La3+  La13  1  0.50928839  0.89751915  0.08155172  1
  La3+  La14  1  0.00558611  0.11069514  0.59442754  1
  La3+  La15  1  0.37626199  0.25939361  0.92710165  1
  La3+  La16  1  0.63138416  0.73916998  0.43137858  1
  La3+  La17  1  0.88835880  -0.00049512  0.91265303  1
  Ce3+  Ce18  1  0.62831800  0.26258463  0.93534803  1
  Ce3+  Ce19  1  0.01457962  0.86269256  0.57071677  1
  Ce3+  Ce20  1  0.75667279  0.38885203  0.05474994  1
  Ce3+  Ce21  1  0.75985556  0.86424111  0.56020358  1
  Ce3+  Ce22  1  0.75842267  0.61221417  0.55571413  1
  Ce3+  Ce23  1  0.00496671  0.63911651  0.05836623  1
  Ce3+  Ce24  1  0.25558388  0.11460240  0.55478347  1
  Ce3+  Ce25  1  0.87794976  0.51451539  0.93492604  1
  Ce3+  Ce26  1  0.00314604  0.88829788  0.06507013  1
  Ce3+  Ce27  1  0.00942655  0.61232093  0.55327541  1
  Ce3+  Ce28  1  0.62740488  0.76564473  0.95153892  1
  Ce3+  Ce29  1  0.74951453  0.64023577  0.06232234  1
  Ce3+  Ce30  1  0.88381433  0.48604936  0.43927774  1
  Ce3+  Ce31  1  0.25607241  0.89152876  0.05980741  1
  Ce3+  Ce32  1  0.75465078  0.10980272  0.57330490  1
  Ce3+  Ce33  1  0.12113580  0.48324238  0.43232570  1
  Ce3+  Ce34  1  0.25604374  0.36179762  0.55128441  1
  Ce3+  Ce35  1  0.25402486  0.14143443  0.06188855  1
  Ce3+  Ce36  1  0.50287598  0.85190168  0.57130117  1
  Ce3+  Ce37  1  0.13003822  0.76318599  0.93967363  1
  Pr3+  Pr38  1  0.39106953  0.73611623  0.42477925  1
  Pr3+  Pr39  1  0.50542521  0.36549158  0.56134962  1
  Pr3+  Pr40  1  0.24924501  0.38560917  0.06939625  1
  Pr3+  Pr41  1  0.50756321  0.11495930  0.57206133  1
  Pr3+  Pr42  1  0.38718731  0.01040175  0.93196346  1
  Pr3+  Pr43  1  0.25978500  0.86145068  0.56271762  1
  Pr3+  Pr44  1  0.38473270  -0.01079567  0.43953263  1
  Pr3+  Pr45  1  0.62577931  0.51602683  0.94284267  1
  Pr3+  Pr46  1  0.63095616  0.01107159  0.93323576  1
  Pr3+  Pr47  1  0.76025591  0.89687135  0.06738806  1
  Pr3+  Pr48  1  0.26138667  0.61242512  0.54868996  1
  Pr3+  Pr49  1  0.50305119  0.14679178  0.06566418  1
  Nd3+  Nd50  1  0.63385930  0.23993993  0.44799458  1
  Nd3+  Nd51  1  0.51034707  0.60753699  0.56056620  1
  Nd3+  Nd52  1  0.88183033  0.74112410  0.43881495  1
  Nd3+  Nd53  1  0.38105352  0.76327003  0.95444327  1
  Nd3+  Nd54  1  0.12803783  0.01442858  0.94185474  1
  Nd3+  Nd55  1  0.00055128  0.13934245  0.05030694  1
  Nd3+  Nd56  1  0.63198514  -0.00975301  0.44681894  1
  Nd3+  Nd57  1  0.12554161  0.23677041  0.43660984  1
  Sm3+  Sm58  1  0.62438463  0.48809075  0.43357226  1
  Sm3+  Sm59  1  0.13296348  -0.01225719  0.44402863  1
  Sm3+  Sm60  1  0.37967123  0.51677254  0.95452609  1
  Sm3+  Sm61  1  0.75736988  0.13737595  0.04282533  1
  Sm3+  Sm62  1  0.87723707  0.76231968  0.94508320  1
  Sm3+  Sm63  1  0.50180953  0.38755997  0.05783229  1
  Bi2+  Bi64  1  -0.01767981  0.13279902  0.29996794  1
  Bi2+  Bi65  1  0.02762788  0.11398602  0.77736534  1
  Bi2+  Bi66  1  -0.05886699  0.35198341  0.27996831  1
  Bi2+  Bi67  1  0.02263519  0.33358279  0.79910147  1
  Bi2+  Bi68  1  -0.07607770  0.62955797  0.30441753  1
  Bi2+  Bi69  1  0.01072383  0.59849822  0.79973137  1
  Bi2+  Bi70  1  -0.01613871  0.89268899  0.28334128  1
  Bi2+  Bi71  1  0.05465196  0.85127805  0.80416781  1
  Bi2+  Bi72  1  0.25283348  0.08003631  0.28546384  1
  Bi2+  Bi73  1  0.27379743  0.07667090  0.76631844  1
  Bi2+  Bi74  1  0.22733059  0.34428954  0.29094453  1
  Bi2+  Bi75  1  0.25966671  0.44902473  0.78965438  1
  Bi2+  Bi76  1  0.23240285  0.61797314  0.26591940  1
  Bi2+  Bi77  1  0.22829336  0.69623588  0.77169396  1
  Bi2+  Bi78  1  0.18781735  0.88381248  0.31524669  1
  Bi2+  Bi79  1  0.26691547  0.88534014  0.79799967  1
  Bi2+  Bi80  1  0.52572953  0.12153610  0.27892829  1
  Bi2+  Bi81  1  0.49295487  0.15629747  0.81111552  1
  Bi2+  Bi82  1  0.55121956  0.35662427  0.29084287  1
  Bi2+  Bi83  1  0.47296664  0.43278405  0.80886773  1
  Bi2+  Bi84  1  0.48874818  0.62961318  0.28238590  1
  Bi2+  Bi85  1  0.49781879  0.71698368  0.79276441  1
  Bi2+  Bi86  1  0.38118849  0.92288964  0.31167288  1
  Bi2+  Bi87  1  0.44070545  0.89323368  0.73296575  1
  Bi2+  Bi88  1  0.72079968  0.10032026  0.28753955  1
  Bi2+  Bi89  1  0.65924520  0.07206644  0.79138364  1
  Bi2+  Bi90  1  0.76032841  0.29348506  0.31802863  1
  Bi2+  Bi91  1  0.75693023  0.45882501  0.79184518  1
  Bi2+  Bi92  1  0.73123021  0.63824829  0.32625339  1
  Bi2+  Bi93  1  0.82490846  0.63797450  0.82499268  1
  Bi2+  Bi94  1  0.72326012  0.83744007  0.31159294  1
  Bi2+  Bi95  1  0.75831468  0.82906448  0.79926202  1
  Bi2+  Bi96  1  0.09943591  0.00249231  0.21420272  1
  Bi2+  Bi97  1  0.15849149  -0.04709164  0.70623202  1
  Bi2+  Bi98  1  0.12545904  0.21806163  0.20096851  1
  Bi2+  Bi99  1  0.18886762  0.24540520  0.70258787  1
  Bi2+  Bi100  1  0.10089395  0.49809806  0.20981516  1
  Bi2+  Bi101  1  0.13654188  0.53951935  0.71627582  1
  Bi2+  Bi102  1  0.06818674  0.79188230  0.19799059  1
  Bi2+  Bi103  1  0.04355148  0.73935377  0.71266375  1
  Bi2+  Bi104  1  0.28477473  0.01668150  0.17570262  1
  Bi2+  Bi105  1  0.42557997  0.08174789  0.69345070  1
  Bi2+  Bi106  1  0.39382134  0.17542814  0.19898207  1
  Bi2+  Bi107  1  0.41359768  0.27571501  0.67527610  1
  Bi2+  Bi108  1  0.39264181  0.41206449  0.19061126  1
  Bi2+  Bi109  1  0.39232716  0.46841451  0.70252506  1
  Bi2+  Bi110  1  0.34062759  0.82214766  0.21575931  1
  Bi2+  Bi111  1  0.38557097  0.67501078  0.70241245  1
  Bi2+  Bi112  1  0.54269210  -0.05919436  0.22383229  1
  Bi2+  Bi113  1  0.61411749  -0.03483266  0.69975709  1
  Bi2+  Bi114  1  0.67542301  0.28578231  0.21365713  1
  Bi2+  Bi115  1  0.57696056  0.28729130  0.73723775  1
  Bi2+  Bi116  1  0.71726604  0.46585574  0.26587195  1
  Bi2+  Bi117  1  0.62642076  0.52603862  0.71573201  1
  Bi2+  Bi118  1  0.69714496  0.73275927  0.22250595  1
  Bi2+  Bi119  1  0.64590471  0.71429285  0.71552525  1
  Bi2+  Bi120  1  0.79806192  -0.01468943  0.20745901  1
  Bi2+  Bi121  1  0.87016879  -0.02412832  0.71748816  1
  Bi2+  Bi122  1  0.86216946  0.22885785  0.19259752  1
  Bi2+  Bi123  1  0.84256118  0.24511873  0.72209345  1
  Bi2+  Bi124  1  0.89104951  0.50889919  0.21045532  1
  Bi2+  Bi125  1  0.88953616  0.50339444  0.70905480  1
  Bi2+  Bi126  1  0.88820150  0.71137835  0.20247648  1
  Bi2+  Bi127  1  0.84788991  0.70915991  0.71623404  1
  S2-  S128  1  0.00392032  0.14597488  0.15104880  1
  S2-  S129  1  0.03267641  0.20211339  0.68670714  1
  S2-  S130  1  0.08254587  0.36487504  0.15519163  1
  S2-  S131  1  -0.10025766  0.35630667  0.65725327  1
  S2-  S132  1  0.08457199  0.63717643  0.14680128  1
  S2-  S133  1  0.01719167  0.53402767  0.64021060  1
  S2-  S134  1  -0.10692352  0.91629694  0.13840038  1
  S2-  S135  1  -0.00573549  0.96431700  0.65435617  1
  S2-  S136  1  0.26282734  0.24838607  0.14065461  1
  S2-  S137  1  0.19394286  0.09750512  0.64516473  1
  S2-  S138  1  0.25020100  0.48748117  0.15242850  1
  S2-  S139  1  0.17088828  0.36387395  0.63877612  1
  S2-  S140  1  0.33486965  0.66449867  0.18591449  1
  S2-  S141  1  0.26292626  0.60024886  0.65024745  1
  S2-  S142  1  0.21329788  0.81603380  0.14489048  1
  S2-  S143  1  0.14863298  0.82429785  0.64094161  1
  S2-  S144  1  0.50283606  0.03856340  0.14728681  1
  S2-  S145  1  0.62924520  0.10301522  0.64636709  1
  S2-  S146  1  0.48929037  0.28663358  0.13836084  1
  S2-  S147  1  0.52563930  0.48734870  0.63845623  1
  S2-  S148  1  0.50262181  0.52858277  0.19062109  1
  S2-  S149  1  0.52733983  0.72044162  0.63868014  1
  S2-  S150  1  0.49388896  0.79841398  0.16771205  1
  S2-  S151  1  0.37715150  0.86765135  0.64079510  1
  S2-  S152  1  0.76324399  0.12224187  0.14137894  1
  S2-  S153  1  0.84897246  0.11384890  0.65836782  1
  S2-  S154  1  0.85387738  0.38066110  0.13600245  1
  S2-  S155  1  0.70583282  0.30276300  0.67760210  1
  S2-  S156  1  0.67226170  0.62749554  0.14905370  1
  S2-  S157  1  0.75411734  0.52837322  0.64204273  1
  S2-  S158  1  0.67170734  0.90677791  0.15624584  1
  S2-  S159  1  0.76440846  0.89469331  0.65765054  1
  S2-  S160  1  0.04363205  0.00110633  0.35963475  1
  S2-  S161  1  0.04162945  0.00165324  0.85404209  1
  S2-  S162  1  0.19060174  0.20815375  0.34114712  1
  S2-  S163  1  0.12358752  0.20695472  0.83177190  1
  S2-  S164  1  0.18082213  0.49044745  0.34133416  1
  S2-  S165  1  0.12791937  0.40799151  0.85728483  1
  S2-  S166  1  0.12760396  0.72459732  0.32611954  1
  S2-  S167  1  0.14220038  0.65914672  0.86026472  1
  S2-  S168  1  0.39758840  0.08657670  0.35504271  1
  S2-  S169  1  0.34460723  0.12076288  0.85697017  1
  S2-  S170  1  0.36884862  0.32722736  0.33731687  1
  S2-  S171  1  0.35471839  0.32276224  0.83093043  1
  S2-  S172  1  0.33542891  0.48344876  0.27038488  1
  S2-  S173  1  0.36133171  0.53542236  0.85522366  1
  S2-  S174  1  0.34984584  0.65448665  0.33572236  1
  S2-  S175  1  0.38481659  0.79043464  0.85466499  1
  S2-  S176  1  0.64121076  -0.02681424  0.34649144  1
  S2-  S177  1  0.52267860  0.00218744  0.85460571  1
  S2-  S178  1  0.55426030  0.22922657  0.35892713  1
  S2-  S179  1  0.63924997  0.25791750  0.83752005  1
  S2-  S180  1  0.52783921  0.49964966  0.34815292  1
  S2-  S181  1  0.61882433  0.51923287  0.84217774  1
  S2-  S182  1  0.52571250  0.74094060  0.34738244  1
  S2-  S183  1  0.62893729  0.78061162  0.85354728  1
  S2-  S184  1  0.85237229  0.10442176  0.35732180  1
  S2-  S185  1  0.79629747  0.00551948  0.82345098  1
  S2-  S186  1  0.99512416  0.25859404  0.36216430  1
  S2-  S187  1  0.89856425  0.20708948  0.82174195  1
  S2-  S188  1  0.96403285  0.47953505  0.35266052  1
  S2-  S189  1  0.89362946  0.41219560  0.85476291  1
  S2-  S190  1  0.88147798  0.85160599  0.35998238  1
  S2-  S191  1  0.90795813  0.83408079  0.85739430  1
  S2-  S192  1  0.01085228  0.10999026  0.46372546  1
  S2-  S193  1  0.00243358  0.14057421  0.94574764  1
  S2-  S194  1  0.00502727  0.36455241  0.46557119  1
  S2-  S195  1  0.00216811  0.39425622  0.95903823  1
  S2-  S196  1  0.00618955  0.61691656  0.44843796  1
  S2-  S197  1  0.00024488  0.64108087  0.95392177  1
  S2-  S198  1  0.01294223  0.85977251  0.46032568  1
  S2-  S199  1  0.00703073  0.88403253  0.96096849  1
  S2-  S200  1  0.25437462  0.11226334  0.45095586  1
  S2-  S201  1  0.24684230  0.13828628  0.95687772  1
  S2-  S202  1  0.25465888  0.36312591  0.44644594  1
  S2-  S203  1  0.25914910  0.39179557  0.95909395  1
  S2-  S204  1  0.25801026  0.60876931  0.44350404  1
  S2-  S205  1  0.25880331  0.64082397  0.96536175  1
  S2-  S206  1  0.26065932  0.86305055  0.45084977  1
  S2-  S207  1  0.25398198  0.89154872  0.95262898  1
  S2-  S208  1  0.51091245  0.11366661  0.46488044  1
  S2-  S209  1  0.50767216  0.14000265  0.95685099  1
  S2-  S210  1  0.50878577  0.36437707  0.45568147  1
  S2-  S211  1  0.50262139  0.38838159  0.95325043  1
  S2-  S212  1  0.51122737  0.61377365  0.45487620  1
  S2-  S213  1  0.50293284  0.63980697  0.95420248  1
  S2-  S214  1  0.50772751  0.86510608  0.45658467  1
  S2-  S215  1  0.50539132  0.88850706  0.96520692  1
  S2-  S216  1  0.75354807  0.11172875  0.46456444  1
  S2-  S217  1  0.75689225  0.13703535  0.93808545  1
  S2-  S218  1  0.75618888  0.36633509  0.44566596  1
  S2-  S219  1  0.75064963  0.38987244  0.94972778  1
  S2-  S220  1  0.75896448  0.61179137  0.45078309  1
  S2-  S221  1  0.75270840  0.64027324  0.95639953  1
  S2-  S222  1  0.75554305  0.86422243  0.45671609  1
  S2-  S223  1  0.75579527  0.88815663  0.95504359  1
  S2-  S224  1  0.12609508  0.01392881  0.04909568  1
  S2-  S225  1  0.13392052  -0.01365193  0.54587261  1
  S2-  S226  1  0.12463178  0.26243302  0.03969083  1
  S2-  S227  1  0.12835115  0.23416515  0.54484199  1
  S2-  S228  1  0.12718296  0.51381625  0.04465267  1
  S2-  S229  1  0.13516851  0.49091622  0.53701725  1
  S2-  S230  1  0.12657695  0.76475251  0.04276611  1
  S2-  S231  1  0.13284142  0.73411200  0.53599330  1
  S2-  S232  1  0.37815583  0.01784546  0.04145962  1
  S2-  S233  1  0.38325159  -0.00766631  0.54487387  1
  S2-  S234  1  0.37790228  0.26533921  0.03578111  1
  S2-  S235  1  0.38144776  0.23758992  0.54165748  1
  S2-  S236  1  0.38869949  0.51841278  0.05880571  1
  S2-  S237  1  0.37980308  0.48567772  0.54722743  1
  S2-  S238  1  0.38055738  0.76315068  0.05945983  1
  S2-  S239  1  0.38405785  0.73547794  0.53500700  1
  S2-  S240  1  0.63209028  0.01898740  0.04062782  1
  S2-  S241  1  0.62686681  -0.02086708  0.55053406  1
  S2-  S242  1  0.63447685  0.26440757  0.04250737  1
  S2-  S243  1  0.63443352  0.24436779  0.55233826  1
  S2-  S244  1  0.62564667  0.50922056  0.04980112  1
  S2-  S245  1  0.63911570  0.48558356  0.53669690  1
  S2-  S246  1  0.62769013  0.76652287  0.05539363  1
  S2-  S247  1  0.63894385  0.73741491  0.54055264  1
  S2-  S248  1  0.88067215  0.01647243  0.02990223  1
  S2-  S249  1  0.88364822  -0.01421847  0.54664991  1
  S2-  S250  1  0.87697455  0.26158184  0.03189103  1
  S2-  S251  1  0.88073618  0.23698959  0.55254467  1
  S2-  S252  1  0.87569357  0.52022831  0.04272967  1
  S2-  S253  1  0.88291060  0.48893066  0.54283745  1
  S2-  S254  1  0.87831678  0.76177087  0.04923893  1
  S2-  S255  1  0.88437427  0.73793210  0.54758960  1
