# generated using pymatgen
data_La9Ce10Pr6Nd4Sm3(BiS2)32
_symmetry_space_group_name_H-M   'P 1'
_cell_length_a   16.19247309
_cell_length_b   16.15402342
_cell_length_c   27.12655499
_cell_angle_alpha   89.88813312
_cell_angle_beta   90.00582653
_cell_angle_gamma   89.89727884
_symmetry_Int_Tables_number   1
_chemical_formula_structural   La9Ce10Pr6Nd4Sm3(BiS2)32
_chemical_formula_sum   'La18 Ce20 Pr12 Nd8 Sm6 Bi64 S128'
_cell_volume   7095.56539309
_cell_formula_units_Z   2
loop_
 _symmetry_equiv_pos_site_id
 _symmetry_equiv_pos_as_xyz
  1  'x, y, z'
loop_
 _atom_type_symbol
 _atom_type_oxidation_number
  La3+  3.0
  Ce3+  3.0
  Pr3+  3.0
  Nd3+  3.0
  Sm3+  3.0
  Bi2+  2.0
  S2-  -2.0
loop_
 _atom_site_type_symbol
 _atom_site_label
 _atom_site_symmetry_multiplicity
 _atom_site_fract_x
 _atom_site_fract_y
 _atom_site_fract_z
 _atom_site_occupancy
  La3+  La0  1  0.49470203  0.36370717  0.04920187  1
  La3+  La1  1  0.38594476  -0.00500492  0.42355048  1
  La3+  La2  1  0.74217828  0.35820453  0.06244591  1
  La3+  La3  1  0.74552781  0.60697961  0.07298232  1
  La3+  La4  1  0.86923734  -0.02271547  0.42710364  1
  La3+  La5  1  -0.00273394  0.35937184  0.07340603  1
  La3+  La6  1  0.74978125  0.85852976  0.56240193  1
  La3+  La7  1  0.25304068  0.60999491  0.09885100  1
  La3+  La8  1  0.25458241  0.86828120  0.07703646  1
  La3+  La9  1  0.36689143  0.73658863  0.93760674  1
  La3+  La10  1  0.87536430  0.74584351  0.94408312  1
  La3+  La11  1  0.86579149  0.23110491  0.41533470  1
  La3+  La12  1  0.75627681  0.12050434  0.58396241  1
  La3+  La13  1  -0.00242834  0.60487777  0.07858274  1
  La3+  La14  1  0.49074925  0.10828341  0.58619518  1
  La3+  La15  1  0.24371289  0.10813301  0.56565104  1
  La3+  La16  1  0.00492240  0.60658263  0.60785093  1
  La3+  La17  1  -0.00583697  0.85571953  0.08312542  1
  Ce3+  Ce18  1  0.24769675  0.36240604  0.06172632  1
  Ce3+  Ce19  1  0.36696644  0.49722842  0.93788932  1
  Ce3+  Ce20  1  0.62445938  0.23307619  0.44438570  1
  Ce3+  Ce21  1  0.12273055  0.24219595  0.93440300  1
  Ce3+  Ce22  1  0.12072413  -0.01987090  0.93940079  1
  Ce3+  Ce23  1  0.62130496  0.23842464  0.93060970  1
  Ce3+  Ce24  1  0.37433266  0.23693894  0.44500025  1
  Ce3+  Ce25  1  -0.00358390  0.10885524  0.54975567  1
  Ce3+  Ce26  1  0.37262884  0.72772124  0.42080338  1
  Ce3+  Ce27  1  0.12196078  0.23493237  0.43641894  1
  Ce3+  Ce28  1  0.87622811  0.49091542  0.44075834  1
  Ce3+  Ce29  1  0.36321568  -0.01783648  0.92201908  1
  Ce3+  Ce30  1  0.11916294  0.48775025  0.43811626  1
  Ce3+  Ce31  1  0.13112209  -0.00678606  0.42022453  1
  Ce3+  Ce32  1  0.74608290  0.86526423  0.06583638  1
  Ce3+  Ce33  1  0.62347504  0.49233989  0.43838015  1
  Ce3+  Ce34  1  0.49830198  0.86601760  0.05317429  1
  Ce3+  Ce35  1  0.37303855  0.48745529  0.44090798  1
  Ce3+  Ce36  1  0.62335704  0.49612187  0.93241386  1
  Ce3+  Ce37  1  0.12419444  0.73752379  0.41361884  1
  Pr3+  Pr38  1  0.86518219  -0.00626600  0.93925946  1
  Pr3+  Pr39  1  0.49767362  0.61441028  0.56810569  1
  Pr3+  Pr40  1  0.75055726  0.61140963  0.56560617  1
  Pr3+  Pr41  1  0.24674666  0.11253924  0.06348041  1
  Pr3+  Pr42  1  0.87186118  0.23890528  0.93531456  1
  Pr3+  Pr43  1  0.00173077  0.85517525  0.54802003  1
  Pr3+  Pr44  1  0.75035734  0.36255951  0.55705916  1
  Pr3+  Pr45  1  0.24428051  0.36491719  0.55786957  1
  Pr3+  Pr46  1  0.36958371  0.23707138  0.93339059  1
  Pr3+  Pr47  1  0.49421331  0.85994330  0.56646779  1
  Pr3+  Pr48  1  0.24702645  0.85758724  0.54356736  1
  Pr3+  Pr49  1  0.62411732  0.73764012  0.93559594  1
  Nd3+  Nd50  1  -0.00254714  0.11487867  0.06283530  1
  Nd3+  Nd51  1  0.24472955  0.61453321  0.55480057  1
  Nd3+  Nd52  1  0.49883248  0.36096677  0.55748153  1
  Nd3+  Nd53  1  0.49602644  0.61573868  0.06345999  1
  Nd3+  Nd54  1  0.87224597  0.49090967  0.94163064  1
  Nd3+  Nd55  1  0.11951403  0.48776003  0.94329450  1
  Nd3+  Nd56  1  0.62114461  -0.01143258  0.45178838  1
  Nd3+  Nd57  1  0.12363312  0.73174380  0.95276230  1
  Sm3+  Sm58  1  0.87334162  0.73397588  0.43416615  1
  Sm3+  Sm59  1  0.61657568  -0.01556924  0.91872984  1
  Sm3+  Sm60  1  -0.00472179  0.36155910  0.55642483  1
  Sm3+  Sm61  1  0.49575287  0.11026328  0.05225782  1
  Sm3+  Sm62  1  0.74410323  0.11502705  0.06232681  1
  Sm3+  Sm63  1  0.61666635  0.73284301  0.43268790  1
  Bi2+  Bi64  1  -0.00776926  0.16197176  0.28808647  1
  Bi2+  Bi65  1  0.00431672  0.15709081  0.80250155  1
  Bi2+  Bi66  1  0.10679538  0.32565448  0.30274039  1
  Bi2+  Bi67  1  0.08003378  0.40632909  0.76729317  1
  Bi2+  Bi68  1  -0.00143629  0.56477292  0.29408119  1
  Bi2+  Bi69  1  -0.00317376  0.64485385  0.82509616  1
  Bi2+  Bi70  1  -0.02199798  0.96797517  0.25079964  1
  Bi2+  Bi71  1  0.02777888  0.87712705  0.77776696  1
  Bi2+  Bi72  1  0.25987252  0.11914265  0.28677627  1
  Bi2+  Bi73  1  0.20159525  0.16681767  0.80671211  1
  Bi2+  Bi74  1  0.32533305  0.31397232  0.30912106  1
  Bi2+  Bi75  1  0.27410932  0.34914180  0.81786595  1
  Bi2+  Bi76  1  0.26025206  0.59321986  0.28745601  1
  Bi2+  Bi77  1  0.23746316  0.71786408  0.81693292  1
  Bi2+  Bi78  1  0.21399181  0.87429705  0.27835306  1
  Bi2+  Bi79  1  0.19544445  0.97433225  0.75752258  1
  Bi2+  Bi80  1  0.55231744  0.16425380  0.31652125  1
  Bi2+  Bi81  1  0.50737607  0.13468959  0.77847669  1
  Bi2+  Bi82  1  0.53881339  0.36177484  0.30228820  1
  Bi2+  Bi83  1  0.51805212  0.45787268  0.76740881  1
  Bi2+  Bi84  1  0.51202771  0.63827483  0.29256870  1
  Bi2+  Bi85  1  0.48707300  0.64719759  0.79116792  1
  Bi2+  Bi86  1  0.52206031  0.91619710  0.27201218  1
  Bi2+  Bi87  1  0.48052428  0.86843107  0.79023869  1
  Bi2+  Bi88  1  0.73379778  0.11690273  0.28315842  1
  Bi2+  Bi89  1  0.75059367  0.14248333  0.77856732  1
  Bi2+  Bi90  1  0.69291021  0.44261861  0.24732431  1
  Bi2+  Bi91  1  0.71216383  0.41976345  0.78449061  1
  Bi2+  Bi92  1  0.77125840  0.68492453  0.31338627  1
  Bi2+  Bi93  1  0.75345907  0.60835519  0.78885600  1
  Bi2+  Bi94  1  0.71243909  0.87021115  0.29157667  1
  Bi2+  Bi95  1  0.78019267  0.88110230  0.80896438  1
  Bi2+  Bi96  1  0.11585534  0.07220194  0.19367411  1
  Bi2+  Bi97  1  0.10212900  0.05230623  0.66692556  1
  Bi2+  Bi98  1  0.19154952  0.24434694  0.17153181  1
  Bi2+  Bi99  1  0.11234962  0.23495405  0.70730770  1
  Bi2+  Bi100  1  0.12938150  0.42146590  0.20449565  1
  Bi2+  Bi101  1  0.25074118  0.47960071  0.73503157  1
  Bi2+  Bi102  1  0.10806489  0.74455942  0.22355955  1
  Bi2+  Bi103  1  0.14370224  0.74576093  0.69940804  1
  Bi2+  Bi104  1  0.40301926  0.01752228  0.20230733  1
  Bi2+  Bi105  1  0.37570263  -0.01007957  0.71950073  1
  Bi2+  Bi106  1  0.37473640  0.21438128  0.20406657  1
  Bi2+  Bi107  1  0.37438599  0.26817610  0.69811396  1
  Bi2+  Bi108  1  0.39730801  0.41980499  0.22401357  1
  Bi2+  Bi109  1  0.40130609  0.57438486  0.69195873  1
  Bi2+  Bi110  1  0.39145043  0.75937024  0.21294782  1
  Bi2+  Bi111  1  0.35971518  0.76268587  0.71155835  1
  Bi2+  Bi112  1  0.65472133  -0.06433486  0.18553465  1
  Bi2+  Bi113  1  0.63359226  -0.06008544  0.71656414  1
  Bi2+  Bi114  1  0.60321059  0.25438110  0.20626592  1
  Bi2+  Bi115  1  0.62372261  0.33618615  0.69284701  1
  Bi2+  Bi116  1  0.55641016  0.54891249  0.19094430  1
  Bi2+  Bi117  1  0.66381742  0.53962479  0.68577437  1
  Bi2+  Bi118  1  0.61093549  0.74260275  0.20824627  1
  Bi2+  Bi119  1  0.62762062  0.72594064  0.71245950  1
  Bi2+  Bi120  1  0.82636160  0.04540688  0.18803481  1
  Bi2+  Bi121  1  0.93516788  0.02521940  0.72658032  1
  Bi2+  Bi122  1  0.86085531  0.23581076  0.21330601  1
  Bi2+  Bi123  1  0.90936855  0.24988430  0.70053165  1
  Bi2+  Bi124  1  0.84904900  0.54045860  0.21085227  1
  Bi2+  Bi125  1  0.89878499  0.43244344  0.72960816  1
  Bi2+  Bi126  1  0.87014539  0.77229237  0.22645022  1
  Bi2+  Bi127  1  0.88173849  0.74502054  0.70832790  1
  S2-  S128  1  -0.02012116  0.22639986  0.14341806  1
  S2-  S129  1  -0.08880519  0.11186277  0.63585038  1
  S2-  S130  1  -0.01532112  0.47504605  0.15391325  1
  S2-  S131  1  -0.00379790  0.43744364  0.64740642  1
  S2-  S132  1  -0.01253446  0.71413242  0.15941666  1
  S2-  S133  1  0.01313031  0.63674804  0.72957298  1
  S2-  S134  1  0.07164930  0.90784920  0.17241897  1
  S2-  S135  1  0.00486689  0.78650122  0.64202654  1
  S2-  S136  1  0.26403579  0.00794948  0.14594822  1
  S2-  S137  1  0.33678389  0.11962822  0.65187812  1
  S2-  S138  1  0.27623093  0.44293647  0.14744034  1
  S2-  S139  1  0.23747878  0.34860450  0.65882999  1
  S2-  S140  1  0.16644751  0.59137619  0.19547430  1
  S2-  S141  1  0.16927236  0.61061297  0.64538504  1
  S2-  S142  1  0.24932645  0.76440417  0.16110075  1
  S2-  S143  1  0.25422295  0.84405825  0.64646192  1
  S2-  S144  1  0.51604285  0.12984673  0.15123845  1
  S2-  S145  1  0.52800960  0.18983399  0.67682009  1
  S2-  S146  1  0.52220183  0.37962938  0.14886124  1
  S2-  S147  1  0.46173033  0.38619852  0.65437755  1
  S2-  S148  1  0.40922061  0.62045576  0.15155177  1
  S2-  S149  1  0.50281576  0.73842126  0.64291006  1
  S2-  S150  1  0.42974188  0.87268585  0.14330431  1
  S2-  S151  1  0.49948910  0.96329642  0.65139572  1
  S2-  S152  1  0.73350163  0.23331205  0.13794681  1
  S2-  S153  1  0.71393207  0.06539278  0.68381558  1
  S2-  S154  1  0.74637904  0.46684039  0.14421299  1
  S2-  S155  1  0.76371747  0.27590877  0.64500610  1
  S2-  S156  1  0.76181185  0.67873117  0.16800278  1
  S2-  S157  1  0.84462352  0.62115350  0.65143511  1
  S2-  S158  1  0.84821775  0.87819769  0.14560594  1
  S2-  S159  1  0.75127234  0.83576918  0.66352555  1
  S2-  S160  1  0.08630046  -0.07645451  0.33217353  1
  S2-  S161  1  0.22279137  0.01069759  0.85982284  1
  S2-  S162  1  0.13564356  0.13248184  0.35605726  1
  S2-  S163  1  0.11016814  0.36875472  0.86400044  1
  S2-  S164  1  0.14643223  0.49195902  0.33958687  1
  S2-  S165  1  0.14183105  0.59926069  0.86458432  1
  S2-  S166  1  0.03916509  0.70971304  0.32330967  1
  S2-  S167  1  0.11037776  0.80521664  0.85945370  1
  S2-  S168  1  0.30673608  -0.03244925  0.33195203  1
  S2-  S169  1  0.48856625  0.01312848  0.84982900  1
  S2-  S170  1  0.38986748  0.15669243  0.35891641  1
  S2-  S171  1  0.40370530  0.22441309  0.83108903  1
  S2-  S172  1  0.38376087  0.56231883  0.35231413  1
  S2-  S173  1  0.36042942  0.61101551  0.86147564  1
  S2-  S174  1  0.25454062  0.73106177  0.33979768  1
  S2-  S175  1  0.35113495  0.84088487  0.85415667  1
  S2-  S176  1  0.54152833  0.00328085  0.36194439  1
  S2-  S177  1  0.74763788  0.02740726  0.85320273  1
  S2-  S178  1  0.70752286  0.23824863  0.35674395  1
  S2-  S179  1  0.62777558  0.21593110  0.83103084  1
  S2-  S180  1  0.63773472  0.60029652  0.36037835  1
  S2-  S181  1  0.62796536  0.61355327  0.85892183  1
  S2-  S182  1  0.49894594  0.76382711  0.35810934  1
  S2-  S183  1  0.63635184  0.84653896  0.85379263  1
  S2-  S184  1  0.86483381  0.08626037  0.34869110  1
  S2-  S185  1  0.92964484  -0.07290543  0.85381729  1
  S2-  S186  1  0.94272091  0.30879876  0.33189510  1
  S2-  S187  1  0.86013530  0.23831331  0.83326343  1
  S2-  S188  1  0.85704893  0.53486261  0.34475484  1
  S2-  S189  1  0.90864338  0.50575913  0.84359609  1
  S2-  S190  1  0.85223595  0.83609436  0.35324006  1
  S2-  S191  1  0.84169020  0.72816039  0.84356779  1
  S2-  S192  1  -0.00410108  0.10984593  0.44701185  1
  S2-  S193  1  -0.00096972  0.11456909  0.95248295  1
  S2-  S194  1  -0.00286078  0.36177880  0.45069931  1
  S2-  S195  1  -0.00835553  0.36259909  0.96142617  1
  S2-  S196  1  -0.00184796  0.61462876  0.43994064  1
  S2-  S197  1  -0.00571021  0.61193891  0.96578219  1
  S2-  S198  1  0.00047340  0.85803601  0.44335462  1
  S2-  S199  1  -0.00227559  0.86406999  0.97078743  1
  S2-  S200  1  0.25249169  0.11323643  0.45754488  1
  S2-  S201  1  0.24513601  0.11868890  0.95650388  1
  S2-  S202  1  0.24684918  0.36203441  0.45000536  1
  S2-  S203  1  0.25115482  0.36546400  0.95676891  1
  S2-  S204  1  0.24499623  0.60836828  0.44925761  1
  S2-  S205  1  0.24560013  0.60977561  0.97012585  1
  S2-  S206  1  0.25274849  0.86304658  0.43968903  1
  S2-  S207  1  0.24283276  0.86283697  0.96518011  1
  S2-  S208  1  0.49980922  0.11657830  0.47045321  1
  S2-  S209  1  0.49924586  0.11593820  0.94906589  1
  S2-  S210  1  0.50004938  0.36307877  0.45008229  1
  S2-  S211  1  0.49498799  0.36819386  0.93915674  1
  S2-  S212  1  0.49771575  0.60976366  0.46037424  1
  S2-  S213  1  0.49797618  0.61327040  0.95827687  1
  S2-  S214  1  0.49909453  0.86211871  0.46087176  1
  S2-  S215  1  0.49782071  0.86334839  0.95046788  1
  S2-  S216  1  0.74675537  0.10777797  0.46040439  1
  S2-  S217  1  0.74202072  0.11919482  0.95762846  1
  S2-  S218  1  0.74843453  0.36847924  0.45059612  1
  S2-  S219  1  0.74554546  0.36541335  0.94756383  1
  S2-  S220  1  0.75061700  0.61468303  0.45899160  1
  S2-  S221  1  0.75106067  0.61439115  0.96041574  1
  S2-  S222  1  0.73899659  0.85655520  0.45388533  1
  S2-  S223  1  0.74467318  0.86753161  0.95946700  1
  S2-  S224  1  0.11837997  -0.00971969  0.04841253  1
  S2-  S225  1  0.12235677  -0.01592522  0.53338553  1
  S2-  S226  1  0.12226148  0.23710550  0.04107426  1
  S2-  S227  1  0.11975185  0.23854630  0.54575005  1
  S2-  S228  1  0.12476475  0.48418451  0.05212757  1
  S2-  S229  1  0.11712633  0.48784867  0.54340026  1
  S2-  S230  1  0.12521175  0.73236006  0.05979102  1
  S2-  S231  1  0.12349683  0.73221270  0.53113114  1
  S2-  S232  1  0.37562769  -0.00839134  0.03532504  1
  S2-  S233  1  0.36965088  -0.01491961  0.54326807  1
  S2-  S234  1  0.37247512  0.23520724  0.04377461  1
  S2-  S235  1  0.37077195  0.24128992  0.55013645  1
  S2-  S236  1  0.37423308  0.49094975  0.04351662  1
  S2-  S237  1  0.37214007  0.48838361  0.54776732  1
  S2-  S238  1  0.37519038  0.73977880  0.04597707  1
  S2-  S239  1  0.37144908  0.73247265  0.53835639  1
  S2-  S240  1  0.62278692  -0.00770765  0.04555570  1
  S2-  S241  1  0.62943634  -0.01059284  0.55655166  1
  S2-  S242  1  0.61570980  0.23515409  0.03671191  1
  S2-  S243  1  0.62257740  0.23676331  0.55081666  1
  S2-  S244  1  0.61871805  0.48924202  0.03932428  1
  S2-  S245  1  0.62210496  0.48690400  0.54693424  1
  S2-  S246  1  0.62196896  0.73914000  0.04956759  1
  S2-  S247  1  0.62548370  0.73352029  0.54238980  1
  S2-  S248  1  0.86983487  -0.00246935  0.04620367  1
  S2-  S249  1  0.87453467  -0.01995787  0.53991915  1
  S2-  S250  1  0.86857122  0.23485957  0.04078284  1
  S2-  S251  1  0.87613990  0.23963470  0.53385533  1
  S2-  S252  1  0.87100213  0.48245752  0.04675008  1
  S2-  S253  1  0.87560298  0.48748048  0.54641850  1
  S2-  S254  1  0.86751514  0.73330031  0.05128574  1
  S2-  S255  1  0.87442296  0.73373267  0.53901730  1
