# generated using pymatgen
data_La9Ce10Pr6Nd4Sm3(BiS2)32
_symmetry_space_group_name_H-M   'P 1'
_cell_length_a   16.18724645
_cell_length_b   16.12252254
_cell_length_c   27.26870563
_cell_angle_alpha   89.90138420
_cell_angle_beta   90.05184246
_cell_angle_gamma   89.91836692
_symmetry_Int_Tables_number   1
_chemical_formula_structural   La9Ce10Pr6Nd4Sm3(BiS2)32
_chemical_formula_sum   'La18 Ce20 Pr12 Nd8 Sm6 Bi64 S128'
_cell_volume   7116.54553648
_cell_formula_units_Z   2
loop_
 _symmetry_equiv_pos_site_id
 _symmetry_equiv_pos_as_xyz
  1  'x, y, z'
loop_
 _atom_type_symbol
 _atom_type_oxidation_number
  La3+  3.0
  Ce3+  3.0
  Pr3+  3.0
  Nd3+  3.0
  Sm3+  3.0
  Bi2+  2.0
  S2-  -2.0
loop_
 _atom_site_type_symbol
 _atom_site_label
 _atom_site_symmetry_multiplicity
 _atom_site_fract_x
 _atom_site_fract_y
 _atom_site_fract_z
 _atom_site_occupancy
  La3+  La0  1  0.13704230  0.74030562  0.93735366  1
  La3+  La1  1  0.11753804  0.01102005  0.39435642  1
  La3+  La2  1  0.87316925  0.49245085  0.42525099  1
  La3+  La3  1  0.37491858  0.00113436  0.43270623  1
  La3+  La4  1  0.87152030  0.24520123  0.43322950  1
  La3+  La5  1  0.75397022  0.37725505  0.59738415  1
  La3+  La6  1  0.00908031  0.86967303  0.07893069  1
  La3+  La7  1  0.26080011  0.10982338  0.07186078  1
  La3+  La8  1  0.88133001  0.74474056  0.41131269  1
  La3+  La9  1  0.38274824  -0.00665219  0.92004367  1
  La3+  La10  1  0.13113815  0.75131779  0.42787670  1
  La3+  La11  1  0.37248287  0.49038849  0.43504791  1
  La3+  La12  1  0.24732588  0.36662574  0.58484950  1
  La3+  La13  1  0.62047404  0.48519331  0.42578155  1
  La3+  La14  1  0.49951649  0.37474961  0.57235147  1
  La3+  La15  1  0.50779642  0.11185022  0.07453834  1
  La3+  La16  1  0.64571088  0.73972604  0.93213643  1
  La3+  La17  1  0.87974390  0.23911101  0.92351867  1
  Ce3+  Ce18  1  0.62314190  -0.00045266  0.42984981  1
  Ce3+  Ce19  1  0.00950912  0.61420078  0.05769087  1
  Ce3+  Ce20  1  0.13845809  -0.00923170  0.93945398  1
  Ce3+  Ce21  1  0.87289170  -0.00369997  0.43839075  1
  Ce3+  Ce22  1  0.37252856  0.74882565  0.43667536  1
  Ce3+  Ce23  1  0.62515863  0.74373230  0.43220417  1
  Ce3+  Ce24  1  0.13428124  0.48934469  0.94484094  1
  Ce3+  Ce25  1  0.63553937  0.24273738  0.95176070  1
  Ce3+  Ce26  1  0.38829272  0.24164678  0.93790786  1
  Ce3+  Ce27  1  0.01585876  0.11397199  0.06505719  1
  Ce3+  Ce28  1  0.51299586  0.37340273  0.06654079  1
  Ce3+  Ce29  1  0.12443001  0.49174396  0.44464906  1
  Ce3+  Ce30  1  0.76950787  0.36657273  0.06854722  1
  Ce3+  Ce31  1  0.39336779  0.73889209  0.92610204  1
  Ce3+  Ce32  1  0.74858561  0.12068390  0.56598587  1
  Ce3+  Ce33  1  0.24748055  0.62233941  0.55520486  1
  Ce3+  Ce34  1  0.76691309  0.11678817  0.06042102  1
  Ce3+  Ce35  1  0.26464604  0.86610616  0.05506474  1
  Ce3+  Ce36  1  0.74964281  0.86523278  0.55021240  1
  Ce3+  Ce37  1  0.49981845  0.87020475  0.55223209  1
  Pr3+  Pr38  1  0.64002449  0.49314015  0.93795573  1
  Pr3+  Pr39  1  -0.00002537  0.87105472  0.55300394  1
  Pr3+  Pr40  1  0.51137498  0.85929601  0.06255016  1
  Pr3+  Pr41  1  0.76433360  0.61119755  0.07782650  1
  Pr3+  Pr42  1  0.13682977  0.23874092  0.93903683  1
  Pr3+  Pr43  1  0.88566112  -0.00733721  0.93213318  1
  Pr3+  Pr44  1  0.00969328  0.36370203  0.06351594  1
  Pr3+  Pr45  1  0.49829294  0.61992398  0.55679561  1
  Pr3+  Pr46  1  0.75960553  0.86669565  0.06572564  1
  Pr3+  Pr47  1  0.88279944  0.48941133  0.93248114  1
  Pr3+  Pr48  1  0.39143815  0.48996451  0.92680737  1
  Pr3+  Pr49  1  0.25472250  0.11024768  0.58222274  1
  Nd3+  Nd50  1  0.50158475  0.11508114  0.56816416  1
  Nd3+  Nd51  1  -0.00087373  0.12083442  0.56055364  1
  Nd3+  Nd52  1  0.63246658  -0.00733350  0.94349515  1
  Nd3+  Nd53  1  0.37101763  0.24175410  0.45226186  1
  Nd3+  Nd54  1  0.51135805  0.61677527  0.06408467  1
  Nd3+  Nd55  1  0.26350401  0.61698975  0.05561974  1
  Nd3+  Nd56  1  0.75208213  0.62511336  0.55529908  1
  Nd3+  Nd57  1  -0.00512404  0.37122972  0.55909988  1
  Sm3+  Sm58  1  0.62507310  0.24752871  0.44942238  1
  Sm3+  Sm59  1  0.12649868  0.24188893  0.44715637  1
  Sm3+  Sm60  1  0.26401595  0.36773565  0.05719094  1
  Sm3+  Sm61  1  0.24695184  0.87477060  0.55825792  1
  Sm3+  Sm62  1  0.88443413  0.74188500  0.94779248  1
  Sm3+  Sm63  1  -0.00229598  0.62269594  0.54938465  1
  Bi2+  Bi64  1  -0.01343368  0.19508287  0.23789351  1
  Bi2+  Bi65  1  0.03207889  0.12436041  0.79534764  1
  Bi2+  Bi66  1  0.02669056  0.34062033  0.30516045  1
  Bi2+  Bi67  1  0.00577513  0.45850371  0.79217348  1
  Bi2+  Bi68  1  0.00121650  0.58517056  0.27921217  1
  Bi2+  Bi69  1  -0.04823985  0.64546392  0.78870553  1
  Bi2+  Bi70  1  -0.02287715  0.83513088  0.27459694  1
  Bi2+  Bi71  1  -0.02816122  0.93494581  0.78738008  1
  Bi2+  Bi72  1  0.23964034  0.15614128  0.28736376  1
  Bi2+  Bi73  1  0.22728036  0.12020671  0.77922566  1
  Bi2+  Bi74  1  0.24514396  0.34409856  0.29517181  1
  Bi2+  Bi75  1  0.26274061  0.38894833  0.78749480  1
  Bi2+  Bi76  1  0.29714086  0.53037965  0.30855149  1
  Bi2+  Bi77  1  0.23181263  0.64603478  0.80421291  1
  Bi2+  Bi78  1  0.27841001  0.89398099  0.28234963  1
  Bi2+  Bi79  1  0.25315111  0.86861694  0.78848111  1
  Bi2+  Bi80  1  0.49116789  0.14455301  0.28255839  1
  Bi2+  Bi81  1  0.51197776  0.07137954  0.79921788  1
  Bi2+  Bi82  1  0.48998457  0.35482508  0.30411397  1
  Bi2+  Bi83  1  0.50443546  0.33886744  0.78556422  1
  Bi2+  Bi84  1  0.44651514  0.71685899  0.30183777  1
  Bi2+  Bi85  1  0.48137864  0.63880374  0.76953037  1
  Bi2+  Bi86  1  0.51646497  0.89594785  0.28342546  1
  Bi2+  Bi87  1  0.53771082  0.87612689  0.79271614  1
  Bi2+  Bi88  1  0.75066129  0.13118606  0.34195164  1
  Bi2+  Bi89  1  0.74565784  0.11710696  0.78785950  1
  Bi2+  Bi90  1  0.74460176  0.38953204  0.28962774  1
  Bi2+  Bi91  1  0.73374111  0.38802678  0.82244283  1
  Bi2+  Bi92  1  0.74678999  0.66003081  0.28539368  1
  Bi2+  Bi93  1  0.74466678  0.66057040  0.78902158  1
  Bi2+  Bi94  1  0.70190450  0.95920472  0.30090510  1
  Bi2+  Bi95  1  0.78728829  0.85740236  0.77581184  1
  Bi2+  Bi96  1  0.11318535  -0.00382415  0.19428940  1
  Bi2+  Bi97  1  0.12060354  -0.01624434  0.71727923  1
  Bi2+  Bi98  1  0.07227614  0.35793552  0.19176365  1
  Bi2+  Bi99  1  0.08061396  0.27396567  0.70847534  1
  Bi2+  Bi100  1  0.17239829  0.52286613  0.21336679  1
  Bi2+  Bi101  1  0.14975549  0.45516810  0.70130714  1
  Bi2+  Bi102  1  0.19891748  0.69111131  0.26940487  1
  Bi2+  Bi103  1  0.10597467  0.65319816  0.71535241  1
  Bi2+  Bi104  1  0.38229671  0.01087666  0.20720255  1
  Bi2+  Bi105  1  0.38570488  -0.01703075  0.70881025  1
  Bi2+  Bi106  1  0.36906518  0.29177659  0.20775494  1
  Bi2+  Bi107  1  0.35080443  0.24794953  0.72222079  1
  Bi2+  Bi108  1  0.43877857  0.56237554  0.22844646  1
  Bi2+  Bi109  1  0.36630835  0.51314978  0.71190124  1
  Bi2+  Bi110  1  0.35101446  0.74590543  0.19992408  1
  Bi2+  Bi111  1  0.34045091  0.74454183  0.71996671  1
  Bi2+  Bi112  1  0.61647141  0.06916289  0.20891573  1
  Bi2+  Bi113  1  0.64926553  0.03040165  0.67658623  1
  Bi2+  Bi114  1  0.56244010  0.27095887  0.19575137  1
  Bi2+  Bi115  1  0.58101289  0.19779525  0.72185049  1
  Bi2+  Bi116  1  0.61314287  0.46318416  0.21662322  1
  Bi2+  Bi117  1  0.62393597  0.49836243  0.70875340  1
  Bi2+  Bi118  1  0.63601793  0.81498258  0.19309692  1
  Bi2+  Bi119  1  0.62830470  0.83600592  0.69236317  1
  Bi2+  Bi120  1  0.87402675  0.04030288  0.26444717  1
  Bi2+  Bi121  1  0.83702277  0.00790532  0.70641657  1
  Bi2+  Bi122  1  0.79017397  0.22386384  0.23761132  1
  Bi2+  Bi123  1  0.87757717  0.25861784  0.71261774  1
  Bi2+  Bi124  1  0.89057722  0.46566510  0.20470645  1
  Bi2+  Bi125  1  0.87679924  0.52240993  0.70997374  1
  Bi2+  Bi126  1  0.88594574  0.75091193  0.18972334  1
  Bi2+  Bi127  1  0.90616999  0.78960597  0.68781924  1
  S2-  S128  1  -0.02211563  0.00799678  0.14187337  1
  S2-  S129  1  -0.00784930  0.15232709  0.66006768  1
  S2-  S130  1  -0.10531877  0.33493250  0.13930786  1
  S2-  S131  1  -0.08435617  0.38677900  0.64705413  1
  S2-  S132  1  -0.04301202  0.60106991  0.15041300  1
  S2-  S133  1  -0.03005862  0.63745763  0.64656023  1
  S2-  S134  1  0.04564780  0.81426804  0.17529340  1
  S2-  S135  1  0.03818212  0.86518434  0.65277126  1
  S2-  S136  1  0.13671817  0.13155969  0.14510897  1
  S2-  S137  1  0.21847824  0.23237365  0.65471438  1
  S2-  S138  1  0.24406070  0.36338211  0.15543368  1
  S2-  S139  1  0.38096130  0.38197896  0.65320070  1
  S2-  S140  1  0.29458956  0.60097824  0.15251085  1
  S2-  S141  1  0.25051372  0.65549419  0.65149194  1
  S2-  S142  1  0.25654513  0.94346547  0.14323666  1
  S2-  S143  1  0.25021897  0.96302236  0.64609205  1
  S2-  S144  1  0.37847020  0.14138330  0.14615289  1
  S2-  S145  1  0.40181389  0.11201391  0.65129950  1
  S2-  S146  1  0.50093431  0.49593573  0.13909878  1
  S2-  S147  1  0.60142469  0.37129835  0.65432546  1
  S2-  S148  1  0.50617421  0.73770434  0.14177626  1
  S2-  S149  1  0.50390090  0.59180769  0.65727505  1
  S2-  S150  1  0.51349749  0.96911805  0.14394555  1
  S2-  S151  1  0.47130665  0.86106789  0.64957076  1
  S2-  S152  1  0.75650280  0.11516379  0.15823924  1
  S2-  S153  1  0.76935215  0.21700754  0.64636942  1
  S2-  S154  1  0.74545926  0.47483294  0.14641297  1
  S2-  S155  1  0.76194936  0.38982606  0.72861691  1
  S2-  S156  1  0.72536875  0.67998632  0.17396056  1
  S2-  S157  1  0.74524627  0.53923620  0.64313374  1
  S2-  S158  1  0.78482611  0.88130959  0.16616175  1
  S2-  S159  1  0.75616944  0.76297969  0.63021353  1
  S2-  S160  1  0.12085424  -0.06318993  0.29567621  1
  S2-  S161  1  0.22534076  0.00027882  0.85526501  1
  S2-  S162  1  0.11836238  0.17731930  0.35384873  1
  S2-  S163  1  0.14245097  0.24178522  0.83722035  1
  S2-  S164  1  0.07765464  0.49029854  0.34975520  1
  S2-  S165  1  0.15580184  0.49724454  0.84810480  1
  S2-  S166  1  0.03535933  0.73662170  0.34318520  1
  S2-  S167  1  0.13292510  0.77280805  0.83816305  1
  S2-  S168  1  0.27872539  0.02363549  0.34878525  1
  S2-  S169  1  0.39741151  -0.14223835  0.85139699  1
  S2-  S170  1  0.36405061  0.24682043  0.35114770  1
  S2-  S171  1  0.39720716  0.13560939  0.85888142  1
  S2-  S172  1  0.48078567  0.49165950  0.35658537  1
  S2-  S173  1  0.37967516  0.35687035  0.85827250  1
  S2-  S174  1  0.26970819  0.76250702  0.35616823  1
  S2-  S175  1  0.38491055  0.61372016  0.85403744  1
  S2-  S176  1  0.50264109  0.02109663  0.35646958  1
  S2-  S177  1  0.65514645  -0.01613930  0.84369387  1
  S2-  S178  1  0.62330932  0.32226786  0.35888459  1
  S2-  S179  1  0.70272053  0.23392630  0.86081683  1
  S2-  S180  1  0.69188258  0.53499107  0.33446815  1
  S2-  S181  1  0.57123009  0.45421997  0.84128526  1
  S2-  S182  1  0.61232834  0.73456226  0.33337338  1
  S2-  S183  1  0.58004410  0.72180347  0.83678029  1
  S2-  S184  1  0.95103674  0.01531377  0.35210983  1
  S2-  S185  1  0.88235602  0.10689955  0.85325524  1
  S2-  S186  1  0.87807541  0.35934432  0.35330256  1
  S2-  S187  1  0.90142365  0.36811322  0.85278245  1
  S2-  S188  1  0.87747367  0.60240424  0.34301328  1
  S2-  S189  1  0.75974816  0.54157054  0.86212155  1
  S2-  S190  1  0.82610532  0.81072577  0.31935643  1
  S2-  S191  1  0.79236273  0.75738579  0.86510161  1
  S2-  S192  1  -0.00043553  0.12166007  0.45571865  1
  S2-  S193  1  0.01421247  0.11376793  0.95450112  1
  S2-  S194  1  0.00302319  0.36611526  0.45506667  1
  S2-  S195  1  0.01267407  0.36457550  0.95633390  1
  S2-  S196  1  0.00469621  0.61971125  0.44810946  1
  S2-  S197  1  0.00705323  0.61670149  0.94938397  1
  S2-  S198  1  0.00405809  0.87771631  0.44516645  1
  S2-  S199  1  0.00818961  0.86533999  0.95002790  1
  S2-  S200  1  0.24580106  0.12114252  0.46258231  1
  S2-  S201  1  0.26006304  0.11692104  0.96048456  1
  S2-  S202  1  0.24681787  0.36682610  0.45959662  1
  S2-  S203  1  0.25818343  0.36706928  0.95394546  1
  S2-  S204  1  0.24897704  0.61802166  0.45024847  1
  S2-  S205  1  0.25936561  0.61378398  0.95113435  1
  S2-  S206  1  0.24736991  0.88059750  0.45496213  1
  S2-  S207  1  0.26215036  0.86277706  0.95142163  1
  S2-  S208  1  0.50232729  0.12515384  0.46162713  1
  S2-  S209  1  0.51435370  0.11756381  0.96180605  1
  S2-  S210  1  0.49530828  0.36428595  0.46341111  1
  S2-  S211  1  0.51453434  0.36686532  0.95988172  1
  S2-  S212  1  0.49574564  0.62417450  0.45056389  1
  S2-  S213  1  0.51583905  0.61633349  0.95593100  1
  S2-  S214  1  0.50016062  0.86866452  0.44621418  1
  S2-  S215  1  0.51666088  0.86420302  0.95480342  1
  S2-  S216  1  0.74637500  0.11929059  0.45914651  1
  S2-  S217  1  0.75813796  0.11340225  0.95690048  1
  S2-  S218  1  0.74866607  0.36835426  0.45585894  1
  S2-  S219  1  0.76181220  0.36441866  0.96088001  1
  S2-  S220  1  0.74797461  0.62237706  0.44796130  1
  S2-  S221  1  0.76636735  0.61986951  0.96871628  1
  S2-  S222  1  0.74800991  0.87147231  0.44356655  1
  S2-  S223  1  0.76211868  0.87299284  0.95861713  1
  S2-  S224  1  0.13354547  -0.01595744  0.04216172  1
  S2-  S225  1  0.12239606  -0.00255180  0.55116361  1
  S2-  S226  1  0.13988649  0.24600106  0.04514850  1
  S2-  S227  1  0.12042653  0.24708126  0.54990093  1
  S2-  S228  1  0.13720654  0.49173731  0.05222775  1
  S2-  S229  1  0.12236906  0.49585155  0.55236540  1
  S2-  S230  1  0.13551679  0.74155317  0.04820855  1
  S2-  S231  1  0.12506869  0.74754522  0.54090679  1
  S2-  S232  1  0.38728280  -0.01263218  0.03724519  1
  S2-  S233  1  0.37665882  -0.00735603  0.54149830  1
  S2-  S234  1  0.38874887  0.24951540  0.04533013  1
  S2-  S235  1  0.37389989  0.24184407  0.55499196  1
  S2-  S236  1  0.38284447  0.49114730  0.03764586  1
  S2-  S237  1  0.36863446  0.49675566  0.54509065  1
  S2-  S238  1  0.38455783  0.73862617  0.03742056  1
  S2-  S239  1  0.37064267  0.74870182  0.54413817  1
  S2-  S240  1  0.64035939  -0.00673425  0.04857036  1
  S2-  S241  1  0.62471884  -0.00795245  0.54040714  1
  S2-  S242  1  0.63731356  0.24208617  0.05764330  1
  S2-  S243  1  0.62254866  0.24149933  0.55281537  1
  S2-  S244  1  0.63867390  0.49108225  0.04364944  1
  S2-  S245  1  0.62377880  0.49907520  0.54011084  1
  S2-  S246  1  0.64207676  0.73783153  0.04496108  1
  S2-  S247  1  0.62002562  0.74480814  0.53810094  1
  S2-  S248  1  0.88386318  -0.01053094  0.03907075  1
  S2-  S249  1  0.87259872  -0.00488952  0.54790874  1
  S2-  S250  1  0.89031076  0.23337953  0.03698168  1
  S2-  S251  1  0.87500543  0.24526028  0.54230266  1
  S2-  S252  1  0.88907694  0.49083320  0.04121866  1
  S2-  S253  1  0.87744659  0.49973736  0.53767296  1
  S2-  S254  1  0.88723075  0.74317566  0.05112583  1
  S2-  S255  1  0.87883978  0.74624163  0.52727612  1
