# generated using pymatgen
data_La9Ce10Pr6Nd4Sm3(BiS2)32
_symmetry_space_group_name_H-M   'P 1'
_cell_length_a   16.09557732
_cell_length_b   16.13151166
_cell_length_c   27.05952293
_cell_angle_alpha   90.06591507
_cell_angle_beta   90.22219664
_cell_angle_gamma   89.93670767
_symmetry_Int_Tables_number   1
_chemical_formula_structural   La9Ce10Pr6Nd4Sm3(BiS2)32
_chemical_formula_sum   'La18 Ce20 Pr12 Nd8 Sm6 Bi64 S128'
_cell_volume   7025.83497548
_cell_formula_units_Z   2
loop_
 _symmetry_equiv_pos_site_id
 _symmetry_equiv_pos_as_xyz
  1  'x, y, z'
loop_
 _atom_type_symbol
 _atom_type_oxidation_number
  La3+  3.0
  Ce3+  3.0
  Pr3+  3.0
  Nd3+  3.0
  Sm3+  3.0
  Bi2+  2.0
  S2-  -2.0
loop_
 _atom_site_type_symbol
 _atom_site_label
 _atom_site_symmetry_multiplicity
 _atom_site_fract_x
 _atom_site_fract_y
 _atom_site_fract_z
 _atom_site_occupancy
  La3+  La0  1  0.87595492  0.23585836  0.41205234  1
  La3+  La1  1  0.51828341  0.35163832  0.56689705  1
  La3+  La2  1  0.85822039  0.00807654  0.92901323  1
  La3+  La3  1  0.51274216  0.85958652  0.58338627  1
  La3+  La4  1  0.35473073  0.76087377  0.89440840  1
  La3+  La5  1  0.51143828  0.60469469  0.58141299  1
  La3+  La6  1  0.61864568  0.49238112  0.40659261  1
  La3+  La7  1  0.48377747  0.38391278  0.07394437  1
  La3+  La8  1  0.75452420  0.12703390  0.56761806  1
  La3+  La9  1  0.62077347  0.74794122  0.91958985  1
  La3+  La10  1  0.10136857  0.50536639  0.91825229  1
  La3+  La11  1  0.48408117  0.13539136  0.07511828  1
  La3+  La12  1  0.25069908  0.61069179  0.57905039  1
  La3+  La13  1  0.72963662  0.88227977  0.06962866  1
  La3+  La14  1  0.73374635  0.63663330  0.08823658  1
  La3+  La15  1  0.74595542  0.37615053  0.08824433  1
  La3+  La16  1  0.13454173  0.72789665  0.42657399  1
  La3+  La17  1  0.11481179  0.00542407  0.94826712  1
  Ce3+  Ce18  1  0.23857457  0.38720749  0.05472170  1
  Ce3+  Ce19  1  0.86211598  0.50966576  0.95243961  1
  Ce3+  Ce20  1  0.36655698  0.26198883  0.93379460  1
  Ce3+  Ce21  1  0.11450553  0.76081353  0.94140689  1
  Ce3+  Ce22  1  0.63021922  -0.01217949  0.43949271  1
  Ce3+  Ce23  1  0.00261903  0.86425462  0.56468430  1
  Ce3+  Ce24  1  0.10959266  0.25788243  0.94760627  1
  Ce3+  Ce25  1  0.24071883  0.13493476  0.05998889  1
  Ce3+  Ce26  1  0.51181601  0.10859290  0.56575251  1
  Ce3+  Ce27  1  0.00290086  0.11475381  0.55585706  1
  Ce3+  Ce28  1  0.38215625  0.23511178  0.44866297  1
  Ce3+  Ce29  1  0.48910988  0.63564478  0.05686892  1
  Ce3+  Ce30  1  0.61755071  0.25783085  0.94485753  1
  Ce3+  Ce31  1  0.24757421  0.88202586  0.06632726  1
  Ce3+  Ce32  1  0.13492618  0.23465232  0.44061748  1
  Ce3+  Ce33  1  0.36597376  0.00929234  0.93362956  1
  Ce3+  Ce34  1  0.85791277  0.25437315  0.93894705  1
  Ce3+  Ce35  1  0.38329885  0.48545628  0.45203580  1
  Ce3+  Ce36  1  0.61788966  0.22950390  0.40855140  1
  Ce3+  Ce37  1  0.36532583  0.50595980  0.93228048  1
  Pr3+  Pr38  1  0.87885343  0.49383923  0.41407624  1
  Pr3+  Pr39  1  -0.00784846  0.63639308  0.06671884  1
  Pr3+  Pr40  1  0.48597996  0.88000144  0.05482198  1
  Pr3+  Pr41  1  0.12734120  -0.02274385  0.43472401  1
  Pr3+  Pr42  1  -0.01227671  0.88113757  0.07709873  1
  Pr3+  Pr43  1  0.75880303  0.87193713  0.57843701  1
  Pr3+  Pr44  1  -0.00623695  0.39153858  0.07273410  1
  Pr3+  Pr45  1  0.25440132  0.85903426  0.56618068  1
  Pr3+  Pr46  1  0.75590345  0.60468763  0.56379696  1
  Pr3+  Pr47  1  0.00134204  0.36061089  0.55753461  1
  Pr3+  Pr48  1  0.73418593  0.12998392  0.07204154  1
  Pr3+  Pr49  1  0.87954106  -0.01082408  0.43605473  1
  Nd3+  Nd50  1  -0.01478446  0.13338012  0.06729532  1
  Nd3+  Nd51  1  0.37933768  -0.01693322  0.44344072  1
  Nd3+  Nd52  1  0.23930696  0.63222937  0.04821675  1
  Nd3+  Nd53  1  0.38221330  0.73158147  0.44236072  1
  Nd3+  Nd54  1  0.61603865  0.50854065  0.95011090  1
  Nd3+  Nd55  1  0.00566845  0.60762458  0.55912924  1
  Nd3+  Nd56  1  0.13256422  0.48332885  0.43640905  1
  Nd3+  Nd57  1  0.63142826  0.73592181  0.44351834  1
  Sm3+  Sm58  1  0.87794511  0.73442432  0.44690764  1
  Sm3+  Sm59  1  0.61126728  0.00500141  0.93700069  1
  Sm3+  Sm60  1  0.24797546  0.35753639  0.59054453  1
  Sm3+  Sm61  1  0.75522898  0.36232373  0.53235501  1
  Sm3+  Sm62  1  0.25876243  0.10683022  0.57005617  1
  Sm3+  Sm63  1  0.86457895  0.76470488  0.94299702  1
  Bi2+  Bi64  1  0.03899133  -0.03968931  0.27830189  1
  Bi2+  Bi65  1  0.02771575  0.12887379  0.79482794  1
  Bi2+  Bi66  1  0.05265870  0.38475724  0.28427809  1
  Bi2+  Bi67  1  -0.07210111  0.39666587  0.77163539  1
  Bi2+  Bi68  1  0.01140923  0.69771427  0.29313771  1
  Bi2+  Bi69  1  0.00940619  0.60779977  0.79566631  1
  Bi2+  Bi70  1  -0.15210538  0.91288941  0.31590090  1
  Bi2+  Bi71  1  -0.03236555  0.80019860  0.78063578  1
  Bi2+  Bi72  1  0.24273484  0.15519860  0.28400816  1
  Bi2+  Bi73  1  0.32131744  0.14549572  0.82444332  1
  Bi2+  Bi74  1  0.25451671  0.40736374  0.28770854  1
  Bi2+  Bi75  1  0.26295283  0.32355205  0.78914423  1
  Bi2+  Bi76  1  0.24194577  0.60673681  0.28927556  1
  Bi2+  Bi77  1  0.25935378  0.65413759  0.77827763  1
  Bi2+  Bi78  1  0.23530844  0.88033178  0.30656063  1
  Bi2+  Bi79  1  0.20015980  0.90779270  0.78697332  1
  Bi2+  Bi80  1  0.47747633  0.10033002  0.29307100  1
  Bi2+  Bi81  1  0.51941449  0.19974458  0.82792601  1
  Bi2+  Bi82  1  0.45589453  0.37522919  0.28986618  1
  Bi2+  Bi83  1  0.53050038  0.39292777  0.79850855  1
  Bi2+  Bi84  1  0.47910159  0.64908518  0.29817209  1
  Bi2+  Bi85  1  0.50374631  0.57797673  0.77743688  1
  Bi2+  Bi86  1  0.46875708  0.84781183  0.28770873  1
  Bi2+  Bi87  1  0.46920981  1.01770576  0.79557199  1
  Bi2+  Bi88  1  0.80712258  0.09868678  0.27067781  1
  Bi2+  Bi89  1  0.75707093  0.13964987  0.79527511  1
  Bi2+  Bi90  1  0.75864986  0.36697711  0.28296128  1
  Bi2+  Bi91  1  0.73125768  0.40078251  0.79441746  1
  Bi2+  Bi92  1  0.75423488  0.63934442  0.27931843  1
  Bi2+  Bi93  1  0.74045272  0.59835375  0.78956404  1
  Bi2+  Bi94  1  0.65670771  0.87869269  0.31966103  1
  Bi2+  Bi95  1  0.75135239  0.86048892  0.80548837  1
  Bi2+  Bi96  1  0.16588900  -0.07957013  0.19418377  1
  Bi2+  Bi97  1  0.04908680  -0.07361047  0.69585000  1
  Bi2+  Bi98  1  0.11972155  0.20545999  0.20032304  1
  Bi2+  Bi99  1  0.08696741  0.28036245  0.74042130  1
  Bi2+  Bi100  1  0.15181276  0.39532570  0.18276788  1
  Bi2+  Bi101  1  0.13629562  0.48755469  0.71134654  1
  Bi2+  Bi102  1  0.14199362  0.72587359  0.21191886  1
  Bi2+  Bi103  1  0.12037637  0.74388291  0.71045910  1
  Bi2+  Bi104  1  0.34456982  0.00183885  0.21534518  1
  Bi2+  Bi105  1  0.24150370  0.08610730  0.72177859  1
  Bi2+  Bi106  1  0.35266887  0.26188838  0.20921910  1
  Bi2+  Bi107  1  0.41400365  0.18907614  0.71500544  1
  Bi2+  Bi108  1  0.37154066  0.53671639  0.20508346  1
  Bi2+  Bi109  1  0.39438075  0.38523038  0.71118774  1
  Bi2+  Bi110  1  0.36998980  0.74766064  0.20604500  1
  Bi2+  Bi111  1  0.36430508  0.85393807  0.70093127  1
  Bi2+  Bi112  1  0.66099576  -0.01279821  0.21876185  1
  Bi2+  Bi113  1  0.60850886  -0.02028471  0.71775580  1
  Bi2+  Bi114  1  0.62436612  0.23541789  0.21012857  1
  Bi2+  Bi115  1  0.62309457  0.22747178  0.72599297  1
  Bi2+  Bi116  1  0.56425436  0.51799515  0.22297495  1
  Bi2+  Bi117  1  0.67788050  0.47127619  0.68812802  1
  Bi2+  Bi118  1  0.62429578  0.77118425  0.20927461  1
  Bi2+  Bi119  1  0.59133618  0.72985838  0.72572986  1
  Bi2+  Bi120  1  0.84337452  -0.00220133  0.16680395  1
  Bi2+  Bi121  1  0.87517881  0.01406428  0.70545147  1
  Bi2+  Bi122  1  0.92421700  0.24657970  0.20581771  1
  Bi2+  Bi123  1  0.84005680  0.25151497  0.71127172  1
  Bi2+  Bi124  1  0.93901634  0.51569700  0.22237660  1
  Bi2+  Bi125  1  0.89742842  0.48738479  0.66786819  1
  Bi2+  Bi126  1  0.89674494  0.82895880  0.21602405  1
  Bi2+  Bi127  1  0.87299850  0.66105675  0.71287866  1
  S2-  S128  1  -0.00608958  0.09307978  0.16616988  1
  S2-  S129  1  -0.08642589  0.14626675  0.63928116  1
  S2-  S130  1  -0.11015438  0.38482998  0.15778932  1
  S2-  S131  1  0.09564672  0.36007376  0.64494848  1
  S2-  S132  1  0.04596903  0.52526129  0.14293432  1
  S2-  S133  1  0.09889090  0.60865801  0.64481427  1
  S2-  S134  1  -0.00134076  0.75107296  0.14754977  1
  S2-  S135  1  -0.10108719  0.87039737  0.64573943  1
  S2-  S136  1  0.33625366  0.12439254  0.14277683  1
  S2-  S137  1  0.26543522  0.21557534  0.65113705  1
  S2-  S138  1  0.33096263  0.39489059  0.13980376  1
  S2-  S139  1  0.27419675  0.48850620  0.65810395  1
  S2-  S140  1  0.26051977  0.64087968  0.14915467  1
  S2-  S141  1  0.26259959  0.74998862  0.64921551  1
  S2-  S142  1  0.37014933  0.88104242  0.13945853  1
  S2-  S143  1  0.26573251  0.98115003  0.64444319  1
  S2-  S144  1  0.60738160  0.10338354  0.14951498  1
  S2-  S145  1  0.59912709  0.21765367  0.62642784  1
  S2-  S146  1  0.49560276  0.26686549  0.15139401  1
  S2-  S147  1  0.51695775  0.45934672  0.65048284  1
  S2-  S148  1  0.57285549  0.64141701  0.14589505  1
  S2-  S149  1  0.47125046  0.73302190  0.65580496  1
  S2-  S150  1  0.58902922  0.88881375  0.14191180  1
  S2-  S151  1  0.49693425  1.00206189  0.64987417  1
  S2-  S152  1  0.76785464  0.22845555  0.15713403  1
  S2-  S153  1  0.73921916  0.02194848  0.65163603  1
  S2-  S154  1  0.65742219  0.40302255  0.18099500  1
  S2-  S155  1  0.79020394  0.35886179  0.63247907  1
  S2-  S156  1  0.80467436  0.58409833  0.18583586  1
  S2-  S157  1  0.65695374  0.61893653  0.64918984  1
  S2-  S158  1  0.76096728  0.77664764  0.15231577  1
  S2-  S159  1  0.65059521  0.84121605  0.66041033  1
  S2-  S160  1  0.15571787  0.04088510  0.34059406  1
  S2-  S161  1  0.10516105  0.00664327  0.84618055  1
  S2-  S162  1  0.14458100  0.26460824  0.34279536  1
  S2-  S163  1  0.09342271  0.26906318  0.84954771  1
  S2-  S164  1  0.10963138  0.58807448  0.35452527  1
  S2-  S165  1  0.15778901  0.51950268  0.81974826  1
  S2-  S166  1  0.08314045  0.84003341  0.35140956  1
  S2-  S167  1  0.18593569  0.76646328  0.84941363  1
  S2-  S168  1  0.37928966  -0.02571894  0.34203812  1
  S2-  S169  1  0.34529571  -0.07524624  0.84776142  1
  S2-  S170  1  0.43866674  0.22612181  0.35482232  1
  S2-  S171  1  0.37120469  0.38042402  0.85893672  1
  S2-  S172  1  0.44757181  0.50732314  0.35998878  1
  S2-  S173  1  0.37189818  0.59955610  0.84694706  1
  S2-  S174  1  0.28108301  0.73674831  0.35722237  1
  S2-  S175  1  0.38506810  0.76035470  0.78002087  1
  S2-  S176  1  0.60444558  0.07163815  0.35234864  1
  S2-  S177  1  0.71587925  0.00803908  0.85572233  1
  S2-  S178  1  0.74835987  0.22459916  0.33428916  1
  S2-  S179  1  0.73013396  0.27054579  0.86725302  1
  S2-  S180  1  0.60668113  0.36019509  0.33379857  1
  S2-  S181  1  0.60788526  0.58980626  0.85810768  1
  S2-  S182  1  0.62592582  0.65395699  0.35270832  1
  S2-  S183  1  0.59840083  0.82066953  0.82169059  1
  S2-  S184  1  0.91108701  0.09031065  0.34913571  1
  S2-  S185  1  0.90319907  -0.12020310  0.86218043  1
  S2-  S186  1  0.90943285  0.36735791  0.33860310  1
  S2-  S187  1  0.89540388  0.13976422  0.85846894  1
  S2-  S188  1  0.75699750  0.50584727  0.33562231  1
  S2-  S189  1  0.94015757  0.49599435  0.86268371  1
  S2-  S190  1  0.87820616  0.67416912  0.35192384  1
  S2-  S191  1  0.77549530  0.71848265  0.85966402  1
  S2-  S192  1  0.01158677  0.11214718  0.45173836  1
  S2-  S193  1  -0.00966838  0.13104800  0.96229826  1
  S2-  S194  1  0.00942059  0.36098061  0.44885497  1
  S2-  S195  1  -0.01582559  0.37827957  0.96235021  1
  S2-  S196  1  0.00270385  0.60997296  0.45472457  1
  S2-  S197  1  -0.01251487  0.63977592  0.95531617  1
  S2-  S198  1  -0.00135347  0.85792079  0.45883847  1
  S2-  S199  1  -0.00804841  0.88244999  0.96811414  1
  S2-  S200  1  0.25658214  0.10792051  0.45919078  1
  S2-  S201  1  0.23832225  0.13572346  0.95308126  1
  S2-  S202  1  0.25853732  0.36090469  0.44833876  1
  S2-  S203  1  0.23145999  0.38384810  0.94956556  1
  S2-  S204  1  0.25694942  0.60647744  0.46283890  1
  S2-  S205  1  0.23402764  0.63094143  0.94327134  1
  S2-  S206  1  0.25517961  0.85969669  0.45788680  1
  S2-  S207  1  0.24215631  0.88073832  0.95709140  1
  S2-  S208  1  0.50085925  0.10640246  0.45911902  1
  S2-  S209  1  0.48962719  0.13298157  0.95506147  1
  S2-  S210  1  0.50441131  0.36079317  0.45557895  1
  S2-  S211  1  0.49417813  0.38268413  0.96089156  1
  S2-  S212  1  0.50701567  0.61250252  0.46560064  1
  S2-  S213  1  0.48563648  0.63478655  0.95249749  1
  S2-  S214  1  0.50506564  0.85857814  0.45043092  1
  S2-  S215  1  0.48883144  0.87939370  0.94338396  1
  S2-  S216  1  0.75473902  0.10884249  0.44935722  1
  S2-  S217  1  0.73418987  0.12984408  0.96333416  1
  S2-  S218  1  0.75240728  0.36923287  0.43293484  1
  S2-  S219  1  0.74048327  0.38699097  0.96793030  1
  S2-  S220  1  0.75524097  0.61081621  0.45596621  1
  S2-  S221  1  0.74120496  0.63013745  0.96799269  1
  S2-  S222  1  0.75735878  0.85972421  0.45781123  1
  S2-  S223  1  0.73328594  0.88160544  0.95809200  1
  S2-  S224  1  0.11579275  0.00827675  0.05739938  1
  S2-  S225  1  0.12663957  -0.01087087  0.54510054  1
  S2-  S226  1  0.11348698  0.25840758  0.05493504  1
  S2-  S227  1  0.13437974  0.23362918  0.54692571  1
  S2-  S228  1  0.11525312  0.50940331  0.03172238  1
  S2-  S229  1  0.13288701  0.47998312  0.54196925  1
  S2-  S230  1  0.11994404  0.76190428  0.04728810  1
  S2-  S231  1  0.12399801  0.73820355  0.54222444  1
  S2-  S232  1  0.36259546  0.00999743  0.03841548  1
  S2-  S233  1  0.38383119  -0.01747147  0.54665339  1
  S2-  S234  1  0.35997412  0.26010482  0.03965519  1
  S2-  S235  1  0.38199610  0.23367388  0.55343789  1
  S2-  S236  1  0.36500649  0.51086074  0.03956616  1
  S2-  S237  1  0.37751945  0.47545097  0.55439689  1
  S2-  S238  1  0.36302109  0.75371811  0.04126673  1
  S2-  S239  1  0.38257207  0.73502894  0.54641876  1
  S2-  S240  1  0.60782801  0.00974072  0.03940223  1
  S2-  S241  1  0.63380752  -0.01252116  0.54448621  1
  S2-  S242  1  0.61519709  0.26067085  0.04948711  1
  S2-  S243  1  0.63897104  0.23749454  0.51771000  1
  S2-  S244  1  0.61516581  0.50347243  0.05567960  1
  S2-  S245  1  0.63397919  0.48196220  0.54156778  1
  S2-  S246  1  0.61151684  0.75526900  0.03775702  1
  S2-  S247  1  0.63600208  0.73907500  0.54803507  1
  S2-  S248  1  0.86344447  0.00638329  0.04719867  1
  S2-  S249  1  0.87962555  -0.00701736  0.54230667  1
  S2-  S250  1  0.86709283  0.25676577  0.04778582  1
  S2-  S251  1  0.88097029  0.23945746  0.52723403  1
  S2-  S252  1  0.86234225  0.51364033  0.05685846  1
  S2-  S253  1  0.88172384  0.48592010  0.53094229  1
  S2-  S254  1  0.86352535  0.75928088  0.04743302  1
  S2-  S255  1  0.87993392  0.73193465  0.55160695  1
