# generated using pymatgen
data_La9Ce10Pr6Nd4Sm3(BiS2)32
_symmetry_space_group_name_H-M   'P 1'
_cell_length_a   16.12834405
_cell_length_b   16.13111883
_cell_length_c   27.34621596
_cell_angle_alpha   90.19295705
_cell_angle_beta   90.44291566
_cell_angle_gamma   89.98187571
_symmetry_Int_Tables_number   1
_chemical_formula_structural   La9Ce10Pr6Nd4Sm3(BiS2)32
_chemical_formula_sum   'La18 Ce20 Pr12 Nd8 Sm6 Bi64 S128'
_cell_volume   7114.36350220
_cell_formula_units_Z   2
loop_
 _symmetry_equiv_pos_site_id
 _symmetry_equiv_pos_as_xyz
  1  'x, y, z'
loop_
 _atom_type_symbol
 _atom_type_oxidation_number
  La3+  3.0
  Ce3+  3.0
  Pr3+  3.0
  Nd3+  3.0
  Sm3+  3.0
  Bi2+  2.0
  S2-  -2.0
loop_
 _atom_site_type_symbol
 _atom_site_label
 _atom_site_symmetry_multiplicity
 _atom_site_fract_x
 _atom_site_fract_y
 _atom_site_fract_z
 _atom_site_occupancy
  La3+  La0  1  0.34380432  0.49583050  0.93468163  1
  La3+  La1  1  0.72457491  0.62372921  0.06219142  1
  La3+  La2  1  0.75400455  0.87225297  0.57524560  1
  La3+  La3  1  0.61538700  0.24981712  0.42970042  1
  La3+  La4  1  0.59820525  0.24733347  0.93188410  1
  La3+  La5  1  -0.02823186  0.62217006  0.07204887  1
  La3+  La6  1  0.12692574  0.50544329  0.41446847  1
  La3+  La7  1  0.85719346  -0.00228128  0.43215943  1
  La3+  La8  1  0.49443988  0.12751339  0.57513434  1
  La3+  La9  1  0.86446558  0.50270572  0.41232380  1
  La3+  La10  1  0.22060042  0.62774276  0.06129002  1
  La3+  La11  1  -0.00851164  0.61376900  0.56837336  1
  La3+  La12  1  0.58892994  -0.00385088  0.92828503  1
  La3+  La13  1  0.48381957  0.62562395  0.58878778  1
  La3+  La14  1  0.09210896  0.48924093  0.92615653  1
  La3+  La15  1  0.09241819  0.75384485  0.92501112  1
  La3+  La16  1  0.37094538  -0.00397500  0.43749055  1
  La3+  La17  1  0.11608361  0.23890061  0.41192475  1
  Ce3+  Ce18  1  0.49457536  0.37642261  0.56972518  1
  Ce3+  Ce19  1  0.85197253  0.74645677  0.93930310  1
  Ce3+  Ce20  1  0.36788864  0.74626953  0.44971572  1
  Ce3+  Ce21  1  0.22133515  0.12357041  0.07078047  1
  Ce3+  Ce22  1  0.09438774  -0.00078742  0.94249739  1
  Ce3+  Ce23  1  0.61569553  0.74390016  0.45786702  1
  Ce3+  Ce24  1  0.85221162  0.49696773  0.94075544  1
  Ce3+  Ce25  1  0.24105070  0.37545747  0.54566504  1
  Ce3+  Ce26  1  0.22538386  0.86906968  0.05469441  1
  Ce3+  Ce27  1  0.49595184  0.87511024  0.57897874  1
  Ce3+  Ce28  1  0.23788887  0.62197834  0.56866231  1
  Ce3+  Ce29  1  0.72500112  0.36844343  0.06203404  1
  Ce3+  Ce30  1  -0.02458950  0.86965453  0.06419404  1
  Ce3+  Ce31  1  0.84376601  0.00002860  0.93813437  1
  Ce3+  Ce32  1  0.34793356  0.00066710  0.93709129  1
  Ce3+  Ce33  1  0.36935827  0.50091476  0.44324131  1
  Ce3+  Ce34  1  0.72101014  0.87359661  0.04848083  1
  Ce3+  Ce35  1  0.33767429  0.74486234  0.92571070  1
  Ce3+  Ce36  1  0.37385213  0.24824483  0.43971888  1
  Ce3+  Ce37  1  0.59081955  0.74360511  0.92618576  1
  Pr3+  Pr38  1  0.61409297  -0.00650011  0.44260077  1
  Pr3+  Pr39  1  0.24078751  0.12736039  0.55862769  1
  Pr3+  Pr40  1  0.61496543  0.50826049  0.43653302  1
  Pr3+  Pr41  1  0.10404786  -0.00477280  0.43029801  1
  Pr3+  Pr42  1  0.09289325  0.24425367  0.93864608  1
  Pr3+  Pr43  1  -0.02720094  0.12112721  0.07341492  1
  Pr3+  Pr44  1  -0.00518897  0.37339911  0.54861650  1
  Pr3+  Pr45  1  0.84599233  0.24523198  0.93791996  1
  Pr3+  Pr46  1  0.22375784  0.37842650  0.06741960  1
  Pr3+  Pr47  1  -0.00697770  0.13070786  0.56046619  1
  Pr3+  Pr48  1  0.47381614  0.36833153  0.06112358  1
  Pr3+  Pr49  1  -0.02434587  0.37486818  0.07498163  1
  Nd3+  Nd50  1  0.72103590  0.11933751  0.06503558  1
  Nd3+  Nd51  1  -0.00047093  0.87464441  0.56527144  1
  Nd3+  Nd52  1  0.74413677  0.12628687  0.56144596  1
  Nd3+  Nd53  1  0.11590231  0.74575982  0.43852854  1
  Nd3+  Nd54  1  0.86476213  0.25096236  0.42905766  1
  Nd3+  Nd55  1  0.47305727  0.62651536  0.05811723  1
  Nd3+  Nd56  1  0.23806050  0.87582733  0.55973779  1
  Nd3+  Nd57  1  0.47352385  0.86686967  0.05800349  1
  Sm3+  Sm58  1  0.74267511  0.37496880  0.55274955  1
  Sm3+  Sm59  1  0.46914398  0.10974858  0.07481038  1
  Sm3+  Sm60  1  0.59792058  0.49872785  0.94854213  1
  Sm3+  Sm61  1  0.74755725  0.61588521  0.56447459  1
  Sm3+  Sm62  1  0.35098620  0.24311492  0.94183171  1
  Sm3+  Sm63  1  0.86789344  0.74347129  0.44239728  1
  Bi2+  Bi64  1  0.01450392  0.07780402  0.28141260  1
  Bi2+  Bi65  1  0.06803365  0.12214443  0.80872439  1
  Bi2+  Bi66  1  0.02023797  0.32255075  0.27602099  1
  Bi2+  Bi67  1  -0.01820788  0.36659899  0.79642739  1
  Bi2+  Bi68  1  -0.01120921  0.58661719  0.29145418  1
  Bi2+  Bi69  1  0.06349041  0.63480817  0.80474852  1
  Bi2+  Bi70  1  0.04340016  0.85433320  0.29145211  1
  Bi2+  Bi71  1  -0.00937599  0.86453824  0.78720347  1
  Bi2+  Bi72  1  0.29873581  0.15780552  0.31940562  1
  Bi2+  Bi73  1  0.25259109  0.13507315  0.84051588  1
  Bi2+  Bi74  1  0.33784611  0.41068656  0.27334118  1
  Bi2+  Bi75  1  0.17279475  0.34629820  0.75902349  1
  Bi2+  Bi76  1  0.25224941  0.64774751  0.29150720  1
  Bi2+  Bi77  1  0.30419237  0.61373641  0.79316752  1
  Bi2+  Bi78  1  0.22965382  0.90120584  0.26120385  1
  Bi2+  Bi79  1  0.25543458  0.94704499  0.80608958  1
  Bi2+  Bi80  1  0.56226894  0.09822311  0.31556759  1
  Bi2+  Bi81  1  0.59881323  0.17578383  0.80008498  1
  Bi2+  Bi82  1  0.50378655  0.45684131  0.32444300  1
  Bi2+  Bi83  1  0.50505521  0.39471365  0.79130280  1
  Bi2+  Bi84  1  0.46596342  0.65618282  0.30406640  1
  Bi2+  Bi85  1  0.56523875  0.64182853  0.80097160  1
  Bi2+  Bi86  1  0.57437050  0.79734248  0.25145184  1
  Bi2+  Bi87  1  0.53035061  0.92818460  0.78680224  1
  Bi2+  Bi88  1  0.80024530  0.10887731  0.29810729  1
  Bi2+  Bi89  1  0.79846999  0.14944884  0.79848278  1
  Bi2+  Bi90  1  0.66249153  0.36073805  0.28829676  1
  Bi2+  Bi91  1  0.73928893  0.44240787  0.75432612  1
  Bi2+  Bi92  1  0.72596478  0.62873562  0.29549064  1
  Bi2+  Bi93  1  0.77386797  0.63744278  0.78027585  1
  Bi2+  Bi94  1  0.75432784  0.82867147  0.29278476  1
  Bi2+  Bi95  1  0.82165861  0.95891743  0.75492650  1
  Bi2+  Bi96  1  0.00348428  -0.03306083  0.18895059  1
  Bi2+  Bi97  1  0.10796414  -0.00866369  0.71998650  1
  Bi2+  Bi98  1  0.21225749  0.16976837  0.21280486  1
  Bi2+  Bi99  1  0.12673787  0.18346129  0.69421730  1
  Bi2+  Bi100  1  0.13999260  0.46009275  0.20653913  1
  Bi2+  Bi101  1  0.14005552  0.50735430  0.69639871  1
  Bi2+  Bi102  1  0.13326343  0.73791892  0.21353718  1
  Bi2+  Bi103  1  0.21913278  0.75164445  0.69470068  1
  Bi2+  Bi104  1  0.39401622  0.00292992  0.28037962  1
  Bi2+  Bi105  1  0.35472884  0.01938446  0.71741048  1
  Bi2+  Bi106  1  0.40703657  0.24441179  0.22637761  1
  Bi2+  Bi107  1  0.35448634  0.26149257  0.77412288  1
  Bi2+  Bi108  1  0.37801636  0.56834709  0.20821909  1
  Bi2+  Bi109  1  0.37863026  0.41774934  0.70540968  1
  Bi2+  Bi110  1  0.37326382  0.83187315  0.19323529  1
  Bi2+  Bi111  1  0.37596778  0.83081802  0.74013915  1
  Bi2+  Bi112  1  0.59412156  -0.02497126  0.19956045  1
  Bi2+  Bi113  1  0.61609282  0.05828685  0.70963560  1
  Bi2+  Bi114  1  0.60340055  0.20736680  0.22778959  1
  Bi2+  Bi115  1  0.64029319  0.30062905  0.69739423  1
  Bi2+  Bi116  1  0.55920265  0.48387196  0.20947001  1
  Bi2+  Bi117  1  0.63877097  0.58737716  0.69739432  1
  Bi2+  Bi118  1  0.65222571  0.64806442  0.18876669  1
  Bi2+  Bi119  1  0.63455356  0.78371463  0.71712094  1
  Bi2+  Bi120  1  0.80827285  -0.04013143  0.20932144  1
  Bi2+  Bi121  1  0.93168035  0.05492487  0.68129786  1
  Bi2+  Bi122  1  0.82533020  0.22676361  0.21182429  1
  Bi2+  Bi123  1  0.91239631  0.23794904  0.71786348  1
  Bi2+  Bi124  1  0.86139211  0.46382671  0.20110682  1
  Bi2+  Bi125  1  0.90596777  0.51507329  0.71360997  1
  Bi2+  Bi126  1  0.89747545  0.78115523  0.22244115  1
  Bi2+  Bi127  1  0.88546911  0.75144921  0.71630733  1
  S2-  S128  1  0.09969609  0.10881266  0.14794835  1
  S2-  S129  1  0.00122289  0.25910962  0.63201746  1
  S2-  S130  1  -0.04056655  0.30701457  0.17286506  1
  S2-  S131  1  0.00703839  0.46914857  0.63803021  1
  S2-  S132  1  0.00208593  0.50704064  0.14905213  1
  S2-  S133  1  0.10911638  0.64840006  0.64538523  1
  S2-  S134  1  -0.00322437  0.75423873  0.14072435  1
  S2-  S135  1  -0.10505358  0.86479652  0.64453472  1
  S2-  S136  1  0.33700648  0.13379353  0.14520451  1
  S2-  S137  1  0.28230151  0.13413776  0.65713445  1
  S2-  S138  1  0.20140496  0.32187221  0.16407772  1
  S2-  S139  1  0.24084167  0.38890293  0.64452391  1
  S2-  S140  1  0.23968378  0.52331959  0.14293506  1
  S2-  S141  1  0.32282792  0.63236939  0.65610533  1
  S2-  S142  1  0.23447863  0.76586296  0.13484025  1
  S2-  S143  1  0.13325998  0.87816338  0.63996151  1
  S2-  S144  1  0.60295506  0.11805630  0.14075918  1
  S2-  S145  1  0.50231651  0.25875121  0.64569589  1
  S2-  S146  1  0.48111347  0.35070593  0.16126979  1
  S2-  S147  1  0.50606775  0.48573139  0.65112939  1
  S2-  S148  1  0.47073343  0.74426472  0.13258397  1
  S2-  S149  1  0.49838435  0.76502148  0.65585666  1
  S2-  S150  1  0.45762312  0.96267641  0.14394554  1
  S2-  S151  1  0.48721588  1.00366809  0.64790848  1
  S2-  S152  1  0.83876032  0.11385213  0.14327234  1
  S2-  S153  1  0.72381711  0.16123513  0.65948909  1
  S2-  S154  1  0.74363430  0.36952746  0.15963282  1
  S2-  S155  1  0.76159610  0.39981660  0.65064868  1
  S2-  S156  1  0.81009938  0.60573813  0.15111846  1
  S2-  S157  1  0.85727367  0.62675180  0.64195434  1
  S2-  S158  1  0.70042235  0.86422973  0.14449797  1
  S2-  S159  1  0.68655071  0.91636507  0.66728544  1
  S2-  S160  1  0.14529589  0.08087175  0.34609169  1
  S2-  S161  1  0.10261548  -0.09205402  0.85852267  1
  S2-  S162  1  0.18046537  0.27971362  0.31773193  1
  S2-  S163  1  0.12311055  0.34825363  0.85666582  1
  S2-  S164  1  0.09364643  0.46648912  0.31194835  1
  S2-  S165  1  0.17508011  0.53356527  0.83478132  1
  S2-  S166  1  0.11246151  0.65770001  0.35238096  1
  S2-  S167  1  0.20313250  0.72358312  0.84506614  1
  S2-  S168  1  0.49232692  -0.03607162  0.36642669  1
  S2-  S169  1  0.45293779  0.00728618  0.85772824  1
  S2-  S170  1  0.47872226  0.22745603  0.36219943  1
  S2-  S171  1  0.46356037  0.24642946  0.86138765  1
  S2-  S172  1  0.28876856  0.51141831  0.35503065  1
  S2-  S173  1  0.37687664  0.48192407  0.83576663  1
  S2-  S174  1  0.34940810  0.75567076  0.35129684  1
  S2-  S175  1  0.42476273  0.71349372  0.84343506  1
  S2-  S176  1  0.72362279  0.00105174  0.35906176  1
  S2-  S177  1  0.68164607  0.04212468  0.84635652  1
  S2-  S178  1  0.74160863  0.24559709  0.35357789  1
  S2-  S179  1  0.72751874  0.26315654  0.85794949  1
  S2-  S180  1  0.71478198  0.48866193  0.35220886  1
  S2-  S181  1  0.60674616  0.48588119  0.85097345  1
  S2-  S182  1  0.60716619  0.67200227  0.36902481  1
  S2-  S183  1  0.62394674  0.80025690  0.83455517  1
  S2-  S184  1  0.96881875  -0.02721480  0.35539834  1
  S2-  S185  1  0.89624143  -0.01373968  0.84471384  1
  S2-  S186  1  0.97064826  0.22799340  0.34752750  1
  S2-  S187  1  0.96278091  0.21992455  0.86112127  1
  S2-  S188  1  0.90009223  0.44260129  0.30478204  1
  S2-  S189  1  0.94893852  0.49755382  0.85844293  1
  S2-  S190  1  0.87184056  0.65614450  0.35572854  1
  S2-  S191  1  0.95022261  0.73510421  0.85805180  1
  S2-  S192  1  -0.01446401  0.12255707  0.45378037  1
  S2-  S193  1  -0.02958227  0.11733753  0.96511844  1
  S2-  S194  1  -0.00703353  0.37904495  0.43898144  1
  S2-  S195  1  -0.03150496  0.36934538  0.96288158  1
  S2-  S196  1  -0.00731297  0.62171753  0.45490542  1
  S2-  S197  1  -0.02940170  0.62175637  0.96198211  1
  S2-  S198  1  -0.01113509  0.86595695  0.45760237  1
  S2-  S199  1  -0.03259775  0.87736752  0.95894825  1
  S2-  S200  1  0.24657580  0.12202156  0.45207259  1
  S2-  S201  1  0.22293417  0.12324428  0.96104902  1
  S2-  S202  1  0.24518567  0.36840988  0.44134565  1
  S2-  S203  1  0.22881477  0.36609380  0.95854103  1
  S2-  S204  1  0.24447321  0.62643410  0.45983988  1
  S2-  S205  1  0.21866236  0.61867570  0.95301855  1
  S2-  S206  1  0.23759306  0.87569410  0.45107731  1
  S2-  S207  1  0.22613252  0.87668798  0.95209888  1
  S2-  S208  1  0.49271567  0.11999951  0.46629543  1
  S2-  S209  1  0.47037096  0.12301553  0.96543685  1
  S2-  S210  1  0.49325135  0.37794609  0.45990112  1
  S2-  S211  1  0.47452932  0.37560424  0.95602437  1
  S2-  S212  1  0.48828460  0.62373027  0.47001867  1
  S2-  S213  1  0.47262648  0.61854676  0.95294064  1
  S2-  S214  1  0.49207222  0.86640547  0.47126688  1
  S2-  S215  1  0.46794970  0.86484572  0.95025337  1
  S2-  S216  1  0.73806255  0.12532064  0.45734909  1
  S2-  S217  1  0.72096851  0.12065020  0.95987028  1
  S2-  S218  1  0.74138039  0.37792506  0.45056307  1
  S2-  S219  1  0.72279402  0.37828845  0.95739043  1
  S2-  S220  1  0.74543522  0.62353931  0.46171606  1
  S2-  S221  1  0.72399348  0.62176544  0.94968845  1
  S2-  S222  1  0.74286385  0.86478592  0.46089970  1
  S2-  S223  1  0.72287097  0.86975891  0.94309878  1
  S2-  S224  1  0.09983458  -0.00800009  0.04675272  1
  S2-  S225  1  0.11473774  0.00414567  0.53924228  1
  S2-  S226  1  0.09719499  0.24999706  0.04801634  1
  S2-  S227  1  0.12055317  0.24884116  0.52874508  1
  S2-  S228  1  0.09828556  0.49685433  0.03954037  1
  S2-  S229  1  0.12154106  0.49796250  0.53139360  1
  S2-  S230  1  0.09712392  0.75192864  0.03435602  1
  S2-  S231  1  0.11659784  0.74831180  0.54075550  1
  S2-  S232  1  0.34479401  -0.00583101  0.04247704  1
  S2-  S233  1  0.36235986  -0.00232388  0.54654841  1
  S2-  S234  1  0.34809787  0.24863844  0.04532488  1
  S2-  S235  1  0.36657722  0.25078397  0.54487430  1
  S2-  S236  1  0.35449546  0.49870967  0.04340696  1
  S2-  S237  1  0.36592314  0.49879550  0.54799306  1
  S2-  S238  1  0.34732778  0.74528882  0.03076738  1
  S2-  S239  1  0.36213418  0.75424402  0.55376427  1
  S2-  S240  1  0.59470521  -0.00714915  0.03787010  1
  S2-  S241  1  0.62446251  -0.00268103  0.54966044  1
  S2-  S242  1  0.59899959  0.24751375  0.04395683  1
  S2-  S243  1  0.62244178  0.25117992  0.54164516  1
  S2-  S244  1  0.59732435  0.49827576  0.05351235  1
  S2-  S245  1  0.62173254  0.50078736  0.54642141  1
  S2-  S246  1  0.60175077  0.74498812  0.03376984  1
  S2-  S247  1  0.62741918  0.74341267  0.56113606  1
  S2-  S248  1  0.84853625  -0.00763167  0.04490083  1
  S2-  S249  1  0.87000590  0.00240997  0.54333465  1
  S2-  S250  1  0.84875255  0.24831762  0.04656303  1
  S2-  S251  1  0.86289418  0.25082279  0.53710361  1
  S2-  S252  1  0.84691192  0.49357771  0.04530636  1
  S2-  S253  1  0.86474140  0.49416650  0.53500186  1
  S2-  S254  1  0.84681919  0.75032496  0.04451324  1
  S2-  S255  1  0.87157273  0.74539966  0.54341084  1
