# generated using pymatgen
data_La9Ce10Pr6Nd4Sm3(BiS2)32
_symmetry_space_group_name_H-M   'P 1'
_cell_length_a   16.16257616
_cell_length_b   16.21929144
_cell_length_c   27.10984366
_cell_angle_alpha   89.87716709
_cell_angle_beta   90.09558952
_cell_angle_gamma   89.93746029
_symmetry_Int_Tables_number   1
_chemical_formula_structural   La9Ce10Pr6Nd4Sm3(BiS2)32
_chemical_formula_sum   'La18 Ce20 Pr12 Nd8 Sm6 Bi64 S128'
_cell_volume   7106.69393340
_cell_formula_units_Z   2
loop_
 _symmetry_equiv_pos_site_id
 _symmetry_equiv_pos_as_xyz
  1  'x, y, z'
loop_
 _atom_type_symbol
 _atom_type_oxidation_number
  La3+  3.0
  Ce3+  3.0
  Pr3+  3.0
  Nd3+  3.0
  Sm3+  3.0
  Bi2+  2.0
  S2-  -2.0
loop_
 _atom_site_type_symbol
 _atom_site_label
 _atom_site_symmetry_multiplicity
 _atom_site_fract_x
 _atom_site_fract_y
 _atom_site_fract_z
 _atom_site_occupancy
  La3+  La0  1  0.51717593  0.39650475  0.07699042  1
  La3+  La1  1  0.60509103  -0.00006082  0.43437545  1
  La3+  La2  1  0.76994250  0.62790997  0.07990375  1
  La3+  La3  1  0.10247883  0.50400077  0.42572417  1
  La3+  La4  1  0.02539981  0.14081413  0.08999277  1
  La3+  La5  1  0.76445810  0.88652689  0.08147951  1
  La3+  La6  1  0.22795405  0.61614679  0.57521998  1
  La3+  La7  1  -0.02061659  0.87786139  0.56733218  1
  La3+  La8  1  0.26481869  0.88680045  0.06792340  1
  La3+  La9  1  0.51305155  0.64019265  0.06589134  1
  La3+  La10  1  0.22551156  0.12874573  0.55478129  1
  La3+  La11  1  0.75925273  0.13871072  0.08357873  1
  La3+  La12  1  0.88085470  0.26067843  0.93544817  1
  La3+  La13  1  0.39935319  0.51344571  0.92323927  1
  La3+  La14  1  0.65123646  0.51587242  0.92671001  1
  La3+  La15  1  0.01314266  0.88781880  0.07946091  1
  La3+  La16  1  0.35910923  0.25709038  0.42120431  1
  La3+  La17  1  0.48190006  0.63400651  0.57771562  1
  Ce3+  Ce18  1  0.88452959  0.01206470  0.95141063  1
  Ce3+  Ce19  1  0.22657362  0.87981543  0.56178137  1
  Ce3+  Ce20  1  0.01644828  0.63227541  0.06652826  1
  Ce3+  Ce21  1  0.09609985  -0.00037183  0.42300933  1
  Ce3+  Ce22  1  0.47775875  0.37791761  0.55634771  1
  Ce3+  Ce23  1  -0.02138453  0.62501652  0.55607679  1
  Ce3+  Ce24  1  0.13975557  0.01367578  0.94575656  1
  Ce3+  Ce25  1  0.85674107  0.50373628  0.42857546  1
  Ce3+  Ce26  1  0.13980130  0.25759512  0.93996642  1
  Ce3+  Ce27  1  0.73457813  0.12452453  0.56118663  1
  Ce3+  Ce28  1  0.26928005  0.13396470  0.05946972  1
  Ce3+  Ce29  1  0.47258079  0.12437466  0.56790593  1
  Ce3+  Ce30  1  0.26727305  0.38700261  0.06036200  1
  Ce3+  Ce31  1  0.76945055  0.38531225  0.06781769  1
  Ce3+  Ce32  1  0.26324003  0.63479434  0.05378270  1
  Ce3+  Ce33  1  0.64480363  0.75777640  0.94626071  1
  Ce3+  Ce34  1  0.51351123  0.13152342  0.06826055  1
  Ce3+  Ce35  1  0.60277755  0.25246181  0.44928495  1
  Ce3+  Ce36  1  0.85497609  0.25262393  0.43360697  1
  Ce3+  Ce37  1  0.10820062  0.75415258  0.44614808  1
  Pr3+  Pr38  1  0.51656257  0.88431710  0.07256357  1
  Pr3+  Pr39  1  0.39073919  0.76376008  0.93300040  1
  Pr3+  Pr40  1  0.09975920  0.24381402  0.41248366  1
  Pr3+  Pr41  1  0.72927298  0.37765592  0.55436386  1
  Pr3+  Pr42  1  -0.01707963  0.37500929  0.55368033  1
  Pr3+  Pr43  1  0.23071899  0.37702581  0.54557914  1
  Pr3+  Pr44  1  0.89177393  0.76231792  0.94768839  1
  Pr3+  Pr45  1  0.35201117  0.51296040  0.41678253  1
  Pr3+  Pr46  1  0.40152305  0.00950232  0.92793854  1
  Pr3+  Pr47  1  0.60206095  0.50576330  0.43994621  1
  Pr3+  Pr48  1  -0.02201037  0.12723224  0.55814264  1
  Pr3+  Pr49  1  0.13826415  0.76625883  0.93780686  1
  Nd3+  Nd50  1  0.64577649  0.01182463  0.94164549  1
  Nd3+  Nd51  1  0.73281892  0.62470143  0.55736181  1
  Nd3+  Nd52  1  0.85135663  0.00003018  0.42724097  1
  Nd3+  Nd53  1  0.39388943  0.26243027  0.94949078  1
  Nd3+  Nd54  1  0.85524878  0.75271162  0.43147421  1
  Nd3+  Nd55  1  0.01838560  0.37967061  0.06590479  1
  Nd3+  Nd56  1  0.73288437  0.87596878  0.56312478  1
  Nd3+  Nd57  1  0.14202216  0.50785649  0.93914099  1
  Sm3+  Sm58  1  0.63900868  0.26361115  0.95595592  1
  Sm3+  Sm59  1  0.35551302  0.75183163  0.44684801  1
  Sm3+  Sm60  1  0.60217294  0.75184455  0.44546870  1
  Sm3+  Sm61  1  0.35844246  0.00583032  0.43302478  1
  Sm3+  Sm62  1  0.89150596  0.51207222  0.94576385  1
  Sm3+  Sm63  1  0.47231596  0.88413663  0.57288437  1
  Bi2+  Bi64  1  -0.01040842  0.10757909  0.28950918  1
  Bi2+  Bi65  1  0.01830666  0.09542757  0.74695886  1
  Bi2+  Bi66  1  0.00805048  0.36606490  0.28732686  1
  Bi2+  Bi67  1  0.01361869  0.34516764  0.78527537  1
  Bi2+  Bi68  1  0.06606667  0.60236223  0.28837016  1
  Bi2+  Bi69  1  -0.00551842  0.65808107  0.79171608  1
  Bi2+  Bi70  1  0.05288366  0.80932897  0.25234042  1
  Bi2+  Bi71  1  -0.02079748  0.92704860  0.80011158  1
  Bi2+  Bi72  1  0.28987881  0.02952539  0.28312227  1
  Bi2+  Bi73  1  0.19713921  0.11793442  0.79913415  1
  Bi2+  Bi74  1  0.25350922  0.43577101  0.27302849  1
  Bi2+  Bi75  1  0.24903035  0.28980549  0.75077458  1
  Bi2+  Bi76  1  0.30387316  0.68445974  0.26186967  1
  Bi2+  Bi77  1  0.25388045  0.60396779  0.80164433  1
  Bi2+  Bi78  1  0.22083786  0.84603609  0.30950865  1
  Bi2+  Bi79  1  0.24424526  0.87402007  0.78858367  1
  Bi2+  Bi80  1  0.54675811  0.12282108  0.30724744  1
  Bi2+  Bi81  1  0.41109209  0.11113912  0.80134995  1
  Bi2+  Bi82  1  0.50291161  0.38155975  0.28494304  1
  Bi2+  Bi83  1  0.44084180  0.38937253  0.78764800  1
  Bi2+  Bi84  1  0.49145995  0.63933418  0.28748921  1
  Bi2+  Bi85  1  0.52603546  0.62185874  0.79145140  1
  Bi2+  Bi86  1  0.42121046  0.87078408  0.29522369  1
  Bi2+  Bi87  1  0.52465556  0.89370117  0.79769165  1
  Bi2+  Bi88  1  0.76979320  0.16404511  0.26290473  1
  Bi2+  Bi89  1  0.76991881  0.14676248  0.80790487  1
  Bi2+  Bi90  1  0.77160245  0.36326827  0.29114884  1
  Bi2+  Bi91  1  0.75330210  0.39135837  0.79335478  1
  Bi2+  Bi92  1  0.78191058  0.56119440  0.30206699  1
  Bi2+  Bi93  1  0.71914405  0.65138933  0.76053725  1
  Bi2+  Bi94  1  0.71247666  0.85793532  0.30190034  1
  Bi2+  Bi95  1  0.79319817  0.86738685  0.79995864  1
  Bi2+  Bi96  1  0.13160563  -0.01306293  0.22023985  1
  Bi2+  Bi97  1  0.17827762  0.03626899  0.69399884  1
  Bi2+  Bi98  1  0.15833999  0.25045986  0.21408791  1
  Bi2+  Bi99  1  0.09912483  0.31006281  0.68163634  1
  Bi2+  Bi100  1  0.07900637  0.47943229  0.19562796  1
  Bi2+  Bi101  1  0.08654488  0.51509005  0.73493531  1
  Bi2+  Bi102  1  0.13349641  0.66715989  0.18529980  1
  Bi2+  Bi103  1  0.06687793  0.80811826  0.72398698  1
  Bi2+  Bi104  1  0.38239578  0.01871029  0.15405368  1
  Bi2+  Bi105  1  0.40006025  -0.02262659  0.72093666  1
  Bi2+  Bi106  1  0.40021328  0.16655940  0.23683690  1
  Bi2+  Bi107  1  0.42232198  0.23466227  0.70264900  1
  Bi2+  Bi108  1  0.38143470  0.48041635  0.19309875  1
  Bi2+  Bi109  1  0.34375618  0.50178506  0.69654707  1
  Bi2+  Bi110  1  0.34766149  0.83574796  0.19087484  1
  Bi2+  Bi111  1  0.38130854  0.75961620  0.70802563  1
  Bi2+  Bi112  1  0.54994335  0.00968476  0.21689693  1
  Bi2+  Bi113  1  0.64850611  0.00815927  0.70881684  1
  Bi2+  Bi114  1  0.64691900  0.28713820  0.20775080  1
  Bi2+  Bi115  1  0.61096690  0.19043922  0.73411316  1
  Bi2+  Bi116  1  0.64775875  0.55680429  0.21943668  1
  Bi2+  Bi117  1  0.61683588  0.47979509  0.69402270  1
  Bi2+  Bi118  1  0.59352190  0.78709049  0.22074712  1
  Bi2+  Bi119  1  0.64398682  0.81467916  0.71909187  1
  Bi2+  Bi120  1  0.86914308  -0.03290966  0.23282162  1
  Bi2+  Bi121  1  0.85702102  -0.00576793  0.71185994  1
  Bi2+  Bi122  1  0.83967227  0.28089659  0.18200530  1
  Bi2+  Bi123  1  0.79418401  0.23941087  0.70825899  1
  Bi2+  Bi124  1  0.88018955  0.47607681  0.21006598  1
  Bi2+  Bi125  1  0.89383274  0.47922493  0.73657943  1
  Bi2+  Bi126  1  0.86331892  0.72122316  0.22368924  1
  Bi2+  Bi127  1  0.90347497  0.72083348  0.69380866  1
  S2-  S128  1  -0.00803914  0.05364263  0.17858496  1
  S2-  S129  1  0.10100938  0.14986303  0.63125852  1
  S2-  S130  1  0.02369967  0.28298809  0.15235830  1
  S2-  S131  1  -0.04906042  0.37831542  0.65375128  1
  S2-  S132  1  -0.08025546  0.63223585  0.15010600  1
  S2-  S133  1  0.02366032  0.61797817  0.65080570  1
  S2-  S134  1  -0.11114739  0.86218784  0.15688435  1
  S2-  S135  1  0.10797770  0.90102249  0.63888145  1
  S2-  S136  1  0.18763120  0.14020333  0.14752775  1
  S2-  S137  1  0.33951538  0.14467873  0.63428339  1
  S2-  S138  1  0.25673510  0.36348441  0.15947109  1
  S2-  S139  1  0.22581662  0.45713533  0.63668628  1
  S2-  S140  1  0.29222914  0.61274345  0.14972797  1
  S2-  S141  1  0.26953386  0.65772636  0.67415166  1
  S2-  S142  1  0.14776562  0.87975324  0.14752765  1
  S2-  S143  1  0.33154499  0.88156004  0.64237659  1
  S2-  S144  1  0.59650013  0.14300159  0.15342669  1
  S2-  S145  1  0.50934940  0.01086763  0.64189845  1
  S2-  S146  1  0.48636005  0.34287762  0.17779038  1
  S2-  S147  1  0.47588310  0.38993254  0.65526631  1
  S2-  S148  1  0.52391347  0.53530995  0.14820258  1
  S2-  S149  1  0.48493326  0.59156455  0.67989203  1
  S2-  S150  1  0.48419425  0.75735608  0.14545854  1
  S2-  S151  1  0.51266828  0.77686844  0.64724531  1
  S2-  S152  1  0.77981750  0.05918561  0.17551362  1
  S2-  S153  1  0.85237801  0.12711012  0.63575937  1
  S2-  S154  1  0.74132836  0.48552264  0.14600557  1
  S2-  S155  1  0.71968331  0.37438758  0.65553272  1
  S2-  S156  1  0.71804167  0.70063043  0.17000135  1
  S2-  S157  1  0.71684085  0.60677116  0.65742726  1
  S2-  S158  1  0.63466327  0.90316662  0.15124273  1
  S2-  S159  1  0.84989111  0.86827107  0.63993031  1
  S2-  S160  1  0.12242129  0.10564306  0.34502669  1
  S2-  S161  1  0.13771722  -0.03651924  0.85181080  1
  S2-  S162  1  0.15747413  0.30699139  0.31769392  1
  S2-  S163  1  0.15328032  0.27902983  0.84246961  1
  S2-  S164  1  0.20890493  0.53275641  0.34635998  1
  S2-  S165  1  0.10258230  0.53675767  0.84260357  1
  S2-  S166  1  0.07478776  0.74848952  0.34881885  1
  S2-  S167  1  0.18275132  0.74866023  0.83962003  1
  S2-  S168  1  0.48220462  -0.01984827  0.36151824  1
  S2-  S169  1  0.37589430  -0.11673060  0.85598152  1
  S2-  S170  1  0.36228395  0.15198493  0.34012789  1
  S2-  S171  1  0.43351229  0.25939058  0.85164666  1
  S2-  S172  1  0.37223410  0.38511366  0.34362382  1
  S2-  S173  1  0.30773063  0.46506405  0.83782370  1
  S2-  S174  1  0.37248298  0.66235453  0.36109584  1
  S2-  S175  1  0.39863506  0.65676749  0.84852149  1
  S2-  S176  1  0.72325582  -0.00566169  0.35453457  1
  S2-  S177  1  0.54071759  0.02847666  0.85980073  1
  S2-  S178  1  0.57444826  0.26928852  0.35282771  1
  S2-  S179  1  0.69705673  0.27190376  0.86270216  1
  S2-  S180  1  0.55581413  0.51065863  0.34131894  1
  S2-  S181  1  0.53343978  0.48228251  0.85182786  1
  S2-  S182  1  0.59710098  0.75608691  0.34574195  1
  S2-  S183  1  0.64813678  0.67109798  0.85917815  1
  S2-  S184  1  0.96296893  -0.02138625  0.34901196  1
  S2-  S185  1  0.77737246  0.00472664  0.87019598  1
  S2-  S186  1  0.94798713  0.24408931  0.35008633  1
  S2-  S187  1  0.91294432  0.23976534  0.83591454  1
  S2-  S188  1  0.97020683  0.50482239  0.35170502  1
  S2-  S189  1  0.80048200  0.49385203  0.86167252  1
  S2-  S190  1  0.83432668  0.73553419  0.33099412  1
  S2-  S191  1  0.87565482  0.73640470  0.84714552  1
  S2-  S192  1  -0.02731135  0.12429079  0.45115855  1
  S2-  S193  1  0.01229829  0.13540715  0.94815854  1
  S2-  S194  1  -0.02318615  0.37604246  0.44768886  1
  S2-  S195  1  0.01318619  0.38494514  0.95301441  1
  S2-  S196  1  -0.02152898  0.63184678  0.45077968  1
  S2-  S197  1  0.01635428  0.63410334  0.95596212  1
  S2-  S198  1  -0.02344863  0.87186127  0.45597397  1
  S2-  S199  1  0.01290458  0.88967593  0.96151537  1
  S2-  S200  1  0.23426401  0.12510371  0.44646742  1
  S2-  S201  1  0.27068410  0.13400609  0.95005012  1
  S2-  S202  1  0.22864939  0.37845543  0.44110681  1
  S2-  S203  1  0.26545149  0.38292658  0.95342204  1
  S2-  S204  1  0.22986251  0.63050917  0.46022701  1
  S2-  S205  1  0.26090966  0.63597118  0.94896489  1
  S2-  S206  1  0.23389435  0.87971808  0.45069743  1
  S2-  S207  1  0.26207673  0.88868413  0.95890206  1
  S2-  S208  1  0.48066251  0.12776868  0.45832283  1
  S2-  S209  1  0.51929672  0.13988561  0.96207060  1
  S2-  S210  1  0.48112150  0.38236106  0.45217315  1
  S2-  S211  1  0.51761653  0.38434359  0.96302274  1
  S2-  S212  1  0.48257081  0.63129399  0.46357131  1
  S2-  S213  1  0.51717990  0.63923266  0.95789942  1
  S2-  S214  1  0.47849165  0.87059642  0.46407526  1
  S2-  S215  1  0.52236880  0.88235616  0.95995957  1
  S2-  S216  1  0.72995250  0.13168180  0.45301993  1
  S2-  S217  1  0.76219438  0.13921178  0.97004085  1
  S2-  S218  1  0.72876594  0.38037591  0.44596357  1
  S2-  S219  1  0.76637804  0.38633860  0.96422218  1
  S2-  S220  1  0.72961769  0.62914073  0.44960923  1
  S2-  S221  1  0.77324319  0.63577898  0.96564642  1
  S2-  S222  1  0.73004363  0.86946376  0.45644112  1
  S2-  S223  1  0.76612911  0.88194010  0.96895111  1
  S2-  S224  1  0.13802887  0.01488769  0.04936537  1
  S2-  S225  1  0.10072289  0.00283032  0.53116075  1
  S2-  S226  1  0.14473826  0.26000455  0.04402855  1
  S2-  S227  1  0.10438582  0.25591485  0.52565442  1
  S2-  S228  1  0.13931800  0.50664439  0.04787938  1
  S2-  S229  1  0.10125536  0.50164609  0.53662434  1
  S2-  S230  1  0.13696931  0.75789444  0.04539114  1
  S2-  S231  1  0.10549596  0.74701516  0.55078209  1
  S2-  S232  1  0.39261535  0.00834754  0.03822853  1
  S2-  S233  1  0.35288238  0.00139418  0.53721850  1
  S2-  S234  1  0.39228076  0.26111807  0.05689373  1
  S2-  S235  1  0.35697298  0.25742346  0.53361332  1
  S2-  S236  1  0.38677884  0.51087317  0.04059996  1
  S2-  S237  1  0.35931968  0.50438897  0.54141476  1
  S2-  S238  1  0.38270024  0.76174976  0.04037904  1
  S2-  S239  1  0.35094418  0.74862093  0.54939205  1
  S2-  S240  1  0.63954103  0.01406604  0.04928753  1
  S2-  S241  1  0.61294972  -0.00055852  0.54279823  1
  S2-  S242  1  0.63911236  0.26730164  0.05869134  1
  S2-  S243  1  0.60507813  0.24841898  0.55636813  1
  S2-  S244  1  0.64257069  0.51203149  0.04098076  1
  S2-  S245  1  0.60451228  0.50435775  0.54807537  1
  S2-  S246  1  0.64470133  0.75888356  0.05091204  1
  S2-  S247  1  0.61384931  0.75121362  0.54897124  1
  S2-  S248  1  0.89255774  0.01848901  0.05674027  1
  S2-  S249  1  0.85301495  0.00015120  0.53515320  1
  S2-  S250  1  0.89382369  0.25729251  0.04797711  1
  S2-  S251  1  0.85363043  0.25547900  0.53926991  1
  S2-  S252  1  0.89832086  0.50322244  0.04948122  1
  S2-  S253  1  0.85522424  0.50039616  0.54017745  1
  S2-  S254  1  0.89368399  0.75869352  0.05233225  1
  S2-  S255  1  0.85479833  0.74719275  0.53999133  1
