# generated using pymatgen
data_La9Ce10Pr6Nd4Sm3(BiS2)32
_symmetry_space_group_name_H-M   'P 1'
_cell_length_a   16.18217002
_cell_length_b   16.14371162
_cell_length_c   27.14761691
_cell_angle_alpha   89.85943015
_cell_angle_beta   90.12978256
_cell_angle_gamma   89.99815083
_symmetry_Int_Tables_number   1
_chemical_formula_structural   La9Ce10Pr6Nd4Sm3(BiS2)32
_chemical_formula_sum   'La18 Ce20 Pr12 Nd8 Sm6 Bi64 S128'
_cell_volume   7092.01166809
_cell_formula_units_Z   2
loop_
 _symmetry_equiv_pos_site_id
 _symmetry_equiv_pos_as_xyz
  1  'x, y, z'
loop_
 _atom_type_symbol
 _atom_type_oxidation_number
  La3+  3.0
  Ce3+  3.0
  Pr3+  3.0
  Nd3+  3.0
  Sm3+  3.0
  Bi2+  2.0
  S2-  -2.0
loop_
 _atom_site_type_symbol
 _atom_site_label
 _atom_site_symmetry_multiplicity
 _atom_site_fract_x
 _atom_site_fract_y
 _atom_site_fract_z
 _atom_site_occupancy
  La3+  La0  1  0.01173725  0.39522321  0.09989366  1
  La3+  La1  1  0.37153219  0.24883995  0.89310960  1
  La3+  La2  1  0.85768606  0.26152562  0.41281141  1
  La3+  La3  1  0.48895838  0.12890983  0.56074436  1
  La3+  La4  1  0.72959879  0.88195549  0.56685935  1
  La3+  La5  1  0.49531661  0.14394968  0.08492776  1
  La3+  La6  1  0.38906948  0.51450861  0.91422856  1
  La3+  La7  1  0.72648449  0.62947906  0.56925876  1
  La3+  La8  1  0.00071745  0.88657629  0.07377263  1
  La3+  La9  1  0.50622665  0.87326571  0.09513542  1
  La3+  La10  1  0.63856460  0.76100700  0.92432687  1
  La3+  La11  1  0.13588011  0.51225889  0.93604152  1
  La3+  La12  1  -0.02018086  0.62963463  0.57267003  1
  La3+  La13  1  0.74108580  0.37196784  0.56282658  1
  La3+  La14  1  0.87233163  0.01258800  0.92846635  1
  La3+  La15  1  0.75266425  0.13881519  0.07719708  1
  La3+  La16  1  0.23717917  0.12486423  0.57528856  1
  La3+  La17  1  0.26144611  0.64432391  0.07124786  1
  Ce3+  Ce18  1  0.35354898  0.00129484  0.43632178  1
  Ce3+  Ce19  1  0.88199908  0.76690356  0.93447592  1
  Ce3+  Ce20  1  0.11152327  0.74629491  0.44138627  1
  Ce3+  Ce21  1  0.00333931  0.63111054  0.05654466  1
  Ce3+  Ce22  1  0.86170281  0.00215828  0.43500266  1
  Ce3+  Ce23  1  0.62792594  0.01001670  0.95260048  1
  Ce3+  Ce24  1  0.13511009  0.26194998  0.94369237  1
  Ce3+  Ce25  1  -0.01655732  0.37570191  0.55754744  1
  Ce3+  Ce26  1  0.61097995  0.75477379  0.43443978  1
  Ce3+  Ce27  1  0.11146390  0.50846208  0.43854029  1
  Ce3+  Ce28  1  0.25524803  0.13785470  0.06428818  1
  Ce3+  Ce29  1  0.48382104  0.62776827  0.55830317  1
  Ce3+  Ce30  1  0.23265591  0.61681226  0.57269586  1
  Ce3+  Ce31  1  0.11665602  0.00366943  0.43438422  1
  Ce3+  Ce32  1  0.73553015  0.12933587  0.54243086  1
  Ce3+  Ce33  1  0.36043550  0.50211256  0.44596406  1
  Ce3+  Ce34  1  0.61089407  0.50080926  0.44303933  1
  Ce3+  Ce35  1  0.87838474  0.50739152  0.94086621  1
  Ce3+  Ce36  1  0.50004281  0.38396019  0.04992087  1
  Ce3+  Ce37  1  0.60332524  0.24706999  0.42190829  1
  Pr3+  Pr38  1  0.00662326  0.13757100  0.06476487  1
  Pr3+  Pr39  1  0.88188317  0.25754928  0.94549658  1
  Pr3+  Pr40  1  0.75140985  0.38437869  0.06864026  1
  Pr3+  Pr41  1  0.48178092  0.87551697  0.56339780  1
  Pr3+  Pr42  1  0.23517073  0.37742857  0.56842573  1
  Pr3+  Pr43  1  0.75612362  0.88651779  0.07094806  1
  Pr3+  Pr44  1  0.25731174  0.38829651  0.06247022  1
  Pr3+  Pr45  1  0.35631712  0.74922447  0.44091763  1
  Pr3+  Pr46  1  0.38164308  0.01017176  0.94470449  1
  Pr3+  Pr47  1  0.22930895  0.87382371  0.56933530  1
  Pr3+  Pr48  1  0.63846039  0.49811877  0.92504894  1
  Pr3+  Pr49  1  0.60112243  -0.00516284  0.42146055  1
  Nd3+  Nd50  1  0.75445573  0.63583984  0.05579112  1
  Nd3+  Nd51  1  0.86161010  0.50739103  0.43248585  1
  Nd3+  Nd52  1  0.35980504  0.25388918  0.43670443  1
  Nd3+  Nd53  1  -0.01501205  0.12755587  0.54989328  1
  Nd3+  Nd54  1  0.50987725  0.63587347  0.05205831  1
  Nd3+  Nd55  1  0.11121304  0.26214709  0.43238482  1
  Nd3+  Nd56  1  0.85857914  0.75075321  0.43507370  1
  Nd3+  Nd57  1  0.49235562  0.37346378  0.57202479  1
  Sm3+  Sm58  1  -0.01610455  0.87748118  0.55224150  1
  Sm3+  Sm59  1  0.62781618  0.25660576  0.94268559  1
  Sm3+  Sm60  1  0.13111222  0.01019525  0.94772869  1
  Sm3+  Sm61  1  0.12859383  0.76138278  0.94943405  1
  Sm3+  Sm62  1  0.25957244  0.88396179  0.05646914  1
  Sm3+  Sm63  1  0.38076778  0.75840788  0.93287502  1
  Bi2+  Bi64  1  0.08180596  0.02666673  0.30305293  1
  Bi2+  Bi65  1  0.03122704  0.14318696  0.81214281  1
  Bi2+  Bi66  1  0.01781311  0.33141915  0.29416085  1
  Bi2+  Bi67  1  -0.03923890  0.33485978  0.78479525  1
  Bi2+  Bi68  1  0.00748968  0.64260287  0.28146706  1
  Bi2+  Bi69  1  -0.01806864  0.62512519  0.77961886  1
  Bi2+  Bi70  1  0.03420754  0.83836281  0.32775580  1
  Bi2+  Bi71  1  0.02547008  0.81397429  0.79335462  1
  Bi2+  Bi72  1  0.26891968  0.22728850  0.29612468  1
  Bi2+  Bi73  1  0.24836617  0.05284105  0.78277903  1
  Bi2+  Bi74  1  0.25317918  0.42538711  0.28770104  1
  Bi2+  Bi75  1  0.22551048  0.36892618  0.78062679  1
  Bi2+  Bi76  1  0.26105756  0.67747579  0.30615138  1
  Bi2+  Bi77  1  0.21518385  0.62828437  0.78650491  1
  Bi2+  Bi78  1  0.21741025  0.87426027  0.28496662  1
  Bi2+  Bi79  1  0.31507620  0.86476803  0.78852140  1
  Bi2+  Bi80  1  0.47561546  0.13376116  0.28752246  1
  Bi2+  Bi81  1  0.55796132  0.09605343  0.77249323  1
  Bi2+  Bi82  1  0.49078510  0.39061498  0.28527456  1
  Bi2+  Bi83  1  0.52033254  0.38750954  0.79261508  1
  Bi2+  Bi84  1  0.53117363  0.60969104  0.27962334  1
  Bi2+  Bi85  1  0.47084856  0.64394396  0.77517522  1
  Bi2+  Bi86  1  0.49328363  0.88260769  0.28692991  1
  Bi2+  Bi87  1  0.50871449  0.90834726  0.79463381  1
  Bi2+  Bi88  1  0.75898772  0.12388188  0.29800877  1
  Bi2+  Bi89  1  0.75167214  0.12040569  0.79220648  1
  Bi2+  Bi90  1  0.75878977  0.38817299  0.28120504  1
  Bi2+  Bi91  1  0.76781468  0.36759113  0.78271395  1
  Bi2+  Bi92  1  0.72131653  0.63014650  0.31500750  1
  Bi2+  Bi93  1  0.78617699  0.60236913  0.77713298  1
  Bi2+  Bi94  1  0.77249340  0.81687761  0.29718645  1
  Bi2+  Bi95  1  0.75617424  0.86449733  0.80517535  1
  Bi2+  Bi96  1  0.14925743  0.02404605  0.19450062  1
  Bi2+  Bi97  1  0.09145264  -0.02876426  0.70830325  1
  Bi2+  Bi98  1  0.16567224  0.22181833  0.19540253  1
  Bi2+  Bi99  1  0.13574638  0.21762814  0.72395639  1
  Bi2+  Bi100  1  0.12462436  0.51975017  0.21841557  1
  Bi2+  Bi101  1  0.08857532  0.40282553  0.69890245  1
  Bi2+  Bi102  1  0.07086733  0.79280399  0.21265497  1
  Bi2+  Bi103  1  0.21665292  0.77226545  0.69947902  1
  Bi2+  Bi104  1  0.33130945  0.04279775  0.23155607  1
  Bi2+  Bi105  1  0.40576625  -0.01132649  0.70922723  1
  Bi2+  Bi106  1  0.35601630  0.30929299  0.19797191  1
  Bi2+  Bi107  1  0.39317389  0.25028577  0.69876165  1
  Bi2+  Bi108  1  0.40449384  0.51217928  0.20746663  1
  Bi2+  Bi109  1  0.32831920  0.60788719  0.69245380  1
  Bi2+  Bi110  1  0.37081189  0.75653155  0.20875641  1
  Bi2+  Bi111  1  0.41223115  0.79421483  0.68734860  1
  Bi2+  Bi112  1  0.66805189  0.00159150  0.22408381  1
  Bi2+  Bi113  1  0.68631687  0.00504226  0.70194373  1
  Bi2+  Bi114  1  0.61527107  0.26479256  0.21402014  1
  Bi2+  Bi115  1  0.66136839  0.26780093  0.70334593  1
  Bi2+  Bi116  1  0.61148512  0.47132523  0.20150525  1
  Bi2+  Bi117  1  0.55260805  0.50781144  0.70609614  1
  Bi2+  Bi118  1  0.62043250  0.74419966  0.21631004  1
  Bi2+  Bi119  1  0.66740449  0.76031756  0.69466810  1
  Bi2+  Bi120  1  0.91442695  -0.07334666  0.24659097  1
  Bi2+  Bi121  1  0.91373131  0.03883322  0.74101913  1
  Bi2+  Bi122  1  0.87578251  0.20661058  0.20733530  1
  Bi2+  Bi123  1  0.88264026  0.21655771  0.69658142  1
  Bi2+  Bi124  1  0.80081368  0.53608913  0.21588460  1
  Bi2+  Bi125  1  0.91097897  0.48801176  0.70391754  1
  Bi2+  Bi126  1  0.88216390  0.72706290  0.20545494  1
  Bi2+  Bi127  1  0.91229405  0.76241145  0.70319561  1
  S2-  S128  1  0.00608927  0.12013110  0.16587354  1
  S2-  S129  1  -0.00678611  0.10087965  0.65016907  1
  S2-  S130  1  -0.04767772  0.34614042  0.19375373  1
  S2-  S131  1  -0.12240397  0.35445947  0.63464454  1
  S2-  S132  1  0.01212732  0.55611282  0.14577458  1
  S2-  S133  1  0.01875303  0.61931507  0.67166459  1
  S2-  S134  1  -0.11874336  0.87320610  0.14769405  1
  S2-  S135  1  0.01863103  0.85316176  0.64729392  1
  S2-  S136  1  0.34971711  0.13791266  0.14749208  1
  S2-  S137  1  0.38195752  0.11076275  0.64224453  1
  S2-  S138  1  0.16470490  0.37361210  0.15219554  1
  S2-  S139  1  0.23943629  0.25744639  0.64568705  1
  S2-  S140  1  0.26176218  0.57193932  0.16488414  1
  S2-  S141  1  0.21722560  0.49526928  0.64668542  1
  S2-  S142  1  0.26921763  0.78975344  0.13831626  1
  S2-  S143  1  0.21260241  0.98936013  0.64616064  1
  S2-  S144  1  0.57508824  0.10995049  0.17530671  1
  S2-  S145  1  0.53289377  0.24105328  0.64024290  1
  S2-  S146  1  0.49659421  0.30752877  0.14015993  1
  S2-  S147  1  0.42681552  0.40837727  0.66730822  1
  S2-  S148  1  0.48903741  0.70999079  0.14303732  1
  S2-  S149  1  0.58171259  0.64656228  0.64085836  1
  S2-  S150  1  0.43276110  0.91627769  0.18735557  1
  S2-  S151  1  0.59538615  0.89195222  0.64176163  1
  S2-  S152  1  0.78457578  0.06334472  0.16883783  1
  S2-  S153  1  0.74091275  0.14165496  0.64149295  1
  S2-  S154  1  0.74723199  0.27535764  0.14896093  1
  S2-  S155  1  0.66746185  0.41449327  0.65402604  1
  S2-  S156  1  0.71564472  0.64089763  0.15295627  1
  S2-  S157  1  0.78545511  0.64528199  0.66548095  1
  S2-  S158  1  0.65185651  0.87391859  0.15418616  1
  S2-  S159  1  0.79396884  0.87298448  0.66384190  1
  S2-  S160  1  0.23346300  -0.00213097  0.36158734  1
  S2-  S161  1  0.11626853  0.00859592  0.84889756  1
  S2-  S162  1  0.11338206  0.19938795  0.33689809  1
  S2-  S163  1  0.20601846  0.25691330  0.85343254  1
  S2-  S164  1  0.11611818  0.40651094  0.35687627  1
  S2-  S165  1  0.14870148  0.50012740  0.83501576  1
  S2-  S166  1  0.12112871  0.63440657  0.36450345  1
  S2-  S167  1  0.14635800  0.75133236  0.85192967  1
  S2-  S168  1  0.44761807  -0.00281184  0.35155930  1
  S2-  S169  1  0.35410182  0.07937253  0.85310087  1
  S2-  S170  1  0.46676536  0.26710962  0.35548741  1
  S2-  S171  1  0.45598162  0.22980529  0.79797246  1
  S2-  S172  1  0.33780540  0.53641263  0.34953018  1
  S2-  S173  1  0.36614534  0.40384771  0.83646044  1
  S2-  S174  1  0.39023459  0.76926495  0.34114282  1
  S2-  S175  1  0.36321675  0.65714453  0.85028703  1
  S2-  S176  1  0.60948460  0.10754784  0.34291976  1
  S2-  S177  1  0.71034554  -0.00297033  0.86556147  1
  S2-  S178  1  0.71401317  0.27619253  0.34699635  1
  S2-  S179  1  0.65130014  0.31925411  0.85113879  1
  S2-  S180  1  0.61351909  0.48893428  0.34485838  1
  S2-  S181  1  0.54127545  0.53374928  0.84332337  1
  S2-  S182  1  0.61715944  0.85599883  0.35286409  1
  S2-  S183  1  0.59597845  0.77473972  0.82106419  1
  S2-  S184  1  0.82702551  -0.02528623  0.33930454  1
  S2-  S185  1  0.90153087  -0.11188590  0.85709988  1
  S2-  S186  1  0.90647026  0.19612321  0.31658181  1
  S2-  S187  1  0.87449035  0.15440006  0.86337397  1
  S2-  S188  1  0.88709292  0.40695753  0.34736763  1
  S2-  S189  1  0.78223470  0.49723114  0.85693721  1
  S2-  S190  1  0.87663207  0.63362219  0.35933436  1
  S2-  S191  1  0.78136698  0.72537097  0.85414529  1
  S2-  S192  1  -0.01191705  0.12696121  0.44306616  1
  S2-  S193  1  0.01142929  0.13349857  0.95883545  1
  S2-  S194  1  -0.01441954  0.38278977  0.45471277  1
  S2-  S195  1  0.00555227  0.38531270  0.94182924  1
  S2-  S196  1  -0.01549110  0.63099670  0.46366926  1
  S2-  S197  1  0.00353888  0.63605861  0.94810792  1
  S2-  S198  1  -0.01411626  0.87491709  0.44906458  1
  S2-  S199  1  0.01046377  0.88792667  0.96375625  1
  S2-  S200  1  0.23391933  0.13537525  0.45900772  1
  S2-  S201  1  0.25325734  0.13319792  0.95918068  1
  S2-  S202  1  0.23775022  0.37924191  0.45737919  1
  S2-  S203  1  0.26052610  0.38861560  0.95333003  1
  S2-  S204  1  0.23807653  0.62490152  0.46694493  1
  S2-  S205  1  0.25656148  0.64061087  0.95883708  1
  S2-  S206  1  0.23178855  0.87054507  0.46021008  1
  S2-  S207  1  0.25442800  0.88338940  0.95141862  1
  S2-  S208  1  0.47887427  0.12472807  0.45331002  1
  S2-  S209  1  0.50500874  0.13766729  0.94572061  1
  S2-  S210  1  0.48435783  0.38132035  0.45812714  1
  S2-  S211  1  0.50370499  0.38081975  0.94557842  1
  S2-  S212  1  0.48643006  0.62873012  0.44989763  1
  S2-  S213  1  0.51002263  0.63937193  0.94804862  1
  S2-  S214  1  0.48023688  0.87271561  0.45685762  1
  S2-  S215  1  0.50476567  0.88305390  0.93880218  1
  S2-  S216  1  0.73763241  0.12335464  0.44033785  1
  S2-  S217  1  0.75045175  0.13855633  0.96630307  1
  S2-  S218  1  0.73808845  0.38475837  0.45302034  1
  S2-  S219  1  0.75653023  0.37770931  0.96206599  1
  S2-  S220  1  0.73258986  0.62996960  0.45780666  1
  S2-  S221  1  0.75457092  0.62897479  0.95396054  1
  S2-  S222  1  0.73891861  0.87686297  0.45492451  1
  S2-  S223  1  0.75570692  0.88397034  0.96356970  1
  S2-  S224  1  0.13333991  0.00651726  0.05359777  1
  S2-  S225  1  0.10581148  -0.00049386  0.54012982  1
  S2-  S226  1  0.12763690  0.26461656  0.04908608  1
  S2-  S227  1  0.10671954  0.25314317  0.54318245  1
  S2-  S228  1  0.13132029  0.51201140  0.04430837  1
  S2-  S229  1  0.10394223  0.50125689  0.54653151  1
  S2-  S230  1  0.12447475  0.76084776  0.05296644  1
  S2-  S231  1  0.10917867  0.74793263  0.54937256  1
  S2-  S232  1  0.38408275  0.00240668  0.05190684  1
  S2-  S233  1  0.35695318  -0.00529925  0.54300955  1
  S2-  S234  1  0.37505874  0.26086863  0.04250992  1
  S2-  S235  1  0.36448113  0.25675641  0.54177459  1
  S2-  S236  1  0.38260220  0.51406243  0.04715960  1
  S2-  S237  1  0.36489367  0.50030684  0.55072998  1
  S2-  S238  1  0.38795882  0.76691068  0.03596651  1
  S2-  S239  1  0.35590504  0.74792166  0.55078394  1
  S2-  S240  1  0.62047147  0.01172781  0.05634863  1
  S2-  S241  1  0.60927682  0.00422460  0.53527688  1
  S2-  S242  1  0.62487000  0.25957670  0.04573759  1
  S2-  S243  1  0.61568303  0.25424368  0.53033162  1
  S2-  S244  1  0.62972952  0.50763325  0.04211540  1
  S2-  S245  1  0.60727664  0.50138864  0.54660092  1
  S2-  S246  1  0.63140644  0.76120567  0.04019332  1
  S2-  S247  1  0.60730102  0.75561878  0.53862313  1
  S2-  S248  1  0.88059882  0.01497687  0.04647513  1
  S2-  S249  1  0.86193466  0.00130544  0.54348480  1
  S2-  S250  1  0.88935090  0.26895972  0.05322146  1
  S2-  S251  1  0.86261146  0.24779782  0.52789585  1
  S2-  S252  1  0.87824803  0.50557917  0.04882286  1
  S2-  S253  1  0.85719335  0.50823073  0.54483361  1
  S2-  S254  1  0.88099787  0.75573953  0.04385642  1
  S2-  S255  1  0.85780135  0.75599222  0.54522822  1
