# generated using pymatgen
data_La9Ce10Pr6Nd4Sm3(BiS2)32
_symmetry_space_group_name_H-M   'P 1'
_cell_length_a   16.23350336
_cell_length_b   16.19529416
_cell_length_c   27.10995728
_cell_angle_alpha   89.84471048
_cell_angle_beta   89.96023579
_cell_angle_gamma   90.06724068
_symmetry_Int_Tables_number   1
_chemical_formula_structural   La9Ce10Pr6Nd4Sm3(BiS2)32
_chemical_formula_sum   'La18 Ce20 Pr12 Nd8 Sm6 Bi64 S128'
_cell_volume   7127.34743076
_cell_formula_units_Z   2
loop_
 _symmetry_equiv_pos_site_id
 _symmetry_equiv_pos_as_xyz
  1  'x, y, z'
loop_
 _atom_type_symbol
 _atom_type_oxidation_number
  La3+  3.0
  Ce3+  3.0
  Pr3+  3.0
  Nd3+  3.0
  Sm3+  3.0
  Bi2+  2.0
  S2-  -2.0
loop_
 _atom_site_type_symbol
 _atom_site_label
 _atom_site_symmetry_multiplicity
 _atom_site_fract_x
 _atom_site_fract_y
 _atom_site_fract_z
 _atom_site_occupancy
  La3+  La0  1  0.37865329  0.75683174  0.42514430  1
  La3+  La1  1  0.61517469  0.48935538  0.42294187  1
  La3+  La2  1  0.25482606  0.35215678  0.07286288  1
  La3+  La3  1  0.62676990  0.72392447  0.92788262  1
  La3+  La4  1  0.63103897  0.75033153  0.40240917  1
  La3+  La5  1  0.87754710  0.24932645  0.43193578  1
  La3+  La6  1  0.75647869  0.12136432  0.56659632  1
  La3+  La7  1  0.75422957  0.85760743  0.05237243  1
  La3+  La8  1  0.51008152  0.35190733  0.08608760  1
  La3+  La9  1  0.88417820  0.72885289  0.90954348  1
  La3+  La10  1  0.12920230  0.72775485  0.92183316  1
  La3+  La11  1  0.00430127  0.85669368  0.05868346  1
  La3+  La12  1  0.12580492  0.75197961  0.43390380  1
  La3+  La13  1  0.37469113  0.73024166  0.92629465  1
  La3+  La14  1  0.87771326  0.51147382  0.40067365  1
  La3+  La15  1  0.50230750  0.61958385  0.08196195  1
  La3+  La16  1  0.51177839  0.37050908  0.58081338  1
  La3+  La17  1  0.00703096  0.86811145  0.58604660  1
  Ce3+  Ce18  1  0.62959123  -0.00300728  0.44527420  1
  Ce3+  Ce19  1  0.62505829  0.23963233  0.94204220  1
  Ce3+  Ce20  1  0.00112025  0.11178749  0.05145010  1
  Ce3+  Ce21  1  0.12232924  -0.00424906  0.44151091  1
  Ce3+  Ce22  1  0.87854092  -0.00991023  0.44991437  1
  Ce3+  Ce23  1  0.00235880  0.37793861  0.54759835  1
  Ce3+  Ce24  1  0.62540620  0.48861569  0.95254582  1
  Ce3+  Ce25  1  0.87401580  0.23695213  0.94254940  1
  Ce3+  Ce26  1  0.12583423  -0.01325639  0.93918115  1
  Ce3+  Ce27  1  0.75015904  0.37778537  0.54937928  1
  Ce3+  Ce28  1  0.37881598  0.24513935  0.93335531  1
  Ce3+  Ce29  1  0.50205391  0.87104769  0.55836399  1
  Ce3+  Ce30  1  0.24843153  0.12556595  0.55082934  1
  Ce3+  Ce31  1  0.75166067  0.36144555  0.06530765  1
  Ce3+  Ce32  1  0.38045571  0.49859321  0.44667930  1
  Ce3+  Ce33  1  0.62690491  0.24674110  0.43743682  1
  Ce3+  Ce34  1  0.25307685  0.62380596  0.55480019  1
  Ce3+  Ce35  1  0.62722213  -0.01588212  0.93365753  1
  Ce3+  Ce36  1  0.87755646  -0.01461696  0.93562014  1
  Ce3+  Ce37  1  0.37720436  -0.00166136  0.44454690  1
  Pr3+  Pr38  1  0.25337469  0.11176135  0.05870317  1
  Pr3+  Pr39  1  0.25524742  0.60617262  0.06043791  1
  Pr3+  Pr40  1  0.00233725  0.62413251  0.55591234  1
  Pr3+  Pr41  1  0.75246011  0.86341679  0.57307539  1
  Pr3+  Pr42  1  0.37620665  -0.01040588  0.94237199  1
  Pr3+  Pr43  1  0.50326073  0.85897308  0.05200338  1
  Pr3+  Pr44  1  0.12267930  0.25086567  0.42132402  1
  Pr3+  Pr45  1  0.50196303  0.12508869  0.56252815  1
  Pr3+  Pr46  1  0.13200662  0.50187165  0.40790474  1
  Pr3+  Pr47  1  -0.00048921  0.35711126  0.06971966  1
  Pr3+  Pr48  1  0.37698333  0.25126558  0.43857394  1
  Pr3+  Pr49  1  0.24977196  0.37302385  0.55840227  1
  Nd3+  Nd50  1  0.75579509  0.61311017  0.06614130  1
  Nd3+  Nd51  1  0.00873772  0.60898692  0.06607696  1
  Nd3+  Nd52  1  0.00917596  0.13758635  0.56932364  1
  Nd3+  Nd53  1  0.25217252  0.85810684  0.05551910  1
  Nd3+  Nd54  1  0.87875894  0.75617759  0.43308371  1
  Nd3+  Nd55  1  0.87916929  0.48453323  0.94152300  1
  Nd3+  Nd56  1  0.50283066  0.62704695  0.55437594  1
  Nd3+  Nd57  1  0.74998742  0.62643302  0.54759009  1
  Sm3+  Sm58  1  0.38280073  0.48471129  0.94613450  1
  Sm3+  Sm59  1  0.25118347  0.87085452  0.56592715  1
  Sm3+  Sm60  1  0.12744835  0.47997252  0.94079629  1
  Sm3+  Sm61  1  0.75094285  0.10855359  0.05466057  1
  Sm3+  Sm62  1  0.50478663  0.11232230  0.05798117  1
  Sm3+  Sm63  1  0.12844805  0.24452477  0.93711325  1
  Bi2+  Bi64  1  0.04012966  0.08373676  0.31869507  1
  Bi2+  Bi65  1  0.01365675  0.16478006  0.75915644  1
  Bi2+  Bi66  1  0.04121962  0.34679162  0.27809840  1
  Bi2+  Bi67  1  -0.01331822  0.39359113  0.79273025  1
  Bi2+  Bi68  1  0.01841264  0.63731389  0.27764947  1
  Bi2+  Bi69  1  0.00772450  0.61344946  0.79044414  1
  Bi2+  Bi70  1  -0.00497775  0.89891654  0.29163625  1
  Bi2+  Bi71  1  -0.02034882  0.90092507  0.79151623  1
  Bi2+  Bi72  1  0.22996018  0.12433236  0.30237638  1
  Bi2+  Bi73  1  0.27561729  0.15631803  0.81386200  1
  Bi2+  Bi74  1  0.28240875  0.45800303  0.29213906  1
  Bi2+  Bi75  1  0.25678744  0.34795240  0.79821801  1
  Bi2+  Bi76  1  0.28592735  0.65274018  0.29030473  1
  Bi2+  Bi77  1  0.26121460  0.62028054  0.79219377  1
  Bi2+  Bi78  1  0.24985385  0.85796607  0.29266895  1
  Bi2+  Bi79  1  0.24534619  0.89373312  0.78190838  1
  Bi2+  Bi80  1  0.49457046  0.10305322  0.29324619  1
  Bi2+  Bi81  1  0.47290543  0.18202500  0.81362842  1
  Bi2+  Bi82  1  0.48186652  0.35797577  0.29085495  1
  Bi2+  Bi83  1  0.53313153  0.38046603  0.80255357  1
  Bi2+  Bi84  1  0.51539554  0.60246492  0.28398555  1
  Bi2+  Bi85  1  0.52053938  0.63861335  0.79915087  1
  Bi2+  Bi86  1  0.49347865  0.89173604  0.28749692  1
  Bi2+  Bi87  1  0.46208596  0.85033697  0.78584639  1
  Bi2+  Bi88  1  0.67284924  0.11851878  0.33480398  1
  Bi2+  Bi89  1  0.82659930  0.16424631  0.78919213  1
  Bi2+  Bi90  1  0.80353497  0.22356558  0.28212774  1
  Bi2+  Bi91  1  0.72282849  0.40388570  0.77920790  1
  Bi2+  Bi92  1  0.77658389  0.61386949  0.27417882  1
  Bi2+  Bi93  1  0.77637552  0.59001444  0.76513180  1
  Bi2+  Bi94  1  0.74441686  0.95531316  0.28636852  1
  Bi2+  Bi95  1  0.71479720  0.89524255  0.77875707  1
  Bi2+  Bi96  1  0.16177209  -0.00601772  0.22301985  1
  Bi2+  Bi97  1  0.16974514  0.05767069  0.72856248  1
  Bi2+  Bi98  1  0.11958855  0.20080861  0.21692472  1
  Bi2+  Bi99  1  0.13943710  0.29096272  0.70210894  1
  Bi2+  Bi100  1  0.14566561  0.50834391  0.21800116  1
  Bi2+  Bi101  1  0.09677419  0.49227224  0.71460530  1
  Bi2+  Bi102  1  0.10969620  0.76052026  0.19007799  1
  Bi2+  Bi103  1  0.13963183  0.75217803  0.70570804  1
  Bi2+  Bi104  1  0.35205045  0.03122674  0.22752548  1
  Bi2+  Bi105  1  0.35808058  0.01538300  0.71083946  1
  Bi2+  Bi106  1  0.35780298  0.27981333  0.20354977  1
  Bi2+  Bi107  1  0.37239074  0.21531145  0.71670026  1
  Bi2+  Bi108  1  0.39181733  0.56604769  0.20080304  1
  Bi2+  Bi109  1  0.33917862  0.48501191  0.72961772  1
  Bi2+  Bi110  1  0.37175204  0.77563165  0.21371720  1
  Bi2+  Bi111  1  0.39031372  0.72102156  0.71097044  1
  Bi2+  Bi112  1  0.60012709  -0.00011242  0.21000467  1
  Bi2+  Bi113  1  0.53836424  0.02443564  0.75423952  1
  Bi2+  Bi114  1  0.61947221  0.20086593  0.20602935  1
  Bi2+  Bi115  1  0.63287507  0.26331318  0.70887180  1
  Bi2+  Bi116  1  0.69326106  0.38819280  0.25410381  1
  Bi2+  Bi117  1  0.60774527  0.50619973  0.70736776  1
  Bi2+  Bi118  1  0.63590837  0.74664289  0.20009081  1
  Bi2+  Bi119  1  0.62378996  0.76655584  0.68853775  1
  Bi2+  Bi120  1  0.88941442  0.05628042  0.24121123  1
  Bi2+  Bi121  1  0.83601652  0.03039771  0.70011298  1
  Bi2+  Bi122  1  0.91582991  0.24616126  0.18689620  1
  Bi2+  Bi123  1  0.88198637  0.29603672  0.70759858  1
  Bi2+  Bi124  1  0.86077374  0.42941790  0.20404794  1
  Bi2+  Bi125  1  0.90322852  0.49373048  0.69700687  1
  Bi2+  Bi126  1  0.86914419  0.78166693  0.19601511  1
  Bi2+  Bi127  1  0.87471061  0.74086296  0.71141803  1
  S2-  S128  1  0.00889349  0.11231027  0.14887901  1
  S2-  S129  1  -0.02598236  0.08548396  0.66429633  1
  S2-  S130  1  0.01502257  0.42627935  0.16264267  1
  S2-  S131  1  0.01062826  0.28976688  0.63248201  1
  S2-  S132  1  -0.01892384  0.65740885  0.16261359  1
  S2-  S133  1  0.00605470  0.70732168  0.64632113  1
  S2-  S134  1  -0.01624189  0.87861764  0.15886719  1
  S2-  S135  1  -0.07029892  0.88686942  0.68355940  1
  S2-  S136  1  0.24403589  0.20759278  0.14185116  1
  S2-  S137  1  0.20513405  0.16286163  0.64221139  1
  S2-  S138  1  0.24504398  0.40557452  0.17059720  1
  S2-  S139  1  0.22965959  0.42191181  0.65483708  1
  S2-  S140  1  0.18486706  0.63351751  0.15135204  1
  S2-  S141  1  0.25979677  0.67180621  0.65038595  1
  S2-  S142  1  0.24619636  0.85187997  0.15480647  1
  S2-  S143  1  0.15356627  0.87941218  0.64845214  1
  S2-  S144  1  0.47951376  0.19766549  0.14293915  1
  S2-  S145  1  0.50107086  0.22391301  0.64639076  1
  S2-  S146  1  0.45804536  0.40404845  0.18226782  1
  S2-  S147  1  0.46131727  0.43094489  0.67482517  1
  S2-  S148  1  0.56250928  0.59141805  0.17897179  1
  S2-  S149  1  0.53470359  0.63344547  0.65375534  1
  S2-  S150  1  0.50080882  0.77927273  0.14125623  1
  S2-  S151  1  0.47606927  0.84228246  0.65427927  1
  S2-  S152  1  0.71531305  0.09659090  0.15144196  1
  S2-  S153  1  0.71149643  0.14585096  0.66391313  1
  S2-  S154  1  0.66339362  0.34632405  0.14935308  1
  S2-  S155  1  0.67191626  0.38394467  0.63716585  1
  S2-  S156  1  0.76511428  0.64336343  0.16627401  1
  S2-  S157  1  0.75547484  0.70998444  0.63792752  1
  S2-  S158  1  0.74349919  0.86122279  0.15373948  1
  S2-  S159  1  0.70582810  0.91414474  0.66930413  1
  S2-  S160  1  0.12004754  -0.11568200  0.36280735  1
  S2-  S161  1  0.11713403  -0.03473462  0.84144934  1
  S2-  S162  1  0.17331444  0.36002448  0.34410247  1
  S2-  S163  1  0.12101594  0.36010281  0.86389799  1
  S2-  S164  1  0.01239415  0.49254422  0.33216735  1
  S2-  S165  1  0.13320799  0.58002241  0.85756277  1
  S2-  S166  1  0.13594996  0.65503125  0.34701285  1
  S2-  S167  1  0.02135224  0.75993262  0.84165307  1
  S2-  S168  1  0.36525024  -0.09003874  0.35981378  1
  S2-  S169  1  0.37412823  -0.04105733  0.84295198  1
  S2-  S170  1  0.39184005  0.24732514  0.33676446  1
  S2-  S171  1  0.39232627  0.37572376  0.86658810  1
  S2-  S172  1  0.45141802  0.49031173  0.35712621  1
  S2-  S173  1  0.39470358  0.59329745  0.86174149  1
  S2-  S174  1  0.48849161  0.73752090  0.34381931  1
  S2-  S175  1  0.25670588  0.75758184  0.84996327  1
  S2-  S176  1  0.62909720  -0.08603234  0.35866152  1
  S2-  S177  1  0.64199839  0.01506403  0.83719491  1
  S2-  S178  1  0.60954503  0.34038221  0.35554988  1
  S2-  S179  1  0.62963606  0.25410810  0.84378304  1
  S2-  S180  1  0.65447381  0.57016633  0.33634297  1
  S2-  S181  1  0.62109691  0.57371769  0.86636556  1
  S2-  S182  1  0.70094216  0.74862891  0.29795561  1
  S2-  S183  1  0.61083245  0.78310422  0.83088553  1
  S2-  S184  1  0.87939915  -0.10627946  0.36562680  1
  S2-  S185  1  0.88645045  0.01649776  0.83820109  1
  S2-  S186  1  0.98618427  0.24315495  0.35276894  1
  S2-  S187  1  0.87626023  0.29891508  0.85221865  1
  S2-  S188  1  0.81873668  0.42686204  0.31165119  1
  S2-  S189  1  0.87169429  0.57673739  0.85566385  1
  S2-  S190  1  0.89146021  0.66526146  0.34401981  1
  S2-  S191  1  0.83472865  0.80985231  0.81770600  1
  S2-  S192  1  -0.00094509  0.12040632  0.46010202  1
  S2-  S193  1  0.00496437  0.11780923  0.94394362  1
  S2-  S194  1  -0.00061912  0.38495965  0.44404981  1
  S2-  S195  1  -0.00194716  0.35986535  0.96215325  1
  S2-  S196  1  0.00207743  0.62218860  0.44987213  1
  S2-  S197  1  0.00276297  0.60668331  0.95827887  1
  S2-  S198  1  0.00419531  0.87439622  0.46897968  1
  S2-  S199  1  -0.00011496  0.86169551  0.95029932  1
  S2-  S200  1  0.25018327  0.12327060  0.44453682  1
  S2-  S201  1  0.24892934  0.11690384  0.95145170  1
  S2-  S202  1  0.25416214  0.37832002  0.45120329  1
  S2-  S203  1  0.25332627  0.36154972  0.96334609  1
  S2-  S204  1  0.25781523  0.62281987  0.44815056  1
  S2-  S205  1  0.25377089  0.60097519  0.95670229  1
  S2-  S206  1  0.25185165  0.87688346  0.46252126  1
  S2-  S207  1  0.25142471  0.86552609  0.95112284  1
  S2-  S208  1  0.50088807  0.12357388  0.45399429  1
  S2-  S209  1  0.50272245  0.11230965  0.95231160  1
  S2-  S210  1  0.49873077  0.36880016  0.46553430  1
  S2-  S211  1  0.50794739  0.36245640  0.96787818  1
  S2-  S212  1  0.50360511  0.62893095  0.44972057  1
  S2-  S213  1  0.50029189  0.60959399  0.96938783  1
  S2-  S214  1  0.50317165  0.87609000  0.45515716  1
  S2-  S215  1  0.50031682  0.85888264  0.94583404  1
  S2-  S216  1  0.75715730  0.12049141  0.45685499  1
  S2-  S217  1  0.75081526  0.11132679  0.94863582  1
  S2-  S218  1  0.75783146  0.37900741  0.44388821  1
  S2-  S219  1  0.75053677  0.36383104  0.95714170  1
  S2-  S220  1  0.75175592  0.62914058  0.44327337  1
  S2-  S221  1  0.75846033  0.61131816  0.95994053  1
  S2-  S222  1  0.74861887  0.87167576  0.46279615  1
  S2-  S223  1  0.75396059  0.85708886  0.94340881  1
  S2-  S224  1  0.12892222  -0.01312241  0.04767479  1
  S2-  S225  1  0.12586114  0.00252684  0.54883179  1
  S2-  S226  1  0.12261212  0.23604936  0.04229665  1
  S2-  S227  1  0.12802583  0.25325234  0.52929420  1
  S2-  S228  1  0.12721637  0.48098672  0.04878629  1
  S2-  S229  1  0.12745021  0.50070887  0.54448311  1
  S2-  S230  1  0.13011871  0.73394232  0.03904547  1
  S2-  S231  1  0.13192192  0.74753390  0.54250036  1
  S2-  S232  1  0.37949611  -0.01311038  0.05135178  1
  S2-  S233  1  0.37416007  -0.00034649  0.55237424  1
  S2-  S234  1  0.38065745  0.23317425  0.03986141  1
  S2-  S235  1  0.37395837  0.24855444  0.54677621  1
  S2-  S236  1  0.38188729  0.48256774  0.05616593  1
  S2-  S237  1  0.37922632  0.49868192  0.55280655  1
  S2-  S238  1  0.37329871  0.73622110  0.04076718  1
  S2-  S239  1  0.37493387  0.75113775  0.54080029  1
  S2-  S240  1  0.62578132  -0.01357055  0.04233249  1
  S2-  S241  1  0.62545408  -0.00114939  0.55349746  1
  S2-  S242  1  0.63079584  0.23013161  0.04595732  1
  S2-  S243  1  0.63164253  0.24483903  0.54166711  1
  S2-  S244  1  0.62907208  0.49058984  0.05801423  1
  S2-  S245  1  0.62573284  0.50376097  0.53717948  1
  S2-  S246  1  0.63032623  0.73398390  0.04117889  1
  S2-  S247  1  0.62438156  0.74982428  0.54054734  1
  S2-  S248  1  0.87673528  -0.01250054  0.04453136  1
  S2-  S249  1  0.87944963  -0.00564141  0.55621242  1
  S2-  S250  1  0.87191013  0.23368697  0.04934221  1
  S2-  S251  1  0.87436013  0.25163923  0.54108440  1
  S2-  S252  1  0.87833884  0.48669503  0.05184894  1
  S2-  S253  1  0.87437912  0.50166968  0.54808876  1
  S2-  S254  1  0.88079877  0.73277870  0.04612758  1
  S2-  S255  1  0.87954343  0.74899381  0.54047964  1
