# generated using pymatgen
data_La9Ce10Pr6Nd4Sm3(BiS2)32
_symmetry_space_group_name_H-M   'P 1'
_cell_length_a   16.23587649
_cell_length_b   16.27827689
_cell_length_c   27.20759534
_cell_angle_alpha   90.01777591
_cell_angle_beta   90.00384459
_cell_angle_gamma   89.93219603
_symmetry_Int_Tables_number   1
_chemical_formula_structural   La9Ce10Pr6Nd4Sm3(BiS2)32
_chemical_formula_sum   'La18 Ce20 Pr12 Nd8 Sm6 Bi64 S128'
_cell_volume   7190.74692126
_cell_formula_units_Z   2
loop_
 _symmetry_equiv_pos_site_id
 _symmetry_equiv_pos_as_xyz
  1  'x, y, z'
loop_
 _atom_type_symbol
 _atom_type_oxidation_number
  La3+  3.0
  Ce3+  3.0
  Pr3+  3.0
  Nd3+  3.0
  Sm3+  3.0
  Bi2+  2.0
  S2-  -2.0
loop_
 _atom_site_type_symbol
 _atom_site_label
 _atom_site_symmetry_multiplicity
 _atom_site_fract_x
 _atom_site_fract_y
 _atom_site_fract_z
 _atom_site_occupancy
  La3+  La0  1  0.13269688  0.23795170  0.41929717  1
  La3+  La1  1  0.75178235  0.37238407  0.57113193  1
  La3+  La2  1  0.50225492  0.88761655  0.06751992  1
  La3+  La3  1  0.64783914  0.25299417  0.40646951  1
  La3+  La4  1  0.63941583  0.50181821  0.42901916  1
  La3+  La5  1  0.13535142  -0.00761316  0.42554560  1
  La3+  La6  1  0.13811864  0.49844412  0.43015972  1
  La3+  La7  1  0.73594270  0.39088436  0.07423663  1
  La3+  La8  1  -0.01077599  0.14788236  0.06497618  1
  La3+  La9  1  0.74258334  0.14135189  0.06662258  1
  La3+  La10  1  0.11580143  0.01661846  0.94224655  1
  La3+  La11  1  0.24018534  0.14553970  0.08755405  1
  La3+  La12  1  0.25511753  0.62554757  0.56979300  1
  La3+  La13  1  0.00044328  0.88136567  0.07313591  1
  La3+  La14  1  0.51700229  0.86712311  0.59204834  1
  La3+  La15  1  0.85788569  0.26847757  0.92387587  1
  La3+  La16  1  0.76207079  0.86881461  0.56736339  1
  La3+  La17  1  0.61254235  0.00642735  0.91588881  1
  Ce3+  Ce18  1  0.01698513  0.36649099  0.55721625  1
  Ce3+  Ce19  1  0.39054133  0.74589807  0.44598151  1
  Ce3+  Ce20  1  0.26186209  0.87276895  0.55496675  1
  Ce3+  Ce21  1  0.39078826  -0.00392736  0.44457766  1
  Ce3+  Ce22  1  0.36705202  0.51200282  0.94386006  1
  Ce3+  Ce23  1  0.75992862  0.62003171  0.55970425  1
  Ce3+  Ce24  1  0.61850318  0.51288885  0.94012226  1
  Ce3+  Ce25  1  0.38619018  0.50023481  0.44111611  1
  Ce3+  Ce26  1  0.25936836  0.12209271  0.55343784  1
  Ce3+  Ce27  1  0.25918206  0.36650101  0.54662808  1
  Ce3+  Ce28  1  0.63459671  0.74415924  0.44096329  1
  Ce3+  Ce29  1  0.49392322  0.38767903  0.05661838  1
  Ce3+  Ce30  1  0.51230464  0.36836955  0.54587928  1
  Ce3+  Ce31  1  0.24117740  0.64121501  0.06316822  1
  Ce3+  Ce32  1  0.86587948  0.01469878  0.94462058  1
  Ce3+  Ce33  1  0.76019034  0.12299759  0.56057449  1
  Ce3+  Ce34  1  0.11735594  0.51313469  0.94682964  1
  Ce3+  Ce35  1  0.37091998  0.01236623  0.94784957  1
  Ce3+  Ce36  1  0.02000681  0.12175888  0.56678655  1
  Ce3+  Ce37  1  0.88668265  0.49592363  0.44721696  1
  Pr3+  Pr38  1  -0.01006556  0.63678783  0.05481343  1
  Pr3+  Pr39  1  0.36857017  0.26060393  0.94505838  1
  Pr3+  Pr40  1  0.50268258  0.61687611  0.57370811  1
  Pr3+  Pr41  1  0.86706739  0.76461799  0.93514323  1
  Pr3+  Pr42  1  0.11503704  0.76323986  0.92978023  1
  Pr3+  Pr43  1  0.51369744  0.12258434  0.55573114  1
  Pr3+  Pr44  1  0.11624306  0.26473017  0.93666812  1
  Pr3+  Pr45  1  0.36236155  0.76080459  0.93242398  1
  Pr3+  Pr46  1  0.01562260  0.87057286  0.56056365  1
  Pr3+  Pr47  1  0.49114303  0.63965801  0.05893726  1
  Pr3+  Pr48  1  0.38707085  0.24361473  0.43057964  1
  Pr3+  Pr49  1  0.13764087  0.74814552  0.42874127  1
  Nd3+  Nd50  1  0.49671272  0.13553390  0.05946237  1
  Nd3+  Nd51  1  0.88309643  0.24575505  0.44650780  1
  Nd3+  Nd52  1  0.85620379  0.51216839  0.92709693  1
  Nd3+  Nd53  1  0.74109752  0.63778383  0.06200552  1
  Nd3+  Nd54  1  0.88415192  -0.00426175  0.44964279  1
  Nd3+  Nd55  1  -0.01343805  0.38944195  0.05742419  1
  Nd3+  Nd56  1  0.24237569  0.38919040  0.06206445  1
  Nd3+  Nd57  1  0.63706902  -0.00531173  0.44184390  1
  Sm3+  Sm58  1  0.74364255  0.89238157  0.05769034  1
  Sm3+  Sm59  1  0.61034630  0.76480190  0.93034620  1
  Sm3+  Sm60  1  0.61900350  0.26061442  0.93787106  1
  Sm3+  Sm61  1  0.01469484  0.61876566  0.55781703  1
  Sm3+  Sm62  1  0.88700506  0.74594651  0.44828007  1
  Sm3+  Sm63  1  0.24489476  0.89013620  0.05753874  1
  Bi2+  Bi64  1  -0.03530690  0.11762746  0.28868484  1
  Bi2+  Bi65  1  0.02294013  0.10202006  0.79471245  1
  Bi2+  Bi66  1  -0.04575868  0.37743806  0.23456156  1
  Bi2+  Bi67  1  0.03573731  0.36955739  0.79256337  1
  Bi2+  Bi68  1  -0.06102165  0.63528619  0.31294110  1
  Bi2+  Bi69  1  -0.01317620  0.63437753  0.79008218  1
  Bi2+  Bi70  1  -0.01347952  0.86759130  0.30481647  1
  Bi2+  Bi71  1  -0.00082986  0.84988800  0.76978716  1
  Bi2+  Bi72  1  0.25591215  0.14219019  0.29552955  1
  Bi2+  Bi73  1  0.26848918  0.17414495  0.78079071  1
  Bi2+  Bi74  1  0.22714552  0.43230242  0.28341729  1
  Bi2+  Bi75  1  0.22487518  0.38911389  0.77262846  1
  Bi2+  Bi76  1  0.13565062  0.62333374  0.31756659  1
  Bi2+  Bi77  1  0.21089908  0.61087462  0.80053863  1
  Bi2+  Bi78  1  0.23271736  0.84194650  0.25402274  1
  Bi2+  Bi79  1  0.28831158  0.85423469  0.77648098  1
  Bi2+  Bi80  1  0.49462191  0.09070395  0.31117181  1
  Bi2+  Bi81  1  0.47234122  0.12551000  0.79136884  1
  Bi2+  Bi82  1  0.50421079  0.43739688  0.27864585  1
  Bi2+  Bi83  1  0.49846393  0.33152846  0.77608097  1
  Bi2+  Bi84  1  0.46010235  0.63005378  0.30638743  1
  Bi2+  Bi85  1  0.47573467  0.60492267  0.79508302  1
  Bi2+  Bi86  1  0.51211909  0.82904513  0.31495744  1
  Bi2+  Bi87  1  0.50107330  0.87163362  0.79426427  1
  Bi2+  Bi88  1  0.75921943  0.13161154  0.29087081  1
  Bi2+  Bi89  1  0.77511186  0.12269814  0.79449372  1
  Bi2+  Bi90  1  0.77936725  0.38174993  0.28468294  1
  Bi2+  Bi91  1  0.76031188  0.38630508  0.79189523  1
  Bi2+  Bi92  1  0.73365779  0.60687245  0.28706489  1
  Bi2+  Bi93  1  0.79009620  0.64896938  0.81397306  1
  Bi2+  Bi94  1  0.70186005  0.87144319  0.29637183  1
  Bi2+  Bi95  1  0.75119565  0.82224946  0.76953621  1
  Bi2+  Bi96  1  0.11800511  -0.01494284  0.20752922  1
  Bi2+  Bi97  1  0.15741068  -0.00766759  0.74487317  1
  Bi2+  Bi98  1  0.12183860  0.23213665  0.20367322  1
  Bi2+  Bi99  1  0.10023985  0.23585481  0.68444878  1
  Bi2+  Bi100  1  0.09975396  0.50590708  0.20734681  1
  Bi2+  Bi101  1  0.10138950  0.51628782  0.72181792  1
  Bi2+  Bi102  1  0.06880611  0.73676845  0.23360752  1
  Bi2+  Bi103  1  0.13064129  0.76173172  0.70016733  1
  Bi2+  Bi104  1  0.39806839  -0.04851457  0.25395328  1
  Bi2+  Bi105  1  0.34274797  0.02144606  0.72015989  1
  Bi2+  Bi106  1  0.36646839  0.33292292  0.22256697  1
  Bi2+  Bi107  1  0.33765718  0.27898881  0.69109009  1
  Bi2+  Bi108  1  0.38607193  0.51198807  0.19245551  1
  Bi2+  Bi109  1  0.38286936  0.46174728  0.71527104  1
  Bi2+  Bi110  1  0.33332636  0.68650443  0.22259707  1
  Bi2+  Bi111  1  0.37712788  0.72004665  0.70973184  1
  Bi2+  Bi112  1  0.59188595  -0.00585745  0.18994665  1
  Bi2+  Bi113  1  0.61780074  0.01540207  0.69787452  1
  Bi2+  Bi114  1  0.61299936  0.25421399  0.20393308  1
  Bi2+  Bi115  1  0.62717120  0.25136873  0.69478280  1
  Bi2+  Bi116  1  0.63413028  0.51317475  0.20537918  1
  Bi2+  Bi117  1  0.58262061  0.48700155  0.72540971  1
  Bi2+  Bi118  1  0.60057324  0.75572568  0.21843549  1
  Bi2+  Bi119  1  0.62353187  0.67765014  0.73451666  1
  Bi2+  Bi120  1  0.84029259  -0.05404709  0.22484611  1
  Bi2+  Bi121  1  0.86180069  -0.02342087  0.74185503  1
  Bi2+  Bi122  1  0.86177347  0.16653595  0.19928209  1
  Bi2+  Bi123  1  0.88784209  0.25608400  0.70785153  1
  Bi2+  Bi124  1  0.91483908  0.55646030  0.19454221  1
  Bi2+  Bi125  1  0.86379838  0.53257982  0.72379288  1
  Bi2+  Bi126  1  0.79683607  0.75045592  0.21863062  1
  Bi2+  Bi127  1  0.87494706  0.71882561  0.69951964  1
  S2-  S128  1  0.04383046  0.10488530  0.15739011  1
  S2-  S129  1  -0.03611642  0.13204824  0.66242108  1
  S2-  S130  1  -0.00274414  0.30060682  0.14262823  1
  S2-  S131  1  -0.00994040  0.36139617  0.65519581  1
  S2-  S132  1  -0.01163568  0.69740206  0.14828281  1
  S2-  S133  1  0.11657348  0.61950671  0.63732366  1
  S2-  S134  1  -0.02815348  0.91235190  0.17087877  1
  S2-  S135  1  0.02743604  0.87548098  0.66068252  1
  S2-  S136  1  0.24402966  0.10257796  0.18827388  1
  S2-  S137  1  0.16080026  0.11151030  0.63216069  1
  S2-  S138  1  0.24353233  0.29863629  0.14729969  1
  S2-  S139  1  0.20721041  0.35476795  0.63883465  1
  S2-  S140  1  0.22765024  0.59475241  0.15750876  1
  S2-  S141  1  0.36572279  0.59269719  0.64557893  1
  S2-  S142  1  0.19266314  0.86398273  0.14907278  1
  S2-  S143  1  0.26297970  0.80775790  0.64524483  1
  S2-  S144  1  0.51646337  0.14533728  0.15937546  1
  S2-  S145  1  0.51742112  0.14383537  0.65671893  1
  S2-  S146  1  0.58052890  0.38161625  0.14090537  1
  S2-  S147  1  0.57590738  0.37915095  0.63603396  1
  S2-  S148  1  0.54616432  0.64012184  0.15437582  1
  S2-  S149  1  0.52121267  0.72449386  0.65449077  1
  S2-  S150  1  0.44682976  0.91320913  0.16259744  1
  S2-  S151  1  0.47370191  0.92725090  0.68700321  1
  S2-  S152  1  0.75007891  0.04868261  0.15447572  1
  S2-  S153  1  0.73173625  0.12395357  0.65757664  1
  S2-  S154  1  0.75402472  0.26532675  0.14562409  1
  S2-  S155  1  0.77306904  0.35227852  0.67168405  1
  S2-  S156  1  0.76382277  0.52730935  0.13949571  1
  S2-  S157  1  0.74944675  0.61016919  0.65687978  1
  S2-  S158  1  0.64414509  0.86753499  0.13654979  1
  S2-  S159  1  0.67114355  0.88541609  0.65189408  1
  S2-  S160  1  0.11511175  0.10161641  0.34794124  1
  S2-  S161  1  0.10857015  -0.02745968  0.84528224  1
  S2-  S162  1  0.18055226  0.28026881  0.32200958  1
  S2-  S163  1  0.12695134  0.21781627  0.83972956  1
  S2-  S164  1  0.08047461  0.46555607  0.33722796  1
  S2-  S165  1  0.11773874  0.48268308  0.85139739  1
  S2-  S166  1  0.12984495  0.86608061  0.35270525  1
  S2-  S167  1  0.23726630  0.74979623  0.85618311  1
  S2-  S168  1  0.34202621  0.01315656  0.35063093  1
  S2-  S169  1  0.43366220  -0.00654330  0.85733296  1
  S2-  S170  1  0.39344752  0.22646914  0.32982821  1
  S2-  S171  1  0.38612518  0.25710627  0.84515481  1
  S2-  S172  1  0.36117856  0.50199516  0.34431782  1
  S2-  S173  1  0.34675337  0.53004187  0.84752847  1
  S2-  S174  1  0.36352279  0.75716342  0.34963537  1
  S2-  S175  1  0.48184673  0.75133778  0.85769822  1
  S2-  S176  1  0.64908615  0.01985773  0.34291354  1
  S2-  S177  1  0.61741882  0.07958271  0.82115048  1
  S2-  S178  1  0.60171238  0.21103202  0.30601133  1
  S2-  S179  1  0.70966161  0.27310098  0.85344317  1
  S2-  S180  1  0.64298204  0.39954231  0.34588701  1
  S2-  S181  1  0.71020096  0.50895680  0.85815311  1
  S2-  S182  1  0.62486821  0.63894518  0.36164732  1
  S2-  S183  1  0.63903727  0.87091286  0.85038901  1
  S2-  S184  1  0.89963418  0.00490501  0.35030932  1
  S2-  S185  1  0.84314600  -0.00938992  0.84823519  1
  S2-  S186  1  0.80926301  0.25300495  0.35508432  1
  S2-  S187  1  0.91168219  0.19322804  0.83595832  1
  S2-  S188  1  0.84211593  0.49799779  0.35264325  1
  S2-  S189  1  0.89323684  0.40320484  0.85017804  1
  S2-  S190  1  0.86333712  0.77110581  0.35203081  1
  S2-  S191  1  0.98599922  0.77268131  0.85884551  1
  S2-  S192  1  0.00507323  0.12035886  0.45708148  1
  S2-  S193  1  -0.00916834  0.14099183  0.95548820  1
  S2-  S194  1  0.00953135  0.36740542  0.44842834  1
  S2-  S195  1  -0.00653765  0.38873476  0.95365764  1
  S2-  S196  1  0.01072983  0.62364432  0.45338342  1
  S2-  S197  1  -0.01310886  0.63172297  0.94889691  1
  S2-  S198  1  0.00612755  0.86918820  0.45461877  1
  S2-  S199  1  -0.00936503  0.88981484  0.96215583  1
  S2-  S200  1  0.26348181  0.11993840  0.44958680  1
  S2-  S201  1  0.24436476  0.13822470  0.95479359  1
  S2-  S202  1  0.26140426  0.36863191  0.44078258  1
  S2-  S203  1  0.24369442  0.38634598  0.95473103  1
  S2-  S204  1  0.26163411  0.62467223  0.45554150  1
  S2-  S205  1  0.24143105  0.63408954  0.95876620  1
  S2-  S206  1  0.26632891  0.87132020  0.45144090  1
  S2-  S207  1  0.24341632  0.89046518  0.95316082  1
  S2-  S208  1  0.51697487  0.12390326  0.44684712  1
  S2-  S209  1  0.49625020  0.13809192  0.95198369  1
  S2-  S210  1  0.51013364  0.37022636  0.44135584  1
  S2-  S211  1  0.49496407  0.38621076  0.94800780  1
  S2-  S212  1  0.50750917  0.62051879  0.46318516  1
  S2-  S213  1  0.49081280  0.63430513  0.95363104  1
  S2-  S214  1  0.51401105  0.87172578  0.45401580  1
  S2-  S215  1  0.49102025  0.88471667  0.95967469  1
  S2-  S216  1  0.75926691  0.11998762  0.45348881  1
  S2-  S217  1  0.73803586  0.13397899  0.95293334  1
  S2-  S218  1  0.76169919  0.37330367  0.46074806  1
  S2-  S219  1  0.73621759  0.38877012  0.96105232  1
  S2-  S220  1  0.76614391  0.62452310  0.45594939  1
  S2-  S221  1  0.73850635  0.64370983  0.95490491  1
  S2-  S222  1  0.76136770  0.86901008  0.45837081  1
  S2-  S223  1  0.74231279  0.88691589  0.95477002  1
  S2-  S224  1  0.12262731  0.01568329  0.05076083  1
  S2-  S225  1  0.13705717  -0.00830967  0.53581826  1
  S2-  S226  1  0.12075123  0.26510389  0.04310346  1
  S2-  S227  1  0.13699078  0.24434911  0.53048109  1
  S2-  S228  1  0.11528729  0.51029840  0.05301780  1
  S2-  S229  1  0.13524680  0.49344493  0.53826072  1
  S2-  S230  1  0.11955031  0.76107596  0.03988802  1
  S2-  S231  1  0.13455707  0.74831431  0.53661175  1
  S2-  S232  1  0.36307225  0.01771297  0.05466743  1
  S2-  S233  1  0.38871831  -0.00446876  0.55320472  1
  S2-  S234  1  0.37082065  0.26115154  0.05126532  1
  S2-  S235  1  0.38642966  0.24428003  0.53967591  1
  S2-  S236  1  0.36717486  0.51205861  0.05058533  1
  S2-  S237  1  0.38362055  0.48814145  0.54467495  1
  S2-  S238  1  0.36599250  0.76508969  0.04984215  1
  S2-  S239  1  0.38924157  0.75066833  0.54944040  1
  S2-  S240  1  0.62063762  0.01486634  0.04050574  1
  S2-  S241  1  0.63476288  -0.00445961  0.54744455  1
  S2-  S242  1  0.61392591  0.26116731  0.04048147  1
  S2-  S243  1  0.63688789  0.24498863  0.53852912  1
  S2-  S244  1  0.61384970  0.51672933  0.04337310  1
  S2-  S245  1  0.63332707  0.50161946  0.54159975  1
  S2-  S246  1  0.62029190  0.75800381  0.03667044  1
  S2-  S247  1  0.63640480  0.74383282  0.54742276  1
  S2-  S248  1  0.87245108  0.00963802  0.05140365  1
  S2-  S249  1  0.88672640  -0.00471530  0.55633452  1
  S2-  S250  1  0.86485942  0.26773705  0.03792711  1
  S2-  S251  1  0.88441029  0.24718104  0.55133329  1
  S2-  S252  1  0.86750711  0.51400353  0.03581427  1
  S2-  S253  1  0.88954899  0.49630151  0.55461293  1
  S2-  S254  1  0.86277126  0.76444338  0.04559221  1
  S2-  S255  1  0.89076449  0.74274540  0.55368112  1
