# generated using pymatgen
data_La9Ce10Pr6Nd4Sm3(BiS2)32
_symmetry_space_group_name_H-M   'P 1'
_cell_length_a   16.19621161
_cell_length_b   16.15512278
_cell_length_c   27.18811970
_cell_angle_alpha   90.03545601
_cell_angle_beta   90.15072640
_cell_angle_gamma   90.05705510
_symmetry_Int_Tables_number   1
_chemical_formula_structural   La9Ce10Pr6Nd4Sm3(BiS2)32
_chemical_formula_sum   'La18 Ce20 Pr12 Nd8 Sm6 Bi64 S128'
_cell_volume   7113.79059260
_cell_formula_units_Z   2
loop_
 _symmetry_equiv_pos_site_id
 _symmetry_equiv_pos_as_xyz
  1  'x, y, z'
loop_
 _atom_type_symbol
 _atom_type_oxidation_number
  La3+  3.0
  Ce3+  3.0
  Pr3+  3.0
  Nd3+  3.0
  Sm3+  3.0
  Bi2+  2.0
  S2-  -2.0
loop_
 _atom_site_type_symbol
 _atom_site_label
 _atom_site_symmetry_multiplicity
 _atom_site_fract_x
 _atom_site_fract_y
 _atom_site_fract_z
 _atom_site_occupancy
  La3+  La0  1  0.25395879  0.11549215  0.07007765  1
  La3+  La1  1  0.11640591  0.25570515  0.89703144  1
  La3+  La2  1  0.62192983  0.49276542  0.93366074  1
  La3+  La3  1  0.49285179  0.60738034  0.08378323  1
  La3+  La4  1  0.87208800  0.00010826  0.92766103  1
  La3+  La5  1  -0.00483362  0.61970617  0.07371159  1
  La3+  La6  1  -0.00018037  0.11293722  0.07243656  1
  La3+  La7  1  0.12112925  0.51587221  0.40902489  1
  La3+  La8  1  0.24114645  0.88857081  0.56162735  1
  La3+  La9  1  0.62578778  0.24621874  0.93187625  1
  La3+  La10  1  0.86099919  0.26104590  0.42398417  1
  La3+  La11  1  0.75115188  0.37208979  0.07245105  1
  La3+  La12  1  0.24059463  0.64097270  0.57636369  1
  La3+  La13  1  0.86641135  0.76067596  0.43801978  1
  La3+  La14  1  0.74575151  0.11459338  0.07372914  1
  La3+  La15  1  0.24606585  0.14383577  0.58243102  1
  La3+  La16  1  0.87554688  0.49730734  0.93204230  1
  La3+  La17  1  0.12175549  0.25085729  0.41292187  1
  Ce3+  Ce18  1  0.36622860  0.51378048  0.44284929  1
  Ce3+  Ce19  1  0.74491167  0.14414567  0.56305849  1
  Ce3+  Ce20  1  -0.00404649  0.87416504  0.05827775  1
  Ce3+  Ce21  1  0.73892720  0.63263305  0.56768358  1
  Ce3+  Ce22  1  0.24971306  0.87413627  0.06468812  1
  Ce3+  Ce23  1  -0.00859287  0.63231616  0.55338027  1
  Ce3+  Ce24  1  0.49772356  0.11653467  0.04678910  1
  Ce3+  Ce25  1  -0.00521849  0.38616299  0.54245287  1
  Ce3+  Ce26  1  0.36349570  0.26185370  0.43869550  1
  Ce3+  Ce27  1  0.12703673  -0.00221411  0.93070885  1
  Ce3+  Ce28  1  0.12308940  0.74554445  0.95131189  1
  Ce3+  Ce29  1  0.74898859  0.61733352  0.06978933  1
  Ce3+  Ce30  1  0.61792697  0.26096939  0.44001280  1
  Ce3+  Ce31  1  0.23730712  0.61656344  0.07017256  1
  Ce3+  Ce32  1  0.61709893  0.01171429  0.44322436  1
  Ce3+  Ce33  1  0.11618686  0.01679407  0.45166607  1
  Ce3+  Ce34  1  0.61586249  0.76177528  0.44554104  1
  Ce3+  Ce35  1  0.87302667  0.74182115  0.94423165  1
  Ce3+  Ce36  1  0.87568274  0.24280000  0.94871624  1
  Ce3+  Ce37  1  0.62527773  -0.00804283  0.92800337  1
  Pr3+  Pr38  1  0.49446002  0.13722246  0.56261159  1
  Pr3+  Pr39  1  0.86756407  0.01509530  0.43384505  1
  Pr3+  Pr40  1  0.36422133  0.01417334  0.43900285  1
  Pr3+  Pr41  1  -0.00950127  0.14819220  0.56895944  1
  Pr3+  Pr42  1  0.24114720  0.38552335  0.55700440  1
  Pr3+  Pr43  1  0.00526901  0.35983218  0.08683412  1
  Pr3+  Pr44  1  0.49604278  0.36611126  0.05939281  1
  Pr3+  Pr45  1  0.74491139  0.86808146  0.06466067  1
  Pr3+  Pr46  1  0.86270713  0.51452197  0.41057690  1
  Pr3+  Pr47  1  0.61574322  0.51560296  0.43299291  1
  Pr3+  Pr48  1  0.36523935  0.75725901  0.43762978  1
  Pr3+  Pr49  1  0.11760994  0.76267821  0.43359163  1
  Nd3+  Nd50  1  0.74979580  0.39474205  0.56052806  1
  Nd3+  Nd51  1  0.49719410  0.86694183  0.05939652  1
  Nd3+  Nd52  1  0.12230283  0.49172479  0.94532545  1
  Nd3+  Nd53  1  0.36658085  0.49208390  0.94477544  1
  Nd3+  Nd54  1  0.37149228  -0.01002115  0.93100831  1
  Nd3+  Nd55  1  0.24340398  0.36006510  0.07218993  1
  Nd3+  Nd56  1  0.49483251  0.88623862  0.55970593  1
  Nd3+  Nd57  1  0.62204663  0.73548799  0.94327419  1
  Sm3+  Sm58  1  0.49224900  0.63567149  0.56929992  1
  Sm3+  Sm59  1  0.74643993  0.88868961  0.55782766  1
  Sm3+  Sm60  1  0.49581932  0.38877996  0.55129120  1
  Sm3+  Sm61  1  -0.00921050  0.88652791  0.55668133  1
  Sm3+  Sm62  1  0.37248195  0.73852439  0.95209112  1
  Sm3+  Sm63  1  0.36334332  0.24280207  0.93678368  1
  Bi2+  Bi64  1  0.01037804  0.10579940  0.28794843  1
  Bi2+  Bi65  1  -0.03274599  0.10392467  0.79033384  1
  Bi2+  Bi66  1  -0.02495395  0.40941137  0.27112066  1
  Bi2+  Bi67  1  0.01316100  0.42922982  0.77674838  1
  Bi2+  Bi68  1  0.01097944  0.68694527  0.29949035  1
  Bi2+  Bi69  1  0.04872383  0.62374612  0.78649585  1
  Bi2+  Bi70  1  0.03619916  0.88108165  0.30847526  1
  Bi2+  Bi71  1  0.01271487  0.82651417  0.78533191  1
  Bi2+  Bi72  1  0.26150068  0.10516945  0.28936617  1
  Bi2+  Bi73  1  0.23775914  0.09806966  0.78521023  1
  Bi2+  Bi74  1  0.32799491  0.38728877  0.30388998  1
  Bi2+  Bi75  1  0.26413202  0.37436766  0.78644799  1
  Bi2+  Bi76  1  0.27566999  0.70880982  0.28170257  1
  Bi2+  Bi77  1  0.29526324  0.58057665  0.80102512  1
  Bi2+  Bi78  1  0.23470477  0.90166986  0.29843479  1
  Bi2+  Bi79  1  0.22985877  0.84503238  0.78945839  1
  Bi2+  Bi80  1  0.47767648  0.18622800  0.29395785  1
  Bi2+  Bi81  1  0.43222035  0.13205258  0.79370985  1
  Bi2+  Bi82  1  0.53157159  0.37957171  0.29496714  1
  Bi2+  Bi83  1  0.53903830  0.35596684  0.75314004  1
  Bi2+  Bi84  1  0.50664041  0.66514865  0.30151382  1
  Bi2+  Bi85  1  0.51152037  0.61803639  0.79130666  1
  Bi2+  Bi86  1  0.65852644  0.86787500  0.27646896  1
  Bi2+  Bi87  1  0.49582077  0.94683669  0.81928207  1
  Bi2+  Bi88  1  0.73892753  0.08963265  0.30529755  1
  Bi2+  Bi89  1  0.71295431  0.07747415  0.77129033  1
  Bi2+  Bi90  1  0.72746542  0.37770610  0.28800723  1
  Bi2+  Bi91  1  0.74520323  0.29640100  0.80971836  1
  Bi2+  Bi92  1  0.76255987  0.63597381  0.27214021  1
  Bi2+  Bi93  1  0.77897964  0.56953816  0.79736780  1
  Bi2+  Bi94  1  0.83895547  0.90851524  0.31153943  1
  Bi2+  Bi95  1  0.66012292  0.83277149  0.81736187  1
  Bi2+  Bi96  1  0.12648487  0.02165877  0.21477783  1
  Bi2+  Bi97  1  0.12301803  -0.06653397  0.70986509  1
  Bi2+  Bi98  1  0.13881959  0.27386591  0.22024981  1
  Bi2+  Bi99  1  0.10283292  0.23823078  0.69496826  1
  Bi2+  Bi100  1  0.17664544  0.52448421  0.21985347  1
  Bi2+  Bi101  1  0.17423407  0.48941455  0.71009956  1
  Bi2+  Bi102  1  0.11100467  0.77157368  0.21215161  1
  Bi2+  Bi103  1  0.18587259  0.68246286  0.70648076  1
  Bi2+  Bi104  1  0.43452827  0.01792558  0.21478751  1
  Bi2+  Bi105  1  0.39229999  -0.01743364  0.71294276  1
  Bi2+  Bi106  1  0.38534987  0.28315911  0.20833681  1
  Bi2+  Bi107  1  0.37590124  0.26706200  0.71108656  1
  Bi2+  Bi108  1  0.41397426  0.52833329  0.22087876  1
  Bi2+  Bi109  1  0.40655768  0.52328001  0.71038684  1
  Bi2+  Bi110  1  0.30134636  0.83362739  0.19319318  1
  Bi2+  Bi111  1  0.41191398  0.79093112  0.76521699  1
  Bi2+  Bi112  1  0.62349372  0.06143471  0.21719962  1
  Bi2+  Bi113  1  0.58931913  -0.03042774  0.70655653  1
  Bi2+  Bi114  1  0.58448200  0.25825981  0.20536463  1
  Bi2+  Bi115  1  0.55500018  0.17046374  0.70226597  1
  Bi2+  Bi116  1  0.61517957  0.53991803  0.21544090  1
  Bi2+  Bi117  1  0.66280178  0.46192293  0.69245369  1
  Bi2+  Bi118  1  0.72387316  0.75747513  0.18383038  1
  Bi2+  Bi119  1  0.64041990  0.71545730  0.72530436  1
  Bi2+  Bi120  1  0.86415159  -0.04172685  0.19721685  1
  Bi2+  Bi121  1  0.85447926  -0.04042853  0.69953994  1
  Bi2+  Bi122  1  0.86889466  0.23674177  0.20495424  1
  Bi2+  Bi123  1  0.85971554  0.23860270  0.69003787  1
  Bi2+  Bi124  1  0.87461116  0.57972901  0.18668251  1
  Bi2+  Bi125  1  0.90418563  0.60204731  0.70757511  1
  Bi2+  Bi126  1  0.91719222  0.76880349  0.17414972  1
  Bi2+  Bi127  1  0.82354830  0.76782927  0.75961057  1
  S2-  S128  1  0.02506506  0.22185920  0.15956242  1
  S2-  S129  1  -0.01778547  0.12131911  0.67203751  1
  S2-  S130  1  -0.09415671  0.39493639  0.17199740  1
  S2-  S131  1  -0.01345000  0.32319303  0.63630658  1
  S2-  S132  1  0.10540221  0.61687409  0.15374142  1
  S2-  S133  1  0.03573838  0.65095986  0.64799765  1
  S2-  S134  1  0.01502502  0.96569136  0.14215148  1
  S2-  S135  1  -0.01979395  0.88493445  0.65488836  1
  S2-  S136  1  0.25635922  0.23402961  0.15029505  1
  S2-  S137  1  0.18880518  0.08586640  0.67950841  1
  S2-  S138  1  0.14394167  0.40108925  0.15593356  1
  S2-  S139  1  0.23777155  0.29396575  0.64370456  1
  S2-  S140  1  0.30565740  0.58741749  0.15839961  1
  S2-  S141  1  0.37523020  0.63911914  0.64460884  1
  S2-  S142  1  0.24365138  0.98525551  0.14192609  1
  S2-  S143  1  0.22290451  0.81922479  0.65263799  1
  S2-  S144  1  0.43606597  0.11331533  0.13756592  1
  S2-  S145  1  0.39473097  0.13144371  0.64533048  1
  S2-  S146  1  0.50294255  0.45739348  0.14544353  1
  S2-  S147  1  0.50943210  0.40858128  0.64956262  1
  S2-  S148  1  0.50861036  0.66286643  0.18307167  1
  S2-  S149  1  0.61081435  0.62258382  0.64370721  1
  S2-  S150  1  0.45872602  0.87864513  0.15735937  1
  S2-  S151  1  0.47431489  0.86406397  0.65778038  1
  S2-  S152  1  0.87012610  0.10522249  0.14901528  1
  S2-  S153  1  0.77432497  0.09931831  0.65646105  1
  S2-  S154  1  0.72778322  0.25160924  0.14683511  1
  S2-  S155  1  0.73295247  0.30995884  0.65001956  1
  S2-  S156  1  0.73214176  0.50506379  0.14463645  1
  S2-  S157  1  0.79103631  0.51669447  0.63714920  1
  S2-  S158  1  0.71208051  0.97685533  0.14448709  1
  S2-  S159  1  0.74532955  0.86476672  0.65549286  1
  S2-  S160  1  0.12482315  0.08648028  0.36294123  1
  S2-  S161  1  0.10331391  0.10022345  0.84834372  1
  S2-  S162  1  0.05281999  0.27374658  0.31432652  1
  S2-  S163  1  0.03980780  0.26809248  0.79237867  1
  S2-  S164  1  0.18255237  0.45064855  0.31629842  1
  S2-  S165  1  0.12955502  0.42404006  0.85220504  1
  S2-  S166  1  0.16329861  0.66581499  0.35315085  1
  S2-  S167  1  0.12895246  0.73947255  0.85287331  1
  S2-  S168  1  0.36511282  0.00329135  0.33752849  1
  S2-  S169  1  0.25651276  -0.02717651  0.85476849  1
  S2-  S170  1  0.27339407  0.24477180  0.35560110  1
  S2-  S171  1  0.27357993  0.23827073  0.85101284  1
  S2-  S172  1  0.40764104  0.54837571  0.35028139  1
  S2-  S173  1  0.38260687  0.45519279  0.84639961  1
  S2-  S174  1  0.40995104  0.77792895  0.34000084  1
  S2-  S175  1  0.39073863  0.70760995  0.85513768  1
  S2-  S176  1  0.61088309  -0.01432403  0.34574689  1
  S2-  S177  1  0.74105260  -0.02303776  0.85543818  1
  S2-  S178  1  0.69635914  0.24276867  0.35331644  1
  S2-  S179  1  0.64075993  0.16459154  0.83976955  1
  S2-  S180  1  0.71225556  0.51277694  0.34891382  1
  S2-  S181  1  0.62438220  0.37596150  0.85376171  1
  S2-  S182  1  0.63343467  0.73748214  0.34890879  1
  S2-  S183  1  0.63034612  0.62273031  0.86352168  1
  S2-  S184  1  0.88567236  0.12757126  0.35556127  1
  S2-  S185  1  0.95587794  -0.03861262  0.83723066  1
  S2-  S186  1  0.86587078  0.37041361  0.34260743  1
  S2-  S187  1  0.86228180  0.18451490  0.85435611  1
  S2-  S188  1  0.99100073  0.52573480  0.33702625  1
  S2-  S189  1  0.85270059  0.42731415  0.83786864  1
  S2-  S190  1  0.86054725  0.67736330  0.34989913  1
  S2-  S191  1  0.87387027  0.64399835  0.86402770  1
  S2-  S192  1  -0.00765588  0.13843661  0.45992819  1
  S2-  S193  1  0.00092220  0.12169242  0.95639644  1
  S2-  S194  1  0.00358673  0.38296688  0.43939419  1
  S2-  S195  1  -0.00098346  0.36691959  0.94810022  1
  S2-  S196  1  -0.00351900  0.63600646  0.44920496  1
  S2-  S197  1  0.00307499  0.61993366  0.96252861  1
  S2-  S198  1  -0.00775487  0.88889059  0.45130291  1
  S2-  S199  1  -0.00228977  0.86787849  0.95155337  1
  S2-  S200  1  0.24494527  0.13561673  0.46608743  1
  S2-  S201  1  0.25346191  0.11539061  0.95640449  1
  S2-  S202  1  0.24123477  0.39017499  0.45003480  1
  S2-  S203  1  0.24448742  0.36551602  0.95854968  1
  S2-  S204  1  0.24297391  0.63471212  0.46307783  1
  S2-  S205  1  0.24564253  0.61808667  0.96033764  1
  S2-  S206  1  0.24151318  0.88693305  0.45175266  1
  S2-  S207  1  0.25183282  0.86207807  0.95806930  1
  S2-  S208  1  0.49140763  0.13681332  0.45273934  1
  S2-  S209  1  0.49225986  0.11909258  0.94155748  1
  S2-  S210  1  0.49159834  0.38626277  0.44614649  1
  S2-  S211  1  0.48904997  0.36545316  0.95312239  1
  S2-  S212  1  0.49220845  0.63777564  0.46122544  1
  S2-  S213  1  0.49194627  0.61447805  0.96533163  1
  S2-  S214  1  0.48965216  0.88686064  0.45295495  1
  S2-  S215  1  0.49784170  0.86101850  0.95158000  1
  S2-  S216  1  0.73939095  0.13281867  0.45785923  1
  S2-  S217  1  0.74517686  0.11865722  0.96040161  1
  S2-  S218  1  0.73721766  0.38829501  0.45323066  1
  S2-  S219  1  0.75172794  0.36989324  0.96035125  1
  S2-  S220  1  0.73908166  0.63840432  0.45850958  1
  S2-  S221  1  0.75010997  0.61779709  0.96524767  1
  S2-  S222  1  0.74212668  0.88783846  0.45216998  1
  S2-  S223  1  0.74564997  0.85962356  0.95702355  1
  S2-  S224  1  0.12555611  -0.00925036  0.03696017  1
  S2-  S225  1  0.11303432  0.01373708  0.55701571  1
  S2-  S226  1  0.12360015  0.23932315  0.05121816  1
  S2-  S227  1  0.11896345  0.26041831  0.53856853  1
  S2-  S228  1  0.11891483  0.48875405  0.04883596  1
  S2-  S229  1  0.11885418  0.51108670  0.55133639  1
  S2-  S230  1  0.12160269  0.75122074  0.05630116  1
  S2-  S231  1  0.11396643  0.76340215  0.54136962  1
  S2-  S232  1  0.37684631  -0.01158093  0.03681429  1
  S2-  S233  1  0.36917361  0.00903039  0.54695571  1
  S2-  S234  1  0.37325896  0.24439075  0.04054319  1
  S2-  S235  1  0.37379320  0.26593147  0.54413528  1
  S2-  S236  1  0.36388311  0.48853556  0.05014017  1
  S2-  S237  1  0.36956153  0.50889691  0.54825776  1
  S2-  S238  1  0.37175285  0.73942196  0.05640670  1
  S2-  S239  1  0.36922171  0.76411302  0.54519331  1
  S2-  S240  1  0.61699722  -0.00967889  0.03656643  1
  S2-  S241  1  0.62024687  0.01098233  0.55211096  1
  S2-  S242  1  0.61832087  0.24323676  0.04225700  1
  S2-  S243  1  0.61590072  0.26383312  0.54634447  1
  S2-  S244  1  0.61988328  0.49266599  0.04180181  1
  S2-  S245  1  0.61609159  0.50984242  0.53969388  1
  S2-  S246  1  0.61848142  0.73862907  0.05162375  1
  S2-  S247  1  0.61941771  0.76545046  0.55065401  1
  S2-  S248  1  0.86891733  -0.01051656  0.03892992  1
  S2-  S249  1  0.86979442  0.01144639  0.54451765  1
  S2-  S250  1  0.87836890  0.24725658  0.05184152  1
  S2-  S251  1  0.86531844  0.26456684  0.53602571  1
  S2-  S252  1  0.88130423  0.49174019  0.04714219  1
  S2-  S253  1  0.87340634  0.51091141  0.52816711  1
  S2-  S254  1  0.87180696  0.74507996  0.04852819  1
  S2-  S255  1  0.86708054  0.76167686  0.54737674  1
