# generated using pymatgen
data_La9Ce10Pr6Nd4Sm3(BiS2)32
_symmetry_space_group_name_H-M   'P 1'
_cell_length_a   16.26247891
_cell_length_b   16.25508082
_cell_length_c   27.18222628
_cell_angle_alpha   90.08120962
_cell_angle_beta   89.84225682
_cell_angle_gamma   89.99194768
_symmetry_Int_Tables_number   1
_chemical_formula_structural   La9Ce10Pr6Nd4Sm3(BiS2)32
_chemical_formula_sum   'La18 Ce20 Pr12 Nd8 Sm6 Bi64 S128'
_cell_volume   7185.53015207
_cell_formula_units_Z   2
loop_
 _symmetry_equiv_pos_site_id
 _symmetry_equiv_pos_as_xyz
  1  'x, y, z'
loop_
 _atom_type_symbol
 _atom_type_oxidation_number
  La3+  3.0
  Ce3+  3.0
  Pr3+  3.0
  Nd3+  3.0
  Sm3+  3.0
  Bi2+  2.0
  S2-  -2.0
loop_
 _atom_site_type_symbol
 _atom_site_label
 _atom_site_symmetry_multiplicity
 _atom_site_fract_x
 _atom_site_fract_y
 _atom_site_fract_z
 _atom_site_occupancy
  La3+  La0  1  0.86572536  0.50299304  0.44039748  1
  La3+  La1  1  0.12258964  0.49978510  0.43002045  1
  La3+  La2  1  0.15029343  0.24476082  0.91988373  1
  La3+  La3  1  0.14553239  0.50872446  0.91724686  1
  La3+  La4  1  0.23063481  0.37721794  0.57128289  1
  La3+  La5  1  0.51511216  0.87926285  0.06739091  1
  La3+  La6  1  0.89520962  0.75470172  0.93482791  1
  La3+  La7  1  0.26296023  0.61315043  0.07807849  1
  La3+  La8  1  0.89905867  0.50265679  0.93149469  1
  La3+  La9  1  0.23835341  0.62905319  0.56434596  1
  La3+  La10  1  0.13485781  0.75348567  0.39754785  1
  La3+  La11  1  0.87246287  0.75142356  0.43051850  1
  La3+  La12  1  0.25748220  0.88319635  0.07988396  1
  La3+  La13  1  0.00503692  0.87436071  0.10627134  1
  La3+  La14  1  0.52117857  0.38422202  0.07320162  1
  La3+  La15  1  0.51794084  0.13048681  0.06174725  1
  La3+  La16  1  0.86579628  0.25196552  0.43687709  1
  La3+  La17  1  0.61998172  0.75370174  0.43378618  1
  Ce3+  Ce18  1  0.38888245  0.50321172  0.93860838  1
  Ce3+  Ce19  1  0.39575455  0.25399586  0.94041737  1
  Ce3+  Ce20  1  0.49471276  0.62860948  0.55619527  1
  Ce3+  Ce21  1  0.89651875  -0.00013254  0.94327307  1
  Ce3+  Ce22  1  0.51578465  0.62539189  0.05717452  1
  Ce3+  Ce23  1  0.74004256  0.38612302  0.58395570  1
  Ce3+  Ce24  1  0.36578157  0.75408902  0.44689077  1
  Ce3+  Ce25  1  0.77065915  0.62819158  0.05670954  1
  Ce3+  Ce26  1  0.01946514  0.37836155  0.05617553  1
  Ce3+  Ce27  1  0.74411494  0.87464560  0.56696174  1
  Ce3+  Ce28  1  0.36737135  0.00087692  0.44947028  1
  Ce3+  Ce29  1  0.01793603  0.12641094  0.06060930  1
  Ce3+  Ce30  1  0.01571124  0.61958066  0.06453076  1
  Ce3+  Ce31  1  0.26293145  0.37561574  0.05266235  1
  Ce3+  Ce32  1  0.63560801  -0.00019701  0.93303536  1
  Ce3+  Ce33  1  -0.01418453  0.37560676  0.55730601  1
  Ce3+  Ce34  1  0.61779800  0.25398082  0.44268020  1
  Ce3+  Ce35  1  0.76688238  0.37729017  0.06449707  1
  Ce3+  Ce36  1  0.49617223  0.12912869  0.56039089  1
  Ce3+  Ce37  1  0.76893151  0.12533025  0.04988736  1
  Pr3+  Pr38  1  0.49204701  0.87828339  0.56270261  1
  Pr3+  Pr39  1  0.36975984  0.25309328  0.44788315  1
  Pr3+  Pr40  1  0.76434117  0.87700633  0.05789379  1
  Pr3+  Pr41  1  0.36855933  0.50133915  0.44729537  1
  Pr3+  Pr42  1  0.23925858  0.13047043  0.55934064  1
  Pr3+  Pr43  1  0.64275599  0.25451937  0.93762902  1
  Pr3+  Pr44  1  0.86935407  -0.00009005  0.43711909  1
  Pr3+  Pr45  1  0.89358363  0.25160517  0.93965567  1
  Pr3+  Pr46  1  0.12043787  0.25266569  0.42720773  1
  Pr3+  Pr47  1  0.23131623  0.88018641  0.56736535  1
  Pr3+  Pr48  1  0.14787546  0.00132926  0.93246077  1
  Pr3+  Pr49  1  0.26195245  0.12879838  0.06333230  1
  Nd3+  Nd50  1  0.39209205  -0.00218231  0.93880034  1
  Nd3+  Nd51  1  -0.00583798  0.87697579  0.54996741  1
  Nd3+  Nd52  1  0.63938933  0.75065264  0.94408665  1
  Nd3+  Nd53  1  0.12244737  0.00132437  0.43259281  1
  Nd3+  Nd54  1  0.61939015  0.00061784  0.44670383  1
  Nd3+  Nd55  1  0.49767856  0.37869503  0.56609159  1
  Nd3+  Nd56  1  0.64834198  0.50127596  0.93348604  1
  Nd3+  Nd57  1  0.74374956  0.63340666  0.56924080  1
  Sm3+  Sm58  1  -0.00908415  0.12814657  0.55331119  1
  Sm3+  Sm59  1  0.38740902  0.75019713  0.95520050  1
  Sm3+  Sm60  1  0.62028623  0.50283679  0.44387284  1
  Sm3+  Sm61  1  0.14514309  0.75223950  0.95332998  1
  Sm3+  Sm62  1  -0.00543941  0.62946321  0.54983549  1
  Sm3+  Sm63  1  0.74371237  0.12809112  0.55586593  1
  Bi2+  Bi64  1  0.02661866  0.14021252  0.30516128  1
  Bi2+  Bi65  1  -0.00678090  0.06218744  0.77378248  1
  Bi2+  Bi66  1  0.03324749  0.32920244  0.27366002  1
  Bi2+  Bi67  1  -0.01550526  0.37889776  0.78876646  1
  Bi2+  Bi68  1  0.00983051  0.56998217  0.27659042  1
  Bi2+  Bi69  1  0.00706089  0.58743143  0.75244196  1
  Bi2+  Bi70  1  -0.03493729  0.89241928  0.30318504  1
  Bi2+  Bi71  1  0.04497185  0.86970776  0.77937820  1
  Bi2+  Bi72  1  0.21715223  0.16562876  0.30773746  1
  Bi2+  Bi73  1  0.24821243  0.10402870  0.79369418  1
  Bi2+  Bi74  1  0.27386208  0.36495834  0.29576773  1
  Bi2+  Bi75  1  0.27485572  0.36221382  0.78983741  1
  Bi2+  Bi76  1  0.28150445  0.61703414  0.29185402  1
  Bi2+  Bi77  1  0.25645756  0.64387929  0.79855885  1
  Bi2+  Bi78  1  0.26093036  0.88669877  0.28885224  1
  Bi2+  Bi79  1  0.22886364  0.83546071  0.81474643  1
  Bi2+  Bi80  1  0.50909123  0.11779537  0.26847153  1
  Bi2+  Bi81  1  0.52207670  0.12965356  0.79700271  1
  Bi2+  Bi82  1  0.50692472  0.31280103  0.28040310  1
  Bi2+  Bi83  1  0.46134908  0.37378037  0.75034765  1
  Bi2+  Bi84  1  0.47212504  0.62594771  0.25245785  1
  Bi2+  Bi85  1  0.48984170  0.65562769  0.76842624  1
  Bi2+  Bi86  1  0.47634305  0.90317252  0.29949678  1
  Bi2+  Bi87  1  0.53952743  0.86076595  0.79757277  1
  Bi2+  Bi88  1  0.71049473  0.13045042  0.25693567  1
  Bi2+  Bi89  1  0.71842636  0.10676436  0.78128234  1
  Bi2+  Bi90  1  0.77046462  0.33160387  0.28775911  1
  Bi2+  Bi91  1  0.69835842  0.37316192  0.80920657  1
  Bi2+  Bi92  1  0.75505443  0.61844154  0.31515157  1
  Bi2+  Bi93  1  0.73549347  0.62032009  0.80290933  1
  Bi2+  Bi94  1  0.72251923  0.88974991  0.30156368  1
  Bi2+  Bi95  1  0.75838917  0.91285339  0.79359804  1
  Bi2+  Bi96  1  0.13727058  0.07161155  0.21640162  1
  Bi2+  Bi97  1  0.16098999  -0.02947404  0.70436977  1
  Bi2+  Bi98  1  0.06339339  0.26109281  0.16714994  1
  Bi2+  Bi99  1  0.12135967  0.23211393  0.69243532  1
  Bi2+  Bi100  1  0.14025253  0.49524797  0.20495671  1
  Bi2+  Bi101  1  0.14618249  0.47801194  0.70196798  1
  Bi2+  Bi102  1  0.10722381  0.74490509  0.22000389  1
  Bi2+  Bi103  1  0.12131747  0.73658378  0.68824529  1
  Bi2+  Bi104  1  0.37825363  0.00076397  0.21816238  1
  Bi2+  Bi105  1  0.39291015  0.00644639  0.73270725  1
  Bi2+  Bi106  1  0.24717327  0.23809064  0.20141664  1
  Bi2+  Bi107  1  0.40987734  0.19908254  0.71225051  1
  Bi2+  Bi108  1  0.39861665  0.46342757  0.20952948  1
  Bi2+  Bi109  1  0.36754015  0.52963139  0.72073664  1
  Bi2+  Bi110  1  0.38727758  0.79545774  0.21737164  1
  Bi2+  Bi111  1  0.39045549  0.80795314  0.72845075  1
  Bi2+  Bi112  1  0.63102931  -0.01693130  0.18809602  1
  Bi2+  Bi113  1  0.59676347  -0.00953454  0.71398059  1
  Bi2+  Bi114  1  0.60778760  0.24792498  0.18793591  1
  Bi2+  Bi115  1  0.68961856  0.22700060  0.69178219  1
  Bi2+  Bi116  1  0.66047214  0.47196856  0.24192081  1
  Bi2+  Bi117  1  0.60958823  0.49120975  0.71009867  1
  Bi2+  Bi118  1  0.64826577  0.69599456  0.22962041  1
  Bi2+  Bi119  1  0.63391416  0.72940910  0.70358383  1
  Bi2+  Bi120  1  0.88866138  0.12915557  0.20629834  1
  Bi2+  Bi121  1  0.86178462  -0.02535566  0.70497610  1
  Bi2+  Bi122  1  0.87203203  0.31837034  0.18247990  1
  Bi2+  Bi123  1  0.88434666  0.22278410  0.74653324  1
  Bi2+  Bi124  1  0.85243899  0.49856579  0.22401246  1
  Bi2+  Bi125  1  0.86347910  0.47370643  0.71711864  1
  Bi2+  Bi126  1  0.84581865  0.74848861  0.20059774  1
  Bi2+  Bi127  1  0.88116731  0.77821255  0.75179523  1
  S2-  S128  1  0.00872119  0.04409414  0.14736124  1
  S2-  S129  1  0.01176407  0.14161400  0.65040682  1
  S2-  S130  1  0.02931046  0.48718907  0.13377404  1
  S2-  S131  1  0.05677551  0.37843789  0.64563496  1
  S2-  S132  1  -0.01451717  0.70762748  0.14989671  1
  S2-  S133  1  0.00829631  0.64181558  0.64864582  1
  S2-  S134  1  -0.06211958  0.88112574  0.20772967  1
  S2-  S135  1  0.06159045  0.88112660  0.64139578  1
  S2-  S136  1  0.26476086  0.02823996  0.14523229  1
  S2-  S137  1  0.22587086  0.12030009  0.65968437  1
  S2-  S138  1  0.26526039  0.45847965  0.13907141  1
  S2-  S139  1  0.24949667  0.34885795  0.67051901  1
  S2-  S140  1  0.21828128  0.64973594  0.17736535  1
  S2-  S141  1  0.24621748  0.61331877  0.66459108  1
  S2-  S142  1  0.15114989  0.86135741  0.16221456  1
  S2-  S143  1  0.26561012  0.84325702  0.66407031  1
  S2-  S144  1  0.49858525  0.09793445  0.15989121  1
  S2-  S145  1  0.54261257  0.14414970  0.65392396  1
  S2-  S146  1  0.45892229  0.32887519  0.16370990  1
  S2-  S147  1  0.60003047  0.36716155  0.64656196  1
  S2-  S148  1  0.48745310  0.57398846  0.14803443  1
  S2-  S149  1  0.52490558  0.61620034  0.65162224  1
  S2-  S150  1  0.52605047  0.85413912  0.16646710  1
  S2-  S151  1  0.55659793  0.85908675  0.65511048  1
  S2-  S152  1  0.74485744  0.10598948  0.14625448  1
  S2-  S153  1  0.77284847  0.08783991  0.65036334  1
  S2-  S154  1  0.66197064  0.39070565  0.14346021  1
  S2-  S155  1  0.82958768  0.32702932  0.66309781  1
  S2-  S156  1  0.73978708  0.62703676  0.15347204  1
  S2-  S157  1  0.74838817  0.52940914  0.65060498  1
  S2-  S158  1  0.74409708  0.87495011  0.15886325  1
  S2-  S159  1  0.75802746  0.76009522  0.64045110  1
  S2-  S160  1  0.12609845  -0.08662208  0.34587594  1
  S2-  S161  1  0.11588766  0.11416857  0.85059081  1
  S2-  S162  1  0.12767993  0.37518274  0.35482883  1
  S2-  S163  1  0.13170823  0.34521835  0.83521889  1
  S2-  S164  1  0.14890565  0.59474308  0.34523200  1
  S2-  S165  1  0.01219607  0.51214777  0.84993211  1
  S2-  S166  1  0.02564636  0.73966202  0.31655083  1
  S2-  S167  1  0.14006052  0.68976552  0.85957595  1
  S2-  S168  1  0.35629236  -0.00699649  0.35263779  1
  S2-  S169  1  0.27995342  -0.01930917  0.86199952  1
  S2-  S170  1  0.38711511  0.26809305  0.34814809  1
  S2-  S171  1  0.31574821  0.23447191  0.85353933  1
  S2-  S172  1  0.35550040  0.49687010  0.34625552  1
  S2-  S173  1  0.29233483  0.50805049  0.85591209  1
  S2-  S174  1  0.30126474  0.75228465  0.35596307  1
  S2-  S175  1  0.36481693  0.75474067  0.85783198  1
  S2-  S176  1  0.61270042  -0.01971789  0.34840963  1
  S2-  S177  1  0.51423955  -0.01022854  0.86288340  1
  S2-  S178  1  0.63572619  0.26577808  0.34647282  1
  S2-  S179  1  0.57077299  0.27156010  0.84670168  1
  S2-  S180  1  0.63960994  0.51152095  0.34627874  1
  S2-  S181  1  0.59899788  0.50066697  0.83667134  1
  S2-  S182  1  0.62340945  0.75247724  0.33280867  1
  S2-  S183  1  0.64945617  0.74242792  0.84511901  1
  S2-  S184  1  0.84141397  -0.00145332  0.33767237  1
  S2-  S185  1  0.88632557  0.00051040  0.84612856  1
  S2-  S186  1  0.90426078  0.26332612  0.33909860  1
  S2-  S187  1  0.85882434  0.27431936  0.84053755  1
  S2-  S188  1  0.89591618  0.51777679  0.34125952  1
  S2-  S189  1  0.78942145  0.48665431  0.85307634  1
  S2-  S190  1  0.83632318  0.77957438  0.33316112  1
  S2-  S191  1  0.87731836  0.69345431  0.84056155  1
  S2-  S192  1  -0.00439984  0.12543255  0.44732220  1
  S2-  S193  1  0.01399397  0.12616584  0.95417014  1
  S2-  S194  1  -0.00919310  0.37583368  0.45092700  1
  S2-  S195  1  0.01953076  0.37193419  0.94948226  1
  S2-  S196  1  -0.00206698  0.62904375  0.44489628  1
  S2-  S197  1  0.01767254  0.63166382  0.95795786  1
  S2-  S198  1  -0.00234611  0.87646024  0.44465487  1
  S2-  S199  1  0.02349289  0.87607357  0.93991449  1
  S2-  S200  1  0.24371154  0.12800155  0.45188998  1
  S2-  S201  1  0.27306232  0.12565701  0.95808729  1
  S2-  S202  1  0.24597125  0.37479594  0.46137407  1
  S2-  S203  1  0.26872297  0.37499113  0.95022401  1
  S2-  S204  1  0.24634229  0.62725067  0.45715472  1
  S2-  S205  1  0.26827714  0.62854979  0.96543149  1
  S2-  S206  1  0.24211518  0.87824356  0.45901838  1
  S2-  S207  1  0.26788573  0.87196998  0.96886541  1
  S2-  S208  1  0.49463842  0.12587334  0.45250524  1
  S2-  S209  1  0.51697642  0.12961281  0.95454891  1
  S2-  S210  1  0.49654181  0.37999478  0.45856051  1
  S2-  S211  1  0.51729722  0.38134616  0.95735100  1
  S2-  S212  1  0.49409453  0.62656122  0.44820813  1
  S2-  S213  1  0.51405953  0.62785666  0.94958250  1
  S2-  S214  1  0.49299031  0.87738379  0.45511739  1
  S2-  S215  1  0.51374376  0.86980526  0.96024566  1
  S2-  S216  1  0.74242224  0.12497542  0.44942095  1
  S2-  S217  1  0.76483431  0.12528478  0.94337966  1
  S2-  S218  1  0.74134328  0.37937880  0.45350862  1
  S2-  S219  1  0.76758441  0.37509550  0.95728059  1
  S2-  S220  1  0.74249712  0.62889357  0.45606721  1
  S2-  S221  1  0.76616084  0.62949540  0.95200721  1
  S2-  S222  1  0.74498524  0.87696569  0.45618331  1
  S2-  S223  1  0.76369096  0.87725456  0.94942847  1
  S2-  S224  1  0.13615336  0.00264204  0.04253978  1
  S2-  S225  1  0.11494466  0.00777755  0.54021698  1
  S2-  S226  1  0.14168316  0.25151483  0.03817616  1
  S2-  S227  1  0.11335507  0.25032189  0.53813605  1
  S2-  S228  1  0.14264290  0.49825140  0.03209812  1
  S2-  S229  1  0.11384725  0.50388056  0.54252246  1
  S2-  S230  1  0.13839379  0.74823229  0.05547291  1
  S2-  S231  1  0.11622674  0.75150224  0.54274461  1
  S2-  S232  1  0.39247522  0.00300357  0.04674514  1
  S2-  S233  1  0.36601364  0.00424315  0.55742119  1
  S2-  S234  1  0.39023459  0.25295462  0.04873313  1
  S2-  S235  1  0.36964111  0.25539645  0.55579914  1
  S2-  S236  1  0.39286252  0.49942475  0.04231708  1
  S2-  S237  1  0.36843654  0.49933002  0.55599549  1
  S2-  S238  1  0.38622117  0.74987978  0.06138384  1
  S2-  S239  1  0.36761231  0.75365307  0.55415532  1
  S2-  S240  1  0.64049251  0.00239678  0.04120787  1
  S2-  S241  1  0.62109580  0.00237818  0.55213991  1
  S2-  S242  1  0.64441805  0.25181975  0.04453585  1
  S2-  S243  1  0.62254544  0.25162030  0.54642510  1
  S2-  S244  1  0.64387833  0.50791243  0.04161960  1
  S2-  S245  1  0.61822052  0.50654138  0.54659586  1
  S2-  S246  1  0.63971391  0.75087817  0.05079044  1
  S2-  S247  1  0.61672480  0.75349615  0.54219085  1
  S2-  S248  1  0.89129420  -0.00316111  0.04821561  1
  S2-  S249  1  0.86979358  0.00179889  0.54426452  1
  S2-  S250  1  0.89136603  0.25085880  0.04631013  1
  S2-  S251  1  0.86549317  0.24853613  0.54512599  1
  S2-  S252  1  0.88726712  0.50013009  0.04197543  1
  S2-  S253  1  0.87019607  0.50612282  0.54800172  1
  S2-  S254  1  0.89161851  0.75717876  0.04389139  1
  S2-  S255  1  0.87370221  0.75239663  0.53898039  1
