# generated using pymatgen
data_La9Ce10Pr6Nd4Sm3(BiS2)32
_symmetry_space_group_name_H-M   'P 1'
_cell_length_a   16.08027527
_cell_length_b   16.15382551
_cell_length_c   27.34725444
_cell_angle_alpha   89.68400223
_cell_angle_beta   89.50667316
_cell_angle_gamma   89.97809659
_symmetry_Int_Tables_number   1
_chemical_formula_structural   La9Ce10Pr6Nd4Sm3(BiS2)32
_chemical_formula_sum   'La18 Ce20 Pr12 Nd8 Sm6 Bi64 S128'
_cell_volume   7103.29530434
_cell_formula_units_Z   2
loop_
 _symmetry_equiv_pos_site_id
 _symmetry_equiv_pos_as_xyz
  1  'x, y, z'
loop_
 _atom_type_symbol
 _atom_type_oxidation_number
  La3+  3.0
  Ce3+  3.0
  Pr3+  3.0
  Nd3+  3.0
  Sm3+  3.0
  Bi2+  2.0
  S2-  -2.0
loop_
 _atom_site_type_symbol
 _atom_site_label
 _atom_site_symmetry_multiplicity
 _atom_site_fract_x
 _atom_site_fract_y
 _atom_site_fract_z
 _atom_site_occupancy
  La3+  La0  1  -0.04013664  0.62935773  0.56264065  1
  La3+  La1  1  0.07907612  0.76089416  0.41250563  1
  La3+  La2  1  0.77258374  0.37329004  0.06499634  1
  La3+  La3  1  0.46832826  0.36873548  0.57544811  1
  La3+  La4  1  0.08476573  0.49430544  0.41929222  1
  La3+  La5  1  -0.03628119  0.38005549  0.56676772  1
  La3+  La6  1  0.34717799  0.75004230  0.41799255  1
  La3+  La7  1  0.40013459  0.00094086  0.92780503  1
  La3+  La8  1  0.26914004  0.37487444  0.07828591  1
  La3+  La9  1  0.34243449  0.00647802  0.42394895  1
  La3+  La10  1  0.45412498  0.62523919  0.56484676  1
  La3+  La11  1  0.58520434  0.25845199  0.42755843  1
  La3+  La12  1  0.00334450  0.63162502  0.08423515  1
  La3+  La13  1  0.26947460  0.62445589  0.08622115  1
  La3+  La14  1  0.76194232  0.11001505  0.10274805  1
  La3+  La15  1  0.39521276  0.50357376  0.94222931  1
  La3+  La16  1  -0.04064228  0.12162840  0.57018721  1
  La3+  La17  1  0.84491014  0.24834703  0.43128165  1
  Ce3+  Ce18  1  0.59143282  0.49876771  0.43568031  1
  Ce3+  Ce19  1  0.71375441  0.37719465  0.56273915  1
  Ce3+  Ce20  1  0.27218083  0.12112065  0.05485548  1
  Ce3+  Ce21  1  0.21413282  0.38406735  0.57123897  1
  Ce3+  Ce22  1  0.14808670  0.25141466  0.94962797  1
  Ce3+  Ce23  1  0.64105715  0.74863646  0.94257106  1
  Ce3+  Ce24  1  0.01577227  0.37027047  0.06236606  1
  Ce3+  Ce25  1  0.70535097  0.62429631  0.56535156  1
  Ce3+  Ce26  1  0.09119902  0.25307654  0.45037649  1
  Ce3+  Ce27  1  0.51818187  0.12236975  0.06375568  1
  Ce3+  Ce28  1  0.15229538  -0.00379447  0.93238144  1
  Ce3+  Ce29  1  0.01927963  0.11844350  0.05675519  1
  Ce3+  Ce30  1  0.64510034  -0.00220490  0.93934562  1
  Ce3+  Ce31  1  0.70565588  0.87672759  0.56645503  1
  Ce3+  Ce32  1  0.33815181  0.25395815  0.44671576  1
  Ce3+  Ce33  1  0.52198107  0.37188460  0.06775035  1
  Ce3+  Ce34  1  0.21207122  0.87256506  0.54831590  1
  Ce3+  Ce35  1  0.71260793  0.12654803  0.55946743  1
  Ce3+  Ce36  1  0.77215014  0.87481009  0.05300144  1
  Ce3+  Ce37  1  0.08720441  0.00521641  0.43685244  1
  Pr3+  Pr38  1  0.90241412  0.50219359  0.93523715  1
  Pr3+  Pr39  1  0.59212915  0.00900800  0.42266489  1
  Pr3+  Pr40  1  -0.04516471  0.87456606  0.56268341  1
  Pr3+  Pr41  1  0.90231502  -0.00191381  0.93022627  1
  Pr3+  Pr42  1  0.14510994  0.50280994  0.95335302  1
  Pr3+  Pr43  1  0.89537898  0.24560185  0.94356648  1
  Pr3+  Pr44  1  0.45601100  0.87806491  0.55898623  1
  Pr3+  Pr45  1  0.90714992  0.75209989  0.92745402  1
  Pr3+  Pr46  1  0.26600101  0.87270235  0.07962143  1
  Pr3+  Pr47  1  0.52227940  0.61768843  0.07708592  1
  Pr3+  Pr48  1  0.20910959  0.12037533  0.56939962  1
  Pr3+  Pr49  1  0.64769421  0.24810799  0.94717899  1
  Nd3+  Nd50  1  0.83351906  0.75342516  0.43873209  1
  Nd3+  Nd51  1  0.40010673  0.74410019  0.93808785  1
  Nd3+  Nd52  1  0.58976131  0.75289550  0.43686246  1
  Nd3+  Nd53  1  0.51436451  0.87411662  0.06772177  1
  Nd3+  Nd54  1  0.33869506  0.49960191  0.43427798  1
  Nd3+  Nd55  1  0.39716566  0.25874010  0.93842020  1
  Nd3+  Nd56  1  0.64592314  0.49910163  0.93863430  1
  Nd3+  Nd57  1  0.83901502  0.00270870  0.43362038  1
  Sm3+  Sm58  1  0.76979981  0.62627155  0.04791406  1
  Sm3+  Sm59  1  0.02001199  0.87762952  0.06633590  1
  Sm3+  Sm60  1  0.21228012  0.62908155  0.54412742  1
  Sm3+  Sm61  1  0.45590238  0.12472746  0.56287571  1
  Sm3+  Sm62  1  0.83912361  0.50422352  0.43803730  1
  Sm3+  Sm63  1  0.14823319  0.74931368  0.95246741  1
  Bi2+  Bi64  1  0.05463258  0.14042498  0.30967058  1
  Bi2+  Bi65  1  -0.04664004  0.10579517  0.79512054  1
  Bi2+  Bi66  1  -0.03637258  0.34216814  0.30169121  1
  Bi2+  Bi67  1  0.01875506  0.36837048  0.81443502  1
  Bi2+  Bi68  1  -0.09556258  0.60653299  0.28444318  1
  Bi2+  Bi69  1  -0.02026482  0.61710205  0.80981518  1
  Bi2+  Bi70  1  -0.08632690  0.87816760  0.29631474  1
  Bi2+  Bi71  1  -0.04863048  0.86776001  0.80317485  1
  Bi2+  Bi72  1  0.24596023  0.08465503  0.30994634  1
  Bi2+  Bi73  1  0.21738591  0.16763004  0.77623209  1
  Bi2+  Bi74  1  0.30511860  0.36228345  0.30034874  1
  Bi2+  Bi75  1  0.28766169  0.35886983  0.78152162  1
  Bi2+  Bi76  1  0.26033109  0.63596242  0.29668784  1
  Bi2+  Bi77  1  0.29892256  0.63812896  0.76811195  1
  Bi2+  Bi78  1  0.19331655  0.89624498  0.29030239  1
  Bi2+  Bi79  1  0.32096927  0.83776499  0.80205865  1
  Bi2+  Bi80  1  0.46663437  0.13188057  0.28613193  1
  Bi2+  Bi81  1  0.46613370  0.07141586  0.77803161  1
  Bi2+  Bi82  1  0.52722125  0.37352777  0.26042323  1
  Bi2+  Bi83  1  0.51501382  0.32305140  0.80770939  1
  Bi2+  Bi84  1  0.56191912  0.64544889  0.27452156  1
  Bi2+  Bi85  1  0.49582210  0.60378907  0.79934926  1
  Bi2+  Bi86  1  0.54031839  0.86866977  0.29428100  1
  Bi2+  Bi87  1  0.52089461  0.86136947  0.78803958  1
  Bi2+  Bi88  1  0.75433797  0.12588134  0.30784565  1
  Bi2+  Bi89  1  0.75423429  0.09246237  0.77888017  1
  Bi2+  Bi90  1  0.71423574  0.40099567  0.27714111  1
  Bi2+  Bi91  1  0.83150328  0.36650621  0.73901164  1
  Bi2+  Bi92  1  0.72056558  0.57293555  0.33179833  1
  Bi2+  Bi93  1  0.78062059  0.64645097  0.74254898  1
  Bi2+  Bi94  1  0.71495082  0.77546672  0.32341142  1
  Bi2+  Bi95  1  0.69905372  0.91544171  0.74608747  1
  Bi2+  Bi96  1  0.09413770  0.02503378  0.21817871  1
  Bi2+  Bi97  1  0.19660548  -0.02682167  0.76293293  1
  Bi2+  Bi98  1  0.15045282  0.27595788  0.24356990  1
  Bi2+  Bi99  1  0.11645416  0.30027394  0.71647946  1
  Bi2+  Bi100  1  0.12181943  0.47675342  0.22494695  1
  Bi2+  Bi101  1  0.16093197  0.49938773  0.75610226  1
  Bi2+  Bi102  1  0.08581842  0.76973040  0.20816016  1
  Bi2+  Bi103  1  0.13672543  0.78746478  0.76913472  1
  Bi2+  Bi104  1  0.35464214  0.02710288  0.22008140  1
  Bi2+  Bi105  1  0.42852248  -0.02701671  0.68274330  1
  Bi2+  Bi106  1  0.32689032  0.27455017  0.19458240  1
  Bi2+  Bi107  1  0.36954169  0.24604212  0.69749923  1
  Bi2+  Bi108  1  0.40381672  0.50266840  0.21057451  1
  Bi2+  Bi109  1  0.49072633  0.49913207  0.69574262  1
  Bi2+  Bi110  1  0.36990109  0.77512791  0.21540374  1
  Bi2+  Bi111  1  0.38266289  0.74839345  0.68712750  1
  Bi2+  Bi112  1  0.68918880  -0.08640498  0.23037132  1
  Bi2+  Bi113  1  0.60664615  0.07407732  0.69703771  1
  Bi2+  Bi114  1  0.51541913  0.23510843  0.18165922  1
  Bi2+  Bi115  1  0.66576927  0.25442073  0.74005484  1
  Bi2+  Bi116  1  0.68334388  0.61919966  0.18565947  1
  Bi2+  Bi117  1  0.66681193  0.48039582  0.73772077  1
  Bi2+  Bi118  1  0.57089327  0.78002603  0.18195415  1
  Bi2+  Bi119  1  0.62245394  0.74795999  0.70675240  1
  Bi2+  Bi120  1  0.89498097  0.00514535  0.21502354  1
  Bi2+  Bi121  1  0.94839325  -0.01153214  0.68580506  1
  Bi2+  Bi122  1  0.89789307  0.25859187  0.20305849  1
  Bi2+  Bi123  1  0.94885262  0.19531381  0.69645309  1
  Bi2+  Bi124  1  0.86361704  0.47612285  0.20535164  1
  Bi2+  Bi125  1  0.94372355  0.50666661  0.68998548  1
  Bi2+  Bi126  1  0.82172813  0.75288564  0.22231556  1
  Bi2+  Bi127  1  0.93140657  0.75626470  0.68976132  1
  S2-  S128  1  -0.01930568  0.12660989  0.15231724  1
  S2-  S129  1  0.08089434  0.10590843  0.64623826  1
  S2-  S130  1  0.00471299  0.38857912  0.15898472  1
  S2-  S131  1  0.08486833  0.40892885  0.64219605  1
  S2-  S132  1  0.07324917  0.60903283  0.17822927  1
  S2-  S133  1  0.03816933  0.63315739  0.65520451  1
  S2-  S134  1  -0.03597823  0.78430844  0.14525362  1
  S2-  S135  1  0.04908378  0.86630685  0.64914327  1
  S2-  S136  1  0.26949332  0.12000397  0.15233097  1
  S2-  S137  1  0.33283213  0.10067166  0.64230046  1
  S2-  S138  1  0.25907595  0.48579312  0.15820546  1
  S2-  S139  1  0.33559975  0.38965274  0.64562073  1
  S2-  S140  1  0.24188960  0.74947368  0.15940311  1
  S2-  S141  1  0.30865483  0.63955549  0.63043301  1
  S2-  S142  1  0.12813432  0.91743435  0.14594740  1
  S2-  S143  1  0.31145168  0.87345440  0.63065469  1
  S2-  S144  1  0.59399387  0.09419581  0.14917126  1
  S2-  S145  1  0.49884590  0.22376686  0.64160031  1
  S2-  S146  1  0.53554369  0.47105987  0.14622260  1
  S2-  S147  1  0.60823533  0.40366214  0.64473970  1
  S2-  S148  1  0.40888759  0.63890673  0.15546263  1
  S2-  S149  1  0.57627592  0.62219307  0.64064737  1
  S2-  S150  1  0.40038567  0.90332504  0.14714925  1
  S2-  S151  1  0.57818072  0.86803840  0.63557908  1
  S2-  S152  1  0.77950473  0.14783580  0.20406583  1
  S2-  S153  1  0.82385965  0.11668746  0.64129021  1
  S2-  S154  1  0.76267278  0.35217246  0.16489311  1
  S2-  S155  1  0.83717841  0.38290750  0.64000227  1
  S2-  S156  1  0.84295199  0.60071045  0.13518366  1
  S2-  S157  1  0.82227935  0.62157282  0.64319504  1
  S2-  S158  1  0.78189269  0.94692544  0.14240779  1
  S2-  S159  1  0.82929322  0.87915533  0.64318284  1
  S2-  S160  1  0.05189387  -0.07882952  0.35360024  1
  S2-  S161  1  0.03612587  -0.00834831  0.85745663  1
  S2-  S162  1  0.09348689  0.32490950  0.36132164  1
  S2-  S163  1  0.14230837  0.25806829  0.85197646  1
  S2-  S164  1  0.15417358  0.52314132  0.32157009  1
  S2-  S165  1  0.10841226  0.51337590  0.85435664  1
  S2-  S166  1  0.12938958  0.73097870  0.31106505  1
  S2-  S167  1  0.06651222  0.74950177  0.86366306  1
  S2-  S168  1  0.46463346  -0.00847453  0.34896114  1
  S2-  S169  1  0.27083868  -0.01239907  0.85708184  1
  S2-  S170  1  0.39688654  0.25037876  0.35410186  1
  S2-  S171  1  0.43226535  0.18954607  0.84688358  1
  S2-  S172  1  0.37049167  0.51147142  0.33467598  1
  S2-  S173  1  0.38191255  0.38939305  0.86468013  1
  S2-  S174  1  0.32028868  0.80633922  0.31916116  1
  S2-  S175  1  0.36202075  0.62084582  0.86644191  1
  S2-  S176  1  0.72807956  -0.01331571  0.35393605  1
  S2-  S177  1  0.54108214  -0.00840441  0.86067499  1
  S2-  S178  1  0.60280668  0.15316643  0.34653951  1
  S2-  S179  1  0.65546189  0.27029496  0.84691987  1
  S2-  S180  1  0.58306296  0.39432740  0.35601476  1
  S2-  S181  1  0.60965829  0.50504116  0.84086874  1
  S2-  S182  1  0.49443614  0.72906877  0.35342938  1
  S2-  S183  1  0.54202698  0.73996994  0.86327112  1
  S2-  S184  1  0.89942600  0.11430432  0.35864234  1
  S2-  S185  1  0.82088782  -0.03488811  0.84022738  1
  S2-  S186  1  0.79624181  0.29257023  0.33480002  1
  S2-  S187  1  0.90694374  0.25208303  0.84306866  1
  S2-  S188  1  0.93965942  0.48932485  0.35532048  1
  S2-  S189  1  0.88519114  0.49166369  0.83515384  1
  S2-  S190  1  0.92945272  0.73705429  0.35402075  1
  S2-  S191  1  0.84781063  0.73099159  0.83122261  1
  S2-  S192  1  -0.02963561  0.12662670  0.46410037  1
  S2-  S193  1  0.02557256  0.12576325  0.95280249  1
  S2-  S194  1  -0.03812913  0.37558402  0.45959446  1
  S2-  S195  1  0.02009076  0.37305898  0.95722978  1
  S2-  S196  1  -0.03733046  0.62738252  0.45357852  1
  S2-  S197  1  0.02006979  0.62668813  0.96434252  1
  S2-  S198  1  -0.04298075  0.87759659  0.45611222  1
  S2-  S199  1  0.02505709  0.87493175  0.96189512  1
  S2-  S200  1  0.21319652  0.12783309  0.45410371  1
  S2-  S201  1  0.27501168  0.13079025  0.95043587  1
  S2-  S202  1  0.21545469  0.37881537  0.45793364  1
  S2-  S203  1  0.26661400  0.37669166  0.96853669  1
  S2-  S204  1  0.21200300  0.62908620  0.43917029  1
  S2-  S205  1  0.26589456  0.62677511  0.97210618  1
  S2-  S206  1  0.21583892  0.87817263  0.44039469  1
  S2-  S207  1  0.27473155  0.86554559  0.95916545  1
  S2-  S208  1  0.46356850  0.12908037  0.45687689  1
  S2-  S209  1  0.52187234  0.12742494  0.95878319  1
  S2-  S210  1  0.45960268  0.37881575  0.46028181  1
  S2-  S211  1  0.52605097  0.37619798  0.96159295  1
  S2-  S212  1  0.46513535  0.61956852  0.45318403  1
  S2-  S213  1  0.52515282  0.62103914  0.96679924  1
  S2-  S214  1  0.46748172  0.87879862  0.45110849  1
  S2-  S215  1  0.51980193  0.87167153  0.96282375  1
  S2-  S216  1  0.71519514  0.12971589  0.45457956  1
  S2-  S217  1  0.77059113  0.12051209  0.94271487  1
  S2-  S218  1  0.71956648  0.37911592  0.45420484  1
  S2-  S219  1  0.77354560  0.37676122  0.95376344  1
  S2-  S220  1  0.71279448  0.62538159  0.45578236  1
  S2-  S221  1  0.77125130  0.62493033  0.94380321  1
  S2-  S222  1  0.70960591  0.87693726  0.45835725  1
  S2-  S223  1  0.76947408  0.87013958  0.94823554  1
  S2-  S224  1  0.14830988  0.00038894  0.03883707  1
  S2-  S225  1  0.08900094  -0.00516623  0.54024954  1
  S2-  S226  1  0.14414173  0.24764416  0.05714897  1
  S2-  S227  1  0.09185376  0.25280985  0.55247293  1
  S2-  S228  1  0.13516586  0.49983682  0.05798693  1
  S2-  S229  1  0.09103505  0.50819430  0.53481031  1
  S2-  S230  1  0.13766102  0.74917055  0.05355613  1
  S2-  S231  1  0.08975057  0.75068035  0.53448375  1
  S2-  S232  1  0.39475601  -0.00010913  0.04031077  1
  S2-  S233  1  0.33382385  0.00295191  0.53143777  1
  S2-  S234  1  0.39500240  0.25023422  0.04836800  1
  S2-  S235  1  0.33095262  0.24985339  0.54851427  1
  S2-  S236  1  0.39600851  0.49435423  0.05064910  1
  S2-  S237  1  0.33452509  0.50107325  0.53870211  1
  S2-  S238  1  0.39659693  0.74903282  0.04794288  1
  S2-  S239  1  0.33655635  0.75209852  0.52543975  1
  S2-  S240  1  0.64507821  -0.00367090  0.04401538  1
  S2-  S241  1  0.58404833  0.00869963  0.54263494  1
  S2-  S242  1  0.65100067  0.24294670  0.05388864  1
  S2-  S243  1  0.59368137  0.25028518  0.53759874  1
  S2-  S244  1  0.65190997  0.49948397  0.04490518  1
  S2-  S245  1  0.58638862  0.49924054  0.53836059  1
  S2-  S246  1  0.64601831  0.74915335  0.04881808  1
  S2-  S247  1  0.58215879  0.74835358  0.53920551  1
  S2-  S248  1  0.89370603  0.00072456  0.04120658  1
  S2-  S249  1  0.83009607  -0.00108075  0.53835252  1
  S2-  S250  1  0.88966941  0.24029940  0.05056463  1
  S2-  S251  1  0.83747540  0.25061978  0.54073533  1
  S2-  S252  1  0.89515129  0.49613366  0.04138185  1
  S2-  S253  1  0.83479662  0.50459288  0.53959984  1
  S2-  S254  1  0.89031086  0.75162358  0.03528091  1
  S2-  S255  1  0.82828788  0.75087969  0.54230645  1
