# generated using pymatgen
data_La9Ce10Pr6Nd4Sm3(BiS2)32
_symmetry_space_group_name_H-M   'P 1'
_cell_length_a   16.23707349
_cell_length_b   16.21433220
_cell_length_c   27.18911168
_cell_angle_alpha   90.02201556
_cell_angle_beta   89.74750911
_cell_angle_gamma   89.94213175
_symmetry_Int_Tables_number   1
_chemical_formula_structural   La9Ce10Pr6Nd4Sm3(BiS2)32
_chemical_formula_sum   'La18 Ce20 Pr12 Nd8 Sm6 Bi64 S128'
_cell_volume   7158.09355013
_cell_formula_units_Z   2
loop_
 _symmetry_equiv_pos_site_id
 _symmetry_equiv_pos_as_xyz
  1  'x, y, z'
loop_
 _atom_type_symbol
 _atom_type_oxidation_number
  La3+  3.0
  Ce3+  3.0
  Pr3+  3.0
  Nd3+  3.0
  Sm3+  3.0
  Bi2+  2.0
  S2-  -2.0
loop_
 _atom_site_type_symbol
 _atom_site_label
 _atom_site_symmetry_multiplicity
 _atom_site_fract_x
 _atom_site_fract_y
 _atom_site_fract_z
 _atom_site_occupancy
  La3+  La0  1  0.11883826  0.23176293  0.37925001  1
  La3+  La1  1  0.36919825  0.02139791  0.92476675  1
  La3+  La2  1  0.87317638  0.01800635  0.92188879  1
  La3+  La3  1  0.23561008  0.89549667  0.07566080  1
  La3+  La4  1  0.00520064  0.11243431  0.55618085  1
  La3+  La5  1  -0.01487056  0.14214204  0.07049238  1
  La3+  La6  1  0.49953116  0.12007763  0.56426135  1
  La3+  La7  1  -0.01332737  0.89319904  0.06413172  1
  La3+  La8  1  0.62720848  0.49084568  0.42703019  1
  La3+  La9  1  0.12186860  0.02127857  0.92793935  1
  La3+  La10  1  0.75745145  0.86758685  0.56528486  1
  La3+  La11  1  0.74992315  0.36615947  0.56174569  1
  La3+  La12  1  0.23405671  0.38875694  0.07504114  1
  La3+  La13  1  -0.00885727  0.64230937  0.06191562  1
  La3+  La14  1  0.25981757  0.87489764  0.56738065  1
  La3+  La15  1  0.01570966  0.87004187  0.61055253  1
  La3+  La16  1  0.75020015  0.61721197  0.56597295  1
  La3+  La17  1  0.00250475  0.60973738  0.59387380  1
  Ce3+  Ce18  1  0.86424027  0.76441717  0.93188867  1
  Ce3+  Ce19  1  0.61462821  0.76830885  0.94430816  1
  Ce3+  Ce20  1  0.62458925  0.24390948  0.43196831  1
  Ce3+  Ce21  1  0.37221306  0.24304080  0.43017952  1
  Ce3+  Ce22  1  0.74571922  0.89306289  0.05989646  1
  Ce3+  Ce23  1  0.88189639  0.49316020  0.44278250  1
  Ce3+  Ce24  1  0.50208699  0.86710840  0.56113953  1
  Ce3+  Ce25  1  0.50508981  0.61520449  0.56498011  1
  Ce3+  Ce26  1  0.36752056  0.51206296  0.94786145  1
  Ce3+  Ce27  1  0.24306318  0.63929075  0.05685854  1
  Ce3+  Ce28  1  0.61625276  0.50962752  0.93271672  1
  Ce3+  Ce29  1  0.23975084  0.13865305  0.06035603  1
  Ce3+  Ce30  1  0.74515624  0.14404232  0.05668610  1
  Ce3+  Ce31  1  0.12476184  0.74763440  0.44613431  1
  Ce3+  Ce32  1  0.88227670  0.74134462  0.44840104  1
  Ce3+  Ce33  1  0.37589658  0.74153288  0.44826787  1
  Ce3+  Ce34  1  0.74869202  0.11711105  0.54838435  1
  Ce3+  Ce35  1  0.49154598  0.64047545  0.05675533  1
  Ce3+  Ce36  1  0.73946397  0.63776091  0.05039004  1
  Ce3+  Ce37  1  0.62565660  -0.01601918  0.43327686  1
  Pr3+  Pr38  1  0.86808575  0.27291843  0.93310936  1
  Pr3+  Pr39  1  0.61585147  0.02229980  0.92849838  1
  Pr3+  Pr40  1  0.12067839  0.51349758  0.93895519  1
  Pr3+  Pr41  1  0.38465279  -0.00646530  0.42480864  1
  Pr3+  Pr42  1  0.24738389  0.61777997  0.56266461  1
  Pr3+  Pr43  1  0.12034348  0.76907011  0.93822240  1
  Pr3+  Pr44  1  0.00396501  0.36659696  0.56342043  1
  Pr3+  Pr45  1  0.49347210  0.38780171  0.06514148  1
  Pr3+  Pr46  1  0.49089177  0.89356408  0.06204536  1
  Pr3+  Pr47  1  0.88093872  0.24232002  0.43981473  1
  Pr3+  Pr48  1  0.12624367  -0.01589231  0.42561924  1
  Pr3+  Pr49  1  0.24982174  0.11666876  0.54538689  1
  Nd3+  Nd50  1  0.62754462  0.73740209  0.43348840  1
  Nd3+  Nd51  1  0.62154118  0.26928749  0.93479230  1
  Nd3+  Nd52  1  -0.01451579  0.39695743  0.07123743  1
  Nd3+  Nd53  1  0.49872996  0.36802086  0.55442114  1
  Nd3+  Nd54  1  0.36659766  0.26739313  0.94184766  1
  Nd3+  Nd55  1  0.74057485  0.40046463  0.07171368  1
  Nd3+  Nd56  1  0.12716513  0.48957016  0.43790452  1
  Nd3+  Nd57  1  0.49259157  0.13979500  0.06088456  1
  Sm3+  Sm58  1  0.24943572  0.36609345  0.55457342  1
  Sm3+  Sm59  1  0.87017563  0.51951482  0.93157513  1
  Sm3+  Sm60  1  0.36753678  0.76875025  0.94686003  1
  Sm3+  Sm61  1  0.11526895  0.26459506  0.94348840  1
  Sm3+  Sm62  1  0.87934666  -0.00938877  0.43834287  1
  Sm3+  Sm63  1  0.37518215  0.49343767  0.44452352  1
  Bi2+  Bi64  1  -0.00535642  0.10786156  0.28115711  1
  Bi2+  Bi65  1  -0.00929147  0.13070498  0.79304753  1
  Bi2+  Bi66  1  -0.01544520  0.37594341  0.28971857  1
  Bi2+  Bi67  1  0.02491967  0.36537576  0.81125026  1
  Bi2+  Bi68  1  -0.00539530  0.63373715  0.29612681  1
  Bi2+  Bi69  1  -0.03237281  0.59975370  0.78145341  1
  Bi2+  Bi70  1  0.00160789  0.85171188  0.29464114  1
  Bi2+  Bi71  1  -0.02047627  0.83323249  0.81602083  1
  Bi2+  Bi72  1  0.34232014  0.11894329  0.28807927  1
  Bi2+  Bi73  1  0.24976975  0.17516374  0.78652903  1
  Bi2+  Bi74  1  0.26030593  0.40752945  0.29112980  1
  Bi2+  Bi75  1  0.22375022  0.36644209  0.80198004  1
  Bi2+  Bi76  1  0.18855219  0.62632585  0.29267236  1
  Bi2+  Bi77  1  0.30859650  0.58105273  0.77553780  1
  Bi2+  Bi78  1  0.26311965  0.81255948  0.29115938  1
  Bi2+  Bi79  1  0.25778983  0.86388449  0.79583847  1
  Bi2+  Bi80  1  0.51517894  0.19751955  0.31588420  1
  Bi2+  Bi81  1  0.50656799  0.12919359  0.79235083  1
  Bi2+  Bi82  1  0.51496406  0.39126992  0.28321618  1
  Bi2+  Bi83  1  0.50223979  0.37936478  0.79212285  1
  Bi2+  Bi84  1  0.51449701  0.67843613  0.28585273  1
  Bi2+  Bi85  1  0.50290663  0.58521467  0.79982951  1
  Bi2+  Bi86  1  0.49209447  0.89438018  0.30129878  1
  Bi2+  Bi87  1  0.49566074  0.86176922  0.78662704  1
  Bi2+  Bi88  1  0.70715270  0.12844328  0.28229483  1
  Bi2+  Bi89  1  0.71715733  0.10764542  0.75259557  1
  Bi2+  Bi90  1  0.74225113  0.40947704  0.27881429  1
  Bi2+  Bi91  1  0.76452846  0.30874599  0.80074910  1
  Bi2+  Bi92  1  0.74418935  0.62398151  0.27719416  1
  Bi2+  Bi93  1  0.68272250  0.65710036  0.77985423  1
  Bi2+  Bi94  1  0.75626044  0.90001026  0.29485838  1
  Bi2+  Bi95  1  0.72182716  0.88438048  0.77878743  1
  Bi2+  Bi96  1  0.15747134  -0.00522937  0.20727529  1
  Bi2+  Bi97  1  0.14634208  -0.00025104  0.71063854  1
  Bi2+  Bi98  1  0.18463222  0.23735250  0.19062910  1
  Bi2+  Bi99  1  0.11050721  0.25916628  0.72061532  1
  Bi2+  Bi100  1  0.13757603  0.50628886  0.20219015  1
  Bi2+  Bi101  1  0.14658623  0.47543190  0.71236511  1
  Bi2+  Bi102  1  0.05682873  0.73824058  0.20735018  1
  Bi2+  Bi103  1  0.12864581  0.73515677  0.72274271  1
  Bi2+  Bi104  1  0.40360167  -0.00416871  0.20420722  1
  Bi2+  Bi105  1  0.37578305  0.01176454  0.70427697  1
  Bi2+  Bi106  1  0.41854154  0.26074462  0.21696234  1
  Bi2+  Bi107  1  0.37548004  0.32276398  0.71707065  1
  Bi2+  Bi108  1  0.36469364  0.55613263  0.25197324  1
  Bi2+  Bi109  1  0.41833374  0.52835364  0.68515713  1
  Bi2+  Bi110  1  0.40191890  0.73685850  0.19976544  1
  Bi2+  Bi111  1  0.41698511  0.71530949  0.71722372  1
  Bi2+  Bi112  1  0.64387903  -0.02592893  0.21041106  1
  Bi2+  Bi113  1  0.60161976  -0.03239170  0.70152388  1
  Bi2+  Bi114  1  0.62705873  0.23868579  0.20046333  1
  Bi2+  Bi115  1  0.64464583  0.28077365  0.71155539  1
  Bi2+  Bi116  1  0.61875148  0.51526647  0.20642554  1
  Bi2+  Bi117  1  0.61025541  0.49229773  0.71482466  1
  Bi2+  Bi118  1  0.66867606  0.77402006  0.21736999  1
  Bi2+  Bi119  1  0.60819663  0.76978746  0.68529801  1
  Bi2+  Bi120  1  0.83642708  0.01360481  0.21070627  1
  Bi2+  Bi121  1  0.86732332  0.02409451  0.70406269  1
  Bi2+  Bi122  1  0.81932384  0.25682892  0.21800860  1
  Bi2+  Bi123  1  0.91492555  0.27757919  0.72383907  1
  Bi2+  Bi124  1  0.86919208  0.51475299  0.20499184  1
  Bi2+  Bi125  1  0.87490143  0.47775273  0.71757660  1
  Bi2+  Bi126  1  0.86259828  0.76108582  0.20973915  1
  Bi2+  Bi127  1  0.81071748  0.74337853  0.71343172  1
  S2-  S128  1  0.06622535  0.11072423  0.16437529  1
  S2-  S129  1  0.01466574  0.04104598  0.64865753  1
  S2-  S130  1  0.10023228  0.36414278  0.14670471  1
  S2-  S131  1  0.00959420  0.45675419  0.65094919  1
  S2-  S132  1  -0.00525344  0.54470810  0.14558067  1
  S2-  S133  1  -0.00044256  0.72418240  0.66938917  1
  S2-  S134  1  0.09181530  0.88952436  0.14663313  1
  S2-  S135  1  0.03472799  0.88588531  0.73160788  1
  S2-  S136  1  0.27357053  0.09193097  0.15434345  1
  S2-  S137  1  0.26326534  0.08193052  0.64522825  1
  S2-  S138  1  0.31538324  0.35764299  0.16455342  1
  S2-  S139  1  0.25260609  0.37405295  0.65349541  1
  S2-  S140  1  0.23000980  0.61662686  0.15308766  1
  S2-  S141  1  0.16941033  0.61137214  0.65358288  1
  S2-  S142  1  0.29322153  0.87294120  0.17316357  1
  S2-  S143  1  0.17661000  0.85701465  0.65545003  1
  S2-  S144  1  0.50232459  0.12808413  0.16087480  1
  S2-  S145  1  0.50334259  0.10097462  0.66560671  1
  S2-  S146  1  0.60706056  0.38464883  0.14129673  1
  S2-  S147  1  0.50993226  0.31732872  0.64895688  1
  S2-  S148  1  0.50082315  0.62192180  0.15364486  1
  S2-  S149  1  0.62037220  0.60970124  0.63809604  1
  S2-  S150  1  0.50609722  0.87812670  0.16243196  1
  S2-  S151  1  0.39843503  0.89447692  0.63871289  1
  S2-  S152  1  0.84447226  0.13975057  0.13847420  1
  S2-  S153  1  0.75753885  0.11949205  0.64621510  1
  S2-  S154  1  0.86094892  0.37458718  0.14457920  1
  S2-  S155  1  0.74491765  0.39503034  0.66069410  1
  S2-  S156  1  0.74253677  0.55884412  0.13626387  1
  S2-  S157  1  0.84181389  0.60419089  0.65369717  1
  S2-  S158  1  0.85701558  0.89280970  0.13716299  1
  S2-  S159  1  0.84895881  0.88443934  0.65157382  1
  S2-  S160  1  0.12073475  0.07055789  0.33439711  1
  S2-  S161  1  0.00964026  -0.00965917  0.85164871  1
  S2-  S162  1  0.09780645  0.24634908  0.27000415  1
  S2-  S163  1  0.12431050  0.17195807  0.85896875  1
  S2-  S164  1  0.11701104  0.40673154  0.34937436  1
  S2-  S165  1  0.08317063  0.52383850  0.84014439  1
  S2-  S166  1  0.13083502  0.83937839  0.35968412  1
  S2-  S167  1  0.13465306  0.75740159  0.83577989  1
  S2-  S168  1  0.32156800  -0.04765779  0.33012068  1
  S2-  S169  1  0.24760691  -0.01189905  0.85325047  1
  S2-  S170  1  0.28674128  0.25808409  0.34285491  1
  S2-  S171  1  0.37545404  0.18191688  0.85417762  1
  S2-  S172  1  0.39515646  0.47600612  0.34688326  1
  S2-  S173  1  0.34059400  0.46730840  0.85486741  1
  S2-  S174  1  0.38588624  0.73936460  0.35061611  1
  S2-  S175  1  0.37362104  0.78138860  0.84852541  1
  S2-  S176  1  0.52148235  0.02376030  0.35518234  1
  S2-  S177  1  0.49593029  -0.00257389  0.85134316  1
  S2-  S178  1  0.63967775  0.36014479  0.35578222  1
  S2-  S179  1  0.62327956  0.15480994  0.85506981  1
  S2-  S180  1  0.62518946  0.61814022  0.35578255  1
  S2-  S181  1  0.62966276  0.39239787  0.85762043  1
  S2-  S182  1  0.63219852  0.85469434  0.35861249  1
  S2-  S183  1  0.61948117  0.78367337  0.84606249  1
  S2-  S184  1  0.91687915  -0.01270752  0.34059458  1
  S2-  S185  1  0.83446461  -0.11953404  0.85604320  1
  S2-  S186  1  0.94373184  0.23712715  0.34581046  1
  S2-  S187  1  0.86739555  0.15711082  0.85395701  1
  S2-  S188  1  0.87457263  0.45792604  0.34611394  1
  S2-  S189  1  0.86459981  0.40047678  0.85868070  1
  S2-  S190  1  0.89573221  0.73998691  0.34893548  1
  S2-  S191  1  0.87887531  0.64432330  0.85638870  1
  S2-  S192  1  0.00388208  0.11512376  0.44868448  1
  S2-  S193  1  -0.00738672  0.14515898  0.95978423  1
  S2-  S194  1  0.00389527  0.36537860  0.45669487  1
  S2-  S195  1  -0.00274160  0.39300335  0.95902999  1
  S2-  S196  1  0.00665851  0.61598943  0.44978687  1
  S2-  S197  1  -0.00141725  0.64074709  0.95435523  1
  S2-  S198  1  -0.00233779  0.86988882  0.45455988  1
  S2-  S199  1  -0.00781657  0.88506500  0.95643005  1
  S2-  S200  1  0.25022614  0.11551028  0.44030764  1
  S2-  S201  1  0.24481251  0.14519109  0.95757686  1
  S2-  S202  1  0.25460872  0.37107054  0.45178431  1
  S2-  S203  1  0.24038058  0.38616470  0.96167745  1
  S2-  S204  1  0.24994849  0.61601956  0.45307008  1
  S2-  S205  1  0.24621209  0.64152438  0.94876983  1
  S2-  S206  1  0.25721106  0.86724185  0.45754882  1
  S2-  S207  1  0.24576859  0.88822277  0.96212792  1
  S2-  S208  1  0.50223429  0.12470157  0.45564804  1
  S2-  S209  1  0.49433007  0.14493917  0.95716090  1
  S2-  S210  1  0.49572764  0.36717587  0.44923162  1
  S2-  S211  1  0.49110447  0.38845400  0.95739258  1
  S2-  S212  1  0.49831288  0.61461107  0.45748985  1
  S2-  S213  1  0.48983817  0.64039033  0.94929430  1
  S2-  S214  1  0.49981134  0.86380106  0.45600970  1
  S2-  S215  1  0.49123015  0.89085643  0.95622222  1
  S2-  S216  1  0.75165152  0.11566263  0.44056388  1
  S2-  S217  1  0.74262683  0.14185446  0.95371311  1
  S2-  S218  1  0.75711965  0.36604760  0.45413179  1
  S2-  S219  1  0.74231855  0.39768947  0.96216141  1
  S2-  S220  1  0.75613778  0.61627988  0.45523730  1
  S2-  S221  1  0.73522389  0.63841833  0.94579290  1
  S2-  S222  1  0.75886550  0.86623171  0.45662653  1
  S2-  S223  1  0.73316885  0.89441230  0.95620617  1
  S2-  S224  1  0.11477230  0.01797965  0.04204073  1
  S2-  S225  1  0.12810048  -0.01203485  0.54009196  1
  S2-  S226  1  0.11379638  0.26106492  0.04653996  1
  S2-  S227  1  0.12837976  0.24318867  0.55656545  1
  S2-  S228  1  0.11841560  0.51725621  0.04457967  1
  S2-  S229  1  0.12816684  0.49058480  0.54374485  1
  S2-  S230  1  0.11931552  0.76292748  0.04659395  1
  S2-  S231  1  0.12403214  0.74310451  0.55039965  1
  S2-  S232  1  0.36836438  0.01620612  0.04559009  1
  S2-  S233  1  0.38153565  -0.00162815  0.53341647  1
  S2-  S234  1  0.36820812  0.26347412  0.04944742  1
  S2-  S235  1  0.37282980  0.24465494  0.54269275  1
  S2-  S236  1  0.36781307  0.51201349  0.05389560  1
  S2-  S237  1  0.37369020  0.49171941  0.54877755  1
  S2-  S238  1  0.36660153  0.76585694  0.05235383  1
  S2-  S239  1  0.37824516  0.73608745  0.55433353  1
  S2-  S240  1  0.61867040  0.01684173  0.04745610  1
  S2-  S241  1  0.62627706  -0.00877290  0.54440947  1
  S2-  S242  1  0.61809134  0.26273700  0.04256050  1
  S2-  S243  1  0.62513267  0.24333850  0.54091419  1
  S2-  S244  1  0.61121217  0.51715536  0.03799752  1
  S2-  S245  1  0.62443648  0.48725880  0.53822541  1
  S2-  S246  1  0.61762124  0.76641886  0.05205840  1
  S2-  S247  1  0.62691236  0.74650115  0.54069180  1
  S2-  S248  1  0.86360623  0.01715960  0.03480898  1
  S2-  S249  1  0.87327497  -0.00241005  0.54196881  1
  S2-  S250  1  0.86510449  0.27121800  0.04000809  1
  S2-  S251  1  0.87836162  0.24121633  0.54877071  1
  S2-  S252  1  0.86765373  0.51976622  0.03609022  1
  S2-  S253  1  0.87757578  0.49003426  0.54742725  1
  S2-  S254  1  0.86265301  0.76081325  0.03997792  1
  S2-  S255  1  0.88111236  0.73994872  0.55285587  1
