# generated using pymatgen
data_La9Ce10Pr6Nd4Sm3(BiS2)32
_symmetry_space_group_name_H-M   'P 1'
_cell_length_a   16.15721057
_cell_length_b   16.12355247
_cell_length_c   27.20854476
_cell_angle_alpha   90.15237723
_cell_angle_beta   89.90814530
_cell_angle_gamma   90.10588504
_symmetry_Int_Tables_number   1
_chemical_formula_structural   La9Ce10Pr6Nd4Sm3(BiS2)32
_chemical_formula_sum   'La18 Ce20 Pr12 Nd8 Sm6 Bi64 S128'
_cell_volume   7088.09618767
_cell_formula_units_Z   2
loop_
 _symmetry_equiv_pos_site_id
 _symmetry_equiv_pos_as_xyz
  1  'x, y, z'
loop_
 _atom_type_symbol
 _atom_type_oxidation_number
  La3+  3.0
  Ce3+  3.0
  Pr3+  3.0
  Nd3+  3.0
  Sm3+  3.0
  Bi2+  2.0
  S2-  -2.0
loop_
 _atom_site_type_symbol
 _atom_site_label
 _atom_site_symmetry_multiplicity
 _atom_site_fract_x
 _atom_site_fract_y
 _atom_site_fract_z
 _atom_site_occupancy
  La3+  La0  1  0.61288020  0.77006276  0.95056105  1
  La3+  La1  1  0.86877391  0.51618311  0.92947854  1
  La3+  La2  1  0.87408249  0.26342491  0.92279358  1
  La3+  La3  1  0.39392162  0.72958781  0.43206344  1
  La3+  La4  1  0.77776363  0.10407454  0.57832669  1
  La3+  La5  1  0.87221843  -0.00981480  0.88737573  1
  La3+  La6  1  0.14608057  -0.01790678  0.43067392  1
  La3+  La7  1  0.50218424  0.36036435  0.61837245  1
  La3+  La8  1  0.61331330  0.01975887  0.93297900  1
  La3+  La9  1  0.26226883  0.61637126  0.57265869  1
  La3+  La10  1  0.51576045  0.61214721  0.56973765  1
  La3+  La11  1  -0.00930313  0.89657452  0.07889981  1
  La3+  La12  1  0.24142914  0.64621448  0.06785370  1
  La3+  La13  1  0.89381762  0.48463723  0.42758258  1
  La3+  La14  1  0.39497404  -0.01961706  0.42824235  1
  La3+  La15  1  0.64535899  0.72974466  0.41840731  1
  La3+  La16  1  0.49225813  0.90285327  0.09318756  1
  La3+  La17  1  0.88810247  -0.01363819  0.42611128  1
  Ce3+  Ce18  1  0.64165622  -0.01459543  0.44491739  1
  Ce3+  Ce19  1  0.11542866  0.26820275  0.94653637  1
  Ce3+  Ce20  1  0.11206059  0.77314177  0.94491253  1
  Ce3+  Ce21  1  0.01956652  0.11075354  0.55239395  1
  Ce3+  Ce22  1  0.76684947  0.85580116  0.55888155  1
  Ce3+  Ce23  1  0.26797437  0.86076031  0.56176909  1
  Ce3+  Ce24  1  0.11516297  0.52197712  0.94583832  1
  Ce3+  Ce25  1  0.26480375  0.36117482  0.55762114  1
  Ce3+  Ce26  1  0.36742538  0.02047186  0.93845390  1
  Ce3+  Ce27  1  0.14449363  0.73597947  0.43165742  1
  Ce3+  Ce28  1  0.11201774  0.01882034  0.94403064  1
  Ce3+  Ce29  1  0.49291297  0.39540791  0.06387506  1
  Ce3+  Ce30  1  0.51811806  0.11319314  0.56353871  1
  Ce3+  Ce31  1  0.24186366  0.89924170  0.06086382  1
  Ce3+  Ce32  1  0.00846990  0.35797220  0.55628411  1
  Ce3+  Ce33  1  0.86423830  0.77029056  0.95161533  1
  Ce3+  Ce34  1  0.51775665  0.85728096  0.55796323  1
  Ce3+  Ce35  1  0.61326485  0.27363820  0.93274358  1
  Ce3+  Ce36  1  0.76310952  0.36073530  0.56381098  1
  Ce3+  Ce37  1  -0.01194061  0.64629324  0.06812227  1
  Pr3+  Pr38  1  0.14265751  0.48470507  0.44198293  1
  Pr3+  Pr39  1  0.64935590  0.48470616  0.43480269  1
  Pr3+  Pr40  1  0.26895737  0.11171835  0.56061290  1
  Pr3+  Pr41  1  0.49560311  0.14737165  0.06548910  1
  Pr3+  Pr42  1  0.74071894  0.39684149  0.06088000  1
  Pr3+  Pr43  1  0.24065687  0.39562783  0.06399437  1
  Pr3+  Pr44  1  0.24092947  0.14252541  0.06620175  1
  Pr3+  Pr45  1  0.14627465  0.22969457  0.42646041  1
  Pr3+  Pr46  1  -0.01677161  0.14627362  0.06630206  1
  Pr3+  Pr47  1  0.48339372  0.63990171  0.08766762  1
  Pr3+  Pr48  1  -0.01173920  0.39759024  0.07365089  1
  Pr3+  Pr49  1  0.39490930  0.48725905  0.43943975  1
  Nd3+  Nd50  1  0.88967480  0.23146709  0.42760295  1
  Nd3+  Nd51  1  0.73759884  0.89360964  0.07078918  1
  Nd3+  Nd52  1  0.74295876  0.14288694  0.04800225  1
  Nd3+  Nd53  1  0.36478652  0.27044239  0.94637731  1
  Nd3+  Nd54  1  0.61429901  0.52467225  0.94029390  1
  Nd3+  Nd55  1  0.36573861  0.52287417  0.93976013  1
  Nd3+  Nd56  1  0.73956264  0.63889332  0.07349535  1
  Nd3+  Nd57  1  0.77219180  0.61423178  0.56336173  1
  Sm3+  Sm58  1  0.36643545  0.77294692  0.95174381  1
  Sm3+  Sm59  1  0.39635377  0.23814580  0.44630334  1
  Sm3+  Sm60  1  0.89103763  0.74063392  0.42646190  1
  Sm3+  Sm61  1  0.01557802  0.86098392  0.55330439  1
  Sm3+  Sm62  1  0.64185198  0.23564738  0.44869386  1
  Sm3+  Sm63  1  0.01275159  0.61293534  0.55380778  1
  Bi2+  Bi64  1  -0.02089569  0.17407497  0.27398898  1
  Bi2+  Bi65  1  -0.00175878  0.12969839  0.79020295  1
  Bi2+  Bi66  1  -0.06044182  0.35978162  0.31263880  1
  Bi2+  Bi67  1  -0.00002038  0.38329509  0.79612294  1
  Bi2+  Bi68  1  0.01148067  0.63223762  0.30523796  1
  Bi2+  Bi69  1  0.00799996  0.64698157  0.78725002  1
  Bi2+  Bi70  1  0.00675977  0.89574122  0.26816828  1
  Bi2+  Bi71  1  0.10186096  0.81284017  0.74411200  1
  Bi2+  Bi72  1  0.25393414  0.16712861  0.29732434  1
  Bi2+  Bi73  1  0.22305381  0.02661502  0.82509044  1
  Bi2+  Bi74  1  0.35875906  0.39946634  0.29643324  1
  Bi2+  Bi75  1  0.24268105  0.38093804  0.74331792  1
  Bi2+  Bi76  1  0.22316476  0.64556628  0.30699592  1
  Bi2+  Bi77  1  0.21858192  0.56458571  0.78576226  1
  Bi2+  Bi78  1  0.26627582  0.90253234  0.29070690  1
  Bi2+  Bi79  1  0.26833227  0.83648324  0.80785969  1
  Bi2+  Bi80  1  0.52112940  0.19251350  0.28006467  1
  Bi2+  Bi81  1  0.38024286  0.12526818  0.79578136  1
  Bi2+  Bi82  1  0.56500154  0.37918042  0.31222030  1
  Bi2+  Bi83  1  0.47766950  0.35344765  0.82415244  1
  Bi2+  Bi84  1  0.48186533  0.55399200  0.28312495  1
  Bi2+  Bi85  1  0.51092034  0.63136544  0.82025889  1
  Bi2+  Bi86  1  0.50544699  0.92778087  0.29820558  1
  Bi2+  Bi87  1  0.48041472  0.89813013  0.79087277  1
  Bi2+  Bi88  1  0.79982703  0.09535748  0.25779565  1
  Bi2+  Bi89  1  0.74652102  0.08028849  0.77356544  1
  Bi2+  Bi90  1  0.75426410  0.32159312  0.28308531  1
  Bi2+  Bi91  1  0.72954355  0.41958130  0.74715356  1
  Bi2+  Bi92  1  0.73800857  0.59137406  0.28940142  1
  Bi2+  Bi93  1  0.81708354  0.58215524  0.80041614  1
  Bi2+  Bi94  1  0.77131109  0.91273024  0.29576382  1
  Bi2+  Bi95  1  0.73815671  0.82097371  0.79938477  1
  Bi2+  Bi96  1  0.10755990  0.03852251  0.21622367  1
  Bi2+  Bi97  1  0.17566527  -0.01181880  0.71467702  1
  Bi2+  Bi98  1  0.09072245  0.32640807  0.24144651  1
  Bi2+  Bi99  1  0.10739815  0.24357076  0.71893478  1
  Bi2+  Bi100  1  0.10595721  0.53144542  0.22073744  1
  Bi2+  Bi101  1  0.09275286  0.42826834  0.67692255  1
  Bi2+  Bi102  1  0.12168498  0.74317225  0.22829060  1
  Bi2+  Bi103  1  0.12851617  0.62426865  0.69215988  1
  Bi2+  Bi104  1  0.31814859  0.01840112  0.19274068  1
  Bi2+  Bi105  1  0.36421873  -0.04566780  0.69406054  1
  Bi2+  Bi106  1  0.40726699  0.28958718  0.20272369  1
  Bi2+  Bi107  1  0.34070052  0.20511912  0.69908880  1
  Bi2+  Bi108  1  0.33136815  0.47975139  0.19279678  1
  Bi2+  Bi109  1  0.44935039  0.53756463  0.73242553  1
  Bi2+  Bi110  1  0.41037431  0.72310901  0.23355786  1
  Bi2+  Bi111  1  0.36930570  0.74213754  0.70521953  1
  Bi2+  Bi112  1  0.61884703  0.07823899  0.20602339  1
  Bi2+  Bi113  1  0.55483727  -0.03564671  0.69244169  1
  Bi2+  Bi114  1  0.58962424  0.27335515  0.16407162  1
  Bi2+  Bi115  1  0.62296206  0.24733730  0.72617665  1
  Bi2+  Bi116  1  0.62960726  0.45375025  0.20902756  1
  Bi2+  Bi117  1  0.69246458  0.59755953  0.70585519  1
  Bi2+  Bi118  1  0.65209656  0.79378876  0.22426835  1
  Bi2+  Bi119  1  0.59760537  0.77806751  0.72510143  1
  Bi2+  Bi120  1  0.86323886  -0.06873668  0.19520028  1
  Bi2+  Bi121  1  0.92823559  -0.03772497  0.68201662  1
  Bi2+  Bi122  1  0.80925097  0.28414429  0.17245565  1
  Bi2+  Bi123  1  0.88898694  0.23574067  0.70668547  1
  Bi2+  Bi124  1  0.88524354  0.45016706  0.21107086  1
  Bi2+  Bi125  1  0.90028772  0.48412553  0.70632881  1
  Bi2+  Bi126  1  0.89853549  0.71801158  0.22484870  1
  Bi2+  Bi127  1  0.86164482  0.71764604  0.71078025  1
  S2-  S128  1  -0.01200460  0.03282348  0.14826521  1
  S2-  S129  1  -0.05486972  0.11962872  0.64049308  1
  S2-  S130  1  -0.02621096  0.26782540  0.14383750  1
  S2-  S131  1  -0.10487568  0.34618595  0.63296544  1
  S2-  S132  1  -0.01547616  0.53230208  0.14544383  1
  S2-  S133  1  -0.08970611  0.60711292  0.63434059  1
  S2-  S134  1  0.00828789  0.75630840  0.14721939  1
  S2-  S135  1  0.01281672  0.82398249  0.65065902  1
  S2-  S136  1  0.22452371  0.15193419  0.16788854  1
  S2-  S137  1  0.19749323  0.13268244  0.65250355  1
  S2-  S138  1  0.17922737  0.39994156  0.15862673  1
  S2-  S139  1  0.32944218  0.35723677  0.64909580  1
  S2-  S140  1  0.33085230  0.64340381  0.15449397  1
  S2-  S141  1  0.36342896  0.58958715  0.65525461  1
  S2-  S142  1  0.19350285  0.91571571  0.15416700  1
  S2-  S143  1  0.24915539  0.76188159  0.64100650  1
  S2-  S144  1  0.47234139  0.05767962  0.15151249  1
  S2-  S145  1  0.50227029  0.18695688  0.65380355  1
  S2-  S146  1  0.48719496  0.49031060  0.14592846  1
  S2-  S147  1  0.49083435  0.36679704  0.72838477  1
  S2-  S148  1  0.54954022  0.69080636  0.17991856  1
  S2-  S149  1  0.55515349  0.52419769  0.65517938  1
  S2-  S150  1  0.40778832  0.86149138  0.18576352  1
  S2-  S151  1  0.50791173  0.75566749  0.63831675  1
  S2-  S152  1  0.75845725  0.12005082  0.14862597  1
  S2-  S153  1  0.73910182  0.15803740  0.67674187  1
  S2-  S154  1  0.74866144  0.50523908  0.14377313  1
  S2-  S155  1  0.67393472  0.35738164  0.65349656  1
  S2-  S156  1  0.77030028  0.72392983  0.16329099  1
  S2-  S157  1  0.75105563  0.74075881  0.63607492  1
  S2-  S158  1  0.63622376  0.90978716  0.15425966  1
  S2-  S159  1  0.78447728  0.95598393  0.64114509  1
  S2-  S160  1  0.14705548  0.09426705  0.35137194  1
  S2-  S161  1  0.04308662  0.00317094  0.85438831  1
  S2-  S162  1  0.17092152  0.29685900  0.33116139  1
  S2-  S163  1  0.05929088  0.25604658  0.85430870  1
  S2-  S164  1  0.13153509  0.51617880  0.34278459  1
  S2-  S165  1  0.07907335  0.51685473  0.84931164  1
  S2-  S166  1  0.15650176  0.85182227  0.35619275  1
  S2-  S167  1  0.12637561  0.76075649  0.84712715  1
  S2-  S168  1  0.36598494  0.03263632  0.32954840  1
  S2-  S169  1  0.47863004  0.02539238  0.86068028  1
  S2-  S170  1  0.38782672  0.24428920  0.34794268  1
  S2-  S171  1  0.33214446  0.27475881  0.84781107  1
  S2-  S172  1  0.37395705  0.60043968  0.35972926  1
  S2-  S173  1  0.35966045  0.53239912  0.83919491  1
  S2-  S174  1  0.37833238  0.83708042  0.34991201  1
  S2-  S175  1  0.41269962  0.76806059  0.85629109  1
  S2-  S176  1  0.63419072  -0.00747367  0.34553222  1
  S2-  S177  1  0.70326750  -0.01967413  0.84611417  1
  S2-  S178  1  0.65259411  0.22958068  0.34853434  1
  S2-  S179  1  0.60392299  0.23818092  0.83471721  1
  S2-  S180  1  0.60568475  0.58913983  0.35367977  1
  S2-  S181  1  0.59339174  0.48567141  0.84288072  1
  S2-  S182  1  0.57673902  0.79125812  0.32248322  1
  S2-  S183  1  0.64612944  0.71398365  0.85618286  1
  S2-  S184  1  0.91298109  -0.13160167  0.35098525  1
  S2-  S185  1  0.88092186  -0.01529525  0.77511593  1
  S2-  S186  1  0.88451680  0.11233340  0.35155238  1
  S2-  S187  1  0.85130913  0.15575624  0.84056615  1
  S2-  S188  1  0.77361483  0.47412297  0.35428183  1
  S2-  S189  1  0.86782535  0.39536620  0.85355519  1
  S2-  S190  1  0.78493973  0.70826339  0.34855674  1
  S2-  S191  1  0.87402547  0.81831171  0.85746600  1
  S2-  S192  1  0.01857463  0.10958730  0.44913512  1
  S2-  S193  1  -0.00744940  0.14279213  0.95829730  1
  S2-  S194  1  0.01835972  0.35511562  0.44733332  1
  S2-  S195  1  -0.00479775  0.39510126  0.96126331  1
  S2-  S196  1  0.01654500  0.61384406  0.44874022  1
  S2-  S197  1  -0.01013198  0.64585262  0.95643940  1
  S2-  S198  1  0.01874367  0.85862728  0.45103168  1
  S2-  S199  1  -0.01057220  0.89420549  0.96292746  1
  S2-  S200  1  0.27462252  0.11110394  0.45406811  1
  S2-  S201  1  0.24157744  0.14501935  0.95728766  1
  S2-  S202  1  0.26886975  0.36003408  0.45064388  1
  S2-  S203  1  0.24045588  0.39730098  0.95511336  1
  S2-  S204  1  0.26195637  0.60964020  0.46199440  1
  S2-  S205  1  0.24190270  0.64803935  0.95655043  1
  S2-  S206  1  0.26993289  0.85926463  0.45849050  1
  S2-  S207  1  0.24163802  0.89485505  0.95443543  1
  S2-  S208  1  0.51569939  0.11208118  0.45368204  1
  S2-  S209  1  0.48930098  0.15113531  0.95848507  1
  S2-  S210  1  0.51926569  0.36030511  0.44672343  1
  S2-  S211  1  0.48823052  0.39747877  0.95553060  1
  S2-  S212  1  0.51841280  0.60845868  0.46022127  1
  S2-  S213  1  0.48577293  0.64489633  0.96266098  1
  S2-  S214  1  0.51953959  0.85894959  0.45191762  1
  S2-  S215  1  0.48820246  0.89442032  0.96265469  1
  S2-  S216  1  0.76272088  0.11105711  0.45637586  1
  S2-  S217  1  0.73476878  0.14867371  0.94494472  1
  S2-  S218  1  0.76992501  0.35271300  0.45450480  1
  S2-  S219  1  0.73571286  0.39758127  0.95188622  1
  S2-  S220  1  0.77524061  0.61199946  0.45620352  1
  S2-  S221  1  0.74301009  0.64093202  0.96168809  1
  S2-  S222  1  0.76479920  0.85978394  0.45017747  1
  S2-  S223  1  0.74052821  0.89377952  0.96114513  1
  S2-  S224  1  0.11614627  0.02218357  0.04852796  1
  S2-  S225  1  0.14284984  -0.01627890  0.54477591  1
  S2-  S226  1  0.11751094  0.26876742  0.05110344  1
  S2-  S227  1  0.14110811  0.23759170  0.54023759  1
  S2-  S228  1  0.11730131  0.52235616  0.05021509  1
  S2-  S229  1  0.13633646  0.48677590  0.54860227  1
  S2-  S230  1  0.11968590  0.77179024  0.04907339  1
  S2-  S231  1  0.13481054  0.73627323  0.53914203  1
  S2-  S232  1  0.36666925  0.02040529  0.04672208  1
  S2-  S233  1  0.39314729  -0.01391499  0.54558597  1
  S2-  S234  1  0.36565372  0.27036983  0.05375256  1
  S2-  S235  1  0.39317623  0.23877613  0.54895793  1
  S2-  S236  1  0.36402874  0.51911575  0.04528963  1
  S2-  S237  1  0.39182841  0.48122605  0.54645484  1
  S2-  S238  1  0.36863762  0.77517969  0.05628825  1
  S2-  S239  1  0.38781186  0.73742421  0.53995022  1
  S2-  S240  1  0.61541424  0.02043688  0.04475756  1
  S2-  S241  1  0.63966712  -0.01410511  0.54997902  1
  S2-  S242  1  0.61821441  0.27184476  0.04017204  1
  S2-  S243  1  0.64626577  0.22906614  0.55149688  1
  S2-  S244  1  0.61202734  0.52191354  0.04649549  1
  S2-  S245  1  0.65166449  0.49029440  0.54288186  1
  S2-  S246  1  0.61059514  0.76402009  0.05760592  1
  S2-  S247  1  0.64055582  0.73625658  0.53423617  1
  S2-  S248  1  0.86047409  0.01561477  0.05060022  1
  S2-  S249  1  0.89671755  -0.01668911  0.53531502  1
  S2-  S250  1  0.86164710  0.27265527  0.03556732  1
  S2-  S251  1  0.89159841  0.22988373  0.53355289  1
  S2-  S252  1  0.86700485  0.52038605  0.03940159  1
  S2-  S253  1  0.89389047  0.48480373  0.53505267  1
  S2-  S254  1  0.86116871  0.76991496  0.05461652  1
  S2-  S255  1  0.89655437  0.73895784  0.53316484  1
