# generated using pymatgen
data_La9Ce10Pr6Nd4Sm3(BiS2)32
_symmetry_space_group_name_H-M   'P 1'
_cell_length_a   16.18719336
_cell_length_b   16.16369738
_cell_length_c   27.10285385
_cell_angle_alpha   90.16988211
_cell_angle_beta   89.95032460
_cell_angle_gamma   90.03757879
_symmetry_Int_Tables_number   1
_chemical_formula_structural   La9Ce10Pr6Nd4Sm3(BiS2)32
_chemical_formula_sum   'La18 Ce20 Pr12 Nd8 Sm6 Bi64 S128'
_cell_volume   7091.28799704
_cell_formula_units_Z   2
loop_
 _symmetry_equiv_pos_site_id
 _symmetry_equiv_pos_as_xyz
  1  'x, y, z'
loop_
 _atom_type_symbol
 _atom_type_oxidation_number
  La3+  3.0
  Ce3+  3.0
  Pr3+  3.0
  Nd3+  3.0
  Sm3+  3.0
  Bi2+  2.0
  S2-  -2.0
loop_
 _atom_site_type_symbol
 _atom_site_label
 _atom_site_symmetry_multiplicity
 _atom_site_fract_x
 _atom_site_fract_y
 _atom_site_fract_z
 _atom_site_occupancy
  La3+  La0  1  0.38758618  0.74141865  0.94501296  1
  La3+  La1  1  0.14057712  0.73819342  0.93324202  1
  La3+  La2  1  0.51247825  0.35677498  0.08561126  1
  La3+  La3  1  0.76402872  0.61858563  0.10273369  1
  La3+  La4  1  0.00730680  0.11549906  0.58542863  1
  La3+  La5  1  0.63517559  0.74156967  0.94006334  1
  La3+  La6  1  0.74022504  0.11430723  0.59864195  1
  La3+  La7  1  0.14449973  -0.00621302  0.92402064  1
  La3+  La8  1  0.89067483  0.24753139  0.90031453  1
  La3+  La9  1  0.13775602  0.74138740  0.41881900  1
  La3+  La10  1  0.00739624  0.37581584  0.57403205  1
  La3+  La11  1  0.77070700  0.87133396  0.06498212  1
  La3+  La12  1  0.24142279  0.11492652  0.10094725  1
  La3+  La13  1  0.62872045  -0.01005900  0.92279235  1
  La3+  La14  1  0.88449704  0.49569778  0.43486303  1
  La3+  La15  1  0.88295416  -0.01330354  0.90689651  1
  La3+  La16  1  0.25547491  0.37155677  0.06909372  1
  La3+  La17  1  0.64313754  0.24804031  0.41484409  1
  Ce3+  Ce18  1  0.38232617  -0.00183325  0.43862529  1
  Ce3+  Ce19  1  0.00765760  0.11858114  0.04557086  1
  Ce3+  Ce20  1  0.12943816  0.49337720  0.43398012  1
  Ce3+  Ce21  1  0.88106190  0.49357815  0.94521953  1
  Ce3+  Ce22  1  0.64030519  0.49791207  0.43090138  1
  Ce3+  Ce23  1  0.13601848  0.24508630  0.93390739  1
  Ce3+  Ce24  1  0.50716558  0.87402693  0.55302125  1
  Ce3+  Ce25  1  0.25667033  0.87020703  0.55337663  1
  Ce3+  Ce26  1  0.63277085  -0.00353159  0.43321616  1
  Ce3+  Ce27  1  0.25543565  0.61620189  0.06903996  1
  Ce3+  Ce28  1  0.75449478  0.37012241  0.56310694  1
  Ce3+  Ce29  1  0.75901091  0.11571160  0.04479349  1
  Ce3+  Ce30  1  0.63225956  0.74386684  0.44326435  1
  Ce3+  Ce31  1  0.75642195  0.87429759  0.56037998  1
  Ce3+  Ce32  1  0.50903000  0.36591920  0.55142508  1
  Ce3+  Ce33  1  0.01826332  0.86953471  0.56323790  1
  Ce3+  Ce34  1  0.88263884  0.74256437  0.93440820  1
  Ce3+  Ce35  1  0.38385159  0.74248818  0.43581988  1
  Ce3+  Ce36  1  0.88176628  -0.00096124  0.44894892  1
  Ce3+  Ce37  1  0.52124385  0.10907589  0.07576720  1
  Pr3+  Pr38  1  0.50896528  0.86864529  0.07267776  1
  Pr3+  Pr39  1  0.38688736  0.49330425  0.43492503  1
  Pr3+  Pr40  1  0.01588840  0.62184857  0.56620393  1
  Pr3+  Pr41  1  0.63720536  0.49672410  0.94154383  1
  Pr3+  Pr42  1  0.51146957  0.61823590  0.07025890  1
  Pr3+  Pr43  1  0.25363317  0.86691080  0.07032602  1
  Pr3+  Pr44  1  0.13295101  0.48878966  0.93658304  1
  Pr3+  Pr45  1  0.13025133  -0.00707163  0.43094824  1
  Pr3+  Pr46  1  0.75497922  0.36419256  0.06094420  1
  Pr3+  Pr47  1  0.38937430  0.24175426  0.95051617  1
  Pr3+  Pr48  1  0.37429887  0.24448424  0.42010322  1
  Pr3+  Pr49  1  0.50915795  0.61683628  0.57101805  1
  Nd3+  Nd50  1  0.38075713  -0.00482697  0.95110350  1
  Nd3+  Nd51  1  0.75540137  0.61936860  0.56820816  1
  Nd3+  Nd52  1  0.88360813  0.74661794  0.44642384  1
  Nd3+  Nd53  1  0.12498105  0.23913204  0.43087362  1
  Nd3+  Nd54  1  0.26276109  0.61923817  0.56072346  1
  Nd3+  Nd55  1  0.38863385  0.48893216  0.94607305  1
  Nd3+  Nd56  1  0.25551367  0.12330952  0.56000782  1
  Nd3+  Nd57  1  0.63843738  0.24501102  0.92914008  1
  Sm3+  Sm58  1  0.88037538  0.24266650  0.45563799  1
  Sm3+  Sm59  1  0.25717231  0.36866139  0.55136824  1
  Sm3+  Sm60  1  0.00329192  0.61935759  0.05318245  1
  Sm3+  Sm61  1  0.01350528  0.87367540  0.04797567  1
  Sm3+  Sm62  1  0.00559547  0.36553825  0.05626052  1
  Sm3+  Sm63  1  0.50707587  0.12420031  0.54881197  1
  Bi2+  Bi64  1  -0.01378568  0.18782150  0.29188191  1
  Bi2+  Bi65  1  0.02575667  0.12870720  0.78030243  1
  Bi2+  Bi66  1  0.00593484  0.37552671  0.34623206  1
  Bi2+  Bi67  1  0.04393120  0.42658157  0.79606144  1
  Bi2+  Bi68  1  0.00720848  0.62364679  0.27914348  1
  Bi2+  Bi69  1  -0.05972981  0.60485174  0.79087868  1
  Bi2+  Bi70  1  -0.00933168  0.88156799  0.27963241  1
  Bi2+  Bi71  1  0.00232925  0.85378733  0.78130722  1
  Bi2+  Bi72  1  0.23225229  0.11271626  0.29373463  1
  Bi2+  Bi73  1  0.26513702  0.16856920  0.78753472  1
  Bi2+  Bi74  1  0.17465420  0.38210894  0.29068238  1
  Bi2+  Bi75  1  0.31847128  0.36203783  0.75153544  1
  Bi2+  Bi76  1  0.23151885  0.64632875  0.27340555  1
  Bi2+  Bi77  1  0.23912156  0.64704793  0.78718085  1
  Bi2+  Bi78  1  0.24054250  0.86289160  0.28020077  1
  Bi2+  Bi79  1  0.30065870  0.91861552  0.75696076  1
  Bi2+  Bi80  1  0.49766162  0.07991021  0.29839964  1
  Bi2+  Bi81  1  0.45966509  0.15381013  0.79779348  1
  Bi2+  Bi82  1  0.49552671  0.37603006  0.29031256  1
  Bi2+  Bi83  1  0.54088763  0.40143653  0.83655316  1
  Bi2+  Bi84  1  0.52872439  0.62372644  0.30368101  1
  Bi2+  Bi85  1  0.49578512  0.68336769  0.81898861  1
  Bi2+  Bi86  1  0.46326708  0.80263529  0.28188839  1
  Bi2+  Bi87  1  0.46264008  0.94654209  0.81710994  1
  Bi2+  Bi88  1  0.80683247  0.09348255  0.29358018  1
  Bi2+  Bi89  1  0.72535900  0.11793948  0.79157559  1
  Bi2+  Bi90  1  0.77606623  0.36125372  0.29611907  1
  Bi2+  Bi91  1  0.72285765  0.42858588  0.79752667  1
  Bi2+  Bi92  1  0.78165012  0.63057263  0.29057456  1
  Bi2+  Bi93  1  0.76717906  0.69972889  0.80478775  1
  Bi2+  Bi94  1  0.79052838  0.87697751  0.27676601  1
  Bi2+  Bi95  1  0.72947542  0.86916514  0.74496570  1
  Bi2+  Bi96  1  0.05381874  0.01405602  0.21179887  1
  Bi2+  Bi97  1  0.14204170  -0.01405562  0.70351475  1
  Bi2+  Bi98  1  0.10269129  0.26063394  0.21053501  1
  Bi2+  Bi99  1  0.16288813  0.26947787  0.70767157  1
  Bi2+  Bi100  1  0.11146058  0.50745171  0.20611253  1
  Bi2+  Bi101  1  0.11592371  0.50515781  0.70405886  1
  Bi2+  Bi102  1  0.18257762  0.76336710  0.18446745  1
  Bi2+  Bi103  1  0.11721443  0.74035048  0.71432199  1
  Bi2+  Bi104  1  0.38337113  -0.07034576  0.20761818  1
  Bi2+  Bi105  1  0.34688256  0.08628699  0.68883578  1
  Bi2+  Bi106  1  0.37140277  0.25740817  0.21447788  1
  Bi2+  Bi107  1  0.42128034  0.26899536  0.66798235  1
  Bi2+  Bi108  1  0.39059513  0.55184948  0.23397686  1
  Bi2+  Bi109  1  0.37944746  0.54532282  0.72877276  1
  Bi2+  Bi110  1  0.37734917  0.73443899  0.17334309  1
  Bi2+  Bi111  1  0.40366036  0.76460099  0.71092809  1
  Bi2+  Bi112  1  0.65090881  -0.03184495  0.22196752  1
  Bi2+  Bi113  1  0.52888283  0.01337610  0.71478130  1
  Bi2+  Bi114  1  0.64007313  0.22054451  0.20986023  1
  Bi2+  Bi115  1  0.57042179  0.30177720  0.73859872  1
  Bi2+  Bi116  1  0.62265130  0.48752899  0.21311258  1
  Bi2+  Bi117  1  0.57334417  0.50095589  0.73322050  1
  Bi2+  Bi118  1  0.61861292  0.76799378  0.21643946  1
  Bi2+  Bi119  1  0.59762290  0.73013789  0.71973067  1
  Bi2+  Bi120  1  0.83988306  0.02658183  0.18527018  1
  Bi2+  Bi121  1  0.87717239  -0.01345185  0.71485777  1
  Bi2+  Bi122  1  0.84727361  0.22837198  0.21094281  1
  Bi2+  Bi123  1  0.86343732  0.28586002  0.71669265  1
  Bi2+  Bi124  1  0.92990253  0.44952678  0.24584207  1
  Bi2+  Bi125  1  0.83556301  0.55152205  0.69991547  1
  Bi2+  Bi126  1  0.90708553  0.76621246  0.19969886  1
  Bi2+  Bi127  1  0.88672607  0.73945143  0.70398347  1
  S2-  S128  1  0.07148501  0.12828636  0.13954086  1
  S2-  S129  1  -0.06976558  0.13242669  0.68331456  1
  S2-  S130  1  0.01066991  0.38081977  0.15554970  1
  S2-  S131  1  0.01560320  0.30856576  0.66774621  1
  S2-  S132  1  -0.06182058  0.63444348  0.14381842  1
  S2-  S133  1  -0.01548011  0.51093540  0.64537104  1
  S2-  S134  1  -0.07746430  0.90091705  0.13107246  1
  S2-  S135  1  -0.00156279  0.95844373  0.64693463  1
  S2-  S136  1  0.31079731  0.09354409  0.19828124  1
  S2-  S137  1  0.15634986  0.12310354  0.64335592  1
  S2-  S138  1  0.24317223  0.27243832  0.15243623  1
  S2-  S139  1  0.22717848  0.40015356  0.64802720  1
  S2-  S140  1  0.24108136  0.50484290  0.14256927  1
  S2-  S141  1  0.14989097  0.63298833  0.63820581  1
  S2-  S142  1  0.16587037  0.93126043  0.15010295  1
  S2-  S143  1  0.17102929  0.85428465  0.63845782  1
  S2-  S144  1  0.49569379  0.21320266  0.15534444  1
  S2-  S145  1  0.57089542  0.11197188  0.64014708  1
  S2-  S146  1  0.44617888  0.41498961  0.18060696  1
  S2-  S147  1  0.51258910  0.41674316  0.64524804  1
  S2-  S148  1  0.60005439  0.62032775  0.15803480  1
  S2-  S149  1  0.37823488  0.62912837  0.64124470  1
  S2-  S150  1  0.52279764  0.97920813  0.15108682  1
  S2-  S151  1  0.50217516  0.86860131  0.65202252  1
  S2-  S152  1  0.68415414  0.12175597  0.13434824  1
  S2-  S153  1  0.74097729  0.19207305  0.69308068  1
  S2-  S154  1  0.65824555  0.35790637  0.14641065  1
  S2-  S155  1  0.78158503  0.40036229  0.66045560  1
  S2-  S156  1  0.77443418  0.53572863  0.19835859  1
  S2-  S157  1  0.63797890  0.62206004  0.64388945  1
  S2-  S158  1  0.75112464  0.77308723  0.15117849  1
  S2-  S159  1  0.74129117  0.95383227  0.64876062  1
  S2-  S160  1  0.09865239  0.10853215  0.35617924  1
  S2-  S161  1  0.06335951  -0.00329895  0.83214212  1
  S2-  S162  1  0.23465209  0.25490689  0.34989023  1
  S2-  S163  1  0.05343674  0.26595926  0.84510985  1
  S2-  S164  1  0.12336349  0.59889304  0.35446728  1
  S2-  S165  1  0.17746388  0.49912196  0.83865008  1
  S2-  S166  1  0.11956842  0.87403392  0.35090257  1
  S2-  S167  1  0.11985314  0.74826531  0.83260398  1
  S2-  S168  1  0.34192154  0.02111985  0.34351585  1
  S2-  S169  1  0.29825293  -0.02647808  0.85995545  1
  S2-  S170  1  0.42036890  0.23741405  0.31907600  1
  S2-  S171  1  0.35127116  0.27541048  0.84970930  1
  S2-  S172  1  0.37645628  0.46938241  0.33427387  1
  S2-  S173  1  0.42606322  0.53026898  0.85077987  1
  S2-  S174  1  0.29604131  0.74267199  0.35090830  1
  S2-  S175  1  0.33742093  0.73636641  0.84788955  1
  S2-  S176  1  0.60481494  -0.02434028  0.33553720  1
  S2-  S177  1  0.73656727  -0.02173975  0.83870254  1
  S2-  S178  1  0.61321728  0.18580339  0.31473251  1
  S2-  S179  1  0.59720154  0.12985339  0.85556216  1
  S2-  S180  1  0.62476146  0.39065257  0.35159717  1
  S2-  S181  1  0.64834954  0.61743341  0.86126724  1
  S2-  S182  1  0.65939505  0.70983107  0.34788004  1
  S2-  S183  1  0.57046480  0.83428679  0.85809945  1
  S2-  S184  1  0.88618866  -0.02818919  0.35049113  1
  S2-  S185  1  0.88900892  0.11311821  0.83084718  1
  S2-  S186  1  0.80811337  0.24853102  0.36256182  1
  S2-  S187  1  0.74991774  0.27569748  0.83965181  1
  S2-  S188  1  0.77268532  0.51506106  0.35699174  1
  S2-  S189  1  0.88781009  0.45857262  0.84756224  1
  S2-  S190  1  0.90194862  0.70261306  0.34910044  1
  S2-  S191  1  0.88642103  0.83098197  0.84914878  1
  S2-  S192  1  0.00164541  0.12212697  0.46545342  1
  S2-  S193  1  0.01125862  0.12139902  0.94166040  1
  S2-  S194  1  0.00472000  0.36575800  0.46328361  1
  S2-  S195  1  0.00415588  0.36689624  0.95198198  1
  S2-  S196  1  0.00602502  0.62060423  0.45896620  1
  S2-  S197  1  0.00932132  0.61613248  0.94629212  1
  S2-  S198  1  0.00443568  0.87031121  0.45688138  1
  S2-  S199  1  0.01691834  0.86675802  0.94522547  1
  S2-  S200  1  0.25590911  0.11968255  0.45419363  1
  S2-  S201  1  0.25942033  0.12415872  0.94892893  1
  S2-  S202  1  0.25500654  0.37300292  0.44778568  1
  S2-  S203  1  0.26026523  0.36915735  0.95731991  1
  S2-  S204  1  0.26261093  0.61586978  0.45378600  1
  S2-  S205  1  0.26110677  0.61099014  0.95917133  1
  S2-  S206  1  0.26256225  0.87207092  0.44958661  1
  S2-  S207  1  0.25882069  0.86282580  0.96226986  1
  S2-  S208  1  0.50883396  0.12464710  0.44303601  1
  S2-  S209  1  0.50697792  0.11344440  0.96300756  1
  S2-  S210  1  0.50536376  0.36332029  0.44654786  1
  S2-  S211  1  0.51398269  0.36807683  0.96418527  1
  S2-  S212  1  0.50958329  0.61869096  0.45514549  1
  S2-  S213  1  0.50913360  0.61560978  0.96361551  1
  S2-  S214  1  0.50629817  0.87008743  0.44513655  1
  S2-  S215  1  0.50230394  0.87088506  0.96663222  1
  S2-  S216  1  0.75463486  0.11834627  0.45357391  1
  S2-  S217  1  0.76512370  0.12332393  0.94187118  1
  S2-  S218  1  0.75985918  0.37064284  0.45898868  1
  S2-  S219  1  0.76128689  0.36737557  0.95397468  1
  S2-  S220  1  0.75876280  0.62569968  0.46262948  1
  S2-  S221  1  0.76587349  0.61852180  0.95951019  1
  S2-  S222  1  0.75690131  0.87014234  0.45194932  1
  S2-  S223  1  0.75911473  0.86628142  0.95253037  1
  S2-  S224  1  0.13495812  -0.00287415  0.03587468  1
  S2-  S225  1  0.13525216  -0.00418742  0.53930655  1
  S2-  S226  1  0.13053733  0.24568121  0.04028842  1
  S2-  S227  1  0.13289219  0.24858182  0.54301045  1
  S2-  S228  1  0.12285694  0.49406548  0.04338012  1
  S2-  S229  1  0.13696401  0.49372242  0.53964210  1
  S2-  S230  1  0.12891134  0.74060088  0.04436406  1
  S2-  S231  1  0.13830097  0.74567243  0.53133115  1
  S2-  S232  1  0.37361580  -0.00396400  0.05756340  1
  S2-  S233  1  0.38226803  -0.00030392  0.54654353  1
  S2-  S234  1  0.37871400  0.23745577  0.05541496  1
  S2-  S235  1  0.37969518  0.24426550  0.53505778  1
  S2-  S236  1  0.39013698  0.49183022  0.05336918  1
  S2-  S237  1  0.38398300  0.48988823  0.54266275  1
  S2-  S238  1  0.38199212  0.74209783  0.05327161  1
  S2-  S239  1  0.38521286  0.74927220  0.54126098  1
  S2-  S240  1  0.63967309  -0.01417957  0.03839769  1
  S2-  S241  1  0.62941201  -0.00337480  0.53941726  1
  S2-  S242  1  0.63365643  0.24020886  0.03647966  1
  S2-  S243  1  0.63388973  0.24373145  0.54592114  1
  S2-  S244  1  0.63973914  0.49824695  0.05065335  1
  S2-  S245  1  0.63279050  0.49378041  0.53999024  1
  S2-  S246  1  0.63407441  0.74596391  0.04970924  1
  S2-  S247  1  0.63243109  0.74996596  0.54799913  1
  S2-  S248  1  0.88746162  -0.00336684  0.02521967  1
  S2-  S249  1  0.87611714  -0.00075428  0.55247114  1
  S2-  S250  1  0.88306176  0.24224917  0.05246060  1
  S2-  S251  1  0.87543372  0.24005470  0.56024865  1
  S2-  S252  1  0.88124161  0.49077844  0.05285299  1
  S2-  S253  1  0.87730932  0.49763893  0.54387288  1
  S2-  S254  1  0.89035951  0.74680399  0.03860580  1
  S2-  S255  1  0.88282172  0.74610263  0.55463333  1
