# generated using pymatgen
data_La9Ce10Pr6Nd4Sm3(BiS2)32
_symmetry_space_group_name_H-M   'P 1'
_cell_length_a   16.23087438
_cell_length_b   16.22390670
_cell_length_c   27.11493731
_cell_angle_alpha   89.90061307
_cell_angle_beta   90.37294568
_cell_angle_gamma   90.02135945
_symmetry_Int_Tables_number   1
_chemical_formula_structural   La9Ce10Pr6Nd4Sm3(BiS2)32
_chemical_formula_sum   'La18 Ce20 Pr12 Nd8 Sm6 Bi64 S128'
_cell_volume   7139.96494113
_cell_formula_units_Z   2
loop_
 _symmetry_equiv_pos_site_id
 _symmetry_equiv_pos_as_xyz
  1  'x, y, z'
loop_
 _atom_type_symbol
 _atom_type_oxidation_number
  La3+  3.0
  Ce3+  3.0
  Pr3+  3.0
  Nd3+  3.0
  Sm3+  3.0
  Bi2+  2.0
  S2-  -2.0
loop_
 _atom_site_type_symbol
 _atom_site_label
 _atom_site_symmetry_multiplicity
 _atom_site_fract_x
 _atom_site_fract_y
 _atom_site_fract_z
 _atom_site_occupancy
  La3+  La0  1  0.63069881  0.49138729  0.42567648  1
  La3+  La1  1  0.26610613  0.37808578  0.08312384  1
  La3+  La2  1  0.72942255  0.62157142  0.11095555  1
  La3+  La3  1  0.37622666  0.50757815  0.42678163  1
  La3+  La4  1  0.26138683  0.86509091  0.07148329  1
  La3+  La5  1  0.87813557  0.24179074  0.93108635  1
  La3+  La6  1  0.12328253  0.50037186  0.44155644  1
  La3+  La7  1  0.49492034  0.87364353  0.56843946  1
  La3+  La8  1  0.36474108  -0.00545778  0.92133531  1
  La3+  La9  1  0.36737657  0.24539320  0.93891894  1
  La3+  La10  1  0.11450746  -0.00124854  0.41802101  1
  La3+  La11  1  0.75411155  0.62075679  0.58902560  1
  La3+  La12  1  0.26249864  0.11200124  0.09513468  1
  La3+  La13  1  0.25928007  0.62078751  0.57486251  1
  La3+  La14  1  0.61974980  0.24850509  0.92526354  1
  La3+  La15  1  -0.00869303  0.12552166  0.08332000  1
  La3+  La16  1  0.11526865  0.25939110  0.41208876  1
  La3+  La17  1  0.86781430  0.74778709  0.43604366  1
  Ce3+  Ce18  1  0.36370630  0.49593272  0.92645262  1
  Ce3+  Ce19  1  -0.00368254  0.62701339  0.56434479  1
  Ce3+  Ce20  1  0.00008582  0.37000668  0.05805661  1
  Ce3+  Ce21  1  0.12261759  0.74841730  0.44443804  1
  Ce3+  Ce22  1  0.62427228  0.75127174  0.44949618  1
  Ce3+  Ce23  1  0.74973277  0.12284237  0.05496100  1
  Ce3+  Ce24  1  0.25187044  0.37513215  0.56277449  1
  Ce3+  Ce25  1  0.36969151  0.74372380  0.93384823  1
  Ce3+  Ce26  1  0.24632103  0.87694597  0.55260664  1
  Ce3+  Ce27  1  0.25298592  0.61870990  0.05998915  1
  Ce3+  Ce28  1  0.75267723  0.86476224  0.05513431  1
  Ce3+  Ce29  1  -0.00860376  0.61958105  0.05644899  1
  Ce3+  Ce30  1  -0.00176798  0.87085368  0.05677032  1
  Ce3+  Ce31  1  0.50257095  0.86656742  0.04731134  1
  Ce3+  Ce32  1  0.86857215  0.00420387  0.43544852  1
  Ce3+  Ce33  1  0.62207966  -0.00578877  0.94140037  1
  Ce3+  Ce34  1  0.62222425  0.24886411  0.44172432  1
  Ce3+  Ce35  1  0.37040802  0.00264327  0.43508648  1
  Ce3+  Ce36  1  0.75085849  0.37762336  0.04817208  1
  Ce3+  Ce37  1  0.50308051  0.37435402  0.04961004  1
  Pr3+  Pr38  1  0.12829476  0.24082056  0.95940086  1
  Pr3+  Pr39  1  0.74234612  0.37025918  0.57434711  1
  Pr3+  Pr40  1  0.50195006  0.11894562  0.05916469  1
  Pr3+  Pr41  1  0.87411204  0.74659576  0.93122463  1
  Pr3+  Pr42  1  0.87597011  0.49068913  0.92302438  1
  Pr3+  Pr43  1  0.12604252  0.49468579  0.94459557  1
  Pr3+  Pr44  1  0.49920627  0.37497365  0.55908791  1
  Pr3+  Pr45  1  0.37423396  0.75510624  0.43470225  1
  Pr3+  Pr46  1  0.62669432  0.74419649  0.92767595  1
  Pr3+  Pr47  1  0.12581011  -0.00204909  0.95156965  1
  Pr3+  Pr48  1  -0.00039472  0.37402221  0.56561175  1
  Pr3+  Pr49  1  0.62358900  0.50368405  0.92336990  1
  Nd3+  Nd50  1  0.74980490  0.12552425  0.56826636  1
  Nd3+  Nd51  1  0.50301548  0.61832578  0.04843314  1
  Nd3+  Nd52  1  -0.00255104  0.87553909  0.55556810  1
  Nd3+  Nd53  1  0.87016360  0.25016279  0.44071693  1
  Nd3+  Nd54  1  0.12274937  0.74738830  0.94712037  1
  Nd3+  Nd55  1  0.86955826  0.49841857  0.44603489  1
  Nd3+  Nd56  1  0.50369680  0.62331936  0.55804423  1
  Nd3+  Nd57  1  0.00236082  0.12402745  0.55559705  1
  Sm3+  Sm58  1  0.36950562  0.24994291  0.44278018  1
  Sm3+  Sm59  1  0.75064307  0.87812385  0.56037484  1
  Sm3+  Sm60  1  0.49628693  0.12322284  0.56001300  1
  Sm3+  Sm61  1  0.87463102  -0.00082115  0.93626238  1
  Sm3+  Sm62  1  0.24690312  0.12408307  0.55138225  1
  Sm3+  Sm63  1  0.62213937  0.00166798  0.44874970  1
  Bi2+  Bi64  1  0.00387799  0.12443802  0.29125836  1
  Bi2+  Bi65  1  0.03585277  0.15282064  0.79741845  1
  Bi2+  Bi66  1  -0.02359147  0.40810070  0.30103437  1
  Bi2+  Bi67  1  0.00178819  0.34432797  0.77441902  1
  Bi2+  Bi68  1  0.01550426  0.63353476  0.30561708  1
  Bi2+  Bi69  1  0.02500830  0.59574465  0.79672238  1
  Bi2+  Bi70  1  -0.04184477  0.90012262  0.26130959  1
  Bi2+  Bi71  1  -0.01169512  0.94728509  0.79508466  1
  Bi2+  Bi72  1  0.29957878  0.11289244  0.29452717  1
  Bi2+  Bi73  1  0.25546550  0.11157486  0.80636449  1
  Bi2+  Bi74  1  0.27036979  0.34132626  0.28416149  1
  Bi2+  Bi75  1  0.21349628  0.36403129  0.78675237  1
  Bi2+  Bi76  1  0.24794179  0.60318126  0.28686339  1
  Bi2+  Bi77  1  0.25184745  0.62836213  0.80264349  1
  Bi2+  Bi78  1  0.23413000  0.80978761  0.27983699  1
  Bi2+  Bi79  1  0.16279279  0.86927563  0.78149185  1
  Bi2+  Bi80  1  0.58749756  0.13111097  0.28557867  1
  Bi2+  Bi81  1  0.50217633  0.11461962  0.79102001  1
  Bi2+  Bi82  1  0.51650292  0.40806861  0.28559381  1
  Bi2+  Bi83  1  0.49553311  0.34562474  0.79512163  1
  Bi2+  Bi84  1  0.48313339  0.67791675  0.27736392  1
  Bi2+  Bi85  1  0.49290388  0.69293994  0.78294565  1
  Bi2+  Bi86  1  0.42106933  0.85297608  0.31060526  1
  Bi2+  Bi87  1  0.61391481  0.84474496  0.80879109  1
  Bi2+  Bi88  1  0.78325084  0.15834118  0.30054082  1
  Bi2+  Bi89  1  0.77443198  0.06615169  0.78841036  1
  Bi2+  Bi90  1  0.74795221  0.35707021  0.28785011  1
  Bi2+  Bi91  1  0.76973553  0.39362300  0.77660113  1
  Bi2+  Bi92  1  0.72434378  0.62826875  0.31568386  1
  Bi2+  Bi93  1  0.75239174  0.66655263  0.78848322  1
  Bi2+  Bi94  1  0.71651572  0.88765777  0.29159069  1
  Bi2+  Bi95  1  0.80965011  0.86682605  0.81755787  1
  Bi2+  Bi96  1  0.14013389  -0.01025540  0.22417635  1
  Bi2+  Bi97  1  0.10257761  0.01323617  0.70812101  1
  Bi2+  Bi98  1  0.10598015  0.24913959  0.20978657  1
  Bi2+  Bi99  1  0.19407471  0.21563337  0.71132204  1
  Bi2+  Bi100  1  0.09719191  0.51832636  0.22415768  1
  Bi2+  Bi101  1  0.10794930  0.48606434  0.71505852  1
  Bi2+  Bi102  1  0.10447837  0.71711406  0.20921748  1
  Bi2+  Bi103  1  0.08374106  0.72508322  0.71592145  1
  Bi2+  Bi104  1  0.41603527  -0.02356743  0.20276186  1
  Bi2+  Bi105  1  0.35250905  -0.00796990  0.70891591  1
  Bi2+  Bi106  1  0.46912730  0.25662796  0.21680410  1
  Bi2+  Bi107  1  0.34475834  0.34184492  0.69824027  1
  Bi2+  Bi108  1  0.42606467  0.52946767  0.19450620  1
  Bi2+  Bi109  1  0.37549716  0.52106974  0.73917556  1
  Bi2+  Bi110  1  0.29446544  0.70491480  0.18587468  1
  Bi2+  Bi111  1  0.36271457  0.75633335  0.70200195  1
  Bi2+  Bi112  1  0.61555857  0.03174476  0.18749609  1
  Bi2+  Bi113  1  0.62518162  0.04297274  0.70341214  1
  Bi2+  Bi114  1  0.65523008  0.23025532  0.19003407  1
  Bi2+  Bi115  1  0.63204489  0.23998262  0.70575430  1
  Bi2+  Bi116  1  0.63664761  0.47218391  0.20696766  1
  Bi2+  Bi117  1  0.62823462  0.48823822  0.71622223  1
  Bi2+  Bi118  1  0.56005179  0.84144687  0.22548176  1
  Bi2+  Bi119  1  0.61047383  0.79352588  0.70114851  1
  Bi2+  Bi120  1  0.80833513  0.00602001  0.22091637  1
  Bi2+  Bi121  1  0.80970947  0.00875247  0.67929368  1
  Bi2+  Bi122  1  0.85127950  0.25781438  0.20718168  1
  Bi2+  Bi123  1  0.88289722  0.18147606  0.71968107  1
  Bi2+  Bi124  1  0.90278692  0.52020721  0.22451609  1
  Bi2+  Bi125  1  0.91164568  0.51970166  0.71091078  1
  Bi2+  Bi126  1  0.86956025  0.76369655  0.20491396  1
  Bi2+  Bi127  1  0.90867799  0.81644041  0.71592554  1
  S2-  S128  1  0.03188123  0.09485132  0.18404788  1
  S2-  S129  1  0.00680333  0.12511580  0.65582501  1
  S2-  S130  1  -0.02585328  0.31921146  0.15041053  1
  S2-  S131  1  -0.00446747  0.37442957  0.66683166  1
  S2-  S132  1  -0.09504666  0.62340964  0.14182694  1
  S2-  S133  1  -0.09627833  0.64544840  0.64680262  1
  S2-  S134  1  -0.03035256  0.87619747  0.15382806  1
  S2-  S135  1  0.02989864  0.87705310  0.65391173  1
  S2-  S136  1  0.22465304  0.13665222  0.19857130  1
  S2-  S137  1  0.27917605  0.10594928  0.64872010  1
  S2-  S138  1  0.22666842  0.33988842  0.18022400  1
  S2-  S139  1  0.28149269  0.47353257  0.64100138  1
  S2-  S140  1  0.28092992  0.53341139  0.14315233  1
  S2-  S141  1  0.22257303  0.68102433  0.66853151  1
  S2-  S142  1  0.25899944  0.96061598  0.15481353  1
  S2-  S143  1  0.27835728  0.88675636  0.64970124  1
  S2-  S144  1  0.41830632  0.12898345  0.14835515  1
  S2-  S145  1  0.50713677  0.14544701  0.65827610  1
  S2-  S146  1  0.44066190  0.38041104  0.14174714  1
  S2-  S147  1  0.56923196  0.37987251  0.65316090  1
  S2-  S148  1  0.55842133  0.61202166  0.14341791  1
  S2-  S149  1  0.43668135  0.64815811  0.64852773  1
  S2-  S150  1  0.44430449  0.84863390  0.13889840  1
  S2-  S151  1  0.48896096  0.91267063  0.66714921  1
  S2-  S152  1  0.83930801  0.11903324  0.13923286  1
  S2-  S153  1  0.75958947  0.24071351  0.64557504  1
  S2-  S154  1  0.75149324  0.44968670  0.13726063  1
  S2-  S155  1  0.76604051  0.47099864  0.65650061  1
  S2-  S156  1  0.72887590  0.61804816  0.22078485  1
  S2-  S157  1  0.66736663  0.64337962  0.67774276  1
  S2-  S158  1  0.74196401  0.79238801  0.14414819  1
  S2-  S159  1  0.76141015  0.83943292  0.65635329  1
  S2-  S160  1  0.19452173  -0.00560528  0.32781880  1
  S2-  S161  1  0.20588535  -0.01482292  0.86189410  1
  S2-  S162  1  0.15837672  0.20827080  0.31713047  1
  S2-  S163  1  0.15504127  0.23252661  0.85914842  1
  S2-  S164  1  0.11603510  0.41136440  0.35491376  1
  S2-  S165  1  0.22271170  0.48461761  0.86099748  1
  S2-  S166  1  0.10708860  0.76595346  0.34778710  1
  S2-  S167  1  0.13893200  0.73284269  0.84777297  1
  S2-  S168  1  0.41909109  0.01947234  0.34132060  1
  S2-  S169  1  0.38935311  -0.00448110  0.81613822  1
  S2-  S170  1  0.37386450  0.24763898  0.34381142  1
  S2-  S171  1  0.38808947  0.22303239  0.83887922  1
  S2-  S172  1  0.32384467  0.46412947  0.33243294  1
  S2-  S173  1  0.42943470  0.48331707  0.83315160  1
  S2-  S174  1  0.36866288  0.65208164  0.35352889  1
  S2-  S175  1  0.35788458  0.75659600  0.83504869  1
  S2-  S176  1  0.66212255  0.01357716  0.35327070  1
  S2-  S177  1  0.60268210  0.01181515  0.84493963  1
  S2-  S178  1  0.61953730  0.34062119  0.35875606  1
  S2-  S179  1  0.62027857  0.22073878  0.82427351  1
  S2-  S180  1  0.56250128  0.55334521  0.33624885  1
  S2-  S181  1  0.62804849  0.41245267  0.83524642  1
  S2-  S182  1  0.64596956  0.76897505  0.35306420  1
  S2-  S183  1  0.62289488  0.63272563  0.84630953  1
  S2-  S184  1  0.96433847  -0.00355196  0.35177249  1
  S2-  S185  1  0.89182870  0.11319915  0.86084562  1
  S2-  S186  1  0.95814347  0.25504031  0.35346954  1
  S2-  S187  1  0.88160801  0.34822187  0.84895924  1
  S2-  S188  1  0.78218946  0.48516811  0.35940928  1
  S2-  S189  1  0.80709084  0.52798604  0.82786255  1
  S2-  S190  1  0.87174644  0.71021532  0.33712530  1
  S2-  S191  1  0.90614490  0.71166378  0.83263471  1
  S2-  S192  1  -0.00112004  0.12768681  0.45084799  1
  S2-  S193  1  0.00150503  0.11872039  0.96818960  1
  S2-  S194  1  -0.00610510  0.37523556  0.45904509  1
  S2-  S195  1  0.00656264  0.36771120  0.95111339  1
  S2-  S196  1  -0.00505370  0.62249440  0.45555093  1
  S2-  S197  1  0.00066028  0.61977108  0.94896117  1
  S2-  S198  1  -0.00551811  0.87281379  0.45025158  1
  S2-  S199  1  -0.00088825  0.87482816  0.94778358  1
  S2-  S200  1  0.24192317  0.12914121  0.44585117  1
  S2-  S201  1  0.25280583  0.11721807  0.96501562  1
  S2-  S202  1  0.24950716  0.37263201  0.45510238  1
  S2-  S203  1  0.24821972  0.36894621  0.96606734  1
  S2-  S204  1  0.24646759  0.62600528  0.45743500  1
  S2-  S205  1  0.24590101  0.62457001  0.95545693  1
  S2-  S206  1  0.24601585  0.87644698  0.44550150  1
  S2-  S207  1  0.24912737  0.86673008  0.96135959  1
  S2-  S208  1  0.49746730  0.12602441  0.45344247  1
  S2-  S209  1  0.49659450  0.11872308  0.94999716  1
  S2-  S210  1  0.49241360  0.37320155  0.45243475  1
  S2-  S211  1  0.49524648  0.37237524  0.94432546  1
  S2-  S212  1  0.50299412  0.62816962  0.45366125  1
  S2-  S213  1  0.49263060  0.62215150  0.94243275  1
  S2-  S214  1  0.50003241  0.87882112  0.45722744  1
  S2-  S215  1  0.49534011  0.86897718  0.94110218  1
  S2-  S216  1  0.74703729  0.12609465  0.45907154  1
  S2-  S217  1  0.74440180  0.11994816  0.94906571  1
  S2-  S218  1  0.74933808  0.36895767  0.46503367  1
  S2-  S219  1  0.74600668  0.37150935  0.94383388  1
  S2-  S220  1  0.74647995  0.62427723  0.46033637  1
  S2-  S221  1  0.75596211  0.62169446  0.94231203  1
  S2-  S222  1  0.74749740  0.88021478  0.45516217  1
  S2-  S223  1  0.75094933  0.87466590  0.94819940  1
  S2-  S224  1  0.12423705  -0.00430114  0.05850395  1
  S2-  S225  1  0.12389349  0.00048630  0.53876566  1
  S2-  S226  1  0.13181923  0.24216912  0.06552074  1
  S2-  S227  1  0.12646340  0.24963366  0.55199861  1
  S2-  S228  1  0.12297450  0.49646733  0.05228763  1
  S2-  S229  1  0.12242315  0.50106894  0.55079682  1
  S2-  S230  1  0.12372736  0.74430088  0.05422102  1
  S2-  S231  1  0.12304447  0.74930439  0.55056386  1
  S2-  S232  1  0.38010025  -0.00741747  0.04015196  1
  S2-  S233  1  0.37332991  0.00257895  0.54283787  1
  S2-  S234  1  0.37705790  0.24598700  0.04725379  1
  S2-  S235  1  0.37356738  0.24672610  0.54897824  1
  S2-  S236  1  0.37907553  0.49801381  0.03431996  1
  S2-  S237  1  0.38029895  0.50076287  0.53735319  1
  S2-  S238  1  0.37758266  0.73917233  0.04069580  1
  S2-  S239  1  0.37295334  0.75116913  0.54192763  1
  S2-  S240  1  0.62752936  -0.00740957  0.04769720  1
  S2-  S241  1  0.62344996  0.00101723  0.55413747  1
  S2-  S242  1  0.62466047  0.24744816  0.03878378  1
  S2-  S243  1  0.61887454  0.24376108  0.54644113  1
  S2-  S244  1  0.62579182  0.49770111  0.03342183  1
  S2-  S245  1  0.62443908  0.50034018  0.54588854  1
  S2-  S246  1  0.62711697  0.74244970  0.03604277  1
  S2-  S247  1  0.62677734  0.75229069  0.55602769  1
  S2-  S248  1  0.87308161  -0.00606095  0.04116336  1
  S2-  S249  1  0.87454105  0.00138807  0.54392505  1
  S2-  S250  1  0.87150609  0.24955341  0.03969588  1
  S2-  S251  1  0.87822767  0.24740356  0.54682889  1
  S2-  S252  1  0.88211979  0.48951838  0.03227977  1
  S2-  S253  1  0.87484501  0.49780458  0.55043997  1
  S2-  S254  1  0.87787137  0.74840178  0.03819782  1
  S2-  S255  1  0.87064999  0.75466652  0.54493774  1
