# generated using pymatgen
data_La9Ce10Pr6Nd4Sm3(BiS2)32
_symmetry_space_group_name_H-M   'P 1'
_cell_length_a   16.18154700
_cell_length_b   16.20166710
_cell_length_c   27.15360228
_cell_angle_alpha   90.10023441
_cell_angle_beta   90.12195944
_cell_angle_gamma   90.12066548
_symmetry_Int_Tables_number   1
_chemical_formula_structural   La9Ce10Pr6Nd4Sm3(BiS2)32
_chemical_formula_sum   'La18 Ce20 Pr12 Nd8 Sm6 Bi64 S128'
_cell_volume   7118.76376260
_cell_formula_units_Z   2
loop_
 _symmetry_equiv_pos_site_id
 _symmetry_equiv_pos_as_xyz
  1  'x, y, z'
loop_
 _atom_type_symbol
 _atom_type_oxidation_number
  La3+  3.0
  Ce3+  3.0
  Pr3+  3.0
  Nd3+  3.0
  Sm3+  3.0
  Bi2+  2.0
  S2-  -2.0
loop_
 _atom_site_type_symbol
 _atom_site_label
 _atom_site_symmetry_multiplicity
 _atom_site_fract_x
 _atom_site_fract_y
 _atom_site_fract_z
 _atom_site_occupancy
  La3+  La0  1  0.34924168  0.48127014  0.91269063  1
  La3+  La1  1  0.35962101  -0.01552622  0.93704310  1
  La3+  La2  1  0.75221137  0.63677713  0.58655325  1
  La3+  La3  1  0.10793417  0.74491829  0.90646227  1
  La3+  La4  1  0.25826905  0.88695828  0.55051291  1
  La3+  La5  1  0.00314870  0.38815765  0.55249470  1
  La3+  La6  1  0.37567321  0.75740280  0.38708740  1
  La3+  La7  1  0.25760594  0.63476551  0.56678875  1
  La3+  La8  1  -0.01858059  0.35722213  0.09344516  1
  La3+  La9  1  0.25463320  0.38509350  0.55841115  1
  La3+  La10  1  0.48790334  0.11345696  0.06783398  1
  La3+  La11  1  0.61227348  -0.01697204  0.93857214  1
  La3+  La12  1  0.00393515  0.63266314  0.56829066  1
  La3+  La13  1  0.87029282  0.51777283  0.42616222  1
  La3+  La14  1  0.10274638  -0.00359832  0.92485578  1
  La3+  La15  1  0.38022637  0.01549532  0.40271208  1
  La3+  La16  1  0.24475723  0.35786579  0.07558732  1
  La3+  La17  1  0.60891680  0.73052968  0.91674537  1
  Ce3+  Ce18  1  0.50100792  0.13397103  0.56074495  1
  Ce3+  Ce19  1  0.87580407  0.26185718  0.43957005  1
  Ce3+  Ce20  1  -0.00910757  0.86794173  0.06926381  1
  Ce3+  Ce21  1  0.62415575  0.00802126  0.44159739  1
  Ce3+  Ce22  1  0.25550805  0.13360162  0.54849339  1
  Ce3+  Ce23  1  0.61201463  0.24019250  0.94309692  1
  Ce3+  Ce24  1  0.75302667  0.38776317  0.56332566  1
  Ce3+  Ce25  1  0.75222178  0.88277570  0.56435771  1
  Ce3+  Ce26  1  0.87256286  0.75949692  0.44338374  1
  Ce3+  Ce27  1  0.23566443  0.86266215  0.05879390  1
  Ce3+  Ce28  1  0.73427725  0.85998643  0.05926432  1
  Ce3+  Ce29  1  0.23733587  0.11092900  0.05834181  1
  Ce3+  Ce30  1  0.35646125  0.73481289  0.93459265  1
  Ce3+  Ce31  1  -0.00919187  0.61555169  0.06689418  1
  Ce3+  Ce32  1  0.87049136  0.49055157  0.94457068  1
  Ce3+  Ce33  1  0.75336480  0.13360406  0.55434521  1
  Ce3+  Ce34  1  0.38002133  0.25833214  0.43290055  1
  Ce3+  Ce35  1  0.87786118  0.00857646  0.43681173  1
  Ce3+  Ce36  1  0.12814860  0.26276252  0.43689964  1
  Ce3+  Ce37  1  0.73766800  0.61666279  0.05938233  1
  Pr3+  Pr38  1  0.86244219  -0.01198401  0.94272224  1
  Pr3+  Pr39  1  0.86762478  0.73913211  0.94805423  1
  Pr3+  Pr40  1  0.73726153  0.36685861  0.06411923  1
  Pr3+  Pr41  1  0.62461346  0.75878079  0.43377520  1
  Pr3+  Pr42  1  0.50262731  0.88296984  0.55249066  1
  Pr3+  Pr43  1  0.00414694  0.13338012  0.55835324  1
  Pr3+  Pr44  1  0.36431919  0.23843498  0.93495719  1
  Pr3+  Pr45  1  0.12191387  0.01005908  0.42612747  1
  Pr3+  Pr46  1  0.00621398  0.88513019  0.56119470  1
  Pr3+  Pr47  1  -0.01254038  0.10815496  0.07300479  1
  Pr3+  Pr48  1  0.10842348  0.48631291  0.94616013  1
  Pr3+  Pr49  1  0.48808556  0.36732860  0.05727356  1
  Nd3+  Nd50  1  0.12884024  0.75932266  0.43905202  1
  Nd3+  Nd51  1  0.12516336  0.52060137  0.42406851  1
  Nd3+  Nd52  1  0.61341500  0.49095999  0.93402448  1
  Nd3+  Nd53  1  0.86206033  0.24139351  0.94771750  1
  Nd3+  Nd54  1  0.23619794  0.61134867  0.05981388  1
  Nd3+  Nd55  1  0.48443746  0.61286860  0.05391539  1
  Nd3+  Nd56  1  0.37845100  0.51259159  0.43884834  1
  Nd3+  Nd57  1  0.10749165  0.24032950  0.94586976  1
  Sm3+  Sm58  1  0.50414183  0.38400107  0.55731593  1
  Sm3+  Sm59  1  0.73595450  0.11208003  0.05679857  1
  Sm3+  Sm60  1  0.48568510  0.86086908  0.06031622  1
  Sm3+  Sm61  1  0.62807322  0.51252235  0.44305527  1
  Sm3+  Sm62  1  0.62791076  0.25941690  0.44763444  1
  Sm3+  Sm63  1  0.50266498  0.63481652  0.56567914  1
  Bi2+  Bi64  1  0.07368974  0.08990315  0.28226877  1
  Bi2+  Bi65  1  -0.00848091  0.13662652  0.79581827  1
  Bi2+  Bi66  1  0.01707299  0.35244622  0.29512520  1
  Bi2+  Bi67  1  0.02381421  0.38590700  0.78541604  1
  Bi2+  Bi68  1  -0.01294734  0.62869881  0.28966798  1
  Bi2+  Bi69  1  0.03669336  0.66434288  0.78027658  1
  Bi2+  Bi70  1  -0.00832531  0.86353019  0.29257389  1
  Bi2+  Bi71  1  0.00762917  0.92026066  0.77378077  1
  Bi2+  Bi72  1  0.31029573  0.17723204  0.25184347  1
  Bi2+  Bi73  1  0.21640553  0.13159467  0.77413590  1
  Bi2+  Bi74  1  0.28923789  0.35115904  0.29449576  1
  Bi2+  Bi75  1  0.20963303  0.33778455  0.79984854  1
  Bi2+  Bi76  1  0.24034853  0.59387813  0.29311531  1
  Bi2+  Bi77  1  0.25979455  0.59388107  0.78455766  1
  Bi2+  Bi78  1  0.20746503  0.87148134  0.30002824  1
  Bi2+  Bi79  1  0.26949817  0.86340127  0.78417720  1
  Bi2+  Bi80  1  0.53792481  0.13842039  0.29113989  1
  Bi2+  Bi81  1  0.48485709  0.12468342  0.79648868  1
  Bi2+  Bi82  1  0.47802935  0.40123030  0.29394991  1
  Bi2+  Bi83  1  0.58183996  0.36495739  0.77482915  1
  Bi2+  Bi84  1  0.58817885  0.56210800  0.31150269  1
  Bi2+  Bi85  1  0.51942255  0.63816861  0.78204711  1
  Bi2+  Bi86  1  0.60498270  0.86405633  0.28253137  1
  Bi2+  Bi87  1  0.52283675  0.88621290  0.80606302  1
  Bi2+  Bi88  1  0.78080636  0.07461111  0.30407885  1
  Bi2+  Bi89  1  0.78767116  0.18071432  0.79596390  1
  Bi2+  Bi90  1  0.74106835  0.34536852  0.29940909  1
  Bi2+  Bi91  1  0.76275538  0.42097978  0.79975089  1
  Bi2+  Bi92  1  0.72533779  0.70590377  0.30950129  1
  Bi2+  Bi93  1  0.86593382  0.58774103  0.81770293  1
  Bi2+  Bi94  1  0.76730491  0.89135980  0.34741284  1
  Bi2+  Bi95  1  0.73880819  0.95194009  0.78675020  1
  Bi2+  Bi96  1  0.13008427  -0.05064126  0.20296903  1
  Bi2+  Bi97  1  0.13916639  0.01165446  0.69196528  1
  Bi2+  Bi98  1  0.12747945  0.22969988  0.20889499  1
  Bi2+  Bi99  1  0.09185753  0.25139456  0.71274727  1
  Bi2+  Bi100  1  0.11321490  0.52605759  0.20107593  1
  Bi2+  Bi101  1  0.14844865  0.49474008  0.70262379  1
  Bi2+  Bi102  1  0.05376129  0.76401589  0.19816478  1
  Bi2+  Bi103  1  0.15047905  0.76048441  0.70884870  1
  Bi2+  Bi104  1  0.40283063  -0.05073687  0.22026026  1
  Bi2+  Bi105  1  0.40507057  0.04122844  0.69806776  1
  Bi2+  Bi106  1  0.48243643  0.23424674  0.19594177  1
  Bi2+  Bi107  1  0.36876804  0.23002319  0.73229156  1
  Bi2+  Bi108  1  0.36563797  0.47472357  0.20899000  1
  Bi2+  Bi109  1  0.39461720  0.47994592  0.70712351  1
  Bi2+  Bi110  1  0.36087424  0.72858498  0.18339410  1
  Bi2+  Bi111  1  0.36369330  0.72830877  0.72239340  1
  Bi2+  Bi112  1  0.65378450  0.02448959  0.21903626  1
  Bi2+  Bi113  1  0.59939458  -0.00746209  0.70631116  1
  Bi2+  Bi114  1  0.67172014  0.29572340  0.18972852  1
  Bi2+  Bi115  1  0.64085589  0.20279365  0.71544898  1
  Bi2+  Bi116  1  0.60235001  0.47677334  0.20776564  1
  Bi2+  Bi117  1  0.64001595  0.51732844  0.71475697  1
  Bi2+  Bi118  1  0.66744520  0.74328606  0.19720511  1
  Bi2+  Bi119  1  0.59756538  0.79783011  0.69734311  1
  Bi2+  Bi120  1  0.85884034  -0.04369261  0.22242090  1
  Bi2+  Bi121  1  0.86368744  0.04331801  0.71944855  1
  Bi2+  Bi122  1  0.85388527  0.19603884  0.22745820  1
  Bi2+  Bi123  1  0.80859939  0.30361332  0.70710523  1
  Bi2+  Bi124  1  0.79798205  0.48011981  0.22666539  1
  Bi2+  Bi125  1  0.90218177  0.50173756  0.71369170  1
  Bi2+  Bi126  1  0.86134203  0.75514341  0.21938087  1
  Bi2+  Bi127  1  0.89179341  0.76987031  0.71716431  1
  S2-  S128  1  -0.02546205  0.20612940  0.15729181  1
  S2-  S129  1  0.01295342  0.12653429  0.65921628  1
  S2-  S130  1  0.02109855  0.39398720  0.19653292  1
  S2-  S131  1  0.01929600  0.41967638  0.65115103  1
  S2-  S132  1  -0.02875638  0.60811104  0.16478589  1
  S2-  S133  1  -0.10178808  0.64127835  0.65106612  1
  S2-  S134  1  -0.01575437  0.97997606  0.14592207  1
  S2-  S135  1  -0.01433744  0.86508012  0.66281816  1
  S2-  S136  1  0.24506979  0.16166969  0.15226534  1
  S2-  S137  1  0.25476534  0.10119811  0.64452655  1
  S2-  S138  1  0.21757389  0.41172975  0.17208296  1
  S2-  S139  1  0.27441464  0.39329365  0.65926228  1
  S2-  S140  1  0.22862005  0.64529355  0.15953150  1
  S2-  S141  1  0.13279042  0.62481255  0.64092107  1
  S2-  S142  1  0.27686012  0.88587532  0.15566713  1
  S2-  S143  1  0.21644079  0.87956164  0.64946427  1
  S2-  S144  1  0.46865406  0.05674305  0.16346615  1
  S2-  S145  1  0.47518929  0.18836607  0.65356089  1
  S2-  S146  1  0.39554787  0.35026824  0.14136139  1
  S2-  S147  1  0.51539771  0.42144607  0.65443789  1
  S2-  S148  1  0.45455979  0.60291399  0.15310346  1
  S2-  S149  1  0.38200426  0.62217209  0.64562299  1
  S2-  S150  1  0.48896241  0.84293562  0.15932884  1
  S2-  S151  1  0.46596781  0.89465755  0.65272620  1
  S2-  S152  1  0.73754478  0.13454721  0.15471367  1
  S2-  S153  1  0.77336710  0.13874845  0.65167822  1
  S2-  S154  1  0.82800079  0.37758220  0.15105893  1
  S2-  S155  1  0.75599176  0.48401176  0.64497942  1
  S2-  S156  1  0.71986124  0.58820643  0.15628956  1
  S2-  S157  1  0.60698714  0.64961525  0.64693058  1
  S2-  S158  1  0.72509330  0.89563785  0.15489890  1
  S2-  S159  1  0.75280668  0.80916587  0.65420916  1
  S2-  S160  1  0.20987052  0.02408276  0.33768722  1
  S2-  S161  1  0.13083647  -0.10680949  0.84299073  1
  S2-  S162  1  0.11264460  0.22561408  0.34193572  1
  S2-  S163  1  0.12192271  0.14122318  0.86199218  1
  S2-  S164  1  0.16731646  0.44459013  0.33471122  1
  S2-  S165  1  0.19983936  0.48918578  0.85707798  1
  S2-  S166  1  0.12258979  0.66601731  0.35398182  1
  S2-  S167  1  0.25478900  0.72636433  0.85183860  1
  S2-  S168  1  0.37168229  -0.09517784  0.32387232  1
  S2-  S169  1  0.36888496  -0.03025058  0.83599601  1
  S2-  S170  1  0.38721557  0.16736748  0.34762471  1
  S2-  S171  1  0.34827842  0.33122194  0.85147494  1
  S2-  S172  1  0.37443151  0.58946342  0.35087905  1
  S2-  S173  1  0.41502362  0.52174927  0.81553605  1
  S2-  S174  1  0.31583009  0.73602079  0.28240898  1
  S2-  S175  1  0.46537179  0.75181581  0.85511909  1
  S2-  S176  1  0.54877713  0.01423287  0.35336137  1
  S2-  S177  1  0.61250362  0.03439397  0.84257506  1
  S2-  S178  1  0.62161654  0.26007509  0.34904916  1
  S2-  S179  1  0.56226482  0.25428936  0.85009382  1
  S2-  S180  1  0.72535727  0.49292648  0.36044948  1
  S2-  S181  1  0.62740352  0.59022260  0.85179141  1
  S2-  S182  1  0.53556617  0.74658648  0.34454584  1
  S2-  S183  1  0.67138638  0.81459854  0.83223107  1
  S2-  S184  1  0.98532033  0.00685044  0.35759749  1
  S2-  S185  1  0.94996137  -0.00513952  0.85625653  1
  S2-  S186  1  0.88633839  0.26510154  0.34065336  1
  S2-  S187  1  0.91906785  0.25715607  0.85415905  1
  S2-  S188  1  0.96512990  0.48797788  0.33902602  1
  S2-  S189  1  0.98130198  0.48039988  0.86825646  1
  S2-  S190  1  0.87743329  0.66697242  0.36021709  1
  S2-  S191  1  0.94956342  0.74335069  0.85807568  1
  S2-  S192  1  0.00006165  0.13973431  0.45252511  1
  S2-  S193  1  -0.01779980  0.11690610  0.96507880  1
  S2-  S194  1  0.00380444  0.38597464  0.44620860  1
  S2-  S195  1  -0.01418088  0.35932131  0.97166554  1
  S2-  S196  1  0.00296870  0.63587705  0.45930090  1
  S2-  S197  1  -0.00488277  0.62147112  0.96240121  1
  S2-  S198  1  0.00170853  0.87967658  0.45397338  1
  S2-  S199  1  -0.01054105  0.86662312  0.96218553  1
  S2-  S200  1  0.25148384  0.13553996  0.44518679  1
  S2-  S201  1  0.24021092  0.11381863  0.95393792  1
  S2-  S202  1  0.25565360  0.38462821  0.44943433  1
  S2-  S203  1  0.23412318  0.35752968  0.96254094  1
  S2-  S204  1  0.25638932  0.63709343  0.45480860  1
  S2-  S205  1  0.23003107  0.61619260  0.95545093  1
  S2-  S206  1  0.25612035  0.88093476  0.44131848  1
  S2-  S207  1  0.23307386  0.86265912  0.95366583  1
  S2-  S208  1  0.50499479  0.13753317  0.45545563  1
  S2-  S209  1  0.48756620  0.11200445  0.95559937  1
  S2-  S210  1  0.50545072  0.38466922  0.45047865  1
  S2-  S211  1  0.48819700  0.36883887  0.95143465  1
  S2-  S212  1  0.50479437  0.63161450  0.45805034  1
  S2-  S213  1  0.47958165  0.60527184  0.94838691  1
  S2-  S214  1  0.49549047  0.88168141  0.44644356  1
  S2-  S215  1  0.48651091  0.86180674  0.95534790  1
  S2-  S216  1  0.75085406  0.13424810  0.44866268  1
  S2-  S217  1  0.73741999  0.11449811  0.95126780  1
  S2-  S218  1  0.75106355  0.38086193  0.45884376  1
  S2-  S219  1  0.73783927  0.36750894  0.95378366  1
  S2-  S220  1  0.74645103  0.63760835  0.46158304  1
  S2-  S221  1  0.74250572  0.61320640  0.95441816  1
  S2-  S222  1  0.75023549  0.88601759  0.45957323  1
  S2-  S223  1  0.73891200  0.86028863  0.95193032  1
  S2-  S224  1  0.11643013  -0.00993908  0.04307957  1
  S2-  S225  1  0.12728525  0.01040468  0.53664768  1
  S2-  S226  1  0.11266482  0.23717962  0.05272069  1
  S2-  S227  1  0.12864117  0.25872042  0.54631453  1
  S2-  S228  1  0.11042987  0.48417358  0.05668983  1
  S2-  S229  1  0.13219589  0.50793215  0.53529757  1
  S2-  S230  1  0.11184558  0.74155071  0.05802066  1
  S2-  S231  1  0.12968122  0.76235441  0.54398466  1
  S2-  S232  1  0.36458825  -0.01341886  0.04594508  1
  S2-  S233  1  0.38068705  0.01237705  0.53959320  1
  S2-  S234  1  0.36568040  0.23363341  0.04211598  1
  S2-  S235  1  0.38019601  0.26083665  0.54139613  1
  S2-  S236  1  0.35976295  0.48880681  0.04224126  1
  S2-  S237  1  0.38360541  0.50540381  0.54422041  1
  S2-  S238  1  0.36216401  0.73876545  0.04480218  1
  S2-  S239  1  0.38033467  0.75963397  0.54934898  1
  S2-  S240  1  0.61116098  -0.01307221  0.04813368  1
  S2-  S241  1  0.62851390  0.01023235  0.55032936  1
  S2-  S242  1  0.61324192  0.23883467  0.04922922  1
  S2-  S243  1  0.62818454  0.26039907  0.55331637  1
  S2-  S244  1  0.61332962  0.49138348  0.04330848  1
  S2-  S245  1  0.62470082  0.50703667  0.54554447  1
  S2-  S246  1  0.60865974  0.73752785  0.04380265  1
  S2-  S247  1  0.62808047  0.76139466  0.54270013  1
  S2-  S248  1  0.85505325  -0.01139340  0.04860179  1
  S2-  S249  1  0.87849038  0.00829534  0.54715254  1
  S2-  S250  1  0.85661404  0.23565434  0.05249405  1
  S2-  S251  1  0.87815540  0.25951143  0.54843329  1
  S2-  S252  1  0.86395344  0.49305111  0.05033147  1
  S2-  S253  1  0.87620183  0.50986369  0.54080235  1
  S2-  S254  1  0.86436571  0.74138677  0.05622535  1
  S2-  S255  1  0.87859864  0.76293233  0.54774055  1
