# generated using pymatgen
data_La9Ce10Pr6Nd4Sm3(BiS2)32
_symmetry_space_group_name_H-M   'P 1'
_cell_length_a   16.24942084
_cell_length_b   16.24987231
_cell_length_c   27.10248190
_cell_angle_alpha   89.79641107
_cell_angle_beta   89.91919945
_cell_angle_gamma   90.04241097
_symmetry_Int_Tables_number   1
_chemical_formula_structural   La9Ce10Pr6Nd4Sm3(BiS2)32
_chemical_formula_sum   'La18 Ce20 Pr12 Nd8 Sm6 Bi64 S128'
_cell_volume   7156.38354009
_cell_formula_units_Z   2
loop_
 _symmetry_equiv_pos_site_id
 _symmetry_equiv_pos_as_xyz
  1  'x, y, z'
loop_
 _atom_type_symbol
 _atom_type_oxidation_number
  La3+  3.0
  Ce3+  3.0
  Pr3+  3.0
  Nd3+  3.0
  Sm3+  3.0
  Bi2+  2.0
  S2-  -2.0
loop_
 _atom_site_type_symbol
 _atom_site_label
 _atom_site_symmetry_multiplicity
 _atom_site_fract_x
 _atom_site_fract_y
 _atom_site_fract_z
 _atom_site_occupancy
  La3+  La0  1  0.75570976  0.61533450  0.58067246  1
  La3+  La1  1  0.12380135  0.00006866  0.42170007  1
  La3+  La2  1  0.87833185  -0.00174840  0.42732500  1
  La3+  La3  1  0.25293583  0.62498896  0.56810215  1
  La3+  La4  1  0.25256871  0.11464649  0.56393260  1
  La3+  La5  1  0.50508002  0.62487308  0.56332610  1
  La3+  La6  1  0.75768936  0.12655460  0.56412814  1
  La3+  La7  1  0.76602249  0.88016003  0.59629822  1
  La3+  La8  1  0.50305386  0.36716654  0.56207100  1
  La3+  La9  1  0.37458984  0.25481347  0.42650056  1
  La3+  La10  1  0.87979503  0.50782136  0.43425973  1
  La3+  La11  1  0.63180263  0.75011179  0.44801591  1
  La3+  La12  1  0.73229404  0.36530238  0.07679377  1
  La3+  La13  1  0.73316053  0.62217923  0.07148717  1
  La3+  La14  1  0.24471845  0.36101882  0.58867673  1
  La3+  La15  1  0.37445850  0.00258861  0.41906318  1
  La3+  La16  1  0.13431390  0.73935220  0.40331601  1
  La3+  La17  1  0.49133653  0.11021420  0.07565441  1
  Ce3+  Ce18  1  0.49275291  0.61816034  0.05639936  1
  Ce3+  Ce19  1  0.13031887  0.25458808  0.44077553  1
  Ce3+  Ce20  1  0.11805840  0.74320055  0.94308454  1
  Ce3+  Ce21  1  -0.00957685  0.61561985  0.06352831  1
  Ce3+  Ce22  1  0.24928422  0.36474976  0.06346825  1
  Ce3+  Ce23  1  0.87707205  0.26176928  0.42723075  1
  Ce3+  Ce24  1  0.61559115  0.24110670  0.94365910  1
  Ce3+  Ce25  1  0.37863555  0.75528925  0.43143306  1
  Ce3+  Ce26  1  -0.00915882  0.86707146  0.05883150  1
  Ce3+  Ce27  1  0.48759022  0.36847283  0.05864227  1
  Ce3+  Ce28  1  0.11924444  -0.00865175  0.94737556  1
  Ce3+  Ce29  1  0.49034515  0.87048458  0.05522890  1
  Ce3+  Ce30  1  0.74214360  0.87073069  0.05407346  1
  Ce3+  Ce31  1  0.36638434  0.49340681  0.93364187  1
  Ce3+  Ce32  1  0.24117623  0.11530741  0.05990611  1
  Ce3+  Ce33  1  0.36158105  0.74291437  0.93682548  1
  Ce3+  Ce34  1  0.63100018  0.00000107  0.44280702  1
  Ce3+  Ce35  1  0.61630934  -0.00261698  0.93538951  1
  Ce3+  Ce36  1  -0.00706566  0.36889615  0.05830208  1
  Ce3+  Ce37  1  0.00080838  0.87216283  0.54928931  1
  Pr3+  Pr38  1  0.86728941  0.24432578  0.94410550  1
  Pr3+  Pr39  1  0.61753762  0.49382526  0.93436587  1
  Pr3+  Pr40  1  0.23519882  0.86246748  0.07886370  1
  Pr3+  Pr41  1  0.50463719  0.87644024  0.56136965  1
  Pr3+  Pr42  1  0.13012905  0.50020337  0.44627731  1
  Pr3+  Pr43  1  0.63586237  0.23520768  0.41785181  1
  Pr3+  Pr44  1  0.24479595  0.61795334  0.06626891  1
  Pr3+  Pr45  1  0.37518105  0.49718085  0.44520108  1
  Pr3+  Pr46  1  0.86492930  0.49416011  0.94685036  1
  Pr3+  Pr47  1  0.61708769  0.74624127  0.92887700  1
  Pr3+  Pr48  1  0.86734333  0.74170704  0.94080359  1
  Pr3+  Pr49  1  0.11939632  0.24240554  0.93969029  1
  Nd3+  Nd50  1  0.62650190  0.49688669  0.43920727  1
  Nd3+  Nd51  1  -0.00692606  0.11958482  0.06121427  1
  Nd3+  Nd52  1  0.12023095  0.49242397  0.94464388  1
  Nd3+  Nd53  1  0.00052835  0.37142558  0.56383392  1
  Nd3+  Nd54  1  0.50450207  0.12239662  0.55564391  1
  Nd3+  Nd55  1  0.00252965  0.62576237  0.56691624  1
  Nd3+  Nd56  1  0.25346997  0.87588296  0.55236255  1
  Nd3+  Nd57  1  0.36514733  -0.00735069  0.94202714  1
  Sm3+  Sm58  1  0.86919974  -0.00580682  0.93900850  1
  Sm3+  Sm59  1  0.74381401  0.11791576  0.05722190  1
  Sm3+  Sm60  1  0.75272381  0.37155313  0.55660885  1
  Sm3+  Sm61  1  -0.00000452  0.12305688  0.54544492  1
  Sm3+  Sm62  1  0.87650788  0.74628646  0.44143738  1
  Sm3+  Sm63  1  0.36854071  0.24047282  0.94004541  1
  Bi2+  Bi64  1  0.05761456  0.14509943  0.29330239  1
  Bi2+  Bi65  1  -0.02391585  0.08763919  0.79632899  1
  Bi2+  Bi66  1  0.02652670  0.33266368  0.32258833  1
  Bi2+  Bi67  1  -0.05547412  0.35511305  0.79137364  1
  Bi2+  Bi68  1  0.01556754  0.52055008  0.28523828  1
  Bi2+  Bi69  1  -0.00077551  0.57582143  0.79576827  1
  Bi2+  Bi70  1  -0.00134792  0.93073751  0.25997212  1
  Bi2+  Bi71  1  0.02334707  0.84547311  0.78754956  1
  Bi2+  Bi72  1  0.26947879  0.13945202  0.28781878  1
  Bi2+  Bi73  1  0.23276987  0.14731363  0.80356163  1
  Bi2+  Bi74  1  0.21837577  0.42228569  0.32552839  1
  Bi2+  Bi75  1  0.23223485  0.38831895  0.79628925  1
  Bi2+  Bi76  1  0.26974763  0.59515246  0.27011223  1
  Bi2+  Bi77  1  0.27093049  0.67474484  0.77544924  1
  Bi2+  Bi78  1  0.27107191  0.85824412  0.29238125  1
  Bi2+  Bi79  1  0.21570130  0.88451492  0.80262407  1
  Bi2+  Bi80  1  0.52913095  0.14805586  0.28374784  1
  Bi2+  Bi81  1  0.48367213  0.16613070  0.80354762  1
  Bi2+  Bi82  1  0.48077738  0.41974179  0.27587013  1
  Bi2+  Bi83  1  0.54077895  0.32850636  0.74411082  1
  Bi2+  Bi84  1  0.46200409  0.60997213  0.28151321  1
  Bi2+  Bi85  1  0.48898172  0.59905709  0.81133395  1
  Bi2+  Bi86  1  0.48614362  0.88220326  0.25750564  1
  Bi2+  Bi87  1  0.47585482  0.95212614  0.77743025  1
  Bi2+  Bi88  1  0.79447969  0.12762809  0.25790860  1
  Bi2+  Bi89  1  0.75321818  0.16214821  0.77338517  1
  Bi2+  Bi90  1  0.73545499  0.36888016  0.30124417  1
  Bi2+  Bi91  1  0.74613282  0.35337502  0.76648533  1
  Bi2+  Bi92  1  0.75550967  0.63519510  0.29873349  1
  Bi2+  Bi93  1  0.74655389  0.62884556  0.80393281  1
  Bi2+  Bi94  1  0.74143878  0.89215902  0.33908646  1
  Bi2+  Bi95  1  0.74338003  0.88375494  0.79013097  1
  Bi2+  Bi96  1  0.12347614  0.04354839  0.19539055  1
  Bi2+  Bi97  1  0.10693343  -0.00814023  0.72911448  1
  Bi2+  Bi98  1  0.15735571  0.24471953  0.19787891  1
  Bi2+  Bi99  1  0.03933885  0.24797601  0.71603194  1
  Bi2+  Bi100  1  0.15265427  0.43963104  0.21310900  1
  Bi2+  Bi101  1  0.07608571  0.52378727  0.69925239  1
  Bi2+  Bi102  1  0.10522673  0.73414809  0.20994538  1
  Bi2+  Bi103  1  0.10411183  0.71445134  0.71228568  1
  Bi2+  Bi104  1  0.38507905  0.02682510  0.20100151  1
  Bi2+  Bi105  1  0.32465928  0.05573879  0.70833023  1
  Bi2+  Bi106  1  0.32700434  0.33187424  0.23308534  1
  Bi2+  Bi107  1  0.37516894  0.25693299  0.70172288  1
  Bi2+  Bi108  1  0.38069675  0.54461671  0.17843733  1
  Bi2+  Bi109  1  0.38942327  0.52949401  0.70941426  1
  Bi2+  Bi110  1  0.39761172  0.73533566  0.19994968  1
  Bi2+  Bi111  1  0.33814893  0.85577179  0.71424064  1
  Bi2+  Bi112  1  0.65740432  -0.01218663  0.24800425  1
  Bi2+  Bi113  1  0.60005467  0.07881053  0.72022738  1
  Bi2+  Bi114  1  0.62844853  0.25587917  0.20392672  1
  Bi2+  Bi115  1  0.65718747  0.24488327  0.66251481  1
  Bi2+  Bi116  1  0.65727368  0.51645200  0.19600146  1
  Bi2+  Bi117  1  0.63470780  0.51457922  0.70757032  1
  Bi2+  Bi118  1  0.65917416  0.77976715  0.23971891  1
  Bi2+  Bi119  1  0.57807297  0.75411291  0.71949350  1
  Bi2+  Bi120  1  0.83894912  -0.03036317  0.19226647  1
  Bi2+  Bi121  1  0.90311834  0.00587867  0.70354661  1
  Bi2+  Bi122  1  0.93682269  0.25096185  0.22949283  1
  Bi2+  Bi123  1  0.85159433  0.25813961  0.68128415  1
  Bi2+  Bi124  1  0.90131586  0.49774882  0.19947136  1
  Bi2+  Bi125  1  0.88691455  0.47719971  0.70731205  1
  Bi2+  Bi126  1  0.85966607  0.79764766  0.26890156  1
  Bi2+  Bi127  1  0.91195431  0.74565098  0.71668067  1
  S2-  S128  1  -0.03054386  0.08258452  0.15773487  1
  S2-  S129  1  -0.01041810  0.12672408  0.64444377  1
  S2-  S130  1  -0.00282198  0.36099742  0.15591994  1
  S2-  S131  1  0.09024009  0.36785991  0.65025255  1
  S2-  S132  1  0.02796398  0.61659532  0.16028302  1
  S2-  S133  1  -0.10386975  0.63027420  0.64692169  1
  S2-  S134  1  0.04470759  0.84390600  0.15090364  1
  S2-  S135  1  -0.07193919  0.87195271  0.64024740  1
  S2-  S136  1  0.28325670  0.14616731  0.15224031  1
  S2-  S137  1  0.24808011  0.21108857  0.64940076  1
  S2-  S138  1  0.36617903  0.37628404  0.13594656  1
  S2-  S139  1  0.28780407  0.40371788  0.68980085  1
  S2-  S140  1  0.23881627  0.72537188  0.14696571  1
  S2-  S141  1  0.27995814  0.63499781  0.66832871  1
  S2-  S142  1  0.25475460  0.93342572  0.17440937  1
  S2-  S143  1  0.24395634  0.97872991  0.63244961  1
  S2-  S144  1  0.49890858  0.17311461  0.17309305  1
  S2-  S145  1  0.47451396  0.08672378  0.65311165  1
  S2-  S146  1  0.58542164  0.38531365  0.14035432  1
  S2-  S147  1  0.50487416  0.42619858  0.65750312  1
  S2-  S148  1  0.59068277  0.62574920  0.13788579  1
  S2-  S149  1  0.49230704  0.63974320  0.66396340  1
  S2-  S150  1  0.50097761  0.96267591  0.13778424  1
  S2-  S151  1  0.48234815  0.85651791  0.66143357  1
  S2-  S152  1  0.73062898  0.15834856  0.15303604  1
  S2-  S153  1  0.76842935  0.03178925  0.64931416  1
  S2-  S154  1  0.77632297  0.39358397  0.17613930  1
  S2-  S155  1  0.74675613  0.46167306  0.64153101  1
  S2-  S156  1  0.79651399  0.61176547  0.16774345  1
  S2-  S157  1  0.69719279  0.65454409  0.67998416  1
  S2-  S158  1  0.73416532  0.84796638  0.15064767  1
  S2-  S159  1  0.70753320  0.85377184  0.69792578  1
  S2-  S160  1  0.23688241  -0.00456362  0.34223808  1
  S2-  S161  1  0.13339149  0.03217398  0.85294714  1
  S2-  S162  1  0.22927313  0.25347467  0.35946160  1
  S2-  S163  1  0.13510872  0.26402313  0.83882591  1
  S2-  S164  1  0.10831607  0.58393342  0.35674222  1
  S2-  S165  1  0.13461619  0.48722455  0.84406348  1
  S2-  S166  1  0.10529314  0.80966484  0.30875240  1
  S2-  S167  1  0.17745429  0.73099014  0.85239742  1
  S2-  S168  1  0.41190778  -0.12695343  0.35127359  1
  S2-  S169  1  0.37960386  0.03272300  0.84429729  1
  S2-  S170  1  0.40323151  0.13648795  0.34893515  1
  S2-  S171  1  0.34221718  0.26240091  0.84169146  1
  S2-  S172  1  0.38278800  0.40179005  0.36006392  1
  S2-  S173  1  0.36375264  0.48264944  0.83412519  1
  S2-  S174  1  0.28506186  0.71576121  0.34989694  1
  S2-  S175  1  0.39367114  0.73841613  0.83975062  1
  S2-  S176  1  0.61855986  0.07900751  0.35572233  1
  S2-  S177  1  0.62133458  -0.04185057  0.83954968  1
  S2-  S178  1  0.57972294  0.30220568  0.32837790  1
  S2-  S179  1  0.63009319  0.20138168  0.84904255  1
  S2-  S180  1  0.66258415  0.50808781  0.34052027  1
  S2-  S181  1  0.61704487  0.50701199  0.83240650  1
  S2-  S182  1  0.63761323  0.74717845  0.34613302  1
  S2-  S183  1  0.61231446  0.73147194  0.82677421  1
  S2-  S184  1  0.99082788  0.00650398  0.34886010  1
  S2-  S185  1  0.86098285  -0.01481463  0.84052063  1
  S2-  S186  1  0.77870528  0.22258936  0.34874758  1
  S2-  S187  1  0.88573434  0.21919401  0.84485493  1
  S2-  S188  1  0.86948004  0.40242053  0.35244921  1
  S2-  S189  1  0.85342841  0.52860300  0.84796545  1
  S2-  S190  1  0.87917859  0.63924928  0.36329079  1
  S2-  S191  1  0.82720630  0.75194924  0.84209997  1
  S2-  S192  1  -0.00008636  0.13523759  0.44260502  1
  S2-  S193  1  -0.00742633  0.11744861  0.95395584  1
  S2-  S194  1  0.00520595  0.37835410  0.45754484  1
  S2-  S195  1  -0.00651855  0.36987953  0.95024262  1
  S2-  S196  1  0.00958449  0.63304263  0.46303503  1
  S2-  S197  1  -0.00589322  0.61633222  0.95438120  1
  S2-  S198  1  0.00398803  0.86272763  0.44252441  1
  S2-  S199  1  -0.00896916  0.86900652  0.94983731  1
  S2-  S200  1  0.24998290  0.12187395  0.45455966  1
  S2-  S201  1  0.24422370  0.11961784  0.95336992  1
  S2-  S202  1  0.25094690  0.37611659  0.46955761  1
  S2-  S203  1  0.24516178  0.36602818  0.95495449  1
  S2-  S204  1  0.25504644  0.62501986  0.46019502  1
  S2-  S205  1  0.24245118  0.61636118  0.95675908  1
  S2-  S206  1  0.24554025  0.86872936  0.44815127  1
  S2-  S207  1  0.24150668  0.86776943  0.95939414  1
  S2-  S208  1  0.50507496  0.12565260  0.45288140  1
  S2-  S209  1  0.48956716  0.11643841  0.95762810  1
  S2-  S210  1  0.50713514  0.37195612  0.45438841  1
  S2-  S211  1  0.49104351  0.36591926  0.94720919  1
  S2-  S212  1  0.50067110  0.62383469  0.45270093  1
  S2-  S213  1  0.49230793  0.61994099  0.94848310  1
  S2-  S214  1  0.50866460  0.87694954  0.45467522  1
  S2-  S215  1  0.49021962  0.86945007  0.94718475  1
  S2-  S216  1  0.75862831  0.12022916  0.45533145  1
  S2-  S217  1  0.74621101  0.11635131  0.95153753  1
  S2-  S218  1  0.74751803  0.37498669  0.45333093  1
  S2-  S219  1  0.74093192  0.36715558  0.95330237  1
  S2-  S220  1  0.74934988  0.62241586  0.46289040  1
  S2-  S221  1  0.73890045  0.62065605  0.95646418  1
  S2-  S222  1  0.75783127  0.87343411  0.45559702  1
  S2-  S223  1  0.74426247  0.87108452  0.94773894  1
  S2-  S224  1  0.11558689  -0.00804732  0.05274226  1
  S2-  S225  1  0.11832267  -0.00221873  0.53233320  1
  S2-  S226  1  0.11768187  0.24349242  0.04820064  1
  S2-  S227  1  0.12207054  0.24423299  0.54588040  1
  S2-  S228  1  0.12158391  0.49136383  0.05226620  1
  S2-  S229  1  0.12652635  0.50090533  0.55413531  1
  S2-  S230  1  0.11398956  0.73931804  0.04594809  1
  S2-  S231  1  0.12803104  0.75266068  0.56185257  1
  S2-  S232  1  0.35869898  -0.01264702  0.04758247  1
  S2-  S233  1  0.38248984  -0.00301576  0.53539512  1
  S2-  S234  1  0.36910327  0.23603616  0.04379318  1
  S2-  S235  1  0.37890080  0.24507799  0.54675231  1
  S2-  S236  1  0.36719550  0.49697251  0.03817048  1
  S2-  S237  1  0.37641524  0.49685648  0.55356848  1
  S2-  S238  1  0.36941605  0.74396050  0.04505535  1
  S2-  S239  1  0.37841087  0.75219959  0.54607130  1
  S2-  S240  1  0.62295532  -0.00401727  0.04199928  1
  S2-  S241  1  0.63225980  -0.00260036  0.55089954  1
  S2-  S242  1  0.61505993  0.23674001  0.04745105  1
  S2-  S243  1  0.63066375  0.24758412  0.53852495  1
  S2-  S244  1  0.61557523  0.49274318  0.03929580  1
  S2-  S245  1  0.62579477  0.49765649  0.54572088  1
  S2-  S246  1  0.61497894  0.75097509  0.03753776  1
  S2-  S247  1  0.63511929  0.75322947  0.55763477  1
  S2-  S248  1  0.86827683  -0.00424611  0.04491685  1
  S2-  S249  1  0.88022973  -0.00195821  0.53652469  1
  S2-  S250  1  0.86611271  0.24341123  0.05211780  1
  S2-  S251  1  0.87859037  0.25200872  0.53952885  1
  S2-  S252  1  0.86303469  0.49059088  0.05318728  1
  S2-  S253  1  0.88082659  0.49438485  0.54339670  1
  S2-  S254  1  0.86679198  0.74251996  0.04911957  1
  S2-  S255  1  0.87385370  0.74979346  0.54469593  1
