# generated using pymatgen
data_La9Ce10Pr6Nd4Sm3(BiS2)32
_symmetry_space_group_name_H-M   'P 1'
_cell_length_a   16.13642112
_cell_length_b   16.10512448
_cell_length_c   27.29038028
_cell_angle_alpha   89.99039722
_cell_angle_beta   89.73536364
_cell_angle_gamma   89.93032295
_symmetry_Int_Tables_number   1
_chemical_formula_structural   La9Ce10Pr6Nd4Sm3(BiS2)32
_chemical_formula_sum   'La18 Ce20 Pr12 Nd8 Sm6 Bi64 S128'
_cell_volume   7092.11768195
_cell_formula_units_Z   2
loop_
 _symmetry_equiv_pos_site_id
 _symmetry_equiv_pos_as_xyz
  1  'x, y, z'
loop_
 _atom_type_symbol
 _atom_type_oxidation_number
  La3+  3.0
  Ce3+  3.0
  Pr3+  3.0
  Nd3+  3.0
  Sm3+  3.0
  Bi2+  2.0
  S2-  -2.0
loop_
 _atom_site_type_symbol
 _atom_site_label
 _atom_site_symmetry_multiplicity
 _atom_site_fract_x
 _atom_site_fract_y
 _atom_site_fract_z
 _atom_site_occupancy
  La3+  La0  1  0.49047273  0.88881931  0.07200004  1
  La3+  La1  1  0.35872846  0.00085006  0.88211585  1
  La3+  La2  1  0.61509007  0.51624162  0.93413552  1
  La3+  La3  1  0.88542232  0.00024745  0.38483249  1
  La3+  La4  1  0.24214412  0.12928561  0.58368261  1
  La3+  La5  1  0.86245744  0.25508952  0.92573155  1
  La3+  La6  1  0.25548397  0.38627918  0.58081139  1
  La3+  La7  1  0.13540350  0.01694245  0.42684177  1
  La3+  La8  1  0.37421147  0.25601899  0.44839174  1
  La3+  La9  1  0.50597612  0.12236319  0.58157252  1
  La3+  La10  1  0.87311647  0.51322608  0.89055372  1
  La3+  La11  1  0.24775525  0.63649115  0.56997918  1
  La3+  La12  1  -0.01126427  0.14761446  0.07603824  1
  La3+  La13  1  0.49494220  0.38933698  0.07532955  1
  La3+  La14  1  0.73841121  0.64549750  0.59635204  1
  La3+  La15  1  0.12195295  0.75980240  0.43801386  1
  La3+  La16  1  0.23891698  0.37700468  0.07361192  1
  La3+  La17  1  0.61139819  0.01103930  0.93766590  1
  Ce3+  Ce18  1  -0.00945515  0.63241403  0.56928381  1
  Ce3+  Ce19  1  0.87705929  0.25750869  0.43440696  1
  Ce3+  Ce20  1  0.74381051  0.63593542  0.06206558  1
  Ce3+  Ce21  1  0.74706028  0.13502414  0.55310616  1
  Ce3+  Ce22  1  0.75570163  0.38719365  0.57080451  1
  Ce3+  Ce23  1  -0.00054545  0.63626323  0.05743938  1
  Ce3+  Ce24  1  0.61521281  0.75989999  0.95335719  1
  Ce3+  Ce25  1  0.37249872  0.25638280  0.93849092  1
  Ce3+  Ce26  1  -0.00449615  0.88936467  0.06054646  1
  Ce3+  Ce27  1  0.74640109  0.88844864  0.05862155  1
  Ce3+  Ce28  1  -0.00252150  0.13270342  0.55345575  1
  Ce3+  Ce29  1  0.37629924  0.01008842  0.44456544  1
  Ce3+  Ce30  1  0.12604135  0.25821084  0.44681988  1
  Ce3+  Ce31  1  0.24653085  0.88622496  0.56333060  1
  Ce3+  Ce32  1  0.61933038  0.26253986  0.94679142  1
  Ce3+  Ce33  1  0.87285775  0.75693613  0.44070995  1
  Ce3+  Ce34  1  0.50019987  0.38495216  0.55929380  1
  Ce3+  Ce35  1  0.37216001  0.51099892  0.94919988  1
  Ce3+  Ce36  1  0.87517540  0.50185879  0.44265327  1
  Ce3+  Ce37  1  0.12515545  0.50524411  0.44510605  1
  Pr3+  Pr38  1  0.11869371  0.01531394  0.93885656  1
  Pr3+  Pr39  1  0.86763880  0.75738745  0.94013410  1
  Pr3+  Pr40  1  0.12150239  0.26860596  0.92659902  1
  Pr3+  Pr41  1  0.12572120  0.51245351  0.93151817  1
  Pr3+  Pr42  1  0.11972073  0.75918986  0.93038275  1
  Pr3+  Pr43  1  0.74616659  0.39043135  0.05774259  1
  Pr3+  Pr44  1  0.36527315  0.50777957  0.42817418  1
  Pr3+  Pr45  1  -0.00456957  0.88628955  0.55812619  1
  Pr3+  Pr46  1  0.50116529  0.63151052  0.55765960  1
  Pr3+  Pr47  1  0.87083830  0.01027675  0.93363861  1
  Pr3+  Pr48  1  0.74618230  0.88513055  0.55070482  1
  Pr3+  Pr49  1  0.49457399  0.14071450  0.07639397  1
  Nd3+  Nd50  1  0.62694182  0.50492645  0.43541822  1
  Nd3+  Nd51  1  -0.00812599  0.38684505  0.04849592  1
  Nd3+  Nd52  1  0.62408944  0.75187557  0.42629872  1
  Nd3+  Nd53  1  0.62508036  0.01527772  0.42515892  1
  Nd3+  Nd54  1  0.48310053  0.63806599  0.08455446  1
  Nd3+  Nd55  1  0.00332274  0.38749584  0.57489600  1
  Nd3+  Nd56  1  0.23762954  0.64145322  0.07022925  1
  Nd3+  Nd57  1  0.62442352  0.25970121  0.43892960  1
  Sm3+  Sm58  1  0.37163147  0.76300508  0.94399925  1
  Sm3+  Sm59  1  0.24174600  0.88983209  0.05335630  1
  Sm3+  Sm60  1  0.24311609  0.13683647  0.05255884  1
  Sm3+  Sm61  1  0.37418328  0.75660876  0.44787784  1
  Sm3+  Sm62  1  0.74108653  0.13568224  0.06431256  1
  Sm3+  Sm63  1  0.50326653  0.88314947  0.55045965  1
  Bi2+  Bi64  1  0.01424759  0.12918796  0.28732147  1
  Bi2+  Bi65  1  -0.02988579  0.03942335  0.78749365  1
  Bi2+  Bi66  1  0.02332654  0.40149497  0.29760090  1
  Bi2+  Bi67  1  0.02652938  0.35966504  0.79102505  1
  Bi2+  Bi68  1  -0.03576545  0.59201081  0.31657128  1
  Bi2+  Bi69  1  0.08541629  0.67280049  0.75511767  1
  Bi2+  Bi70  1  0.00442019  0.86162039  0.27891178  1
  Bi2+  Bi71  1  -0.04162595  0.86173746  0.83486185  1
  Bi2+  Bi72  1  0.25447194  0.08880221  0.20342173  1
  Bi2+  Bi73  1  0.22284927  0.13450787  0.78951047  1
  Bi2+  Bi74  1  0.20877826  0.33034845  0.31365857  1
  Bi2+  Bi75  1  0.32800298  0.43105341  0.82107064  1
  Bi2+  Bi76  1  0.23976384  0.64663320  0.30763686  1
  Bi2+  Bi77  1  0.27223446  0.61351041  0.80030060  1
  Bi2+  Bi78  1  0.31493839  0.92862967  0.27073275  1
  Bi2+  Bi79  1  0.14948708  0.84534238  0.79272021  1
  Bi2+  Bi80  1  0.45676949  0.04209182  0.31722183  1
  Bi2+  Bi81  1  0.47872100  0.11753861  0.76835607  1
  Bi2+  Bi82  1  0.49945076  0.35538939  0.29868668  1
  Bi2+  Bi83  1  0.50835992  0.35580280  0.78706075  1
  Bi2+  Bi84  1  0.49129039  0.65812655  0.29154517  1
  Bi2+  Bi85  1  0.48393662  0.65085418  0.80152797  1
  Bi2+  Bi86  1  0.57370696  0.87027534  0.30560569  1
  Bi2+  Bi87  1  0.52452298  0.85369265  0.80276296  1
  Bi2+  Bi88  1  0.69642430  0.13303270  0.28615478  1
  Bi2+  Bi89  1  0.72700147  0.11656380  0.79261638  1
  Bi2+  Bi90  1  0.76143955  0.37553529  0.28755622  1
  Bi2+  Bi91  1  0.73345715  0.37092526  0.78854439  1
  Bi2+  Bi92  1  0.76629448  0.57340079  0.30999995  1
  Bi2+  Bi93  1  0.73902607  0.65316096  0.78826921  1
  Bi2+  Bi94  1  0.74888543  0.77468635  0.29410327  1
  Bi2+  Bi95  1  0.78031711  0.91856161  0.79211523  1
  Bi2+  Bi96  1  0.12974512  -0.06610288  0.19641151  1
  Bi2+  Bi97  1  0.09806040  -0.04194256  0.70470769  1
  Bi2+  Bi98  1  0.12906284  0.29340466  0.21136157  1
  Bi2+  Bi99  1  0.07048187  0.22975654  0.70946463  1
  Bi2+  Bi100  1  0.12762391  0.49066912  0.20205378  1
  Bi2+  Bi101  1  0.15070635  0.48779169  0.71736953  1
  Bi2+  Bi102  1  0.09321191  0.67670856  0.23936094  1
  Bi2+  Bi103  1  0.18917901  0.77066097  0.67637321  1
  Bi2+  Bi104  1  0.43605216  0.00640040  0.18526023  1
  Bi2+  Bi105  1  0.36403501  -0.10180631  0.69845537  1
  Bi2+  Bi106  1  0.41473386  0.18699363  0.23902904  1
  Bi2+  Bi107  1  0.35304900  0.28725495  0.72407544  1
  Bi2+  Bi108  1  0.38323477  0.51361063  0.22384535  1
  Bi2+  Bi109  1  0.40751052  0.51005020  0.71226369  1
  Bi2+  Bi110  1  0.34738448  0.76200791  0.21344954  1
  Bi2+  Bi111  1  0.36760205  0.70879696  0.70854343  1
  Bi2+  Bi112  1  0.62709401  -0.00786963  0.21493834  1
  Bi2+  Bi113  1  0.65219521  -0.03563230  0.68996342  1
  Bi2+  Bi114  1  0.60724561  0.25131129  0.21082739  1
  Bi2+  Bi115  1  0.63509232  0.27479050  0.70765542  1
  Bi2+  Bi116  1  0.64675513  0.49738263  0.21527194  1
  Bi2+  Bi117  1  0.60271919  0.48025757  0.71383723  1
  Bi2+  Bi118  1  0.61149646  0.73972932  0.21657453  1
  Bi2+  Bi119  1  0.62175665  0.75206581  0.71976047  1
  Bi2+  Bi120  1  0.88128481  -0.00306000  0.17776966  1
  Bi2+  Bi121  1  0.83778812  0.03811640  0.70215757  1
  Bi2+  Bi122  1  0.87578631  0.28496339  0.20917495  1
  Bi2+  Bi123  1  0.83133247  0.23704490  0.71308515  1
  Bi2+  Bi124  1  0.91839124  0.47541258  0.20676531  1
  Bi2+  Bi125  1  0.89089965  0.50840890  0.70412819  1
  Bi2+  Bi126  1  0.87025995  0.66607734  0.22014389  1
  Bi2+  Bi127  1  0.90156446  0.77706276  0.73041182  1
  S2-  S128  1  0.03230076  0.07242649  0.16680638  1
  S2-  S129  1  0.04833701  0.10757284  0.64644026  1
  S2-  S130  1  0.00186248  0.30242655  0.13778866  1
  S2-  S131  1  -0.11547445  0.35708995  0.64983966  1
  S2-  S132  1  0.10188394  0.63264192  0.13719323  1
  S2-  S133  1  0.02509099  0.53032614  0.64856707  1
  S2-  S134  1  -0.01593951  0.85497605  0.15733189  1
  S2-  S135  1  -0.02738963  0.87221793  0.66011924  1
  S2-  S136  1  0.22709612  0.22450698  0.13741565  1
  S2-  S137  1  0.23432971  0.18984417  0.68537786  1
  S2-  S138  1  0.28520483  0.42310769  0.17104287  1
  S2-  S139  1  0.12605166  0.35934972  0.65185184  1
  S2-  S140  1  0.33855005  0.63329808  0.15374121  1
  S2-  S141  1  0.25851852  0.52913756  0.64980866  1
  S2-  S142  1  0.23025143  0.83080148  0.14608863  1
  S2-  S143  1  0.24842133  0.98533034  0.64491393  1
  S2-  S144  1  0.63069003  0.12282593  0.14461926  1
  S2-  S145  1  0.44204723  0.15710714  0.67884899  1
  S2-  S146  1  0.47107499  0.26926746  0.14980358  1
  S2-  S147  1  0.41012885  0.38262936  0.64341196  1
  S2-  S148  1  0.50808067  0.50805676  0.15494386  1
  S2-  S149  1  0.57784363  0.64093399  0.64746046  1
  S2-  S150  1  0.48714030  0.77768445  0.15216060  1
  S2-  S151  1  0.50701503  0.95012618  0.64142088  1
  S2-  S152  1  0.84202102  0.15654456  0.14490358  1
  S2-  S153  1  0.65978977  0.11408817  0.63852589  1
  S2-  S154  1  0.69982442  0.37971453  0.15596724  1
  S2-  S155  1  0.73755727  0.49586469  0.65219242  1
  S2-  S156  1  0.72507082  0.63139256  0.16036896  1
  S2-  S157  1  0.88251366  0.66148992  0.65543974  1
  S2-  S158  1  0.73499927  0.89782872  0.15683576  1
  S2-  S159  1  0.72212364  0.81636081  0.64290594  1
  S2-  S160  1  0.05238562  -0.01079653  0.34005337  1
  S2-  S161  1  0.19059110  -0.00138049  0.84674025  1
  S2-  S162  1  0.13663901  0.18989200  0.35482629  1
  S2-  S163  1  0.09292183  0.19955754  0.83224283  1
  S2-  S164  1  0.22004074  0.49779471  0.36167430  1
  S2-  S165  1  0.15989528  0.39795720  0.85335091  1
  S2-  S166  1  0.13228364  0.77247150  0.33715731  1
  S2-  S167  1  0.12826597  0.63828987  0.85633912  1
  S2-  S168  1  0.28864563  0.01760021  0.36022007  1
  S2-  S169  1  0.35265164  0.01060456  0.77067215  1
  S2-  S170  1  0.36281348  0.27859057  0.34792468  1
  S2-  S171  1  0.36764889  0.17563079  0.84828986  1
  S2-  S172  1  0.43176338  0.49563190  0.33034797  1
  S2-  S173  1  0.47353793  0.52749883  0.86718419  1
  S2-  S174  1  0.36305196  0.73433327  0.35044887  1
  S2-  S175  1  0.38043056  0.83023847  0.85186836  1
  S2-  S176  1  0.72427074  -0.00123509  0.34181753  1
  S2-  S177  1  0.53026934  0.00808283  0.84824968  1
  S2-  S178  1  0.58102727  0.15409159  0.35908557  1
  S2-  S179  1  0.67478699  0.23933200  0.85489685  1
  S2-  S180  1  0.63198061  0.37803534  0.36084791  1
  S2-  S181  1  0.71105331  0.51399475  0.84626858  1
  S2-  S182  1  0.61349373  0.62126319  0.35693588  1
  S2-  S183  1  0.61882374  0.72983588  0.85714163  1
  S2-  S184  1  0.89768144  -0.00001896  0.27183009  1
  S2-  S185  1  0.87043807  0.12078215  0.85350126  1
  S2-  S186  1  0.89332471  0.16756846  0.34683762  1
  S2-  S187  1  0.87734134  0.35308201  0.84287624  1
  S2-  S188  1  0.87807493  0.38734597  0.36520872  1
  S2-  S189  1  0.96723724  0.51232944  0.79659897  1
  S2-  S190  1  0.89058000  0.82386669  0.34990255  1
  S2-  S191  1  0.86102408  0.67731780  0.84952325  1
  S2-  S192  1  0.00045681  0.13144282  0.45133664  1
  S2-  S193  1  -0.00442971  0.13731154  0.95453911  1
  S2-  S194  1  0.00442312  0.38190774  0.46385517  1
  S2-  S195  1  -0.00776707  0.39213135  0.94469488  1
  S2-  S196  1  -0.00078350  0.63133775  0.45632784  1
  S2-  S197  1  -0.00777650  0.63088511  0.95241283  1
  S2-  S198  1  -0.00255028  0.88832804  0.45168483  1
  S2-  S199  1  -0.00441554  0.88537130  0.95459408  1
  S2-  S200  1  0.25118094  0.13445156  0.46789344  1
  S2-  S201  1  0.24534921  0.13528385  0.94973478  1
  S2-  S202  1  0.24876644  0.38200868  0.46629685  1
  S2-  S203  1  0.25145602  0.38335703  0.96065736  1
  S2-  S204  1  0.24901493  0.63679823  0.46056873  1
  S2-  S205  1  0.24907711  0.63855185  0.95908107  1
  S2-  S206  1  0.25159061  0.87934643  0.45608782  1
  S2-  S207  1  0.24532338  0.88576402  0.95012061  1
  S2-  S208  1  0.49886941  0.13205653  0.46655776  1
  S2-  S209  1  0.49675433  0.13970824  0.96149015  1
  S2-  S210  1  0.49513431  0.38674939  0.45545177  1
  S2-  S211  1  0.49442282  0.38324041  0.96085756  1
  S2-  S212  1  0.49346724  0.63068477  0.45265995  1
  S2-  S213  1  0.48980162  0.64141362  0.97062559  1
  S2-  S214  1  0.49938954  0.87987576  0.44558659  1
  S2-  S215  1  0.49102209  0.88514777  0.96236502  1
  S2-  S216  1  0.75051701  0.13531392  0.44932207  1
  S2-  S217  1  0.74000467  0.13029926  0.95933215  1
  S2-  S218  1  0.75061001  0.38173358  0.46416235  1
  S2-  S219  1  0.74452924  0.39099723  0.95182325  1
  S2-  S220  1  0.75370592  0.63071863  0.44816381  1
  S2-  S221  1  0.74332692  0.63581957  0.95815654  1
  S2-  S222  1  0.74494526  0.87854775  0.44533072  1
  S2-  S223  1  0.74311953  0.88572955  0.95016055  1
  S2-  S224  1  0.11911312  0.01488159  0.04644829  1
  S2-  S225  1  0.12234768  0.00637932  0.54022083  1
  S2-  S226  1  0.11607806  0.26004822  0.03392034  1
  S2-  S227  1  0.12456182  0.25596032  0.55028724  1
  S2-  S228  1  0.12073550  0.50627725  0.04029436  1
  S2-  S229  1  0.12562956  0.51216937  0.54665740  1
  S2-  S230  1  0.11816804  0.76591183  0.03738787  1
  S2-  S231  1  0.11851721  0.75805857  0.54688809  1
  S2-  S232  1  0.36399729  0.01430798  0.05773081  1
  S2-  S233  1  0.37630390  0.00551506  0.54754052  1
  S2-  S234  1  0.36820786  0.25962036  0.04372829  1
  S2-  S235  1  0.37522776  0.24985461  0.55608655  1
  S2-  S236  1  0.36311705  0.50980785  0.05222017  1
  S2-  S237  1  0.37588025  0.51116451  0.54108289  1
  S2-  S238  1  0.36254053  0.76490868  0.04739983  1
  S2-  S239  1  0.37748352  0.76151221  0.55296286  1
  S2-  S240  1  0.61848122  0.00822091  0.04590813  1
  S2-  S241  1  0.62399243  0.00582949  0.53256931  1
  S2-  S242  1  0.62197755  0.26375133  0.04955519  1
  S2-  S243  1  0.62411823  0.26321887  0.54789401  1
  S2-  S244  1  0.61857159  0.51543191  0.04612902  1
  S2-  S245  1  0.62576210  0.50871314  0.54303567  1
  S2-  S246  1  0.62089106  0.76242435  0.05637818  1
  S2-  S247  1  0.62200977  0.75687792  0.53361571  1
  S2-  S248  1  0.87046844  0.01256363  0.04275711  1
  S2-  S249  1  0.86984382  0.01028694  0.55473778  1
  S2-  S250  1  0.86463171  0.26393334  0.03633613  1
  S2-  S251  1  0.87438152  0.25572267  0.54345602  1
  S2-  S252  1  0.87354821  0.51391959  0.06092045  1
  S2-  S253  1  0.87229958  0.51141815  0.54723668  1
  S2-  S254  1  0.87083176  0.76080074  0.04851174  1
  S2-  S255  1  0.87013435  0.75873479  0.54441481  1
