# generated using pymatgen
data_La9Ce10Pr6Nd4Sm3(BiS2)32
_symmetry_space_group_name_H-M   'P 1'
_cell_length_a   16.14221932
_cell_length_b   16.21313478
_cell_length_c   27.13856903
_cell_angle_alpha   89.80984561
_cell_angle_beta   90.01137245
_cell_angle_gamma   90.06328925
_symmetry_Int_Tables_number   1
_chemical_formula_structural   La9Ce10Pr6Nd4Sm3(BiS2)32
_chemical_formula_sum   'La18 Ce20 Pr12 Nd8 Sm6 Bi64 S128'
_cell_volume   7102.55354099
_cell_formula_units_Z   2
loop_
 _symmetry_equiv_pos_site_id
 _symmetry_equiv_pos_as_xyz
  1  'x, y, z'
loop_
 _atom_type_symbol
 _atom_type_oxidation_number
  La3+  3.0
  Ce3+  3.0
  Pr3+  3.0
  Nd3+  3.0
  Sm3+  3.0
  Bi2+  2.0
  S2-  -2.0
loop_
 _atom_site_type_symbol
 _atom_site_label
 _atom_site_symmetry_multiplicity
 _atom_site_fract_x
 _atom_site_fract_y
 _atom_site_fract_z
 _atom_site_occupancy
  La3+  La0  1  0.86076457  0.74594937  0.93122436  1
  La3+  La1  1  0.00583936  0.11369129  0.57822022  1
  La3+  La2  1  0.35521018  0.00956437  0.91819603  1
  La3+  La3  1  0.73970931  0.36494563  0.57971247  1
  La3+  La4  1  0.73693520  0.11329424  0.57862128  1
  La3+  La5  1  0.11328149  -0.00567290  0.39657183  1
  La3+  La6  1  0.49723223  0.61775163  0.57209960  1
  La3+  La7  1  -0.00751725  0.62553242  0.06254113  1
  La3+  La8  1  0.37163447  0.23794125  0.42763070  1
  La3+  La9  1  0.62774367  0.24285684  0.43212123  1
  La3+  La10  1  0.24981099  0.62496075  0.07602163  1
  La3+  La11  1  0.37029304  0.73593095  0.42976434  1
  La3+  La12  1  0.86615844  0.48073783  0.87998130  1
  La3+  La13  1  0.59692139  0.49983611  0.38553390  1
  La3+  La14  1  0.49722525  0.63491359  0.07778670  1
  La3+  La15  1  -0.01206729  0.87222504  0.07789449  1
  La3+  La16  1  0.11418512  0.24731948  0.43314524  1
  La3+  La17  1  0.74804539  0.62279308  0.58081060  1
  Ce3+  Ce18  1  0.61821219  0.50295162  0.94256345  1
  Ce3+  Ce19  1  0.36973410  0.49033682  0.44501677  1
  Ce3+  Ce20  1  0.36341089  0.50327688  0.94601812  1
  Ce3+  Ce21  1  -0.01223965  0.12826271  0.06485485  1
  Ce3+  Ce22  1  0.74375046  0.37621173  0.05330531  1
  Ce3+  Ce23  1  0.36294671  0.24956577  0.94732926  1
  Ce3+  Ce24  1  0.48869296  0.12642196  0.06214826  1
  Ce3+  Ce25  1  0.12063276  0.50427009  0.93463693  1
  Ce3+  Ce26  1  0.36887934  -0.00482875  0.43657219  1
  Ce3+  Ce27  1  -0.00861690  0.36831696  0.57063767  1
  Ce3+  Ce28  1  0.49965947  0.36825287  0.55371786  1
  Ce3+  Ce29  1  0.86722666  0.00165310  0.93988972  1
  Ce3+  Ce30  1  -0.01076503  0.37678516  0.04863690  1
  Ce3+  Ce31  1  0.11659456  0.49094180  0.43657509  1
  Ce3+  Ce32  1  0.49179490  0.37363084  0.05969474  1
  Ce3+  Ce33  1  0.61650509  0.25136363  0.94334960  1
  Ce3+  Ce34  1  0.24315626  0.11875563  0.55287633  1
  Ce3+  Ce35  1  0.11259767  -0.00132209  0.94567240  1
  Ce3+  Ce36  1  0.62308662  -0.00428982  0.43277667  1
  Ce3+  Ce37  1  -0.00063776  0.61616283  0.56547194  1
  Pr3+  Pr38  1  0.74474065  0.13232716  0.07240143  1
  Pr3+  Pr39  1  0.49114549  0.11864463  0.56484449  1
  Pr3+  Pr40  1  0.11697673  0.73902129  0.43072489  1
  Pr3+  Pr41  1  0.73987757  0.62497409  0.06699855  1
  Pr3+  Pr42  1  0.12031550  0.75579768  0.94024046  1
  Pr3+  Pr43  1  0.00037116  0.86623681  0.55947542  1
  Pr3+  Pr44  1  0.36477020  0.75305252  0.93777194  1
  Pr3+  Pr45  1  0.86267756  0.24435014  0.92704221  1
  Pr3+  Pr46  1  0.62202016  0.73966446  0.43856798  1
  Pr3+  Pr47  1  0.87056201  0.24084334  0.45386055  1
  Pr3+  Pr48  1  0.61611248  0.00241549  0.94891344  1
  Pr3+  Pr49  1  0.23262358  0.12558297  0.07544874  1
  Nd3+  Nd50  1  0.87395689  -0.00588002  0.44461296  1
  Nd3+  Nd51  1  0.74279906  0.87670875  0.06482617  1
  Nd3+  Nd52  1  0.23810707  0.87831219  0.07425058  1
  Nd3+  Nd53  1  0.24658641  0.61984149  0.56601604  1
  Nd3+  Nd54  1  0.61187529  0.75266653  0.93618142  1
  Nd3+  Nd55  1  0.23757451  0.37370388  0.06432938  1
  Nd3+  Nd56  1  0.74487632  0.86667640  0.55883829  1
  Nd3+  Nd57  1  0.11503611  0.24917056  0.93709962  1
  Sm3+  Sm58  1  0.24470337  0.86635588  0.54712064  1
  Sm3+  Sm59  1  0.85588775  0.49191440  0.44623067  1
  Sm3+  Sm60  1  0.23857897  0.36832107  0.56449186  1
  Sm3+  Sm61  1  0.48671115  0.88037806  0.05930276  1
  Sm3+  Sm62  1  0.87028586  0.74024376  0.44386747  1
  Sm3+  Sm63  1  0.49357407  0.86641131  0.55033614  1
  Bi2+  Bi64  1  -0.00975903  0.22368938  0.29336631  1
  Bi2+  Bi65  1  -0.04225298  0.04458925  0.78357958  1
  Bi2+  Bi66  1  -0.04564714  0.41674195  0.29004046  1
  Bi2+  Bi67  1  0.08919661  0.34928395  0.78712626  1
  Bi2+  Bi68  1  -0.01026523  0.61485332  0.29112920  1
  Bi2+  Bi69  1  0.02081007  0.71813171  0.78867760  1
  Bi2+  Bi70  1  -0.05687558  0.87967247  0.29153683  1
  Bi2+  Bi71  1  -0.01194270  0.88377496  0.85357161  1
  Bi2+  Bi72  1  0.27337985  0.16116648  0.29640674  1
  Bi2+  Bi73  1  0.22487725  0.12489595  0.79049002  1
  Bi2+  Bi74  1  0.17506278  0.41837179  0.26998953  1
  Bi2+  Bi75  1  0.28004818  0.37393174  0.79883911  1
  Bi2+  Bi76  1  0.17440253  0.61377259  0.32819922  1
  Bi2+  Bi77  1  0.28916333  0.64017981  0.78907785  1
  Bi2+  Bi78  1  0.22781401  0.80428209  0.29477248  1
  Bi2+  Bi79  1  0.16434440  0.86573075  0.79543112  1
  Bi2+  Bi80  1  0.51521530  0.12484697  0.27965021  1
  Bi2+  Bi81  1  0.47715444  0.14179454  0.79192670  1
  Bi2+  Bi82  1  0.48050959  0.37312380  0.28183616  1
  Bi2+  Bi83  1  0.46955039  0.34818961  0.78426657  1
  Bi2+  Bi84  1  0.48030920  0.63666240  0.28666832  1
  Bi2+  Bi85  1  0.48362531  0.62665843  0.78370192  1
  Bi2+  Bi86  1  0.55949141  0.89098102  0.29352561  1
  Bi2+  Bi87  1  0.53763017  0.87127890  0.80009739  1
  Bi2+  Bi88  1  0.76545043  0.11160334  0.29177684  1
  Bi2+  Bi89  1  0.71984734  0.11202739  0.79388252  1
  Bi2+  Bi90  1  0.76051693  0.36180902  0.29232386  1
  Bi2+  Bi91  1  0.72595867  0.37237539  0.78648036  1
  Bi2+  Bi92  1  0.76756619  0.63315583  0.28795287  1
  Bi2+  Bi93  1  0.74409744  0.63959796  0.79314306  1
  Bi2+  Bi94  1  0.74854245  0.91922015  0.31399662  1
  Bi2+  Bi95  1  0.80718928  0.88559780  0.79147022  1
  Bi2+  Bi96  1  0.17942081  0.01143039  0.20793985  1
  Bi2+  Bi97  1  0.10615121  0.00036457  0.71812927  1
  Bi2+  Bi98  1  0.14797812  0.26433034  0.19554577  1
  Bi2+  Bi99  1  0.14633683  0.25909742  0.68747739  1
  Bi2+  Bi100  1  0.03869996  0.50923817  0.19545449  1
  Bi2+  Bi101  1  0.12051270  0.55099216  0.76188233  1
  Bi2+  Bi102  1  0.08007531  0.76945011  0.22168774  1
  Bi2+  Bi103  1  0.12707251  0.76655672  0.68928327  1
  Bi2+  Bi104  1  0.41157635  -0.02301970  0.24466939  1
  Bi2+  Bi105  1  0.36494352  0.01946077  0.73532892  1
  Bi2+  Bi106  1  0.40079887  0.28392540  0.19444949  1
  Bi2+  Bi107  1  0.39609486  0.19594401  0.69032229  1
  Bi2+  Bi108  1  0.27494569  0.57480199  0.23316856  1
  Bi2+  Bi109  1  0.36452066  0.47678690  0.71257937  1
  Bi2+  Bi110  1  0.36446294  0.75800637  0.19824461  1
  Bi2+  Bi111  1  0.37382129  0.75429728  0.70496484  1
  Bi2+  Bi112  1  0.67059763  -0.03056157  0.20396489  1
  Bi2+  Bi113  1  0.63234603  -0.03942278  0.71523002  1
  Bi2+  Bi114  1  0.65528652  0.16688696  0.20115901  1
  Bi2+  Bi115  1  0.59695550  0.22613257  0.70154478  1
  Bi2+  Bi116  1  0.67355423  0.46316762  0.18948278  1
  Bi2+  Bi117  1  0.56373066  0.48616133  0.72000417  1
  Bi2+  Bi118  1  0.63607804  0.76563129  0.20735712  1
  Bi2+  Bi119  1  0.61892828  0.75095071  0.70844568  1
  Bi2+  Bi120  1  0.88320109  0.01396241  0.21872775  1
  Bi2+  Bi121  1  0.81530785  0.01975209  0.70331827  1
  Bi2+  Bi122  1  0.88783291  0.27772901  0.20495573  1
  Bi2+  Bi123  1  0.87350164  0.26888499  0.72334967  1
  Bi2+  Bi124  1  0.84425107  0.55752239  0.18606206  1
  Bi2+  Bi125  1  0.96739208  0.50297324  0.69971159  1
  Bi2+  Bi126  1  0.82919483  0.75258052  0.20043318  1
  Bi2+  Bi127  1  0.88987372  0.77838823  0.70926563  1
  S2-  S128  1  0.09278543  0.12599585  0.14706751  1
  S2-  S129  1  -0.01577685  0.20266025  0.66802737  1
  S2-  S130  1  0.01553191  0.35462395  0.14627317  1
  S2-  S131  1  0.10489018  0.39646844  0.64404554  1
  S2-  S132  1  -0.02117454  0.72793149  0.14605395  1
  S2-  S133  1  0.12275542  0.62534955  0.63902478  1
  S2-  S134  1  0.11327836  0.89717834  0.15259779  1
  S2-  S135  1  0.00314007  0.89107580  0.66099808  1
  S2-  S136  1  0.28183413  0.15370686  0.17627278  1
  S2-  S137  1  0.16452880  0.10162939  0.64054841  1
  S2-  S138  1  0.26736973  0.38440736  0.16324357  1
  S2-  S139  1  0.30463156  0.33043873  0.65628705  1
  S2-  S140  1  0.20505117  0.69272811  0.16737567  1
  S2-  S141  1  0.36603919  0.62393954  0.64483183  1
  S2-  S142  1  0.32023324  0.92484285  0.16686102  1
  S2-  S143  1  0.25526676  0.84517641  0.64568543  1
  S2-  S144  1  0.49873630  0.14522936  0.16003183  1
  S2-  S145  1  0.59308764  0.07854324  0.64467489  1
  S2-  S146  1  0.51209993  0.39071749  0.15844073  1
  S2-  S147  1  0.57926889  0.36685663  0.64276246  1
  S2-  S148  1  0.38183990  0.60280925  0.15216198  1
  S2-  S149  1  0.61606805  0.61143142  0.65205472  1
  S2-  S150  1  0.49762465  0.79148007  0.14507743  1
  S2-  S151  1  0.49558056  0.83056755  0.64765945  1
  S2-  S152  1  0.87371176  0.13430058  0.14265852  1
  S2-  S153  1  0.74556422  0.23093019  0.65693836  1
  S2-  S154  1  0.74840190  0.32125786  0.14712327  1
  S2-  S155  1  0.87357320  0.38855119  0.65058444  1
  S2-  S156  1  0.62926580  0.61899770  0.14870163  1
  S2-  S157  1  0.89304694  0.62202401  0.64945254  1
  S2-  S158  1  0.85056744  0.89865931  0.14464126  1
  S2-  S159  1  0.75033442  0.77988549  0.64593124  1
  S2-  S160  1  0.22049384  -0.01644839  0.30791353  1
  S2-  S161  1  0.20063520  0.00318077  0.86088184  1
  S2-  S162  1  0.11524378  0.15414612  0.34575180  1
  S2-  S163  1  0.09299817  0.20570186  0.83992363  1
  S2-  S164  1  0.11103253  0.38028644  0.36028976  1
  S2-  S165  1  0.03791179  0.49032168  0.84640228  1
  S2-  S166  1  0.08830848  0.83637222  0.34720202  1
  S2-  S167  1  0.24005853  0.75382728  0.86284455  1
  S2-  S168  1  0.39053485  0.10046193  0.35834808  1
  S2-  S169  1  0.39601552  -0.06603379  0.82649855  1
  S2-  S170  1  0.33791450  0.29696657  0.33064451  1
  S2-  S171  1  0.35124258  0.16639734  0.86076354  1
  S2-  S172  1  0.42327615  0.51466266  0.35148415  1
  S2-  S173  1  0.26555796  0.50892909  0.86496403  1
  S2-  S174  1  0.38851206  0.76170262  0.32999691  1
  S2-  S175  1  0.48937924  0.73705607  0.86222728  1
  S2-  S176  1  0.62374957  0.11203916  0.35800361  1
  S2-  S177  1  0.62495753  0.00267733  0.84788424  1
  S2-  S178  1  0.60915412  0.33596461  0.34314673  1
  S2-  S179  1  0.65520717  0.24741913  0.84776351  1
  S2-  S180  1  0.58083944  0.50329949  0.27129148  1
  S2-  S181  1  0.68713588  0.50655367  0.85168880  1
  S2-  S182  1  0.61567889  0.66554731  0.34698935  1
  S2-  S183  1  0.72003407  0.77149160  0.85495836  1
  S2-  S184  1  0.95066130  0.00833887  0.35451722  1
  S2-  S185  1  0.85309084  0.10636785  0.85972158  1
  S2-  S186  1  0.83765732  0.23978638  0.35318570  1
  S2-  S187  1  0.86435135  0.32303431  0.83223928  1
  S2-  S188  1  0.76891063  0.49303169  0.35718892  1
  S2-  S189  1  0.83433591  0.50060816  0.76584386  1
  S2-  S190  1  0.87476742  0.72356978  0.34397967  1
  S2-  S191  1  0.88120625  0.64658823  0.84692921  1
  S2-  S192  1  -0.00319084  0.11615057  0.46229104  1
  S2-  S193  1  -0.00758239  0.12531909  0.95612335  1
  S2-  S194  1  -0.01391522  0.37348441  0.46082460  1
  S2-  S195  1  -0.01107389  0.37426955  0.94427520  1
  S2-  S196  1  -0.00968713  0.61408572  0.45178242  1
  S2-  S197  1  -0.00050319  0.62923363  0.95492827  1
  S2-  S198  1  -0.00708680  0.86586171  0.45384784  1
  S2-  S199  1  -0.01096161  0.87336778  0.96575606  1
  S2-  S200  1  0.23956095  0.11283388  0.44854483  1
  S2-  S201  1  0.23721413  0.12836280  0.96560491  1
  S2-  S202  1  0.24803482  0.36636699  0.45640318  1
  S2-  S203  1  0.23919487  0.37194250  0.95742223  1
  S2-  S204  1  0.24532861  0.61487523  0.45588717  1
  S2-  S205  1  0.24384259  0.62696345  0.96640612  1
  S2-  S206  1  0.24550041  0.86865476  0.44119650  1
  S2-  S207  1  0.24379565  0.88252533  0.96442174  1
  S2-  S208  1  0.49794860  0.11432670  0.45983768  1
  S2-  S209  1  0.49021318  0.12621271  0.95561986  1
  S2-  S210  1  0.49557620  0.36814719  0.44803293  1
  S2-  S211  1  0.48926242  0.37604769  0.95005201  1
  S2-  S212  1  0.49667615  0.61492821  0.45704882  1
  S2-  S213  1  0.48969196  0.62202440  0.96398137  1
  S2-  S214  1  0.49478922  0.86865212  0.44424279  1
  S2-  S215  1  0.48545267  0.88456785  0.95596662  1
  S2-  S216  1  0.74768748  0.11227240  0.46400607  1
  S2-  S217  1  0.73712038  0.12757585  0.96368686  1
  S2-  S218  1  0.74672032  0.36301658  0.46544350  1
  S2-  S219  1  0.74336390  0.37685992  0.94856801  1
  S2-  S220  1  0.74810746  0.62441547  0.46182655  1
  S2-  S221  1  0.73300948  0.62843019  0.95952040  1
  S2-  S222  1  0.74823247  0.86680044  0.45230447  1
  S2-  S223  1  0.74161390  0.88054289  0.95907254  1
  S2-  S224  1  0.11217987  0.00040053  0.04864230  1
  S2-  S225  1  0.12421373  -0.01256690  0.54313793  1
  S2-  S226  1  0.11413117  0.25306462  0.04417355  1
  S2-  S227  1  0.12008961  0.24484510  0.54347738  1
  S2-  S228  1  0.11921122  0.50063086  0.04791461  1
  S2-  S229  1  0.12336748  0.49391571  0.53951277  1
  S2-  S230  1  0.12148182  0.75107353  0.04803126  1
  S2-  S231  1  0.12321975  0.74391244  0.53709894  1
  S2-  S232  1  0.36567677  0.00455839  0.05301996  1
  S2-  S233  1  0.36916770  -0.00947812  0.54613007  1
  S2-  S234  1  0.36354995  0.25022145  0.05308955  1
  S2-  S235  1  0.36844888  0.24331458  0.54044430  1
  S2-  S236  1  0.36715112  0.49343639  0.04978479  1
  S2-  S237  1  0.36858638  0.48703176  0.55011482  1
  S2-  S238  1  0.36509299  0.75799490  0.04716721  1
  S2-  S239  1  0.37025530  0.74474885  0.53781491  1
  S2-  S240  1  0.61642021  0.00184486  0.05722557  1
  S2-  S241  1  0.61819493  -0.01494319  0.54033394  1
  S2-  S242  1  0.61565772  0.25050884  0.04945036  1
  S2-  S243  1  0.61694277  0.23747474  0.54297185  1
  S2-  S244  1  0.61553247  0.49685149  0.04682615  1
  S2-  S245  1  0.62217668  0.49421396  0.55128230  1
  S2-  S246  1  0.61717029  0.75977203  0.04320141  1
  S2-  S247  1  0.61764368  0.74692661  0.54408547  1
  S2-  S248  1  0.86387398  0.00449347  0.04307903  1
  S2-  S249  1  0.87100243  -0.00860966  0.55410434  1
  S2-  S250  1  0.86652389  0.25374752  0.03674281  1
  S2-  S251  1  0.87175729  0.23324107  0.55724639  1
  S2-  S252  1  0.86560205  0.50087648  0.05353860  1
  S2-  S253  1  0.86827594  0.49588810  0.54816612  1
  S2-  S254  1  0.85981066  0.74846608  0.04297841  1
  S2-  S255  1  0.87441804  0.74536503  0.54624198  1
