# generated using pymatgen
data_La9Ce10Pr6Nd4Sm3(BiS2)32
_symmetry_space_group_name_H-M   'P 1'
_cell_length_a   16.18434110
_cell_length_b   16.19607091
_cell_length_c   27.05126773
_cell_angle_alpha   89.67521435
_cell_angle_beta   90.16043329
_cell_angle_gamma   89.96749253
_symmetry_Int_Tables_number   1
_chemical_formula_structural   La9Ce10Pr6Nd4Sm3(BiS2)32
_chemical_formula_sum   'La18 Ce20 Pr12 Nd8 Sm6 Bi64 S128'
_cell_volume   7090.60938738
_cell_formula_units_Z   2
loop_
 _symmetry_equiv_pos_site_id
 _symmetry_equiv_pos_as_xyz
  1  'x, y, z'
loop_
 _atom_type_symbol
 _atom_type_oxidation_number
  La3+  3.0
  Ce3+  3.0
  Pr3+  3.0
  Nd3+  3.0
  Sm3+  3.0
  Bi2+  2.0
  S2-  -2.0
loop_
 _atom_site_type_symbol
 _atom_site_label
 _atom_site_symmetry_multiplicity
 _atom_site_fract_x
 _atom_site_fract_y
 _atom_site_fract_z
 _atom_site_occupancy
  La3+  La0  1  0.12169333  0.25855537  0.42598706  1
  La3+  La1  1  0.25070319  0.35696439  0.08321042  1
  La3+  La2  1  0.38624231  0.49386494  0.41735370  1
  La3+  La3  1  0.49053600  0.85927125  0.07555612  1
  La3+  La4  1  -0.01190141  0.35501987  0.08207600  1
  La3+  La5  1  0.49725427  0.36432739  0.06547170  1
  La3+  La6  1  0.74120308  0.61579257  0.06334576  1
  La3+  La7  1  0.63002868  0.00685325  0.41130230  1
  La3+  La8  1  0.87404288  0.25463996  0.42835409  1
  La3+  La9  1  0.73896983  0.86826182  0.06518296  1
  La3+  La10  1  0.87055401  0.24248394  0.92618896  1
  La3+  La11  1  0.24929957  0.37231125  0.56359796  1
  La3+  La12  1  -0.00748354  0.12491210  0.57149502  1
  La3+  La13  1  0.76011082  0.87217005  0.58544557  1
  La3+  La14  1  0.61162686  0.74029918  0.92375158  1
  La3+  La15  1  0.86816147  0.73841860  0.93177796  1
  La3+  La16  1  -0.00380716  0.61965625  0.07592228  1
  La3+  La17  1  0.12369047  -0.01492336  0.92083393  1
  Ce3+  Ce18  1  0.86893091  -0.01780707  0.92575069  1
  Ce3+  Ce19  1  0.74825868  0.36465139  0.05349734  1
  Ce3+  Ce20  1  0.49433778  0.61399168  0.06432018  1
  Ce3+  Ce21  1  -0.00353660  0.11746140  0.04678094  1
  Ce3+  Ce22  1  0.11754104  0.48851595  0.95288491  1
  Ce3+  Ce23  1  0.23888801  0.11648599  0.05571316  1
  Ce3+  Ce24  1  0.87262835  0.50456257  0.44470917  1
  Ce3+  Ce25  1  0.24348039  0.61449115  0.06424134  1
  Ce3+  Ce26  1  0.75189810  0.12247467  0.55438282  1
  Ce3+  Ce27  1  0.61720190  -0.01140867  0.93844704  1
  Ce3+  Ce28  1  0.74887070  0.62659675  0.55855139  1
  Ce3+  Ce29  1  0.60853472  0.49284966  0.92957949  1
  Ce3+  Ce30  1  0.50485244  0.87883901  0.55722806  1
  Ce3+  Ce31  1  0.11972701  0.00035167  0.43515816  1
  Ce3+  Ce32  1  0.36788454  0.49212174  0.94597732  1
  Ce3+  Ce33  1  0.24503998  0.87445613  0.56072471  1
  Ce3+  Ce34  1  0.61806324  0.24276215  0.94162720  1
  Ce3+  Ce35  1  -0.00693271  0.86924457  0.05481921  1
  Ce3+  Ce36  1  0.49184782  0.37279666  0.56658645  1
  Ce3+  Ce37  1  0.24248976  0.12651781  0.56161416  1
  Pr3+  Pr38  1  0.00367206  0.37453783  0.56429333  1
  Pr3+  Pr39  1  0.49560403  0.11436554  0.06523768  1
  Pr3+  Pr40  1  0.12392957  0.75062837  0.42519269  1
  Pr3+  Pr41  1  0.50092120  0.12728227  0.57054266  1
  Pr3+  Pr42  1  0.12583386  0.50675685  0.42067452  1
  Pr3+  Pr43  1  0.25229123  0.62282124  0.54896846  1
  Pr3+  Pr44  1  0.62083865  0.76049011  0.43124758  1
  Pr3+  Pr45  1  0.87001881  0.49594299  0.94159513  1
  Pr3+  Pr46  1  0.62056325  0.25026769  0.43551755  1
  Pr3+  Pr47  1  0.88042093  -0.00169912  0.43383476  1
  Pr3+  Pr48  1  0.37033589  0.23993356  0.42646790  1
  Pr3+  Pr49  1  0.24182561  0.86833388  0.07090379  1
  Nd3+  Nd50  1  0.11922073  0.25333359  0.92963996  1
  Nd3+  Nd51  1  0.36765638  0.24033511  0.93812270  1
  Nd3+  Nd52  1  0.37405904  0.00479122  0.44652100  1
  Nd3+  Nd53  1  0.49998528  0.63287956  0.56444892  1
  Nd3+  Nd54  1  0.74944282  0.37531225  0.55656735  1
  Nd3+  Nd55  1  0.86777053  0.75448060  0.43960653  1
  Nd3+  Nd56  1  0.37011111  -0.00839344  0.94364837  1
  Nd3+  Nd57  1  0.37509557  0.75624696  0.43613063  1
  Sm3+  Sm58  1  0.36739143  0.74157432  0.94401331  1
  Sm3+  Sm59  1  0.00784647  0.87091243  0.56534092  1
  Sm3+  Sm60  1  0.61996295  0.50302370  0.44762548  1
  Sm3+  Sm61  1  0.12083604  0.73822634  0.94338190  1
  Sm3+  Sm62  1  0.00300072  0.62521140  0.55398671  1
  Sm3+  Sm63  1  0.74753059  0.11421028  0.04832543  1
  Bi2+  Bi64  1  -0.00884463  0.12313247  0.27871179  1
  Bi2+  Bi65  1  -0.00427319  0.11520665  0.79198315  1
  Bi2+  Bi66  1  -0.02187206  0.37877261  0.28614326  1
  Bi2+  Bi67  1  -0.04949253  0.42029371  0.82387658  1
  Bi2+  Bi68  1  -0.02721798  0.65659667  0.29289865  1
  Bi2+  Bi69  1  0.08470906  0.62303552  0.82722890  1
  Bi2+  Bi70  1  0.09841563  0.87928619  0.30551835  1
  Bi2+  Bi71  1  0.01673676  0.79343362  0.78539099  1
  Bi2+  Bi72  1  0.19015714  0.12511549  0.27238754  1
  Bi2+  Bi73  1  0.25468349  0.13051983  0.79971135  1
  Bi2+  Bi74  1  0.26767377  0.36934943  0.29587606  1
  Bi2+  Bi75  1  0.22651182  0.42122702  0.76022449  1
  Bi2+  Bi76  1  0.26898340  0.76359148  0.31189832  1
  Bi2+  Bi77  1  0.28144580  0.58552106  0.81686468  1
  Bi2+  Bi78  1  0.27598848  0.96315276  0.32976344  1
  Bi2+  Bi79  1  0.28264418  0.77903229  0.81145499  1
  Bi2+  Bi80  1  0.49350041  0.11118506  0.27701214  1
  Bi2+  Bi81  1  0.48802980  0.12882940  0.81007985  1
  Bi2+  Bi82  1  0.57614839  0.36171334  0.31294564  1
  Bi2+  Bi83  1  0.48126075  0.37266945  0.78586132  1
  Bi2+  Bi84  1  0.58680602  0.59332609  0.26982743  1
  Bi2+  Bi85  1  0.49370182  0.62324753  0.79696424  1
  Bi2+  Bi86  1  0.44865112  0.86269439  0.28477353  1
  Bi2+  Bi87  1  0.52920652  0.88225726  0.79386447  1
  Bi2+  Bi88  1  0.75954240  0.13096118  0.28812549  1
  Bi2+  Bi89  1  0.72307798  0.10016340  0.72275672  1
  Bi2+  Bi90  1  0.77060199  0.32464159  0.30462288  1
  Bi2+  Bi91  1  0.68205591  0.38870968  0.80920072  1
  Bi2+  Bi92  1  0.78104508  0.57831105  0.29551101  1
  Bi2+  Bi93  1  0.76478247  0.58532508  0.78491976  1
  Bi2+  Bi94  1  0.74401287  0.83966340  0.30245826  1
  Bi2+  Bi95  1  0.77327921  0.90548439  0.78207626  1
  Bi2+  Bi96  1  0.16206613  0.01784130  0.17353359  1
  Bi2+  Bi97  1  0.16129392  -0.04249551  0.71521540  1
  Bi2+  Bi98  1  0.11702210  0.27919630  0.19936708  1
  Bi2+  Bi99  1  0.11904539  0.29304461  0.70435128  1
  Bi2+  Bi100  1  0.13375454  0.53410286  0.21893525  1
  Bi2+  Bi101  1  0.04521317  0.50801552  0.73643190  1
  Bi2+  Bi102  1  0.19792271  0.83345811  0.20681753  1
  Bi2+  Bi103  1  0.14280625  0.71420533  0.70901343  1
  Bi2+  Bi104  1  0.35056965  -0.00200529  0.21881990  1
  Bi2+  Bi105  1  0.34848105  0.01018742  0.70952146  1
  Bi2+  Bi106  1  0.37985992  0.22009137  0.20996852  1
  Bi2+  Bi107  1  0.36798396  0.28283983  0.70474732  1
  Bi2+  Bi108  1  0.40225578  0.53227432  0.24585220  1
  Bi2+  Bi109  1  0.35607768  0.54351705  0.70816890  1
  Bi2+  Bi110  1  0.37619656  0.70920938  0.20592224  1
  Bi2+  Bi111  1  0.38330334  0.81770708  0.71963434  1
  Bi2+  Bi112  1  0.70490845  -0.00353243  0.21237020  1
  Bi2+  Bi113  1  0.53379775  0.06635421  0.70208077  1
  Bi2+  Bi114  1  0.63282851  0.31654759  0.20979378  1
  Bi2+  Bi115  1  0.63357367  0.27182033  0.71551828  1
  Bi2+  Bi116  1  0.55050939  0.48597597  0.17396937  1
  Bi2+  Bi117  1  0.59917834  0.48685690  0.72167056  1
  Bi2+  Bi118  1  0.64470908  0.76389239  0.19777180  1
  Bi2+  Bi119  1  0.62869471  0.73260426  0.70088467  1
  Bi2+  Bi120  1  0.98717115  -0.03740535  0.21796086  1
  Bi2+  Bi121  1  0.93830736  0.00376138  0.70696572  1
  Bi2+  Bi122  1  0.86567664  0.21467710  0.20314408  1
  Bi2+  Bi123  1  0.87278832  0.25101555  0.71746044  1
  Bi2+  Bi124  1  0.75320704  0.47283532  0.20239706  1
  Bi2+  Bi125  1  0.85578109  0.45454952  0.72172677  1
  Bi2+  Bi126  1  0.89346782  0.74946786  0.20461133  1
  Bi2+  Bi127  1  0.89231384  0.72404820  0.71043499  1
  S2-  S128  1  0.00005857  0.19530935  0.13559197  1
  S2-  S129  1  0.08088851  0.06670404  0.65918002  1
  S2-  S130  1  0.02114864  0.41263425  0.18252649  1
  S2-  S131  1  -0.01726579  0.25895673  0.64532235  1
  S2-  S132  1  -0.00771495  0.61799103  0.17846700  1
  S2-  S133  1  0.00633056  0.64475090  0.65339703  1
  S2-  S134  1  0.01399335  0.82766432  0.15061588  1
  S2-  S135  1  -0.09129467  0.87040095  0.64859039  1
  S2-  S136  1  0.24309532  0.20179964  0.14133371  1
  S2-  S137  1  0.24802834  0.22597448  0.64288405  1
  S2-  S138  1  0.22226250  0.41740578  0.18287675  1
  S2-  S139  1  0.12716704  0.41153378  0.63753242  1
  S2-  S140  1  0.22503409  0.63807871  0.16242300  1
  S2-  S141  1  0.25362845  0.63543776  0.65164572  1
  S2-  S142  1  0.35753185  0.85985586  0.14933224  1
  S2-  S143  1  0.13656357  0.84872811  0.63771345  1
  S2-  S144  1  0.50317750  0.12694278  0.16710896  1
  S2-  S145  1  0.50777727  0.25294033  0.64298198  1
  S2-  S146  1  0.40522005  0.34741717  0.15016492  1
  S2-  S147  1  0.37079433  0.40932722  0.63728827  1
  S2-  S148  1  0.51793057  0.71174266  0.14493425  1
  S2-  S149  1  0.51470974  0.59851911  0.66407347  1
  S2-  S150  1  0.59480801  0.90735962  0.15347379  1
  S2-  S151  1  0.49996848  0.80440756  0.64604004  1
  S2-  S152  1  0.75557999  0.11165985  0.14818288  1
  S2-  S153  1  0.83104306  0.10132889  0.64254752  1
  S2-  S154  1  0.82998047  0.35301834  0.14012696  1
  S2-  S155  1  0.76233763  0.34792719  0.65545032  1
  S2-  S156  1  0.76522810  0.64927069  0.16208794  1
  S2-  S157  1  0.75798493  0.65795609  0.65553720  1
  S2-  S158  1  0.79992879  0.87986623  0.16102577  1
  S2-  S159  1  0.70306395  0.87150746  0.68551503  1
  S2-  S160  1  0.00811877  0.00421040  0.35870807  1
  S2-  S161  1  0.12607551  0.01757279  0.81750129  1
  S2-  S162  1  0.23787635  0.22818055  0.35057490  1
  S2-  S163  1  0.12374129  0.21140377  0.82930859  1
  S2-  S164  1  0.11514880  0.39829000  0.33993730  1
  S2-  S165  1  0.10568807  0.40189314  0.86898824  1
  S2-  S166  1  0.10871602  0.63700834  0.34615780  1
  S2-  S167  1  0.14444648  0.83230312  0.86062482  1
  S2-  S168  1  0.40567297  0.09519258  0.36067450  1
  S2-  S169  1  0.36435434  0.01521953  0.84370916  1
  S2-  S170  1  0.41358785  0.34654077  0.34872869  1
  S2-  S171  1  0.36417142  0.25334305  0.83694133  1
  S2-  S172  1  0.29972142  0.52192646  0.32639748  1
  S2-  S173  1  0.45844595  0.48970321  0.86050209  1
  S2-  S174  1  0.43471912  0.72643891  0.34333454  1
  S2-  S175  1  0.46171906  0.76099394  0.86041305  1
  S2-  S176  1  0.59268262  -0.11035381  0.33985168  1
  S2-  S177  1  0.60201207  0.00777429  0.83956434  1
  S2-  S178  1  0.61195280  0.15105831  0.34828637  1
  S2-  S179  1  0.62266896  0.23305181  0.84355526  1
  S2-  S180  1  0.54199879  0.51190607  0.35917765  1
  S2-  S181  1  0.62860906  0.60471132  0.85359189  1
  S2-  S182  1  0.68174864  0.70092487  0.34172903  1
  S2-  S183  1  0.67180389  0.80661906  0.82829886  1
  S2-  S184  1  0.77988762  -0.00841410  0.34801201  1
  S2-  S185  1  0.85225603  0.04329738  0.83289159  1
  S2-  S186  1  0.98734647  0.24647101  0.35178662  1
  S2-  S187  1  0.89024766  0.25886061  0.82556235  1
  S2-  S188  1  0.91525000  0.50369781  0.34820304  1
  S2-  S189  1  0.87068632  0.60653301  0.85898921  1
  S2-  S190  1  0.90013199  0.78594727  0.34130605  1
  S2-  S191  1  0.88677216  0.84625678  0.84969844  1
  S2-  S192  1  -0.00199233  0.12811297  0.45886266  1
  S2-  S193  1  -0.00207505  0.11592460  0.93990504  1
  S2-  S194  1  -0.00430697  0.38304105  0.45602265  1
  S2-  S195  1  -0.01213413  0.36667505  0.96566168  1
  S2-  S196  1  -0.00653683  0.63037096  0.45029514  1
  S2-  S197  1  -0.00101866  0.61757378  0.96509459  1
  S2-  S198  1  0.00006682  0.86815324  0.45767213  1
  S2-  S199  1  -0.00136145  0.86350428  0.95159245  1
  S2-  S200  1  0.24254130  0.11996690  0.45615574  1
  S2-  S201  1  0.24159663  0.11701862  0.94713617  1
  S2-  S202  1  0.25166190  0.38097805  0.45002521  1
  S2-  S203  1  0.24939913  0.36624958  0.96195681  1
  S2-  S204  1  0.25623643  0.62852020  0.44311263  1
  S2-  S205  1  0.24392425  0.61691031  0.95662271  1
  S2-  S206  1  0.24803389  0.87658130  0.45399919  1
  S2-  S207  1  0.24966149  0.86577439  0.96244554  1
  S2-  S208  1  0.50988805  0.11795530  0.46411953  1
  S2-  S209  1  0.49382050  0.11728238  0.95545450  1
  S2-  S210  1  0.50390011  0.37251135  0.45992841  1
  S2-  S211  1  0.49204500  0.36196626  0.95657780  1
  S2-  S212  1  0.50271113  0.63324195  0.45671174  1
  S2-  S213  1  0.48868167  0.61730189  0.96039578  1
  S2-  S214  1  0.49925046  0.88383926  0.45237659  1
  S2-  S215  1  0.49109073  0.86909134  0.96210469  1
  S2-  S216  1  0.75259134  0.12792469  0.44980012  1
  S2-  S217  1  0.74372274  0.11570127  0.94341065  1
  S2-  S218  1  0.74474831  0.38046748  0.44906732  1
  S2-  S219  1  0.74382203  0.37030707  0.94692170  1
  S2-  S220  1  0.74474268  0.62588846  0.45340884  1
  S2-  S221  1  0.73963345  0.61647045  0.95677634  1
  S2-  S222  1  0.74617963  0.87907714  0.45668204  1
  S2-  S223  1  0.74120143  0.86594301  0.95272683  1
  S2-  S224  1  0.11804693  -0.00961255  0.03678147  1
  S2-  S225  1  0.12354887  -0.00199828  0.54196079  1
  S2-  S226  1  0.12024032  0.24221691  0.03798213  1
  S2-  S227  1  0.12178142  0.24792582  0.53878109  1
  S2-  S228  1  0.11946403  0.48677925  0.06010615  1
  S2-  S229  1  0.12394628  0.50755657  0.53116470  1
  S2-  S230  1  0.12103549  0.74317644  0.04885126  1
  S2-  S231  1  0.12442260  0.74508432  0.53438616  1
  S2-  S232  1  0.36710307  -0.00461656  0.05110604  1
  S2-  S233  1  0.37295896  0.00062349  0.55436134  1
  S2-  S234  1  0.37182042  0.23560566  0.04349594  1
  S2-  S235  1  0.37256808  0.24313499  0.53669418  1
  S2-  S236  1  0.36781464  0.49212796  0.05359267  1
  S2-  S237  1  0.38221973  0.50835950  0.53475991  1
  S2-  S238  1  0.36515635  0.73605643  0.04767851  1
  S2-  S239  1  0.37404056  0.75431229  0.54461525  1
  S2-  S240  1  0.62014436  -0.00439885  0.04420593  1
  S2-  S241  1  0.62956804  -0.00052261  0.56538640  1
  S2-  S242  1  0.62395152  0.23867607  0.05022555  1
  S2-  S243  1  0.63041746  0.24944349  0.54369675  1
  S2-  S244  1  0.62057871  0.48886125  0.04147764  1
  S2-  S245  1  0.62262145  0.50019862  0.55352910  1
  S2-  S246  1  0.61973736  0.74136504  0.04052604  1
  S2-  S247  1  0.62938276  0.75399247  0.54501287  1
  S2-  S248  1  0.87029054  -0.00746799  0.03915262  1
  S2-  S249  1  0.87757681  -0.00745064  0.54202362  1
  S2-  S250  1  0.86620061  0.23592225  0.03497323  1
  S2-  S251  1  0.87026296  0.25362483  0.53803561  1
  S2-  S252  1  0.87201289  0.49532738  0.05028658  1
  S2-  S253  1  0.87613726  0.50182704  0.55354423  1
  S2-  S254  1  0.86904836  0.74181602  0.04580093  1
  S2-  S255  1  0.87711612  0.74700252  0.54652842  1
