# generated using pymatgen
data_La9Ce10Pr6Nd4Sm3(BiS2)32
_symmetry_space_group_name_H-M   'P 1'
_cell_length_a   16.16788756
_cell_length_b   16.14155436
_cell_length_c   27.27037812
_cell_angle_alpha   90.24475636
_cell_angle_beta   89.78283107
_cell_angle_gamma   89.97389163
_symmetry_Int_Tables_number   1
_chemical_formula_structural   La9Ce10Pr6Nd4Sm3(BiS2)32
_chemical_formula_sum   'La18 Ce20 Pr12 Nd8 Sm6 Bi64 S128'
_cell_volume   7116.76560697
_cell_formula_units_Z   2
loop_
 _symmetry_equiv_pos_site_id
 _symmetry_equiv_pos_as_xyz
  1  'x, y, z'
loop_
 _atom_type_symbol
 _atom_type_oxidation_number
  La3+  3.0
  Ce3+  3.0
  Pr3+  3.0
  Nd3+  3.0
  Sm3+  3.0
  Bi2+  2.0
  S2-  -2.0
loop_
 _atom_site_type_symbol
 _atom_site_label
 _atom_site_symmetry_multiplicity
 _atom_site_fract_x
 _atom_site_fract_y
 _atom_site_fract_z
 _atom_site_occupancy
  La3+  La0  1  0.74741734  0.64601813  0.57491743  1
  La3+  La1  1  0.37503273  0.26392969  0.43921982  1
  La3+  La2  1  0.88713989  0.22991427  0.91348791  1
  La3+  La3  1  0.50924917  0.12971012  0.11501246  1
  La3+  La4  1  0.39191205  0.72950090  0.91674559  1
  La3+  La5  1  0.62644036  0.02119537  0.43508609  1
  La3+  La6  1  0.24452901  0.14384365  0.57667134  1
  La3+  La7  1  0.00635756  0.64044820  0.55621521  1
  La3+  La8  1  0.00437876  0.61620109  0.07697430  1
  La3+  La9  1  0.49481281  0.13935057  0.58072841  1
  La3+  La10  1  0.62183087  0.77034135  0.43456218  1
  La3+  La11  1  0.12433719  0.25998512  0.43395509  1
  La3+  La12  1  0.62879921  -0.01336064  0.93904545  1
  La3+  La13  1  0.00835383  0.86370549  0.06486106  1
  La3+  La14  1  0.76110158  0.35601389  0.06109350  1
  La3+  La15  1  0.75250655  0.14409881  0.57810059  1
  La3+  La16  1  0.88115964  0.73084410  0.93405563  1
  La3+  La17  1  0.13416933  -0.02216171  0.92509719  1
  Ce3+  Ce18  1  0.00771014  0.35995327  0.04696736  1
  Ce3+  Ce19  1  0.13280742  0.49308022  0.93649702  1
  Ce3+  Ce20  1  0.24984437  0.38898642  0.56219873  1
  Ce3+  Ce21  1  0.75290932  0.86205274  0.05899404  1
  Ce3+  Ce22  1  0.63003805  0.51723550  0.44698099  1
  Ce3+  Ce23  1  0.00269430  0.89203707  0.55345733  1
  Ce3+  Ce24  1  0.62993892  0.48720317  0.94644939  1
  Ce3+  Ce25  1  0.13163452  0.23318495  0.93431156  1
  Ce3+  Ce26  1  -0.00076949  0.39255395  0.56130732  1
  Ce3+  Ce27  1  0.74866331  0.88984641  0.56264078  1
  Ce3+  Ce28  1  0.38230286  0.23439505  0.93816101  1
  Ce3+  Ce29  1  0.37275502  0.51592362  0.44309007  1
  Ce3+  Ce30  1  0.87522082  0.26838644  0.44708935  1
  Ce3+  Ce31  1  0.25676363  0.35932751  0.05240987  1
  Ce3+  Ce32  1  0.12582663  0.01200881  0.43139511  1
  Ce3+  Ce33  1  0.25566655  0.64087318  0.56510891  1
  Ce3+  Ce34  1  0.87375974  0.76099092  0.44202355  1
  Ce3+  Ce35  1  0.75600577  0.61049513  0.06900362  1
  Ce3+  Ce36  1  0.50168292  0.38724975  0.56155516  1
  Ce3+  Ce37  1  0.50107552  0.89419942  0.57157002  1
  Pr3+  Pr38  1  0.87408820  0.01719658  0.44238954  1
  Pr3+  Pr39  1  0.37352863  0.76658813  0.44376758  1
  Pr3+  Pr40  1  0.88076701  -0.02248908  0.93057694  1
  Pr3+  Pr41  1  0.00451027  0.11145407  0.05816306  1
  Pr3+  Pr42  1  0.50106438  0.61399378  0.07819075  1
  Pr3+  Pr43  1  0.23339369  0.88589809  0.58966844  1
  Pr3+  Pr44  1  0.75580757  0.39409580  0.57995900  1
  Pr3+  Pr45  1  0.13073506  0.50920382  0.39781394  1
  Pr3+  Pr46  1  0.37341504  0.01409867  0.45149367  1
  Pr3+  Pr47  1  0.25586795  0.61033464  0.06847983  1
  Pr3+  Pr48  1  0.12669338  0.76476464  0.42792089  1
  Pr3+  Pr49  1  0.13279538  0.73203529  0.93442132  1
  Nd3+  Nd50  1  0.50488834  0.86464818  0.06894793  1
  Nd3+  Nd51  1  0.62849231  0.26528584  0.44147310  1
  Nd3+  Nd52  1  0.38492961  -0.01409699  0.93878021  1
  Nd3+  Nd53  1  0.87380976  0.51405235  0.43526071  1
  Nd3+  Nd54  1  0.26121636  0.85922672  0.05164808  1
  Nd3+  Nd55  1  0.63471873  0.23500889  0.94198693  1
  Nd3+  Nd56  1  0.38176976  0.48619814  0.93805018  1
  Nd3+  Nd57  1  0.25980900  0.10940789  0.05839746  1
  Sm3+  Sm58  1  0.87996942  0.48948305  0.93925335  1
  Sm3+  Sm59  1  0.75920928  0.10865998  0.06228049  1
  Sm3+  Sm60  1  0.62674232  0.73162073  0.94835274  1
  Sm3+  Sm61  1  0.00183628  0.13811012  0.56656980  1
  Sm3+  Sm62  1  0.50618068  0.35890188  0.05447482  1
  Sm3+  Sm63  1  0.49336131  0.64853358  0.56901941  1
  Bi2+  Bi64  1  0.01456766  0.11630233  0.28736626  1
  Bi2+  Bi65  1  -0.01645394  0.15724398  0.77311365  1
  Bi2+  Bi66  1  0.01160011  0.39013161  0.27863404  1
  Bi2+  Bi67  1  0.02146286  0.44244863  0.77328704  1
  Bi2+  Bi68  1  -0.00791663  0.64761306  0.28809179  1
  Bi2+  Bi69  1  -0.01198563  0.69858448  0.80962207  1
  Bi2+  Bi70  1  0.01551136  0.92244742  0.26221955  1
  Bi2+  Bi71  1  -0.06733373  0.89163695  0.76629446  1
  Bi2+  Bi72  1  0.22018420  0.08126884  0.26369092  1
  Bi2+  Bi73  1  0.19496246  0.20259152  0.79621067  1
  Bi2+  Bi74  1  0.27999387  0.36294052  0.29333833  1
  Bi2+  Bi75  1  0.20603128  0.39970045  0.80859430  1
  Bi2+  Bi76  1  0.25483342  0.61246110  0.27560372  1
  Bi2+  Bi77  1  0.24280641  0.59490305  0.78900313  1
  Bi2+  Bi78  1  0.21701659  0.87889703  0.27395803  1
  Bi2+  Bi79  1  0.23165591  0.90708013  0.79224201  1
  Bi2+  Bi80  1  0.47455269  0.10084513  0.31633366  1
  Bi2+  Bi81  1  0.49470435  0.11849157  0.80408684  1
  Bi2+  Bi82  1  0.54671101  0.38285378  0.29672572  1
  Bi2+  Bi83  1  0.41583218  0.38194584  0.79442921  1
  Bi2+  Bi84  1  0.51241391  0.57796731  0.28554354  1
  Bi2+  Bi85  1  0.51535918  0.60480202  0.79118975  1
  Bi2+  Bi86  1  0.47681321  0.83752300  0.30853689  1
  Bi2+  Bi87  1  0.49423817  0.87033459  0.80526036  1
  Bi2+  Bi88  1  0.76700369  0.15201165  0.30084501  1
  Bi2+  Bi89  1  0.75180244  0.15314279  0.80131564  1
  Bi2+  Bi90  1  0.73910317  0.36942849  0.30631619  1
  Bi2+  Bi91  1  0.61441271  0.37344412  0.77605481  1
  Bi2+  Bi92  1  0.76461416  0.57018165  0.27110065  1
  Bi2+  Bi93  1  0.74417484  0.61349649  0.79104833  1
  Bi2+  Bi94  1  0.72308694  0.80595459  0.30322586  1
  Bi2+  Bi95  1  0.68995470  0.78212496  0.74195460  1
  Bi2+  Bi96  1  0.08780971  0.02800146  0.17400549  1
  Bi2+  Bi97  1  0.05953158  0.01217713  0.71034941  1
  Bi2+  Bi98  1  0.10198757  0.21982035  0.19839501  1
  Bi2+  Bi99  1  0.10531851  0.30087463  0.70937338  1
  Bi2+  Bi100  1  0.14953913  0.48089299  0.22025321  1
  Bi2+  Bi101  1  0.11601613  0.50419423  0.67671573  1
  Bi2+  Bi102  1  0.14271083  0.74844595  0.20003874  1
  Bi2+  Bi103  1  0.11513304  0.69342019  0.72429502  1
  Bi2+  Bi104  1  0.35532008  -0.03396116  0.20842168  1
  Bi2+  Bi105  1  0.42273933  -0.00600493  0.71491707  1
  Bi2+  Bi106  1  0.29590599  0.25107428  0.20527842  1
  Bi2+  Bi107  1  0.36657929  0.25349799  0.71354796  1
  Bi2+  Bi108  1  0.46110102  0.45730119  0.19898130  1
  Bi2+  Bi109  1  0.31273112  0.48708738  0.70162308  1
  Bi2+  Bi110  1  0.39555477  0.70634447  0.21933815  1
  Bi2+  Bi111  1  0.36342162  0.75209822  0.70257721  1
  Bi2+  Bi112  1  0.63426575  0.00263699  0.21527714  1
  Bi2+  Bi113  1  0.65708094  -0.00046148  0.73323062  1
  Bi2+  Bi114  1  0.64151941  0.27052650  0.21291925  1
  Bi2+  Bi115  1  0.60301954  0.20244217  0.71689663  1
  Bi2+  Bi116  1  0.63014504  0.56176931  0.18629363  1
  Bi2+  Bi117  1  0.51324424  0.45370136  0.69099099  1
  Bi2+  Bi118  1  0.66651686  0.75290304  0.19844418  1
  Bi2+  Bi119  1  0.60946789  0.62532721  0.69243537  1
  Bi2+  Bi120  1  0.82525152  -0.03219250  0.24174936  1
  Bi2+  Bi121  1  0.83347082  0.00406752  0.69280377  1
  Bi2+  Bi122  1  0.90268223  0.21970614  0.20657518  1
  Bi2+  Bi123  1  0.84720329  0.27719961  0.71894250  1
  Bi2+  Bi124  1  0.87640402  0.44919617  0.20758694  1
  Bi2+  Bi125  1  0.85049308  0.49124725  0.72601198  1
  Bi2+  Bi126  1  0.86765441  0.71629636  0.21398928  1
  Bi2+  Bi127  1  0.87442435  0.72616558  0.71192950  1
  S2-  S128  1  -0.11420494  0.11473224  0.13411779  1
  S2-  S129  1  0.11243332  0.12124926  0.64420553  1
  S2-  S130  1  -0.03262352  0.35106927  0.14119408  1
  S2-  S131  1  -0.09048269  0.38926563  0.64671318  1
  S2-  S132  1  0.13381674  0.60544059  0.14593510  1
  S2-  S133  1  -0.01226063  0.63173500  0.65695429  1
  S2-  S134  1  -0.00271308  0.77148173  0.14941332  1
  S2-  S135  1  0.07044142  0.88938511  0.64190414  1
  S2-  S136  1  0.33931974  0.10980852  0.14756362  1
  S2-  S137  1  0.36286094  0.12105740  0.65603583  1
  S2-  S138  1  0.24380018  0.38720940  0.14886663  1
  S2-  S139  1  0.24329457  0.29706551  0.64642569  1
  S2-  S140  1  0.36936978  0.59106172  0.14729324  1
  S2-  S141  1  0.21734142  0.73547887  0.64648336  1
  S2-  S142  1  0.27103282  0.84759352  0.15199949  1
  S2-  S143  1  0.28400517  0.92291236  0.68916962  1
  S2-  S144  1  0.52026432  0.13333490  0.22669353  1
  S2-  S145  1  0.54902867  0.00823310  0.64594764  1
  S2-  S146  1  0.50296482  0.30425189  0.14715897  1
  S2-  S147  1  0.49643186  0.28704931  0.64460183  1
  S2-  S148  1  0.51178116  0.75010241  0.14957663  1
  S2-  S149  1  0.37812318  0.61998553  0.64435123  1
  S2-  S150  1  0.50631068  0.96364020  0.15449211  1
  S2-  S151  1  0.49062052  0.79256399  0.65222401  1
  S2-  S152  1  0.67491870  0.12620764  0.15054714  1
  S2-  S153  1  0.89103550  0.14209682  0.64782325  1
  S2-  S154  1  0.74028785  0.36530120  0.16166629  1
  S2-  S155  1  0.72105641  0.26996387  0.65262066  1
  S2-  S156  1  0.86867892  0.59052759  0.14346370  1
  S2-  S157  1  0.74338078  0.52748607  0.65059205  1
  S2-  S158  1  0.75595290  0.89979858  0.15560634  1
  S2-  S159  1  0.75074254  0.78940013  0.64333711  1
  S2-  S160  1  0.13815195  0.12933453  0.35696326  1
  S2-  S161  1  0.15969098  0.04813357  0.83162745  1
  S2-  S162  1  0.13463758  0.35216518  0.34676788  1
  S2-  S163  1  0.03978898  0.23887804  0.85157071  1
  S2-  S164  1  0.13194847  0.65982178  0.34336215  1
  S2-  S165  1  0.12119513  0.60649283  0.86121292  1
  S2-  S166  1  0.11391854  0.89370622  0.35279870  1
  S2-  S167  1  0.12831389  0.84262220  0.85199526  1
  S2-  S168  1  0.38812702  -0.02919754  0.35155297  1
  S2-  S169  1  0.38356140  -0.00560015  0.83707011  1
  S2-  S170  1  0.37063739  0.22755827  0.34043508  1
  S2-  S171  1  0.36740635  0.21798254  0.84016415  1
  S2-  S172  1  0.29826100  0.50304561  0.35383867  1
  S2-  S173  1  0.38655563  0.58276306  0.85494868  1
  S2-  S174  1  0.36003801  0.74428136  0.34253956  1
  S2-  S175  1  0.34726094  0.78986651  0.81877110  1
  S2-  S176  1  0.61721775  -0.09479125  0.35814320  1
  S2-  S177  1  0.62889098  -0.02516063  0.83798226  1
  S2-  S178  1  0.62437205  0.15257995  0.36225807  1
  S2-  S179  1  0.60522289  0.23522770  0.84347142  1
  S2-  S180  1  0.73787477  0.51623806  0.36768207  1
  S2-  S181  1  0.63343961  0.50482114  0.84830486  1
  S2-  S182  1  0.59307989  0.70180157  0.34054444  1
  S2-  S183  1  0.55045354  0.73662861  0.85949417  1
  S2-  S184  1  0.82139598  0.01874259  0.34568344  1
  S2-  S185  1  0.87947186  0.08361411  0.84850631  1
  S2-  S186  1  0.86824061  0.27660662  0.34870824  1
  S2-  S187  1  0.82230374  0.29957009  0.82560346  1
  S2-  S188  1  0.97224394  0.51221608  0.34852291  1
  S2-  S189  1  0.87893197  0.59656473  0.86122329  1
  S2-  S190  1  0.87787362  0.75147266  0.34392273  1
  S2-  S191  1  0.87599822  0.84974472  0.85651063  1
  S2-  S192  1  -0.00311895  0.13887294  0.45777430  1
  S2-  S193  1  0.01100497  0.10357171  0.95119740  1
  S2-  S194  1  0.00176364  0.39337344  0.45476721  1
  S2-  S195  1  0.00573680  0.36929548  0.94268601  1
  S2-  S196  1  0.00112884  0.63752825  0.44994783  1
  S2-  S197  1  0.00466038  0.60779161  0.96512967  1
  S2-  S198  1  -0.00565569  0.88836433  0.44965264  1
  S2-  S199  1  0.00791882  0.85700269  0.95757571  1
  S2-  S200  1  0.25133979  0.14015799  0.46254967  1
  S2-  S201  1  0.25799940  0.10931411  0.95093412  1
  S2-  S202  1  0.24863833  0.39001037  0.45645082  1
  S2-  S203  1  0.25593610  0.36136223  0.94581122  1
  S2-  S204  1  0.24928653  0.63766016  0.45642464  1
  S2-  S205  1  0.26127030  0.61118478  0.95891507  1
  S2-  S206  1  0.24987836  0.88930652  0.45133211  1
  S2-  S207  1  0.26644306  0.85574856  0.94711954  1
  S2-  S208  1  0.49801602  0.14132485  0.46579605  1
  S2-  S209  1  0.50651491  0.11348971  0.94561160  1
  S2-  S210  1  0.50303205  0.39068762  0.45123626  1
  S2-  S211  1  0.50703262  0.36031041  0.94856484  1
  S2-  S212  1  0.49828256  0.63832007  0.45973100  1
  S2-  S213  1  0.50661207  0.60770183  0.96457398  1
  S2-  S214  1  0.49829998  0.89128783  0.46371002  1
  S2-  S215  1  0.50550464  0.85967873  0.95897817  1
  S2-  S216  1  0.75435061  0.14450704  0.46426377  1
  S2-  S217  1  0.75631685  0.11007550  0.95368535  1
  S2-  S218  1  0.74929097  0.38860345  0.46601046  1
  S2-  S219  1  0.75798794  0.36360545  0.95045287  1
  S2-  S220  1  0.74771947  0.64526440  0.46352683  1
  S2-  S221  1  0.75132522  0.60991309  0.96141921  1
  S2-  S222  1  0.75347601  0.88896769  0.45756938  1
  S2-  S223  1  0.74769953  0.85495688  0.95312232  1
  S2-  S224  1  0.13523813  -0.01426634  0.03928439  1
  S2-  S225  1  0.12477622  0.01305628  0.53893441  1
  S2-  S226  1  0.13245314  0.23340662  0.04273396  1
  S2-  S227  1  0.11787684  0.26742266  0.54398643  1
  S2-  S228  1  0.13169415  0.48347927  0.04244166  1
  S2-  S229  1  0.12981967  0.51384002  0.55734044  1
  S2-  S230  1  0.13406365  0.73872039  0.04277119  1
  S2-  S231  1  0.12639108  0.76742477  0.53643123  1
  S2-  S232  1  0.38185553  -0.01418849  0.04331467  1
  S2-  S233  1  0.36447779  0.00571379  0.55662257  1
  S2-  S234  1  0.38319151  0.23561500  0.04403416  1
  S2-  S235  1  0.37385504  0.26675891  0.54568293  1
  S2-  S236  1  0.38323369  0.48030936  0.04322473  1
  S2-  S237  1  0.37804859  0.51033179  0.54594029  1
  S2-  S238  1  0.38256535  0.73611266  0.04399691  1
  S2-  S239  1  0.37052943  0.77128209  0.54912007  1
  S2-  S240  1  0.63223438  -0.01064648  0.04693088  1
  S2-  S241  1  0.63401346  0.01780005  0.54360416  1
  S2-  S242  1  0.63073264  0.23451851  0.04629105  1
  S2-  S243  1  0.62549183  0.26458058  0.54564827  1
  S2-  S244  1  0.62964860  0.48255256  0.05267323  1
  S2-  S245  1  0.61745375  0.51935523  0.55091079  1
  S2-  S246  1  0.63193195  0.73499355  0.05067819  1
  S2-  S247  1  0.61976029  0.76667286  0.54578955  1
  S2-  S248  1  0.87998941  -0.01819954  0.03841796  1
  S2-  S249  1  0.87523768  0.01242312  0.54884512  1
  S2-  S250  1  0.88310484  0.23574030  0.03081461  1
  S2-  S251  1  0.87779855  0.26560393  0.54905299  1
  S2-  S252  1  0.88132669  0.48339660  0.04140858  1
  S2-  S253  1  0.87504152  0.51954104  0.54312330  1
  S2-  S254  1  0.87565144  0.73827116  0.04494875  1
  S2-  S255  1  0.87969156  0.76654648  0.54752017  1
