# generated using pymatgen
data_La9Ce10Pr6Nd4Sm3(BiS2)32
_symmetry_space_group_name_H-M   'P 1'
_cell_length_a   16.10855704
_cell_length_b   16.11732169
_cell_length_c   27.27893087
_cell_angle_alpha   89.86559913
_cell_angle_beta   89.83790588
_cell_angle_gamma   90.13024830
_symmetry_Int_Tables_number   1
_chemical_formula_structural   La9Ce10Pr6Nd4Sm3(BiS2)32
_chemical_formula_sum   'La18 Ce20 Pr12 Nd8 Sm6 Bi64 S128'
_cell_volume   7082.27517820
_cell_formula_units_Z   2
loop_
 _symmetry_equiv_pos_site_id
 _symmetry_equiv_pos_as_xyz
  1  'x, y, z'
loop_
 _atom_type_symbol
 _atom_type_oxidation_number
  La3+  3.0
  Ce3+  3.0
  Pr3+  3.0
  Nd3+  3.0
  Sm3+  3.0
  Bi2+  2.0
  S2-  -2.0
loop_
 _atom_site_type_symbol
 _atom_site_label
 _atom_site_symmetry_multiplicity
 _atom_site_fract_x
 _atom_site_fract_y
 _atom_site_fract_z
 _atom_site_occupancy
  La3+  La0  1  0.88062799  0.51272992  0.41763497  1
  La3+  La1  1  0.47974701  0.85108853  0.08371944  1
  La3+  La2  1  0.25555981  0.88570144  0.56497839  1
  La3+  La3  1  0.13816190  0.75684761  0.43154875  1
  La3+  La4  1  0.48819176  0.36183531  0.07548762  1
  La3+  La5  1  0.62220653  0.49782058  0.92424647  1
  La3+  La6  1  0.13269424  0.25267788  0.42441702  1
  La3+  La7  1  0.50670072  0.88107768  0.57353986  1
  La3+  La8  1  0.87564474  0.26120126  0.42144503  1
  La3+  La9  1  0.73443722  0.61409284  0.07741718  1
  La3+  La10  1  0.50565747  0.37611115  0.60996684  1
  La3+  La11  1  0.24536150  0.63710279  0.58837153  1
  La3+  La12  1  0.23643768  0.36115808  0.06941586  1
  La3+  La13  1  0.61405544  0.23610181  0.93871090  1
  La3+  La14  1  0.11128380  0.48640690  0.91939368  1
  La3+  La15  1  0.63078987  0.51063614  0.43901508  1
  La3+  La16  1  0.62661107  0.00724351  0.43358960  1
  La3+  La17  1  0.85482849  -0.01723690  0.90176762  1
  Ce3+  Ce18  1  0.00962765  0.38409054  0.55427089  1
  Ce3+  Ce19  1  0.23634086  0.11985054  0.05466974  1
  Ce3+  Ce20  1  0.50375185  0.63091229  0.57055400  1
  Ce3+  Ce21  1  0.38440792  0.00830098  0.42996314  1
  Ce3+  Ce22  1  -0.00848492  0.61179128  0.04936767  1
  Ce3+  Ce23  1  0.11353288  0.23762299  0.93358924  1
  Ce3+  Ce24  1  0.00528660  0.63375597  0.55386287  1
  Ce3+  Ce25  1  0.12733216  0.00925185  0.44483491  1
  Ce3+  Ce26  1  0.36618134  -0.01630238  0.95141583  1
  Ce3+  Ce27  1  0.23128697  0.86023591  0.06585808  1
  Ce3+  Ce28  1  0.75561419  0.13406220  0.55771989  1
  Ce3+  Ce29  1  0.75474249  0.38402243  0.56096417  1
  Ce3+  Ce30  1  0.75686529  0.88432008  0.55519882  1
  Ce3+  Ce31  1  -0.01594900  0.11577410  0.05254449  1
  Ce3+  Ce32  1  0.11004822  -0.01194754  0.93867382  1
  Ce3+  Ce33  1  0.50270999  0.13500980  0.55756948  1
  Ce3+  Ce34  1  0.73636299  0.86520338  0.05596287  1
  Ce3+  Ce35  1  0.62976889  0.26278120  0.44414787  1
  Ce3+  Ce36  1  0.60093772  -0.01332552  0.93448026  1
  Ce3+  Ce37  1  0.00072449  0.88295723  0.55599531  1
  Pr3+  Pr38  1  0.36105805  0.48092277  0.92418665  1
  Pr3+  Pr39  1  0.37898359  0.26088231  0.43596597  1
  Pr3+  Pr40  1  -0.01170162  0.86227546  0.06560033  1
  Pr3+  Pr41  1  0.85987653  0.23490830  0.92568701  1
  Pr3+  Pr42  1  0.63081529  0.75791983  0.43972747  1
  Pr3+  Pr43  1  0.36290269  0.73344106  0.93064974  1
  Pr3+  Pr44  1  0.75640670  0.63025049  0.56322403  1
  Pr3+  Pr45  1  0.25927042  0.13595133  0.56099649  1
  Pr3+  Pr46  1  0.85920734  0.74176545  0.94153515  1
  Pr3+  Pr47  1  0.38148953  0.75758514  0.44456428  1
  Pr3+  Pr48  1  0.73711633  0.11063013  0.05832411  1
  Pr3+  Pr49  1  0.23097473  0.60945316  0.05280000  1
  Nd3+  Nd50  1  0.86206345  0.48762693  0.94588973  1
  Nd3+  Nd51  1  0.13942229  0.50775094  0.43410702  1
  Nd3+  Nd52  1  0.00463399  0.13565507  0.56009263  1
  Nd3+  Nd53  1  0.48989738  0.10576764  0.07582881  1
  Nd3+  Nd54  1  0.87734162  0.76222005  0.41885103  1
  Nd3+  Nd55  1  0.87491061  0.01216586  0.41955824  1
  Nd3+  Nd56  1  0.73547608  0.36238181  0.06711663  1
  Nd3+  Nd57  1  0.11651821  0.74955115  0.91727869  1
  Sm3+  Sm58  1  0.37369479  0.23628476  0.93636426  1
  Sm3+  Sm59  1  0.24811359  0.38394407  0.56796935  1
  Sm3+  Sm60  1  0.37546254  0.50790880  0.45300751  1
  Sm3+  Sm61  1  -0.01817259  0.35661663  0.06861274  1
  Sm3+  Sm62  1  0.61117493  0.74051080  0.94646940  1
  Sm3+  Sm63  1  0.48064638  0.61070823  0.05786072  1
  Bi2+  Bi64  1  0.01251688  0.09822284  0.26983671  1
  Bi2+  Bi65  1  0.07930017  0.10542833  0.81414401  1
  Bi2+  Bi66  1  -0.04255705  0.35606112  0.25820358  1
  Bi2+  Bi67  1  -0.04212987  0.35504342  0.78083020  1
  Bi2+  Bi68  1  -0.01868635  0.71450118  0.26056280  1
  Bi2+  Bi69  1  -0.03806499  0.56717593  0.78750113  1
  Bi2+  Bi70  1  0.06804228  0.91664993  0.30082702  1
  Bi2+  Bi71  1  0.01725065  0.90044369  0.76565469  1
  Bi2+  Bi72  1  0.27608851  0.13051182  0.29069155  1
  Bi2+  Bi73  1  0.26986214  0.13291809  0.79983831  1
  Bi2+  Bi74  1  0.18959304  0.39434179  0.30465519  1
  Bi2+  Bi75  1  0.22990110  0.33215819  0.79579087  1
  Bi2+  Bi76  1  0.21284135  0.62234048  0.30773117  1
  Bi2+  Bi77  1  0.24346789  0.63237132  0.79926448  1
  Bi2+  Bi78  1  0.28235497  0.93050705  0.28726800  1
  Bi2+  Bi79  1  0.29636473  0.94635400  0.75034163  1
  Bi2+  Bi80  1  0.48110934  0.13453901  0.30792925  1
  Bi2+  Bi81  1  0.46804924  0.07012340  0.78958137  1
  Bi2+  Bi82  1  0.47704355  0.33694736  0.29550636  1
  Bi2+  Bi83  1  0.52233864  0.31379207  0.80656872  1
  Bi2+  Bi84  1  0.51232052  0.61671648  0.30402588  1
  Bi2+  Bi85  1  0.49854657  0.66597406  0.78322854  1
  Bi2+  Bi86  1  0.56076760  0.81219117  0.31476403  1
  Bi2+  Bi87  1  0.54270120  0.85054116  0.80278704  1
  Bi2+  Bi88  1  0.75829904  0.14097074  0.29141462  1
  Bi2+  Bi89  1  0.77054865  0.14369464  0.78407716  1
  Bi2+  Bi90  1  0.74161601  0.39248812  0.28590005  1
  Bi2+  Bi91  1  0.76134754  0.38703513  0.78793991  1
  Bi2+  Bi92  1  0.77233074  0.63764636  0.28160582  1
  Bi2+  Bi93  1  0.77926032  0.66818057  0.81033173  1
  Bi2+  Bi94  1  0.78246789  0.88562693  0.28334825  1
  Bi2+  Bi95  1  0.74502681  0.89992907  0.78098344  1
  Bi2+  Bi96  1  0.14737259  -0.00145542  0.20723050  1
  Bi2+  Bi97  1  0.13265781  0.02850416  0.70873779  1
  Bi2+  Bi98  1  0.10661224  0.25847967  0.20112401  1
  Bi2+  Bi99  1  0.04816397  0.21332693  0.71863721  1
  Bi2+  Bi100  1  0.13605888  0.52992909  0.19931446  1
  Bi2+  Bi101  1  0.08147160  0.48575925  0.70936369  1
  Bi2+  Bi102  1  0.21637041  0.77318867  0.20077352  1
  Bi2+  Bi103  1  0.10986282  0.75235843  0.71127258  1
  Bi2+  Bi104  1  0.40255241  0.03830877  0.22099683  1
  Bi2+  Bi105  1  0.37892746  0.01204805  0.64972329  1
  Bi2+  Bi106  1  0.34558852  0.28991500  0.20978190  1
  Bi2+  Bi107  1  0.34537132  0.19682014  0.69565386  1
  Bi2+  Bi108  1  0.40237001  0.49215427  0.23629258  1
  Bi2+  Bi109  1  0.37147607  0.47144957  0.72600342  1
  Bi2+  Bi110  1  0.39435583  0.76566286  0.26641278  1
  Bi2+  Bi111  1  0.37727789  0.77632374  0.71757872  1
  Bi2+  Bi112  1  0.66604958  -0.01130089  0.20358190  1
  Bi2+  Bi113  1  0.55270451  -0.04378651  0.69859162  1
  Bi2+  Bi114  1  0.59153389  0.24919228  0.21674864  1
  Bi2+  Bi115  1  0.61355375  0.13960583  0.72051982  1
  Bi2+  Bi116  1  0.59599099  0.48792072  0.22265480  1
  Bi2+  Bi117  1  0.62450456  0.50579511  0.71864994  1
  Bi2+  Bi118  1  0.60650491  0.72653244  0.20995331  1
  Bi2+  Bi119  1  0.64435569  0.77037700  0.70730373  1
  Bi2+  Bi120  1  0.87067269  0.01291016  0.20445127  1
  Bi2+  Bi121  1  0.83704996  0.01317809  0.70190141  1
  Bi2+  Bi122  1  0.84127175  0.23256084  0.19366473  1
  Bi2+  Bi123  1  0.84656195  0.36281077  0.68508423  1
  Bi2+  Bi124  1  0.94041564  0.53755607  0.21906953  1
  Bi2+  Bi125  1  0.87528724  0.55816810  0.68159577  1
  Bi2+  Bi126  1  0.88388655  0.82153619  0.18838140  1
  Bi2+  Bi127  1  0.91248072  0.74224191  0.72260819  1
  S2-  S128  1  -0.01337886  0.19661454  0.13829450  1
  S2-  S129  1  -0.03270494  0.10340036  0.65726599  1
  S2-  S130  1  0.10344404  0.38631747  0.13996376  1
  S2-  S131  1  0.10915992  0.38400404  0.63673137  1
  S2-  S132  1  0.02036785  0.62911103  0.14541746  1
  S2-  S133  1  0.08642257  0.62215655  0.64204154  1
  S2-  S134  1  0.10801868  0.86139486  0.14138525  1
  S2-  S135  1  0.00040417  0.85288124  0.65307961  1
  S2-  S136  1  0.23358533  0.20906372  0.13987425  1
  S2-  S137  1  0.19118565  0.17074466  0.65316140  1
  S2-  S138  1  0.35916323  0.41151153  0.14453083  1
  S2-  S139  1  0.33596902  0.36526270  0.65393432  1
  S2-  S140  1  0.25306918  0.61854071  0.15526530  1
  S2-  S141  1  0.28797419  0.58874229  0.68949158  1
  S2-  S142  1  0.32943849  0.84792416  0.14679112  1
  S2-  S143  1  0.24212701  0.78921318  0.64987518  1
  S2-  S144  1  0.47202208  0.22430086  0.14946375  1
  S2-  S145  1  0.50355823  0.20420689  0.64695472  1
  S2-  S146  1  0.62265702  0.37578273  0.14854952  1
  S2-  S147  1  0.51794296  0.37094750  0.71792192  1
  S2-  S148  1  0.49340997  0.69871244  0.14440770  1
  S2-  S149  1  0.50234623  0.53846597  0.65553523  1
  S2-  S150  1  0.51460796  0.98258663  0.15154994  1
  S2-  S151  1  0.49745112  0.75405835  0.64700480  1
  S2-  S152  1  0.69323276  0.13986792  0.15615296  1
  S2-  S153  1  0.75149373  0.14523121  0.65645168  1
  S2-  S154  1  0.85774770  0.36881571  0.14158632  1
  S2-  S155  1  0.67869857  0.38662766  0.64961379  1
  S2-  S156  1  0.72455242  0.59866778  0.17900573  1
  S2-  S157  1  0.71481202  0.62629683  0.66231231  1
  S2-  S158  1  0.70797970  0.83852540  0.15172604  1
  S2-  S159  1  0.75170995  0.88030119  0.65300441  1
  S2-  S160  1  0.12394615  0.06875895  0.35397329  1
  S2-  S161  1  0.08337341  -0.10431879  0.85710517  1
  S2-  S162  1  0.06888913  0.29006636  0.32962963  1
  S2-  S163  1  0.09093860  0.33867920  0.85468477  1
  S2-  S164  1  0.08573122  0.51398866  0.33661396  1
  S2-  S165  1  0.23633581  0.48162254  0.84383712  1
  S2-  S166  1  0.09634623  0.74752703  0.33273723  1
  S2-  S167  1  0.08883724  0.62778635  0.84387079  1
  S2-  S168  1  0.50054711  -0.01794183  0.35726793  1
  S2-  S169  1  0.46168733  -0.04141331  0.86934468  1
  S2-  S170  1  0.27321328  0.26456844  0.35494764  1
  S2-  S171  1  0.37080282  0.34069764  0.85297920  1
  S2-  S172  1  0.29025029  0.50334304  0.36531425  1
  S2-  S173  1  0.39522358  0.61168319  0.85163110  1
  S2-  S174  1  0.29727030  0.74005694  0.35708275  1
  S2-  S175  1  0.25558389  0.76612743  0.85072956  1
  S2-  S176  1  0.72957486  0.01226434  0.35035494  1
  S2-  S177  1  0.69839835  0.01391096  0.84955255  1
  S2-  S178  1  0.69787212  0.26763498  0.35382160  1
  S2-  S179  1  0.50017351  0.17469783  0.86808794  1
  S2-  S180  1  0.71610738  0.51991013  0.35002728  1
  S2-  S181  1  0.57511541  0.45831070  0.82885391  1
  S2-  S182  1  0.72491441  0.75870642  0.35271410  1
  S2-  S183  1  0.63557923  0.66720910  0.85724593  1
  S2-  S184  1  0.91115025  -0.11055204  0.34887064  1
  S2-  S185  1  0.90240699  0.12583441  0.84342078  1
  S2-  S186  1  0.89494326  0.13953246  0.34640452  1
  S2-  S187  1  0.72569193  0.26068606  0.85576821  1
  S2-  S188  1  0.87867365  0.38581202  0.34665560  1
  S2-  S189  1  0.78021695  0.51059279  0.85831131  1
  S2-  S190  1  0.89676310  0.64105847  0.34433009  1
  S2-  S191  1  0.85229159  0.82196091  0.85085375  1
  S2-  S192  1  0.00123302  0.13268708  0.45371576  1
  S2-  S193  1  -0.01488718  0.10921097  0.95011392  1
  S2-  S194  1  0.00808510  0.38476424  0.44941299  1
  S2-  S195  1  -0.02157978  0.36007842  0.95547484  1
  S2-  S196  1  0.00751043  0.63495152  0.44951950  1
  S2-  S197  1  -0.01635246  0.61729365  0.94586632  1
  S2-  S198  1  0.00640912  0.88205384  0.45208385  1
  S2-  S199  1  -0.02474593  0.87409188  0.95928393  1
  S2-  S200  1  0.25946859  0.12762037  0.45388627  1
  S2-  S201  1  0.24267096  0.11243207  0.94753914  1
  S2-  S202  1  0.25486330  0.38145019  0.46306338  1
  S2-  S203  1  0.23878169  0.35497642  0.95552427  1
  S2-  S204  1  0.25660600  0.63344742  0.46621242  1
  S2-  S205  1  0.23286545  0.61328453  0.94773403  1
  S2-  S206  1  0.25762479  0.88875976  0.45355443  1
  S2-  S207  1  0.23752285  0.86792054  0.95828014  1
  S2-  S208  1  0.50474946  0.13746966  0.45145005  1
  S2-  S209  1  0.48550426  0.10590775  0.97193129  1
  S2-  S210  1  0.50157017  0.38829556  0.43892835  1
  S2-  S211  1  0.49422038  0.36658610  0.95568181  1
  S2-  S212  1  0.50261997  0.63177980  0.45666052  1
  S2-  S213  1  0.49361357  0.61270744  0.95637717  1
  S2-  S214  1  0.50559336  0.87943287  0.46351784  1
  S2-  S215  1  0.48503795  0.85360666  0.96851727  1
  S2-  S216  1  0.75281965  0.13601451  0.45436558  1
  S2-  S217  1  0.74135398  0.10465676  0.95295315  1
  S2-  S218  1  0.75606133  0.38651467  0.45675337  1
  S2-  S219  1  0.73692715  0.36849344  0.96060413  1
  S2-  S220  1  0.75999406  0.63590301  0.45665042  1
  S2-  S221  1  0.73867365  0.61824283  0.96738551  1
  S2-  S222  1  0.75684535  0.88449046  0.45233754  1
  S2-  S223  1  0.73217638  0.86591042  0.95137442  1
  S2-  S224  1  0.11140777  -0.00506616  0.04416787  1
  S2-  S225  1  0.12890322  0.00987209  0.55203438  1
  S2-  S226  1  0.10794039  0.23892085  0.03651803  1
  S2-  S227  1  0.13021679  0.25464298  0.53623221  1
  S2-  S228  1  0.10702957  0.48452742  0.03345670  1
  S2-  S229  1  0.13149799  0.51059983  0.54061933  1
  S2-  S230  1  0.10962769  0.73884095  0.03313924  1
  S2-  S231  1  0.12741378  0.76228296  0.54114147  1
  S2-  S232  1  0.35574864  -0.00937855  0.05476115  1
  S2-  S233  1  0.38291400  0.00775802  0.53670715  1
  S2-  S234  1  0.36486593  0.23785744  0.04097846  1
  S2-  S235  1  0.38114975  0.26316233  0.54333551  1
  S2-  S236  1  0.36093144  0.49099379  0.03600372  1
  S2-  S237  1  0.37206954  0.51010584  0.55482422  1
  S2-  S238  1  0.35620234  0.73171903  0.03981110  1
  S2-  S239  1  0.37633174  0.75643280  0.54945682  1
  S2-  S240  1  0.61297825  -0.01579019  0.04381019  1
  S2-  S241  1  0.62904103  0.00937557  0.54757903  1
  S2-  S242  1  0.61372082  0.23556013  0.04589886  1
  S2-  S243  1  0.62852717  0.26048616  0.54753821  1
  S2-  S244  1  0.61026916  0.49442776  0.04928037  1
  S2-  S245  1  0.62725432  0.50721194  0.54604874  1
  S2-  S246  1  0.61340960  0.73628865  0.04866774  1
  S2-  S247  1  0.63294674  0.75637182  0.54637069  1
  S2-  S248  1  0.86361242  -0.01251537  0.05956908  1
  S2-  S249  1  0.87956402  0.00963539  0.54206830  1
  S2-  S250  1  0.85789315  0.23655605  0.03667976  1
  S2-  S251  1  0.88109634  0.25975708  0.54583978  1
  S2-  S252  1  0.86297351  0.49287932  0.04974632  1
  S2-  S253  1  0.88267702  0.50681347  0.54366966  1
  S2-  S254  1  0.86284802  0.73686776  0.04985658  1
  S2-  S255  1  0.87888182  0.75714972  0.54670118  1
