# generated using pymatgen
data_La9Ce10Pr6Nd4Sm3(BiS2)32
_symmetry_space_group_name_H-M   'P 1'
_cell_length_a   16.18110048
_cell_length_b   16.20860598
_cell_length_c   27.11792430
_cell_angle_alpha   89.82777660
_cell_angle_beta   90.39500389
_cell_angle_gamma   90.03388302
_symmetry_Int_Tables_number   1
_chemical_formula_structural   La9Ce10Pr6Nd4Sm3(BiS2)32
_chemical_formula_sum   'La18 Ce20 Pr12 Nd8 Sm6 Bi64 S128'
_cell_volume   7112.09927817
_cell_formula_units_Z   2
loop_
 _symmetry_equiv_pos_site_id
 _symmetry_equiv_pos_as_xyz
  1  'x, y, z'
loop_
 _atom_type_symbol
 _atom_type_oxidation_number
  La3+  3.0
  Ce3+  3.0
  Pr3+  3.0
  Nd3+  3.0
  Sm3+  3.0
  Bi2+  2.0
  S2-  -2.0
loop_
 _atom_site_type_symbol
 _atom_site_label
 _atom_site_symmetry_multiplicity
 _atom_site_fract_x
 _atom_site_fract_y
 _atom_site_fract_z
 _atom_site_occupancy
  La3+  La0  1  0.01328150  0.62302642  0.06695186  1
  La3+  La1  1  0.23932473  0.87947897  0.57457882  1
  La3+  La2  1  0.01591725  0.12507198  0.07742502  1
  La3+  La3  1  0.51114879  0.86923162  0.06871151  1
  La3+  La4  1  0.12406214  0.00063039  0.40782237  1
  La3+  La5  1  0.22905237  0.38446886  0.56794071  1
  La3+  La6  1  0.23869597  0.13534291  0.56676687  1
  La3+  La7  1  0.10076432  0.50725325  0.42956449  1
  La3+  La8  1  -0.01706222  0.63517555  0.58318587  1
  La3+  La9  1  0.10652350  0.75475859  0.42840015  1
  La3+  La10  1  0.13375822  0.75227954  0.90548212  1
  La3+  La11  1  0.48673784  0.13437443  0.57419980  1
  La3+  La12  1  0.88203242  0.76213738  0.91976444  1
  La3+  La13  1  0.01074709  0.37977521  0.07342549  1
  La3+  La14  1  -0.01458204  0.37225153  0.57443924  1
  La3+  La15  1  0.75773862  0.62987165  0.05531545  1
  La3+  La16  1  0.00432751  0.86705418  0.06794672  1
  La3+  La17  1  0.74873407  0.12242717  0.08279671  1
  Ce3+  Ce18  1  0.48993977  0.87838447  0.55955473  1
  Ce3+  Ce19  1  0.12888201  -0.00017557  0.94261757  1
  Ce3+  Ce20  1  0.75498028  0.87758613  0.04896157  1
  Ce3+  Ce21  1  0.25676346  0.12783609  0.05785078  1
  Ce3+  Ce22  1  0.62878858  0.01426154  0.93410952  1
  Ce3+  Ce23  1  0.36071131  0.50531253  0.44742582  1
  Ce3+  Ce24  1  -0.01051033  0.88009688  0.55965894  1
  Ce3+  Ce25  1  0.12832894  0.26002406  0.93363578  1
  Ce3+  Ce26  1  0.86130880  0.75490655  0.43941055  1
  Ce3+  Ce27  1  0.73961335  0.13075544  0.55963882  1
  Ce3+  Ce28  1  0.38093106  0.50334262  0.94480496  1
  Ce3+  Ce29  1  0.35666276  0.25720244  0.43219190  1
  Ce3+  Ce30  1  0.63330430  0.25284861  0.94088354  1
  Ce3+  Ce31  1  0.61098622  0.75449767  0.44066596  1
  Ce3+  Ce32  1  0.73757318  0.63023912  0.56312241  1
  Ce3+  Ce33  1  0.75665780  0.37657921  0.05785150  1
  Ce3+  Ce34  1  0.37912233  0.25386761  0.93220722  1
  Ce3+  Ce35  1  0.88533968  0.50445097  0.93803415  1
  Ce3+  Ce36  1  -0.01083255  0.12800607  0.55220354  1
  Ce3+  Ce37  1  0.63087627  0.50186674  0.93870664  1
  Pr3+  Pr38  1  0.49076430  0.37861545  0.56513580  1
  Pr3+  Pr39  1  0.88472260  0.25008990  0.95054896  1
  Pr3+  Pr40  1  0.50582035  0.37455951  0.06009698  1
  Pr3+  Pr41  1  0.23368143  0.62972313  0.55969646  1
  Pr3+  Pr42  1  0.10995148  0.25667701  0.43187402  1
  Pr3+  Pr43  1  0.25834073  0.37448071  0.06304321  1
  Pr3+  Pr44  1  0.37952218  0.00209934  0.93876787  1
  Pr3+  Pr45  1  0.63056305  0.76023092  0.92222662  1
  Pr3+  Pr46  1  0.74078579  0.37202551  0.57231711  1
  Pr3+  Pr47  1  0.25715735  0.87527487  0.07075266  1
  Pr3+  Pr48  1  0.37892302  0.75401019  0.93689658  1
  Pr3+  Pr49  1  0.61088805  0.25543818  0.42912866  1
  Nd3+  Nd50  1  0.86116145  0.25366917  0.43056207  1
  Nd3+  Nd51  1  0.60958845  0.00672834  0.44574093  1
  Nd3+  Nd52  1  0.86167445  0.50494108  0.44404384  1
  Nd3+  Nd53  1  0.36146142  0.00631147  0.44378276  1
  Nd3+  Nd54  1  0.61002062  0.50446500  0.43771021  1
  Nd3+  Nd55  1  0.73829993  0.87865472  0.55770433  1
  Nd3+  Nd56  1  0.25561708  0.62610664  0.05986010  1
  Nd3+  Nd57  1  0.50234483  0.12399093  0.06378187  1
  Sm3+  Sm58  1  0.48959542  0.62864605  0.55721267  1
  Sm3+  Sm59  1  0.13069008  0.50404781  0.93276152  1
  Sm3+  Sm60  1  0.50961384  0.62952734  0.05564918  1
  Sm3+  Sm61  1  0.86272447  0.00547243  0.43889712  1
  Sm3+  Sm62  1  0.88282332  0.00427873  0.94953216  1
  Sm3+  Sm63  1  0.35854501  0.75793632  0.44417062  1
  Bi2+  Bi64  1  -0.05266300  0.16056382  0.28286440  1
  Bi2+  Bi65  1  -0.02194180  0.09321383  0.78189969  1
  Bi2+  Bi66  1  0.10997569  0.36581680  0.30856695  1
  Bi2+  Bi67  1  -0.01783997  0.33288308  0.81981086  1
  Bi2+  Bi68  1  -0.00978164  0.61900346  0.29823736  1
  Bi2+  Bi69  1  0.01276381  0.58619122  0.78401666  1
  Bi2+  Bi70  1  -0.00857061  0.88863962  0.29501868  1
  Bi2+  Bi71  1  0.00258633  0.87382323  0.78529343  1
  Bi2+  Bi72  1  0.27341254  0.13440109  0.28309659  1
  Bi2+  Bi73  1  0.16457153  0.09707424  0.74350419  1
  Bi2+  Bi74  1  0.30144049  0.32524742  0.24600627  1
  Bi2+  Bi75  1  0.31317473  0.35532847  0.78689022  1
  Bi2+  Bi76  1  0.22946452  0.52215683  0.29607202  1
  Bi2+  Bi77  1  0.28588174  0.62654018  0.79042452  1
  Bi2+  Bi78  1  0.27481935  0.87575200  0.28299191  1
  Bi2+  Bi79  1  0.24069710  0.89100249  0.78231811  1
  Bi2+  Bi80  1  0.47179238  0.11425967  0.28456416  1
  Bi2+  Bi81  1  0.48210833  0.08762282  0.81155488  1
  Bi2+  Bi82  1  0.48347833  0.38347491  0.29605802  1
  Bi2+  Bi83  1  0.52612354  0.34562533  0.78949826  1
  Bi2+  Bi84  1  0.58875552  0.61971809  0.30883331  1
  Bi2+  Bi85  1  0.49989389  0.61559609  0.79905567  1
  Bi2+  Bi86  1  0.53551434  0.92607786  0.29161008  1
  Bi2+  Bi87  1  0.53319506  0.80295163  0.80016848  1
  Bi2+  Bi88  1  0.72811062  0.13079794  0.28871156  1
  Bi2+  Bi89  1  0.73825318  0.14005527  0.78022010  1
  Bi2+  Bi90  1  0.70376161  0.34982770  0.26590148  1
  Bi2+  Bi91  1  0.73588502  0.33838179  0.78509660  1
  Bi2+  Bi92  1  0.78279444  0.64969715  0.30850596  1
  Bi2+  Bi93  1  0.69764667  0.61223854  0.78974314  1
  Bi2+  Bi94  1  0.74715861  0.84558806  0.28785161  1
  Bi2+  Bi95  1  0.78971380  0.88186403  0.78029566  1
  Bi2+  Bi96  1  0.12088893  0.02366016  0.21380705  1
  Bi2+  Bi97  1  0.03005721  -0.01329905  0.69012549  1
  Bi2+  Bi98  1  0.11445777  0.26480454  0.21332495  1
  Bi2+  Bi99  1  0.11510099  0.27225220  0.71009894  1
  Bi2+  Bi100  1  0.09217198  0.50113476  0.21188414  1
  Bi2+  Bi101  1  0.24160078  0.47462639  0.70676272  1
  Bi2+  Bi102  1  0.11909303  0.75974691  0.19454530  1
  Bi2+  Bi103  1  0.12529204  0.72748545  0.70041980  1
  Bi2+  Bi104  1  0.36535227  0.06297497  0.18893922  1
  Bi2+  Bi105  1  0.41760479  -0.01784145  0.71101771  1
  Bi2+  Bi106  1  0.37820326  0.24490269  0.14733449  1
  Bi2+  Bi107  1  0.35029312  0.20662074  0.71111117  1
  Bi2+  Bi108  1  0.35980020  0.49822278  0.20019636  1
  Bi2+  Bi109  1  0.43861387  0.46768988  0.71276330  1
  Bi2+  Bi110  1  0.39349283  0.64083051  0.27693030  1
  Bi2+  Bi111  1  0.40313985  0.74325123  0.72115785  1
  Bi2+  Bi112  1  0.62125426  -0.01293387  0.20003924  1
  Bi2+  Bi113  1  0.64610872  -0.01040526  0.72939374  1
  Bi2+  Bi114  1  0.54843391  0.25732064  0.21187824  1
  Bi2+  Bi115  1  0.61276178  0.33223198  0.68776575  1
  Bi2+  Bi116  1  0.54201015  0.56900577  0.19897209  1
  Bi2+  Bi117  1  0.62234437  0.52160058  0.66268724  1
  Bi2+  Bi118  1  0.66304975  0.74489233  0.20186584  1
  Bi2+  Bi119  1  0.62657915  0.71725663  0.70252672  1
  Bi2+  Bi120  1  0.84633589  -0.00079585  0.21074750  1
  Bi2+  Bi121  1  0.83385665  0.02519221  0.69654432  1
  Bi2+  Bi122  1  0.88205233  0.32458531  0.22272592  1
  Bi2+  Bi123  1  0.87018144  0.24057374  0.70124218  1
  Bi2+  Bi124  1  0.83070785  0.50572704  0.21398892  1
  Bi2+  Bi125  1  0.79567958  0.49308347  0.71937406  1
  Bi2+  Bi126  1  0.88771934  0.75444474  0.22802219  1
  Bi2+  Bi127  1  0.86068132  0.74435198  0.71065412  1
  S2-  S128  1  -0.02626573  0.09654234  0.17788861  1
  S2-  S129  1  -0.00105898  0.21033192  0.63906001  1
  S2-  S130  1  -0.03171596  0.50506646  0.14523181  1
  S2-  S131  1  0.10759146  0.40512963  0.64938944  1
  S2-  S132  1  -0.03247241  0.73376132  0.14042061  1
  S2-  S133  1  0.02984313  0.59529849  0.68695882  1
  S2-  S134  1  0.04851185  0.91075760  0.16528911  1
  S2-  S135  1  -0.01345998  0.79197858  0.64530295  1
  S2-  S136  1  0.16390752  0.13991042  0.14163118  1
  S2-  S137  1  0.30138583  0.06478491  0.65865082  1
  S2-  S138  1  0.14695794  0.38033419  0.14255175  1
  S2-  S139  1  0.24554811  0.26180773  0.64246093  1
  S2-  S140  1  0.16840110  0.62370219  0.14731980  1
  S2-  S141  1  0.23998806  0.63546318  0.66123574  1
  S2-  S142  1  0.25511875  0.84618051  0.17487423  1
  S2-  S143  1  0.23963653  0.85659286  0.67601236  1
  S2-  S144  1  0.60178941  0.12956436  0.14606473  1
  S2-  S145  1  0.53670985  0.07566945  0.67222942  1
  S2-  S146  1  0.52683087  0.41331078  0.15886281  1
  S2-  S147  1  0.46556368  0.26705856  0.64262725  1
  S2-  S148  1  0.52582004  0.72411876  0.13834887  1
  S2-  S149  1  0.47214673  0.63369219  0.65534023  1
  S2-  S150  1  0.47480414  0.93937022  0.15934103  1
  S2-  S151  1  0.48618336  0.86018541  0.65686263  1
  S2-  S152  1  0.78479203  0.14192434  0.18600463  1
  S2-  S153  1  0.72878669  0.22702407  0.63980390  1
  S2-  S154  1  0.75334843  0.37440371  0.15654858  1
  S2-  S155  1  0.86500955  0.38957166  0.64999329  1
  S2-  S156  1  0.74562917  0.61697888  0.15649357  1
  S2-  S157  1  0.83394118  0.62274847  0.64634353  1
  S2-  S158  1  0.74490991  0.89141308  0.14728010  1
  S2-  S159  1  0.73464763  0.82031504  0.65294635  1
  S2-  S160  1  0.06301102  0.05219090  0.31436404  1
  S2-  S161  1  0.13461153  -0.08403523  0.85441020  1
  S2-  S162  1  0.23174360  0.25432720  0.35705671  1
  S2-  S163  1  0.06220719  0.18792855  0.85069497  1
  S2-  S164  1  0.13161908  0.62935283  0.35491528  1
  S2-  S165  1  0.12183964  0.38440910  0.85826385  1
  S2-  S166  1  0.13814085  0.85865339  0.34384593  1
  S2-  S167  1  0.14472048  0.59997388  0.84722953  1
  S2-  S168  1  0.28569211  0.00127319  0.35213169  1
  S2-  S169  1  0.36094503  -0.01281939  0.83594711  1
  S2-  S170  1  0.47688658  0.25392829  0.35930112  1
  S2-  S171  1  0.36588353  0.20449873  0.83718519  1
  S2-  S172  1  0.38811305  0.50361067  0.35023423  1
  S2-  S173  1  0.35782931  0.49637925  0.84795275  1
  S2-  S174  1  0.34164168  0.76936731  0.34484919  1
  S2-  S175  1  0.28693339  0.76712125  0.84927617  1
  S2-  S176  1  0.60802428  0.05709818  0.35007617  1
  S2-  S177  1  0.58949461  -0.06055377  0.84838296  1
  S2-  S178  1  0.73766978  0.25523508  0.35497857  1
  S2-  S179  1  0.62539957  0.15190425  0.86123242  1
  S2-  S180  1  0.62879852  0.45108456  0.34268092  1
  S2-  S181  1  0.63209161  0.44263815  0.84589419  1
  S2-  S182  1  0.57770030  0.78787618  0.34560244  1
  S2-  S183  1  0.75171381  0.74685483  0.84690728  1
  S2-  S184  1  0.84720308  0.04295211  0.34133993  1
  S2-  S185  1  0.89112491  -0.05356721  0.85608781  1
  S2-  S186  1  0.98124310  0.26128940  0.35643406  1
  S2-  S187  1  0.84149141  0.24282532  0.85173815  1
  S2-  S188  1  0.95814687  0.49740256  0.35909318  1
  S2-  S189  1  0.90479790  0.48842954  0.83980433  1
  S2-  S190  1  0.95686664  0.76658436  0.35829796  1
  S2-  S191  1  0.99088371  0.73242933  0.84068828  1
  S2-  S192  1  -0.00736805  0.11816892  0.44784251  1
  S2-  S193  1  0.00535508  0.12278994  0.96554875  1
  S2-  S194  1  -0.01743724  0.37916704  0.46233974  1
  S2-  S195  1  0.00327020  0.37892907  0.96221804  1
  S2-  S196  1  -0.01940070  0.63327341  0.46302212  1
  S2-  S197  1  0.00937332  0.62715870  0.95339941  1
  S2-  S198  1  -0.01028906  0.88994543  0.45419567  1
  S2-  S199  1  0.00639229  0.87863507  0.95820529  1
  S2-  S200  1  0.23364179  0.12449089  0.45706391  1
  S2-  S201  1  0.25262590  0.12771719  0.94940892  1
  S2-  S202  1  0.23266149  0.38850983  0.45600694  1
  S2-  S203  1  0.26008179  0.37903960  0.95487663  1
  S2-  S204  1  0.24115177  0.63237189  0.45449700  1
  S2-  S205  1  0.25633221  0.62749284  0.95436937  1
  S2-  S206  1  0.23832093  0.88021997  0.46187032  1
  S2-  S207  1  0.25676163  0.87744571  0.96021307  1
  S2-  S208  1  0.48553726  0.12767904  0.46054987  1
  S2-  S209  1  0.50021233  0.13035761  0.95726260  1
  S2-  S210  1  0.48744019  0.38410602  0.45768511  1
  S2-  S211  1  0.50518556  0.37593489  0.95110851  1
  S2-  S212  1  0.48431209  0.63268595  0.45166923  1
  S2-  S213  1  0.50763013  0.62955367  0.94961288  1
  S2-  S214  1  0.48474682  0.88066268  0.45239183  1
  S2-  S215  1  0.50334744  0.87678176  0.95613763  1
  S2-  S216  1  0.73846445  0.12540390  0.45497046  1
  S2-  S217  1  0.75987578  0.12668502  0.96588556  1
  S2-  S218  1  0.73590102  0.38251591  0.45729469  1
  S2-  S219  1  0.75875719  0.37748103  0.95196158  1
  S2-  S220  1  0.73467106  0.62952729  0.45331523  1
  S2-  S221  1  0.75473030  0.62438569  0.94628643  1
  S2-  S222  1  0.73646462  0.88276814  0.44941206  1
  S2-  S223  1  0.75171667  0.88681222  0.94626348  1
  S2-  S224  1  0.13450923  -0.00328999  0.04913222  1
  S2-  S225  1  0.11504286  0.00451351  0.55921984  1
  S2-  S226  1  0.13345055  0.25352962  0.04017689  1
  S2-  S227  1  0.11165588  0.25384332  0.53854842  1
  S2-  S228  1  0.13703401  0.50004563  0.03879016  1
  S2-  S229  1  0.10515488  0.51267497  0.54446239  1
  S2-  S230  1  0.13687230  0.75226961  0.04800816  1
  S2-  S231  1  0.11336331  0.75664732  0.54560468  1
  S2-  S232  1  0.37981243  0.00041373  0.04650792  1
  S2-  S233  1  0.36676063  0.00290195  0.54931802  1
  S2-  S234  1  0.38176167  0.25098088  0.03624134  1
  S2-  S235  1  0.36144995  0.25949364  0.53777802  1
  S2-  S236  1  0.38458595  0.50486822  0.05150304  1
  S2-  S237  1  0.36466905  0.50554228  0.55545151  1
  S2-  S238  1  0.37992322  0.74875576  0.04554789  1
  S2-  S239  1  0.36472984  0.75236667  0.55049839  1
  S2-  S240  1  0.62812712  0.00095550  0.04351634  1
  S2-  S241  1  0.61460737  0.00442221  0.55259586  1
  S2-  S242  1  0.63150422  0.25268140  0.04744562  1
  S2-  S243  1  0.61258264  0.25389886  0.53874662  1
  S2-  S244  1  0.62946817  0.50323735  0.04611895  1
  S2-  S245  1  0.61391043  0.50454952  0.54474373  1
  S2-  S246  1  0.63383183  0.75130443  0.03192182  1
  S2-  S247  1  0.61166795  0.75314367  0.54733455  1
  S2-  S248  1  0.88141752  0.00243287  0.05543866  1
  S2-  S249  1  0.86183194  0.00274471  0.54676803  1
  S2-  S250  1  0.88328478  0.24985971  0.06049388  1
  S2-  S251  1  0.86249162  0.24906612  0.53722909  1
  S2-  S252  1  0.87764075  0.50101396  0.04211816  1
  S2-  S253  1  0.85968685  0.50451275  0.54757277  1
  S2-  S254  1  0.87593191  0.75352706  0.03146727  1
  S2-  S255  1  0.86046895  0.75765397  0.54287354  1
