# generated using pymatgen
data_La9Ce10Pr6Nd4Sm3(BiS2)32
_symmetry_space_group_name_H-M   'P 1'
_cell_length_a   16.12535927
_cell_length_b   16.18471492
_cell_length_c   27.13392849
_cell_angle_alpha   90.29161144
_cell_angle_beta   90.31470492
_cell_angle_gamma   90.08006186
_symmetry_Int_Tables_number   1
_chemical_formula_structural   La9Ce10Pr6Nd4Sm3(BiS2)32
_chemical_formula_sum   'La18 Ce20 Pr12 Nd8 Sm6 Bi64 S128'
_cell_volume   7081.32476360
_cell_formula_units_Z   2
loop_
 _symmetry_equiv_pos_site_id
 _symmetry_equiv_pos_as_xyz
  1  'x, y, z'
loop_
 _atom_type_symbol
 _atom_type_oxidation_number
  La3+  3.0
  Ce3+  3.0
  Pr3+  3.0
  Nd3+  3.0
  Sm3+  3.0
  Bi2+  2.0
  S2-  -2.0
loop_
 _atom_site_type_symbol
 _atom_site_label
 _atom_site_symmetry_multiplicity
 _atom_site_fract_x
 _atom_site_fract_y
 _atom_site_fract_z
 _atom_site_occupancy
  La3+  La0  1  0.76112491  0.14927645  0.07906317  1
  La3+  La1  1  -0.01300455  0.62719308  0.58891068  1
  La3+  La2  1  0.86782974  0.00181385  0.42632922  1
  La3+  La3  1  0.76350668  0.63934206  0.06024287  1
  La3+  La4  1  0.76230859  0.39420441  0.06319944  1
  La3+  La5  1  0.36695134  -0.00207452  0.42121294  1
  La3+  La6  1  0.62929668  0.50647756  0.92469947  1
  La3+  La7  1  0.25749330  0.64194185  0.06399414  1
  La3+  La8  1  0.88049011  0.76486675  0.91340361  1
  La3+  La9  1  0.14308829  0.51112354  0.92423187  1
  La3+  La10  1  0.50794970  0.39480349  0.07681250  1
  La3+  La11  1  0.25311959  0.63531398  0.58917931  1
  La3+  La12  1  -0.00379780  0.12887723  0.55640426  1
  La3+  La13  1  0.24727866  0.88869369  0.57736817  1
  La3+  La14  1  0.61628482  0.25968430  0.39459814  1
  La3+  La15  1  0.76521275  0.88912757  0.06198914  1
  La3+  La16  1  0.24888261  0.38433188  0.57938877  1
  La3+  La17  1  0.24370486  0.39015204  0.10734911  1
  Ce3+  Ce18  1  0.35971349  0.50400533  0.43852237  1
  Ce3+  Ce19  1  0.74137781  0.63194230  0.57264734  1
  Ce3+  Ce20  1  0.86484768  0.25941001  0.43765560  1
  Ce3+  Ce21  1  0.38369072  0.50764346  0.94014289  1
  Ce3+  Ce22  1  0.63034315  0.26340151  0.94326439  1
  Ce3+  Ce23  1  0.12089824  0.50603406  0.45701790  1
  Ce3+  Ce24  1  0.26161195  0.88482852  0.05771329  1
  Ce3+  Ce25  1  0.86416822  0.50291917  0.44848466  1
  Ce3+  Ce26  1  0.49474966  0.13048878  0.54020929  1
  Ce3+  Ce27  1  0.49535264  0.62994136  0.56526044  1
  Ce3+  Ce28  1  0.61671963  0.75111339  0.44865288  1
  Ce3+  Ce29  1  0.13661730  0.76374342  0.92209652  1
  Ce3+  Ce30  1  0.36715383  0.26243402  0.42547258  1
  Ce3+  Ce31  1  -0.01066143  0.88109076  0.56190642  1
  Ce3+  Ce32  1  0.38478636  0.01478492  0.94175479  1
  Ce3+  Ce33  1  -0.00653733  0.37750454  0.56509091  1
  Ce3+  Ce34  1  0.62844063  0.76147073  0.93351811  1
  Ce3+  Ce35  1  0.11631991  -0.00089945  0.42976600  1
  Ce3+  Ce36  1  0.50849660  0.63368691  0.05905657  1
  Ce3+  Ce37  1  0.74245483  0.89235042  0.56280657  1
  Pr3+  Pr38  1  0.88582462  0.25792322  0.92769952  1
  Pr3+  Pr39  1  0.88228531  0.01191894  0.93313528  1
  Pr3+  Pr40  1  0.36634809  0.75090307  0.44728378  1
  Pr3+  Pr41  1  0.13456115  0.25847280  0.93296738  1
  Pr3+  Pr42  1  0.49574030  0.89479084  0.56628680  1
  Pr3+  Pr43  1  0.51560119  0.88851900  0.06099143  1
  Pr3+  Pr44  1  0.61898660  0.00578717  0.41319251  1
  Pr3+  Pr45  1  0.01446846  0.63994903  0.04426755  1
  Pr3+  Pr46  1  0.11778679  0.74921285  0.45220348  1
  Pr3+  Pr47  1  0.26212582  0.13550678  0.07363548  1
  Pr3+  Pr48  1  0.62148335  0.51476019  0.41014541  1
  Pr3+  Pr49  1  0.12124569  0.26018773  0.43100380  1
  Nd3+  Nd50  1  0.74093562  0.13273099  0.55026427  1
  Nd3+  Nd51  1  0.00923071  0.88828207  0.05692360  1
  Nd3+  Nd52  1  0.86495770  0.74764912  0.44716566  1
  Nd3+  Nd53  1  0.51016174  0.14090326  0.07374463  1
  Nd3+  Nd54  1  0.01556079  0.38719181  0.05070261  1
  Nd3+  Nd55  1  0.13681005  0.01188684  0.93727938  1
  Nd3+  Nd56  1  0.88285999  0.51281693  0.93188416  1
  Nd3+  Nd57  1  0.63362657  0.01701023  0.94166384  1
  Sm3+  Sm58  1  0.73855563  0.37833451  0.55602631  1
  Sm3+  Sm59  1  0.00861562  0.13763447  0.06076812  1
  Sm3+  Sm60  1  0.49501329  0.37953019  0.55126766  1
  Sm3+  Sm61  1  0.38162742  0.76167340  0.92902436  1
  Sm3+  Sm62  1  0.38145362  0.26421243  0.95737287  1
  Sm3+  Sm63  1  0.24722245  0.13218244  0.54956997  1
  Bi2+  Bi64  1  0.04141343  0.15711907  0.31097518  1
  Bi2+  Bi65  1  0.00244283  0.13522043  0.79742116  1
  Bi2+  Bi66  1  0.01533292  0.34947975  0.32181871  1
  Bi2+  Bi67  1  -0.03779203  0.35290808  0.76420193  1
  Bi2+  Bi68  1  0.01691399  0.63838847  0.30342084  1
  Bi2+  Bi69  1  -0.03184983  0.62046673  0.78044118  1
  Bi2+  Bi70  1  0.00384249  0.91168028  0.26598575  1
  Bi2+  Bi71  1  -0.02510932  0.88217853  0.77831426  1
  Bi2+  Bi72  1  0.22402843  0.09376416  0.27986789  1
  Bi2+  Bi73  1  0.20100552  0.14538203  0.82118688  1
  Bi2+  Bi74  1  0.25957081  0.41508044  0.29966213  1
  Bi2+  Bi75  1  0.26688274  0.33595276  0.80856787  1
  Bi2+  Bi76  1  0.22790155  0.66843292  0.31058686  1
  Bi2+  Bi77  1  0.23371727  0.61473499  0.79258229  1
  Bi2+  Bi78  1  0.30743929  0.87354732  0.27984022  1
  Bi2+  Bi79  1  0.22330828  0.95460807  0.78416626  1
  Bi2+  Bi80  1  0.41990382  0.04008375  0.26937786  1
  Bi2+  Bi81  1  0.56858997  0.14177279  0.82073509  1
  Bi2+  Bi82  1  0.47568156  0.38257904  0.27572170  1
  Bi2+  Bi83  1  0.53103610  0.40748141  0.77978444  1
  Bi2+  Bi84  1  0.54630901  0.60117941  0.23558641  1
  Bi2+  Bi85  1  0.49448212  0.63476644  0.78154601  1
  Bi2+  Bi86  1  0.58505692  0.78729157  0.27741260  1
  Bi2+  Bi87  1  0.48145507  0.89260298  0.79252661  1
  Bi2+  Bi88  1  0.77479503  0.10515834  0.28365847  1
  Bi2+  Bi89  1  0.74995711  0.13873122  0.77759819  1
  Bi2+  Bi90  1  0.76415588  0.37583650  0.28001610  1
  Bi2+  Bi91  1  0.77761091  0.33324377  0.80139812  1
  Bi2+  Bi92  1  0.75694063  0.62917256  0.29537204  1
  Bi2+  Bi93  1  0.69166559  0.60070647  0.79911494  1
  Bi2+  Bi94  1  0.77385399  0.84227130  0.27845593  1
  Bi2+  Bi95  1  0.72688053  0.87451168  0.78409578  1
  Bi2+  Bi96  1  0.05790037  0.00787224  0.17267032  1
  Bi2+  Bi97  1  0.11664896  0.04207108  0.70271939  1
  Bi2+  Bi98  1  0.09009616  0.28087199  0.22043697  1
  Bi2+  Bi99  1  0.15485606  0.24920062  0.72240053  1
  Bi2+  Bi100  1  0.10004452  0.54190563  0.21133600  1
  Bi2+  Bi101  1  0.11908009  0.45027828  0.72256153  1
  Bi2+  Bi102  1  0.13621667  0.81868851  0.20102009  1
  Bi2+  Bi103  1  0.11743877  0.78576764  0.72769738  1
  Bi2+  Bi104  1  0.24917093  -0.01815747  0.18193776  1
  Bi2+  Bi105  1  0.37690024  0.01820082  0.70377237  1
  Bi2+  Bi106  1  0.34270923  0.21634956  0.22065680  1
  Bi2+  Bi107  1  0.39315604  0.17794146  0.76721797  1
  Bi2+  Bi108  1  0.34258728  0.59181801  0.23226319  1
  Bi2+  Bi109  1  0.36711996  0.41553767  0.71136471  1
  Bi2+  Bi110  1  0.42328194  0.76106074  0.20932523  1
  Bi2+  Bi111  1  0.37586631  0.75136919  0.71712840  1
  Bi2+  Bi112  1  0.58534685  -0.02360329  0.21632338  1
  Bi2+  Bi113  1  0.61040411  0.04817255  0.70734877  1
  Bi2+  Bi114  1  0.60634455  0.20663931  0.23054091  1
  Bi2+  Bi115  1  0.55881481  0.24301020  0.71618473  1
  Bi2+  Bi116  1  0.67025845  0.43171446  0.18799205  1
  Bi2+  Bi117  1  0.61148153  0.62530906  0.68550087  1
  Bi2+  Bi118  1  0.70937931  0.68887593  0.19148771  1
  Bi2+  Bi119  1  0.58935389  0.82106093  0.70565950  1
  Bi2+  Bi120  1  0.84067461  -0.02024579  0.19483499  1
  Bi2+  Bi121  1  0.87369921  -0.00740162  0.68907534  1
  Bi2+  Bi122  1  0.90569041  0.21858486  0.23232729  1
  Bi2+  Bi123  1  0.85092978  0.23638956  0.69887182  1
  Bi2+  Bi124  1  0.92472368  0.48441137  0.25754639  1
  Bi2+  Bi125  1  0.71356284  0.46153090  0.72072914  1
  Bi2+  Bi126  1  0.93364673  0.74302222  0.21112953  1
  Bi2+  Bi127  1  0.79795613  0.72321906  0.72184623  1
  S2-  S128  1  -0.09635576  0.12818169  0.14229111  1
  S2-  S129  1  -0.02540764  0.13051421  0.65695510  1
  S2-  S130  1  0.07554617  0.40220991  0.14574612  1
  S2-  S131  1  -0.01432292  0.41272715  0.66210538  1
  S2-  S132  1  0.01851909  0.64431527  0.14657408  1
  S2-  S133  1  0.04993174  0.65374223  0.68589901  1
  S2-  S134  1  -0.10234652  0.85392642  0.13359177  1
  S2-  S135  1  0.02392108  0.90406259  0.65884894  1
  S2-  S136  1  0.20993121  0.23147968  0.15460243  1
  S2-  S137  1  0.23991100  0.04390366  0.63622241  1
  S2-  S138  1  0.33400535  0.38720525  0.20288431  1
  S2-  S139  1  0.28267066  0.28560579  0.66071126  1
  S2-  S140  1  0.24350238  0.55350706  0.15319235  1
  S2-  S141  1  0.23665644  0.50678663  0.66201918  1
  S2-  S142  1  0.25316868  0.77677044  0.13464625  1
  S2-  S143  1  0.22864603  0.77034339  0.65806449  1
  S2-  S144  1  0.39338401  0.12112358  0.14900340  1
  S2-  S145  1  0.49886155  0.05301297  0.62894112  1
  S2-  S146  1  0.53194627  0.31350034  0.17258031  1
  S2-  S147  1  0.49299830  0.37472848  0.65277281  1
  S2-  S148  1  0.51973670  0.53822804  0.14248979  1
  S2-  S149  1  0.40918529  0.63326379  0.65048598  1
  S2-  S150  1  0.46886422  0.89999523  0.15860730  1
  S2-  S151  1  0.38831652  0.88372242  0.64812553  1
  S2-  S152  1  0.63031655  0.11954259  0.15119323  1
  S2-  S153  1  0.73759501  0.04220690  0.63561177  1
  S2-  S154  1  0.76204941  0.30154371  0.14894176  1
  S2-  S155  1  0.73784330  0.33437321  0.65224572  1
  S2-  S156  1  0.77349608  0.53327599  0.14171631  1
  S2-  S157  1  0.84396691  0.61561365  0.65218368  1
  S2-  S158  1  0.69157915  0.90732202  0.15627532  1
  S2-  S159  1  0.80584692  0.85577587  0.65396429  1
  S2-  S160  1  0.22981510  -0.02283768  0.35417789  1
  S2-  S161  1  0.07704410  -0.01454881  0.84281525  1
  S2-  S162  1  0.24081484  0.28678094  0.35512482  1
  S2-  S163  1  0.01689365  0.27238064  0.85312092  1
  S2-  S164  1  0.20532903  0.52065213  0.37209333  1
  S2-  S165  1  0.08342584  0.53100447  0.82330448  1
  S2-  S166  1  0.10698647  0.76450457  0.35012546  1
  S2-  S167  1  0.26060897  0.74403013  0.84952298  1
  S2-  S168  1  0.48557415  -0.03648178  0.34643597  1
  S2-  S169  1  0.36902572  -0.01837339  0.84441522  1
  S2-  S170  1  0.45641052  0.26170596  0.33779937  1
  S2-  S171  1  0.40254643  0.27221723  0.85779791  1
  S2-  S172  1  0.40866652  0.49538181  0.34177499  1
  S2-  S173  1  0.28305176  0.50235541  0.85488095  1
  S2-  S174  1  0.36480318  0.75102841  0.34458923  1
  S2-  S175  1  0.50209688  0.76071843  0.85710687  1
  S2-  S176  1  0.75677793  -0.02655858  0.34757898  1
  S2-  S177  1  0.61855420  -0.02138195  0.84329983  1
  S2-  S178  1  0.62400990  0.12607533  0.32656310  1
  S2-  S179  1  0.63508402  0.35860862  0.85966449  1
  S2-  S180  1  0.61307906  0.40166293  0.33141609  1
  S2-  S181  1  0.49169265  0.51568054  0.85675532  1
  S2-  S182  1  0.61519565  0.67192499  0.35920727  1
  S2-  S183  1  0.73228155  0.74889803  0.85183729  1
  S2-  S184  1  0.99508772  -0.00323808  0.35409818  1
  S2-  S185  1  0.86395379  -0.09080622  0.84781473  1
  S2-  S186  1  0.78890974  0.25766888  0.34878386  1
  S2-  S187  1  0.86408023  0.12739443  0.85647077  1
  S2-  S188  1  0.78766903  0.51109417  0.36059413  1
  S2-  S189  1  0.85803483  0.54557009  0.83353952  1
  S2-  S190  1  0.86036756  0.74548542  0.34593896  1
  S2-  S191  1  1.01929669  0.75609381  0.84290699  1
  S2-  S192  1  -0.00636953  0.13858533  0.44950651  1
  S2-  S193  1  0.01192502  0.13311567  0.95604596  1
  S2-  S194  1  -0.00610045  0.38112512  0.45790517  1
  S2-  S195  1  0.01048065  0.39171453  0.94619564  1
  S2-  S196  1  -0.01000952  0.62465763  0.46413866  1
  S2-  S197  1  0.01111641  0.63395373  0.93970529  1
  S2-  S198  1  -0.01042528  0.87189764  0.45537255  1
  S2-  S199  1  0.01120438  0.88860346  0.95139194  1
  S2-  S200  1  0.24114530  0.13161573  0.44681658  1
  S2-  S201  1  0.26042960  0.13697069  0.96055671  1
  S2-  S202  1  0.24195681  0.38051908  0.46773026  1
  S2-  S203  1  0.25800509  0.37967051  0.95330418  1
  S2-  S204  1  0.24402814  0.63028937  0.47524508  1
  S2-  S205  1  0.26184430  0.63884906  0.95521179  1
  S2-  S206  1  0.24152103  0.87360467  0.46165142  1
  S2-  S207  1  0.26161021  0.88820336  0.95055297  1
  S2-  S208  1  0.49245071  0.13298240  0.43729893  1
  S2-  S209  1  0.50621909  0.13970841  0.96281049  1
  S2-  S210  1  0.49694468  0.38570029  0.44778090  1
  S2-  S211  1  0.50558163  0.38495623  0.96463468  1
  S2-  S212  1  0.49231012  0.62359747  0.45806236  1
  S2-  S213  1  0.50606897  0.63635875  0.95615997  1
  S2-  S214  1  0.49436006  0.87393207  0.45611213  1
  S2-  S215  1  0.50815623  0.89179935  0.95414545  1
  S2-  S216  1  0.74227633  0.13272260  0.44583804  1
  S2-  S217  1  0.75455592  0.14267838  0.96003633  1
  S2-  S218  1  0.73458277  0.38005220  0.45264379  1
  S2-  S219  1  0.76527869  0.38631530  0.95357565  1
  S2-  S220  1  0.73940209  0.62570905  0.46537532  1
  S2-  S221  1  0.75604582  0.63190889  0.95092734  1
  S2-  S222  1  0.74172960  0.87247611  0.45431926  1
  S2-  S223  1  0.75189561  0.88917557  0.95391191  1
  S2-  S224  1  0.13452274  0.01302364  0.04433901  1
  S2-  S225  1  0.11704893  0.00443026  0.53842772  1
  S2-  S226  1  0.13191871  0.25827417  0.04202153  1
  S2-  S227  1  0.12216293  0.25505117  0.54969619  1
  S2-  S228  1  0.13684643  0.51123247  0.03767262  1
  S2-  S229  1  0.11452212  0.50639106  0.56082043  1
  S2-  S230  1  0.13208846  0.76849114  0.03249091  1
  S2-  S231  1  0.11099455  0.75394808  0.55819843  1
  S2-  S232  1  0.38677635  0.00995411  0.04611299  1
  S2-  S233  1  0.36711547  0.00895478  0.53089259  1
  S2-  S234  1  0.37689094  0.27206838  0.06115240  1
  S2-  S235  1  0.37094895  0.25441852  0.53915081  1
  S2-  S236  1  0.37743103  0.51118298  0.04881924  1
  S2-  S237  1  0.37343690  0.50263048  0.54873504  1
  S2-  S238  1  0.39138536  0.76401472  0.03904780  1
  S2-  S239  1  0.37525486  0.76022587  0.55125726  1
  S2-  S240  1  0.63603345  0.01687353  0.04653485  1
  S2-  S241  1  0.62031947  0.00839129  0.52615800  1
  S2-  S242  1  0.63025581  0.26734619  0.04791754  1
  S2-  S243  1  0.61684999  0.25474354  0.54742630  1
  S2-  S244  1  0.63480976  0.51487526  0.03699486  1
  S2-  S245  1  0.61889997  0.50213278  0.55736932  1
  S2-  S246  1  0.63434102  0.76000697  0.04601799  1
  S2-  S247  1  0.61865253  0.76089444  0.55534789  1
  S2-  S248  1  0.88597108  0.01534913  0.03987820  1
  S2-  S249  1  0.86976926  0.00738321  0.53647326  1
  S2-  S250  1  0.89147588  0.26419303  0.03974538  1
  S2-  S251  1  0.86691103  0.25670434  0.54530175  1
  S2-  S252  1  0.89266956  0.51284780  0.03854752  1
  S2-  S253  1  0.86513380  0.49830755  0.55238570  1
  S2-  S254  1  0.88586891  0.75925403  0.02803579  1
  S2-  S255  1  0.86722670  0.75494283  0.55178668  1
