# generated using pymatgen
data_La9Ce10Pr6Nd4Sm3(BiS2)32
_symmetry_space_group_name_H-M   'P 1'
_cell_length_a   16.16260413
_cell_length_b   16.04196546
_cell_length_c   27.34791445
_cell_angle_alpha   90.03614000
_cell_angle_beta   90.22425643
_cell_angle_gamma   90.05929462
_symmetry_Int_Tables_number   1
_chemical_formula_structural   La9Ce10Pr6Nd4Sm3(BiS2)32
_chemical_formula_sum   'La18 Ce20 Pr12 Nd8 Sm6 Bi64 S128'
_cell_volume   7090.70600025
_cell_formula_units_Z   2
loop_
 _symmetry_equiv_pos_site_id
 _symmetry_equiv_pos_as_xyz
  1  'x, y, z'
loop_
 _atom_type_symbol
 _atom_type_oxidation_number
  La3+  3.0
  Ce3+  3.0
  Pr3+  3.0
  Nd3+  3.0
  Sm3+  3.0
  Bi2+  2.0
  S2-  -2.0
loop_
 _atom_site_type_symbol
 _atom_site_label
 _atom_site_symmetry_multiplicity
 _atom_site_fract_x
 _atom_site_fract_y
 _atom_site_fract_z
 _atom_site_occupancy
  La3+  La0  1  0.62741740  0.54005483  0.42874577  1
  La3+  La1  1  0.00988105  0.90672644  0.58175569  1
  La3+  La2  1  0.62478579  0.28300303  0.43899097  1
  La3+  La3  1  0.48424779  0.40514369  0.60942203  1
  La3+  La4  1  0.49780548  0.90746037  0.56934086  1
  La3+  La5  1  0.63506318  0.22503758  0.90684500  1
  La3+  La6  1  0.37424829  0.78179100  0.42917203  1
  La3+  La7  1  0.25820118  0.35455412  0.09306215  1
  La3+  La8  1  0.49653290  0.15638630  0.56502983  1
  La3+  La9  1  0.75329872  0.65853232  0.56465695  1
  La3+  La10  1  0.38087215  0.48010585  0.93457003  1
  La3+  La11  1  0.74715927  0.35749579  0.09821967  1
  La3+  La12  1  0.00140275  0.16244492  0.56842952  1
  La3+  La13  1  0.11626704  0.53316134  0.41307535  1
  La3+  La14  1  0.00218618  0.35619422  0.09123064  1
  La3+  La15  1  0.01512881  0.61596280  0.08175489  1
  La3+  La16  1  0.88350656  0.23555028  0.93858880  1
  La3+  La17  1  0.13417179  0.72588287  0.92958956  1
  Ce3+  Ce18  1  0.00613769  0.10822874  0.06533518  1
  Ce3+  Ce19  1  0.37068369  0.03542162  0.41700732  1
  Ce3+  Ce20  1  0.63638417  0.73760243  0.93816680  1
  Ce3+  Ce21  1  0.50683266  0.86009276  0.05618678  1
  Ce3+  Ce22  1  0.50839842  0.60643032  0.05218737  1
  Ce3+  Ce23  1  0.74717688  0.15925575  0.55831086  1
  Ce3+  Ce24  1  0.00246534  0.65459042  0.56143951  1
  Ce3+  Ce25  1  0.63741364  0.48400410  0.93876999  1
  Ce3+  Ce26  1  0.01015483  0.86135282  0.06286988  1
  Ce3+  Ce27  1  0.12549075  0.23778235  0.94614406  1
  Ce3+  Ce28  1  0.75774983  0.10904011  0.05757025  1
  Ce3+  Ce29  1  0.38029489  -0.01285501  0.94184421  1
  Ce3+  Ce30  1  0.87352691  0.28520109  0.44020882  1
  Ce3+  Ce31  1  0.87157928  0.53973440  0.42531043  1
  Ce3+  Ce32  1  0.50002751  0.65402960  0.55789532  1
  Ce3+  Ce33  1  0.12136937  0.78070745  0.43662738  1
  Ce3+  Ce34  1  0.25130026  0.65317676  0.55427020  1
  Ce3+  Ce35  1  0.51267012  0.11070703  0.05610890  1
  Ce3+  Ce36  1  0.87686915  0.02600176  0.44828576  1
  Ce3+  Ce37  1  0.75735058  0.85730886  0.06722467  1
  Pr3+  Pr38  1  0.38097011  0.23265161  0.93692634  1
  Pr3+  Pr39  1  0.37943685  0.73256147  0.93436940  1
  Pr3+  Pr40  1  0.24969534  0.90942572  0.55686055  1
  Pr3+  Pr41  1  0.88717048  -0.01665830  0.93380513  1
  Pr3+  Pr42  1  0.13529613  -0.01507311  0.93152181  1
  Pr3+  Pr43  1  0.12429483  0.03117745  0.43160851  1
  Pr3+  Pr44  1  0.62586799  0.78951224  0.43576254  1
  Pr3+  Pr45  1  0.74351738  0.41330986  0.56641491  1
  Pr3+  Pr46  1  0.37511452  0.52979387  0.42997840  1
  Pr3+  Pr47  1  0.12864400  0.48419145  0.95189446  1
  Pr3+  Pr48  1  0.63918923  -0.02168049  0.91931457  1
  Pr3+  Pr49  1  0.12032839  0.28347909  0.43276690  1
  Nd3+  Nd50  1  0.88745702  0.73502785  0.94127051  1
  Nd3+  Nd51  1  -0.00142874  0.41201732  0.56171577  1
  Nd3+  Nd52  1  0.37766993  0.28359477  0.43092281  1
  Nd3+  Nd53  1  0.25167623  0.40883744  0.55111395  1
  Nd3+  Nd54  1  0.88069413  0.48381838  0.95540837  1
  Nd3+  Nd55  1  0.51360435  0.35622467  0.05277596  1
  Nd3+  Nd56  1  0.87794294  0.78881167  0.43736187  1
  Nd3+  Nd57  1  0.75272444  0.90515365  0.57272749  1
  Sm3+  Sm58  1  0.75680147  0.61230913  0.06870411  1
  Sm3+  Sm59  1  0.62226145  0.02723978  0.44373343  1
  Sm3+  Sm60  1  0.25316014  0.16102806  0.54869622  1
  Sm3+  Sm61  1  0.26151851  0.60440758  0.06956665  1
  Sm3+  Sm62  1  0.25723331  0.11247936  0.06383796  1
  Sm3+  Sm63  1  0.25763346  0.85830302  0.05895696  1
  Bi2+  Bi64  1  -0.03146976  0.04392599  0.25800831  1
  Bi2+  Bi65  1  -0.01302099  0.15850237  0.77670358  1
  Bi2+  Bi66  1  0.01453516  0.36211931  0.30444396  1
  Bi2+  Bi67  1  0.00440149  0.38262561  0.80071106  1
  Bi2+  Bi68  1  0.00163791  0.72369842  0.28762292  1
  Bi2+  Bi69  1  -0.03537293  0.63186969  0.81492053  1
  Bi2+  Bi70  1  0.03860228  0.90405996  0.32811406  1
  Bi2+  Bi71  1  -0.07199211  0.87738736  0.80904265  1
  Bi2+  Bi72  1  0.24204921  0.03956513  0.24277468  1
  Bi2+  Bi73  1  0.18852393  0.16251684  0.78630563  1
  Bi2+  Bi74  1  0.25055855  0.31450686  0.29766788  1
  Bi2+  Bi75  1  0.19969862  0.36376849  0.77781885  1
  Bi2+  Bi76  1  0.26026107  0.68213758  0.28122338  1
  Bi2+  Bi77  1  0.22569706  0.61361152  0.79402444  1
  Bi2+  Bi78  1  0.23061925  0.87313552  0.30728244  1
  Bi2+  Bi79  1  0.23708093  0.88406848  0.78933644  1
  Bi2+  Bi80  1  0.52465313  0.01460062  0.30033743  1
  Bi2+  Bi81  1  0.41047182  0.11212447  0.81146096  1
  Bi2+  Bi82  1  0.50074089  0.33478008  0.29656361  1
  Bi2+  Bi83  1  0.49242162  0.41976924  0.81583706  1
  Bi2+  Bi84  1  0.50852449  0.57220995  0.29715659  1
  Bi2+  Bi85  1  0.46948803  0.73516694  0.78791717  1
  Bi2+  Bi86  1  0.48135522  0.81954180  0.27502957  1
  Bi2+  Bi87  1  0.51033276  0.93195891  0.80338074  1
  Bi2+  Bi88  1  0.70438462  0.08640204  0.27520857  1
  Bi2+  Bi89  1  0.80022548  0.09689791  0.77940478  1
  Bi2+  Bi90  1  0.76028338  0.36299239  0.28849986  1
  Bi2+  Bi91  1  0.75244363  0.37842855  0.80878709  1
  Bi2+  Bi92  1  0.74656137  0.63684080  0.29312489  1
  Bi2+  Bi93  1  0.64718600  0.68004921  0.75965650  1
  Bi2+  Bi94  1  0.75705046  0.89138298  0.28831521  1
  Bi2+  Bi95  1  0.74840486  0.85028391  0.73850910  1
  Bi2+  Bi96  1  0.08853653  -0.02019401  0.17483560  1
  Bi2+  Bi97  1  0.10747653  -0.00475918  0.72914954  1
  Bi2+  Bi98  1  0.14984850  0.22104876  0.21487989  1
  Bi2+  Bi99  1  0.13234725  0.25316090  0.68918299  1
  Bi2+  Bi100  1  0.14812623  0.51483310  0.21468094  1
  Bi2+  Bi101  1  0.09356283  0.51346013  0.72685966  1
  Bi2+  Bi102  1  0.14659474  0.79326044  0.19880589  1
  Bi2+  Bi103  1  0.12847457  0.77721380  0.70890623  1
  Bi2+  Bi104  1  0.40505842  -0.04707164  0.20186629  1
  Bi2+  Bi105  1  0.37500142  -0.01069671  0.72373811  1
  Bi2+  Bi106  1  0.42002865  0.16499486  0.25113710  1
  Bi2+  Bi107  1  0.32858682  0.25509733  0.70307163  1
  Bi2+  Bi108  1  0.39464578  0.45064115  0.23028522  1
  Bi2+  Bi109  1  0.35540374  0.54475436  0.70543048  1
  Bi2+  Bi110  1  0.40900704  0.67137507  0.20963872  1
  Bi2+  Bi111  1  0.34263665  0.79290544  0.70263782  1
  Bi2+  Bi112  1  0.69724612  -0.02948081  0.18315108  1
  Bi2+  Bi113  1  0.60065563  -0.05031650  0.69349771  1
  Bi2+  Bi114  1  0.61242789  0.21870126  0.20709854  1
  Bi2+  Bi115  1  0.63125917  0.23452171  0.70721479  1
  Bi2+  Bi116  1  0.60900493  0.49221867  0.21044965  1
  Bi2+  Bi117  1  0.63575521  0.51319855  0.70929574  1
  Bi2+  Bi118  1  0.64401376  0.77221402  0.21534792  1
  Bi2+  Bi119  1  0.53131477  0.76680923  0.67597505  1
  Bi2+  Bi120  1  0.88913656  -0.02052503  0.15611057  1
  Bi2+  Bi121  1  0.89160351  -0.02128577  0.70607333  1
  Bi2+  Bi122  1  0.87967560  0.20619336  0.21646253  1
  Bi2+  Bi123  1  0.87826205  0.30286021  0.72143509  1
  Bi2+  Bi124  1  0.86604042  0.49475158  0.22981099  1
  Bi2+  Bi125  1  0.88744341  0.50485015  0.71216323  1
  Bi2+  Bi126  1  0.87696641  0.79512177  0.21432103  1
  Bi2+  Bi127  1  0.87708766  0.70207551  0.71041492  1
  S2-  S128  1  0.01166457  0.19580226  0.15034702  1
  S2-  S129  1  0.01075994  0.05113660  0.64858768  1
  S2-  S130  1  0.12929310  0.37155638  0.16517975  1
  S2-  S131  1  -0.00994255  0.29499958  0.64056342  1
  S2-  S132  1  -0.00955322  0.53274075  0.17379242  1
  S2-  S133  1  0.00998871  0.53262564  0.63681152  1
  S2-  S134  1  -0.00128683  0.76269810  0.14384022  1
  S2-  S135  1  -0.00017316  0.76054706  0.64670480  1
  S2-  S136  1  0.27093389  0.20359466  0.14848717  1
  S2-  S137  1  0.25648262  0.14037159  0.64712221  1
  S2-  S138  1  0.30556461  0.49283007  0.15167916  1
  S2-  S139  1  0.31155105  0.41174950  0.64570314  1
  S2-  S140  1  0.16513427  0.63794697  0.15012803  1
  S2-  S141  1  0.24664672  0.65885795  0.65397622  1
  S2-  S142  1  0.29732459  0.84546490  0.15517064  1
  S2-  S143  1  0.16267204  0.90489830  0.64524175  1
  S2-  S144  1  0.50016678  0.13163021  0.15426885  1
  S2-  S145  1  0.48327410  0.24351492  0.65474568  1
  S2-  S146  1  0.58327697  0.35720685  0.14555850  1
  S2-  S147  1  0.47399060  0.42812337  0.72222950  1
  S2-  S148  1  0.53217890  0.61503532  0.14887440  1
  S2-  S149  1  0.49320199  0.57606416  0.64609031  1
  S2-  S150  1  0.54805332  0.88256558  0.15016638  1
  S2-  S151  1  0.47823486  1.03053370  0.64210652  1
  S2-  S152  1  0.74984301  0.19230469  0.14561740  1
  S2-  S153  1  0.73534409  0.14742788  0.65700728  1
  S2-  S154  1  0.87938151  0.35299879  0.16896880  1
  S2-  S155  1  0.64808430  0.37433435  0.65294391  1
  S2-  S156  1  0.74449388  0.51593186  0.15435072  1
  S2-  S157  1  0.75937677  0.54192393  0.64265821  1
  S2-  S158  1  0.75684948  0.73768521  0.14178019  1
  S2-  S159  1  0.76756909  0.77797471  0.64369917  1
  S2-  S160  1  0.22874117  0.03188865  0.34966967  1
  S2-  S161  1  0.01078820  -0.00883466  0.85854771  1
  S2-  S162  1  0.11216358  0.22736462  0.33674966  1
  S2-  S163  1  0.01751962  0.24604415  0.86716108  1
  S2-  S164  1  0.16250604  0.45547127  0.31754629  1
  S2-  S165  1  0.11861007  0.57261127  0.86399500  1
  S2-  S166  1  0.12599628  0.68132968  0.35245654  1
  S2-  S167  1  0.03933106  0.77132329  0.84396101  1
  S2-  S168  1  0.39965339  -0.10037637  0.35319274  1
  S2-  S169  1  0.27313088  -0.00180797  0.86323229  1
  S2-  S170  1  0.39383825  0.17067124  0.35120575  1
  S2-  S171  1  0.39352229  0.27490694  0.83866601  1
  S2-  S172  1  0.36566325  0.40136070  0.35299643  1
  S2-  S173  1  0.36867382  0.53423309  0.83910261  1
  S2-  S174  1  0.37411084  0.64937027  0.35309200  1
  S2-  S175  1  0.26652673  0.74179498  0.85621426  1
  S2-  S176  1  0.63429084  -0.07772964  0.36487414  1
  S2-  S177  1  0.58052693  0.08760856  0.84356265  1
  S2-  S178  1  0.64053386  0.26784301  0.33781612  1
  S2-  S179  1  0.61313391  0.29238253  0.80756741  1
  S2-  S180  1  0.74373221  0.49515213  0.35190080  1
  S2-  S181  1  0.64100548  0.50740811  0.84107931  1
  S2-  S182  1  0.61877628  0.67667411  0.35501931  1
  S2-  S183  1  0.62302419  0.83381887  0.85830055  1
  S2-  S184  1  0.87335797  -0.07483425  0.36822401  1
  S2-  S185  1  0.78267705  -0.01882158  0.84913809  1
  S2-  S186  1  0.87715726  0.27227403  0.34093790  1
  S2-  S187  1  0.78987982  0.22515588  0.84974609  1
  S2-  S188  1  0.97380937  0.49955877  0.34869097  1
  S2-  S189  1  0.88427188  0.48083362  0.85391327  1
  S2-  S190  1  0.86799439  0.68607454  0.35354109  1
  S2-  S191  1  0.83447757  0.72111914  0.84506047  1
  S2-  S192  1  -0.00248255  0.15558037  0.45489594  1
  S2-  S193  1  0.01094338  0.10748380  0.96229540  1
  S2-  S194  1  -0.00242479  0.40624904  0.45496263  1
  S2-  S195  1  0.00512733  0.36297242  0.97054261  1
  S2-  S196  1  -0.00094953  0.65879160  0.45498409  1
  S2-  S197  1  0.00392660  0.60956627  0.96824397  1
  S2-  S198  1  0.00587537  0.90974587  0.46714401  1
  S2-  S199  1  0.01345354  0.85736436  0.95915009  1
  S2-  S200  1  0.24757074  0.16233641  0.44748008  1
  S2-  S201  1  0.25363641  0.11608059  0.96051235  1
  S2-  S202  1  0.24309544  0.40915176  0.44732695  1
  S2-  S203  1  0.25261428  0.35784754  0.94423267  1
  S2-  S204  1  0.24751223  0.65540210  0.45126855  1
  S2-  S205  1  0.26154217  0.60512352  0.96368282  1
  S2-  S206  1  0.24693292  0.90486021  0.45207738  1
  S2-  S207  1  0.25841302  0.85890904  0.95758231  1
  S2-  S208  1  0.50366280  0.15256274  0.45410493  1
  S2-  S209  1  0.50634451  0.10806791  0.95207630  1
  S2-  S210  1  0.50657806  0.41060037  0.44091105  1
  S2-  S211  1  0.51330787  0.35446172  0.94611703  1
  S2-  S212  1  0.49896882  0.66100393  0.45505311  1
  S2-  S213  1  0.50862228  0.61164328  0.94591052  1
  S2-  S214  1  0.49786545  0.90917271  0.46163658  1
  S2-  S215  1  0.50060712  0.86019516  0.95234253  1
  S2-  S216  1  0.75027252  0.15065980  0.44976081  1
  S2-  S217  1  0.75533247  0.10571084  0.95252205  1
  S2-  S218  1  0.75068116  0.40614984  0.45840358  1
  S2-  S219  1  0.75431994  0.35895970  0.94738949  1
  S2-  S220  1  0.75146357  0.66573465  0.45763498  1
  S2-  S221  1  0.75816623  0.61192864  0.95955871  1
  S2-  S222  1  0.74982117  0.90859305  0.46823125  1
  S2-  S223  1  0.76190035  0.85657104  0.95930960  1
  S2-  S224  1  0.13860175  -0.01388335  0.04462790  1
  S2-  S225  1  0.12894208  0.03909111  0.54024139  1
  S2-  S226  1  0.13424860  0.23543124  0.04982896  1
  S2-  S227  1  0.12779382  0.28464647  0.54074704  1
  S2-  S228  1  0.13733502  0.48113004  0.05593919  1
  S2-  S229  1  0.12818993  0.53098369  0.53601313  1
  S2-  S230  1  0.13980784  0.73636685  0.04239947  1
  S2-  S231  1  0.12939846  0.77810830  0.54218418  1
  S2-  S232  1  0.38003328  -0.01239076  0.04901934  1
  S2-  S233  1  0.36949561  0.03407865  0.53566153  1
  S2-  S234  1  0.38379607  0.23692928  0.04418762  1
  S2-  S235  1  0.37709867  0.28651451  0.53863337  1
  S2-  S236  1  0.38532133  0.47748545  0.04238903  1
  S2-  S237  1  0.37717105  0.52983211  0.53867368  1
  S2-  S238  1  0.38209492  0.73281462  0.04575799  1
  S2-  S239  1  0.37314707  0.78196764  0.54484704  1
  S2-  S240  1  0.63251941  -0.01717388  0.04131795  1
  S2-  S241  1  0.62929803  0.02944086  0.54760061  1
  S2-  S242  1  0.63536631  0.23351946  0.04000860  1
  S2-  S243  1  0.62178988  0.28104950  0.54513720  1
  S2-  S244  1  0.63553630  0.48476415  0.04362879  1
  S2-  S245  1  0.62143773  0.53400373  0.54038610  1
  S2-  S246  1  0.62927860  0.73469529  0.04286838  1
  S2-  S247  1  0.62405778  0.78427049  0.54581857  1
  S2-  S248  1  0.88293188  -0.01741769  0.04123362  1
  S2-  S249  1  0.87285901  0.03231553  0.55286602  1
  S2-  S250  1  0.88034152  0.23375983  0.04735879  1
  S2-  S251  1  0.86815417  0.28447289  0.54529052  1
  S2-  S252  1  0.87895652  0.48518767  0.05892842  1
  S2-  S253  1  0.87558337  0.53283761  0.53675330  1
  S2-  S254  1  0.88175668  0.73508767  0.04596706  1
  S2-  S255  1  0.88105914  0.78755069  0.54340155  1
