# generated using pymatgen
data_La9Ce10Pr6Nd4Sm3(BiS2)32
_symmetry_space_group_name_H-M   'P 1'
_cell_length_a   16.14318020
_cell_length_b   16.20916028
_cell_length_c   27.21600214
_cell_angle_alpha   89.70953053
_cell_angle_beta   89.65656650
_cell_angle_gamma   89.86571661
_symmetry_Int_Tables_number   1
_chemical_formula_structural   La9Ce10Pr6Nd4Sm3(BiS2)32
_chemical_formula_sum   'La18 Ce20 Pr12 Nd8 Sm6 Bi64 S128'
_cell_volume   7121.30188554
_cell_formula_units_Z   2
loop_
 _symmetry_equiv_pos_site_id
 _symmetry_equiv_pos_as_xyz
  1  'x, y, z'
loop_
 _atom_type_symbol
 _atom_type_oxidation_number
  La3+  3.0
  Ce3+  3.0
  Pr3+  3.0
  Nd3+  3.0
  Sm3+  3.0
  Bi2+  2.0
  S2-  -2.0
loop_
 _atom_site_type_symbol
 _atom_site_label
 _atom_site_symmetry_multiplicity
 _atom_site_fract_x
 _atom_site_fract_y
 _atom_site_fract_z
 _atom_site_occupancy
  La3+  La0  1  0.14143131  0.25482818  0.42678490  1
  La3+  La1  1  0.24132446  0.86363330  0.07173778  1
  La3+  La2  1  0.01581229  0.62178354  0.56308096  1
  La3+  La3  1  0.86995251  0.00564955  0.88711366  1
  La3+  La4  1  0.51692047  0.36988273  0.56865761  1
  La3+  La5  1  0.11141123  0.48562817  0.93130647  1
  La3+  La6  1  0.50164328  0.61616986  0.07179868  1
  La3+  La7  1  0.73654239  0.36013486  0.08984792  1
  La3+  La8  1  0.74997145  0.86689616  0.58053985  1
  La3+  La9  1  0.51013657  0.62355781  0.56718321  1
  La3+  La10  1  0.73898146  0.86796830  0.07053232  1
  La3+  La11  1  0.14570574  0.50733056  0.42315747  1
  La3+  La12  1  -0.00649325  0.86685714  0.05942587  1
  La3+  La13  1  0.01224504  0.12321228  0.55840087  1
  La3+  La14  1  0.23698477  0.36396771  0.06989912  1
  La3+  La15  1  0.12459164  -0.01139901  0.93207379  1
  La3+  La16  1  0.26640844  0.38415305  0.60871866  1
  La3+  La17  1  0.12494154  0.72951953  0.93056460  1
  Ce3+  Ce18  1  0.87853983  -0.00486072  0.44298312  1
  Ce3+  Ce19  1  0.51409110  0.87974396  0.55286733  1
  Ce3+  Ce20  1  0.01261568  0.87550425  0.56221915  1
  Ce3+  Ce21  1  0.24083917  0.11934863  0.06814495  1
  Ce3+  Ce22  1  0.25170008  0.60683945  0.07300721  1
  Ce3+  Ce23  1  0.26246978  0.87619657  0.56352501  1
  Ce3+  Ce24  1  0.14145667  -0.00571687  0.43343811  1
  Ce3+  Ce25  1  0.49759844  0.36539591  0.05862410  1
  Ce3+  Ce26  1  0.62062247  0.74158952  0.93500535  1
  Ce3+  Ce27  1  0.62295621  0.49018203  0.93890674  1
  Ce3+  Ce28  1  0.88994291  0.49978337  0.44246380  1
  Ce3+  Ce29  1  0.36344198  -0.00780248  0.94280621  1
  Ce3+  Ce30  1  0.86995718  0.74977819  0.94283556  1
  Ce3+  Ce31  1  0.38445122  0.50014935  0.44704414  1
  Ce3+  Ce32  1  0.37008613  0.73585332  0.94711055  1
  Ce3+  Ce33  1  0.74141534  0.61696503  0.05614560  1
  Ce3+  Ce34  1  0.62310330  0.23827408  0.94087689  1
  Ce3+  Ce35  1  0.26427811  0.12985260  0.56138350  1
  Ce3+  Ce36  1  0.49364987  0.86665686  0.05229418  1
  Ce3+  Ce37  1  0.63620559  0.49741937  0.44354023  1
  Pr3+  Pr38  1  0.38770265  0.75009986  0.44115234  1
  Pr3+  Pr39  1  0.64527041  0.26013632  0.41802664  1
  Pr3+  Pr40  1  -0.00942926  0.11541903  0.05215695  1
  Pr3+  Pr41  1  0.25481115  0.63138126  0.57236507  1
  Pr3+  Pr42  1  0.49346221  0.11583151  0.05803438  1
  Pr3+  Pr43  1  0.62171427  -0.01171827  0.93396909  1
  Pr3+  Pr44  1  0.00081129  0.61669633  0.06919874  1
  Pr3+  Pr45  1  0.63944515  0.75145167  0.43343167  1
  Pr3+  Pr46  1  0.38761889  0.00339442  0.43181704  1
  Pr3+  Pr47  1  0.14223699  0.75414213  0.42740811  1
  Pr3+  Pr48  1  0.89421606  0.24822664  0.43304989  1
  Pr3+  Pr49  1  0.01745332  0.37278231  0.55990461  1
  Nd3+  Nd50  1  0.76324018  0.37195414  0.56358573  1
  Nd3+  Nd51  1  -0.01310916  0.36673160  0.06967882  1
  Nd3+  Nd52  1  0.38585561  0.25506612  0.43539426  1
  Nd3+  Nd53  1  0.51594995  0.12602105  0.54598456  1
  Nd3+  Nd54  1  0.63778262  0.00150680  0.39633556  1
  Nd3+  Nd55  1  0.37960913  0.49181744  0.93522851  1
  Nd3+  Nd56  1  0.74466998  0.10947651  0.06744342  1
  Nd3+  Nd57  1  0.11918092  0.24252987  0.93773174  1
  Sm3+  Sm58  1  0.88782500  0.75043138  0.44712017  1
  Sm3+  Sm59  1  0.75955812  0.12469159  0.55162241  1
  Sm3+  Sm60  1  0.76198704  0.62620864  0.55632856  1
  Sm3+  Sm61  1  0.36919695  0.24187783  0.94451010  1
  Sm3+  Sm62  1  0.86658764  0.23969240  0.94215541  1
  Sm3+  Sm63  1  0.86801277  0.49087928  0.94668752  1
  Bi2+  Bi64  1  -0.02129896  0.10105969  0.28488778  1
  Bi2+  Bi65  1  0.05355540  0.15254099  0.79647935  1
  Bi2+  Bi66  1  -0.03262427  0.36277536  0.30476826  1
  Bi2+  Bi67  1  -0.00874933  0.34118269  0.78045185  1
  Bi2+  Bi68  1  -0.02506499  0.64908813  0.29524577  1
  Bi2+  Bi69  1  -0.00314732  0.63639302  0.80270816  1
  Bi2+  Bi70  1  0.04329457  0.92301439  0.25891131  1
  Bi2+  Bi71  1  -0.00945671  0.86979867  0.78400482  1
  Bi2+  Bi72  1  0.24000173  0.12622408  0.27825270  1
  Bi2+  Bi73  1  0.25051782  0.13837416  0.80698851  1
  Bi2+  Bi74  1  0.25105917  0.36552690  0.28273266  1
  Bi2+  Bi75  1  0.26712661  0.35394576  0.82406226  1
  Bi2+  Bi76  1  0.25678671  0.62558917  0.28982442  1
  Bi2+  Bi77  1  0.26873393  0.64676596  0.79153061  1
  Bi2+  Bi78  1  0.24999053  0.88109347  0.29463675  1
  Bi2+  Bi79  1  0.24999958  0.89823550  0.77012869  1
  Bi2+  Bi80  1  0.48498030  0.25127742  0.30696220  1
  Bi2+  Bi81  1  0.57728806  0.07208586  0.79431512  1
  Bi2+  Bi82  1  0.48054397  0.44643763  0.31058446  1
  Bi2+  Bi83  1  0.59155895  0.38754210  0.79612051  1
  Bi2+  Bi84  1  0.51225273  0.65016102  0.29960632  1
  Bi2+  Bi85  1  0.54825843  0.66219625  0.80418854  1
  Bi2+  Bi86  1  0.51387484  0.84645693  0.28513433  1
  Bi2+  Bi87  1  0.44884949  0.93183734  0.77021978  1
  Bi2+  Bi88  1  0.78036574  0.12064810  0.28508068  1
  Bi2+  Bi89  1  0.76604789  0.22648037  0.77588279  1
  Bi2+  Bi90  1  0.72366928  0.36537953  0.27424197  1
  Bi2+  Bi91  1  0.80488014  0.42132919  0.80654109  1
  Bi2+  Bi92  1  0.70913905  0.64137175  0.28674887  1
  Bi2+  Bi93  1  0.73882464  0.61171198  0.79505532  1
  Bi2+  Bi94  1  0.78800223  0.86118497  0.28320595  1
  Bi2+  Bi95  1  0.74678222  0.87290822  0.78033302  1
  Bi2+  Bi96  1  0.18893071  0.01848642  0.18587855  1
  Bi2+  Bi97  1  0.14787256  0.03661603  0.71537528  1
  Bi2+  Bi98  1  0.10932854  0.20646104  0.20340095  1
  Bi2+  Bi99  1  0.13272086  0.24771650  0.70670563  1
  Bi2+  Bi100  1  0.09900815  0.50260864  0.20062519  1
  Bi2+  Bi101  1  0.14177029  0.50409390  0.71700078  1
  Bi2+  Bi102  1  0.13571425  0.75911673  0.21540030  1
  Bi2+  Bi103  1  0.12886348  0.77274203  0.70093335  1
  Bi2+  Bi104  1  0.37923342  0.05125837  0.20265473  1
  Bi2+  Bi105  1  0.32105279  -0.01472648  0.67387782  1
  Bi2+  Bi106  1  0.37610426  0.26082570  0.21202155  1
  Bi2+  Bi107  1  0.41055329  0.12369185  0.73644781  1
  Bi2+  Bi108  1  0.36749318  0.47719827  0.21728728  1
  Bi2+  Bi109  1  0.40540513  0.49011033  0.72058264  1
  Bi2+  Bi110  1  0.42072560  0.74858299  0.20633194  1
  Bi2+  Bi111  1  0.41161955  0.74664581  0.73584132  1
  Bi2+  Bi112  1  0.55020260  0.03531382  0.25579011  1
  Bi2+  Bi113  1  0.64269700  0.02886504  0.68672524  1
  Bi2+  Bi114  1  0.59734946  0.25052548  0.21136872  1
  Bi2+  Bi115  1  0.55372222  0.27463514  0.70790134  1
  Bi2+  Bi116  1  0.61098458  0.51598374  0.21631458  1
  Bi2+  Bi117  1  0.68611169  0.48353407  0.71040611  1
  Bi2+  Bi118  1  0.67264225  0.77841122  0.19472876  1
  Bi2+  Bi119  1  0.59707197  0.72624527  0.69625980  1
  Bi2+  Bi120  1  0.88242322  -0.01811842  0.19616844  1
  Bi2+  Bi121  1  0.89790476  0.02937171  0.68408732  1
  Bi2+  Bi122  1  0.87117847  0.23352179  0.21007705  1
  Bi2+  Bi123  1  0.87342224  0.29443205  0.69078305  1
  Bi2+  Bi124  1  0.82454444  0.50044529  0.21871356  1
  Bi2+  Bi125  1  0.88758666  0.48659730  0.69732781  1
  Bi2+  Bi126  1  0.85466260  0.71577307  0.21258282  1
  Bi2+  Bi127  1  0.87031078  0.67779774  0.71923422  1
  S2-  S128  1  -0.02437151  0.12000143  0.15320485  1
  S2-  S129  1  -0.00921739  0.17586520  0.65409169  1
  S2-  S130  1  0.08348821  0.36110030  0.15481137  1
  S2-  S131  1  0.10082307  0.39622238  0.64847039  1
  S2-  S132  1  -0.05179583  0.57423348  0.16552267  1
  S2-  S133  1  0.08592601  0.63386914  0.65537968  1
  S2-  S134  1  0.01576091  0.85118931  0.15945501  1
  S2-  S135  1  0.01318020  0.89581105  0.66100757  1
  S2-  S136  1  0.24765759  0.23260681  0.14254015  1
  S2-  S137  1  0.25768146  0.21677712  0.64555567  1
  S2-  S138  1  0.24388260  0.47624809  0.14726592  1
  S2-  S139  1  0.26540114  0.38554627  0.73009023  1
  S2-  S140  1  0.13227589  0.64224501  0.14392162  1
  S2-  S141  1  0.28455905  0.54355024  0.66043042  1
  S2-  S142  1  0.27553212  0.83031612  0.17031053  1
  S2-  S143  1  0.25713673  0.76882820  0.64138422  1
  S2-  S144  1  0.53096763  0.10718507  0.15659431  1
  S2-  S145  1  0.52169162  0.13539869  0.64704761  1
  S2-  S146  1  0.58024447  0.38192768  0.14562175  1
  S2-  S147  1  0.42584422  0.36434573  0.65622133  1
  S2-  S148  1  0.38780622  0.61685979  0.15072991  1
  S2-  S149  1  0.52301175  0.57181729  0.66432629  1
  S2-  S150  1  0.53711615  0.84652679  0.14603424  1
  S2-  S151  1  0.58118343  0.87592634  0.64326501  1
  S2-  S152  1  0.73639429  0.21195490  0.14931590  1
  S2-  S153  1  0.75953143  0.12683390  0.65209001  1
  S2-  S154  1  0.87390870  0.37145980  0.15239258  1
  S2-  S155  1  0.65119418  0.35415413  0.64137912  1
  S2-  S156  1  0.64232554  0.62302023  0.13906737  1
  S2-  S157  1  0.74598538  0.70543205  0.64326539  1
  S2-  S158  1  0.74652548  0.98837461  0.14537889  1
  S2-  S159  1  0.78291914  0.91301118  0.67759143  1
  S2-  S160  1  0.11332940  -0.11976177  0.35572411  1
  S2-  S161  1  0.03428094  -0.00231735  0.84535634  1
  S2-  S162  1  0.01586541  0.22979830  0.35375981  1
  S2-  S163  1  0.10215017  0.35292673  0.85891515  1
  S2-  S164  1  0.11325924  0.40698638  0.33732998  1
  S2-  S165  1  0.13808432  0.59642903  0.85441715  1
  S2-  S166  1  0.11707446  0.63828145  0.35021680  1
  S2-  S167  1  0.09770862  0.78861622  0.83388815  1
  S2-  S168  1  0.26358344  0.01239408  0.35686718  1
  S2-  S169  1  0.26548234  -0.01029200  0.86196208  1
  S2-  S170  1  0.27459666  0.24728753  0.35420473  1
  S2-  S171  1  0.38320124  0.23663557  0.84579605  1
  S2-  S172  1  0.30358010  0.52083806  0.35918350  1
  S2-  S173  1  0.33147673  0.50222760  0.83713698  1
  S2-  S174  1  0.29883409  0.75795767  0.35315327  1
  S2-  S175  1  0.35151557  0.74677068  0.84930824  1
  S2-  S176  1  0.48315107  -0.00933370  0.34404890  1
  S2-  S177  1  0.70784024  -0.00332003  0.84660769  1
  S2-  S178  1  0.63678535  0.14669645  0.33879031  1
  S2-  S179  1  0.62473529  0.22737814  0.84250624  1
  S2-  S180  1  0.63592793  0.41226908  0.35854267  1
  S2-  S181  1  0.52775972  0.50656505  0.85850598  1
  S2-  S182  1  0.65413844  0.84646575  0.34885351  1
  S2-  S183  1  0.62374837  0.80193261  0.84180616  1
  S2-  S184  1  0.80302103  -0.00715711  0.35355862  1
  S2-  S185  1  0.86768768  -0.00122927  0.77552803  1
  S2-  S186  1  0.80673266  0.27742526  0.34658927  1
  S2-  S187  1  0.86341143  0.17765815  0.84944157  1
  S2-  S188  1  0.90045701  0.50927872  0.34407976  1
  S2-  S189  1  0.94031654  0.51325026  0.85687477  1
  S2-  S190  1  0.89601148  0.76502996  0.34848609  1
  S2-  S191  1  0.86256890  0.82921907  0.85321841  1
  S2-  S192  1  0.01096999  0.11254841  0.45192475  1
  S2-  S193  1  -0.00512436  0.11831026  0.94727814  1
  S2-  S194  1  0.01421604  0.37915991  0.45438600  1
  S2-  S195  1  -0.01501921  0.36265759  0.96071966  1
  S2-  S196  1  0.01009541  0.62698630  0.45595088  1
  S2-  S197  1  -0.01171546  0.61860672  0.96125669  1
  S2-  S198  1  0.00669366  0.87519097  0.45725812  1
  S2-  S199  1  0.00128750  0.86250014  0.95273654  1
  S2-  S200  1  0.26175260  0.12646179  0.45705080  1
  S2-  S201  1  0.24413828  0.12246250  0.96031497  1
  S2-  S202  1  0.26361112  0.37810184  0.45147086  1
  S2-  S203  1  0.24863872  0.36592245  0.95701242  1
  S2-  S204  1  0.26324326  0.63079684  0.46400387  1
  S2-  S205  1  0.25112165  0.60839240  0.96040535  1
  S2-  S206  1  0.26643635  0.87619513  0.45928691  1
  S2-  S207  1  0.24620690  0.86043979  0.96063505  1
  S2-  S208  1  0.51499677  0.12970375  0.44223887  1
  S2-  S209  1  0.49203012  0.11452557  0.94962456  1
  S2-  S210  1  0.50948318  0.37593749  0.45748053  1
  S2-  S211  1  0.49693303  0.36107341  0.95290738  1
  S2-  S212  1  0.51301247  0.62432959  0.45413074  1
  S2-  S213  1  0.49879052  0.61847739  0.96076876  1
  S2-  S214  1  0.51486693  0.87648944  0.44852738  1
  S2-  S215  1  0.49037516  0.86788770  0.94588003  1
  S2-  S216  1  0.76046566  0.12583740  0.44802338  1
  S2-  S217  1  0.74621731  0.11407434  0.95543903  1
  S2-  S218  1  0.76554255  0.37856558  0.45850384  1
  S2-  S219  1  0.74666907  0.36558853  0.94603165  1
  S2-  S220  1  0.76330996  0.62522796  0.45079738  1
  S2-  S221  1  0.74716607  0.61780249  0.94855814  1
  S2-  S222  1  0.76288648  0.86796826  0.46240789  1
  S2-  S223  1  0.74125648  0.86456827  0.95886770  1
  S2-  S224  1  0.11998886  -0.00768770  0.04532835  1
  S2-  S225  1  0.13936177  -0.00108525  0.54839467  1
  S2-  S226  1  0.11329421  0.24043622  0.04250706  1
  S2-  S227  1  0.13501029  0.24714844  0.54010905  1
  S2-  S228  1  0.11315900  0.48735612  0.04164091  1
  S2-  S229  1  0.14164982  0.50021627  0.54431916  1
  S2-  S230  1  0.12213290  0.74196887  0.04151185  1
  S2-  S231  1  0.13280591  0.75518301  0.54010543  1
  S2-  S232  1  0.36680979  -0.00859910  0.05051580  1
  S2-  S233  1  0.38985332  0.00262817  0.54065992  1
  S2-  S234  1  0.37290009  0.24228022  0.04810845  1
  S2-  S235  1  0.39003557  0.24934909  0.54149413  1
  S2-  S236  1  0.37733450  0.48614068  0.04386685  1
  S2-  S237  1  0.38545633  0.49868397  0.55178804  1
  S2-  S238  1  0.37086893  0.74215254  0.05073387  1
  S2-  S239  1  0.39287498  0.75269347  0.54801636  1
  S2-  S240  1  0.61568820  -0.00778517  0.04129822  1
  S2-  S241  1  0.64011803  0.00209731  0.54519975  1
  S2-  S242  1  0.61970791  0.23908615  0.04499731  1
  S2-  S243  1  0.64135663  0.24785486  0.53388788  1
  S2-  S244  1  0.62516852  0.48664018  0.04192360  1
  S2-  S245  1  0.64161087  0.50317078  0.54879142  1
  S2-  S246  1  0.61921334  0.74483927  0.03944279  1
  S2-  S247  1  0.63318995  0.74492138  0.53978123  1
  S2-  S248  1  0.86942635  -0.01040736  0.04562324  1
  S2-  S249  1  0.88103495  -0.00251315  0.55034327  1
  S2-  S250  1  0.86463494  0.24151914  0.04586328  1
  S2-  S251  1  0.88559234  0.24994959  0.54203112  1
  S2-  S252  1  0.86166277  0.49155052  0.04938445  1
  S2-  S253  1  0.88486001  0.49916857  0.55131938  1
  S2-  S254  1  0.86672728  0.74052310  0.05335562  1
  S2-  S255  1  0.88818605  0.74915187  0.55232301  1
