# generated using pymatgen
data_La9Ce10Pr6Nd4Sm3(BiS2)32
_symmetry_space_group_name_H-M   'P 1'
_cell_length_a   16.17150060
_cell_length_b   16.19265341
_cell_length_c   27.12424359
_cell_angle_alpha   89.81394398
_cell_angle_beta   90.01994584
_cell_angle_gamma   90.09339022
_symmetry_Int_Tables_number   1
_chemical_formula_structural   La9Ce10Pr6Nd4Sm3(BiS2)32
_chemical_formula_sum   'La18 Ce20 Pr12 Nd8 Sm6 Bi64 S128'
_cell_volume   7102.69368007
_cell_formula_units_Z   2
loop_
 _symmetry_equiv_pos_site_id
 _symmetry_equiv_pos_as_xyz
  1  'x, y, z'
loop_
 _atom_type_symbol
 _atom_type_oxidation_number
  La3+  3.0
  Ce3+  3.0
  Pr3+  3.0
  Nd3+  3.0
  Sm3+  3.0
  Bi2+  2.0
  S2-  -2.0
loop_
 _atom_site_type_symbol
 _atom_site_label
 _atom_site_symmetry_multiplicity
 _atom_site_fract_x
 _atom_site_fract_y
 _atom_site_fract_z
 _atom_site_occupancy
  La3+  La0  1  0.14431351  0.74150095  0.94494486  1
  La3+  La1  1  0.36581641  0.50686650  0.40471879  1
  La3+  La2  1  0.01739148  0.12325163  0.05765470  1
  La3+  La3  1  0.88307717  0.25114830  0.91366443  1
  La3+  La4  1  0.52298836  0.62005997  0.06535541  1
  La3+  La5  1  0.74009247  0.36764375  0.59172839  1
  La3+  La6  1  0.26689363  0.35953871  0.07536211  1
  La3+  La7  1  0.52322469  0.11471204  0.07103086  1
  La3+  La8  1  0.39225796  0.74396198  0.93225718  1
  La3+  La9  1  0.65110251  0.74137216  0.92273930  1
  La3+  La10  1  0.64565072  -0.00517796  0.92187154  1
  La3+  La11  1  0.27707163  0.61994729  0.08274301  1
  La3+  La12  1  0.02013345  0.61613604  0.07046335  1
  La3+  La13  1  0.63058033  0.00650092  0.41856147  1
  La3+  La14  1  0.77306035  0.12422434  0.07619301  1
  La3+  La15  1  0.27381927  0.11444008  0.06848011  1
  La3+  La16  1  0.15079553  0.24294035  0.91709682  1
  La3+  La17  1  0.24570418  0.86734734  0.59742617  1
  Ce3+  Ce18  1  0.00168891  0.62315871  0.55822097  1
  Ce3+  Ce19  1  0.12974800  0.24949410  0.44360754  1
  Ce3+  Ce20  1  0.87531868  0.50000195  0.44574803  1
  Ce3+  Ce21  1  0.26972232  0.87412948  0.06045771  1
  Ce3+  Ce22  1  0.50283760  0.63146742  0.56252633  1
  Ce3+  Ce23  1  0.89109628  0.00061502  0.93345996  1
  Ce3+  Ce24  1  0.25582652  0.62744216  0.55965247  1
  Ce3+  Ce25  1  0.89323125  0.74257362  0.94132695  1
  Ce3+  Ce26  1  0.39134650  0.49210795  0.94753266  1
  Ce3+  Ce27  1  0.64404066  0.49788579  0.93324070  1
  Ce3+  Ce28  1  0.12959096  0.49742605  0.44043387  1
  Ce3+  Ce29  1  0.38650470  0.75398485  0.43506787  1
  Ce3+  Ce30  1  0.90180926  0.49763836  0.92992177  1
  Ce3+  Ce31  1  0.52003804  0.36909626  0.05958631  1
  Ce3+  Ce32  1  0.76959275  0.87069908  0.05600312  1
  Ce3+  Ce33  1  0.01911291  0.87235177  0.05126747  1
  Ce3+  Ce34  1  -0.00113103  0.37481101  0.56012354  1
  Ce3+  Ce35  1  0.62603635  0.25099495  0.44262431  1
  Ce3+  Ce36  1  0.50232064  0.37667448  0.55255561  1
  Ce3+  Ce37  1  0.39959798  -0.00100880  0.93372502  1
  Pr3+  Pr38  1  0.62262213  0.50048203  0.43259950  1
  Pr3+  Pr39  1  0.50567303  0.87746852  0.57208003  1
  Pr3+  Pr40  1  0.87973293  0.74131599  0.43109972  1
  Pr3+  Pr41  1  0.63345050  0.74872715  0.42801770  1
  Pr3+  Pr42  1  0.15073052  -0.00248505  0.92604124  1
  Pr3+  Pr43  1  0.87776669  0.25007095  0.44053420  1
  Pr3+  Pr44  1  0.25413756  0.37580361  0.56378407  1
  Pr3+  Pr45  1  0.00206496  0.87206745  0.55936305  1
  Pr3+  Pr46  1  0.52506020  0.86905993  0.05426580  1
  Pr3+  Pr47  1  0.75232708  0.86642017  0.56697271  1
  Pr3+  Pr48  1  0.00603007  0.12374418  0.56733796  1
  Pr3+  Pr49  1  0.50385432  0.12021758  0.56786896  1
  Nd3+  Nd50  1  0.02165863  0.36829534  0.04493894  1
  Nd3+  Nd51  1  0.87586456  -0.00143729  0.44106956  1
  Nd3+  Nd52  1  0.25231584  0.13168810  0.57355137  1
  Nd3+  Nd53  1  0.13122764  -0.00049344  0.44382842  1
  Nd3+  Nd54  1  0.74518871  0.62183554  0.56508671  1
  Nd3+  Nd55  1  0.76890420  0.61780752  0.06266673  1
  Nd3+  Nd56  1  0.39675953  0.24365520  0.93977167  1
  Nd3+  Nd57  1  0.77414978  0.37132423  0.05992371  1
  Sm3+  Sm58  1  0.64649765  0.24643689  0.94610479  1
  Sm3+  Sm59  1  0.13231826  0.74944597  0.44020576  1
  Sm3+  Sm60  1  0.37709423  -0.00094120  0.45235537  1
  Sm3+  Sm61  1  0.37649266  0.24451590  0.44002890  1
  Sm3+  Sm62  1  0.15642785  0.49427282  0.93948410  1
  Sm3+  Sm63  1  0.75435879  0.12213065  0.56439506  1
  Bi2+  Bi64  1  0.00366145  0.07999482  0.29272420  1
  Bi2+  Bi65  1  -0.01652536  0.03194932  0.79997968  1
  Bi2+  Bi66  1  -0.04224052  0.36273910  0.30039456  1
  Bi2+  Bi67  1  0.00920840  0.43744982  0.78173061  1
  Bi2+  Bi68  1  0.00796616  0.54893829  0.30559444  1
  Bi2+  Bi69  1  -0.05592123  0.64473516  0.82118384  1
  Bi2+  Bi70  1  -0.06957917  0.80828599  0.29896637  1
  Bi2+  Bi71  1  -0.00887360  0.83329870  0.79056518  1
  Bi2+  Bi72  1  0.25256476  0.14217093  0.31578908  1
  Bi2+  Bi73  1  0.26016960  0.12095718  0.78708707  1
  Bi2+  Bi74  1  0.14964396  0.38303473  0.27091747  1
  Bi2+  Bi75  1  0.25332073  0.37740463  0.79239565  1
  Bi2+  Bi76  1  0.20415192  0.63367658  0.29135000  1
  Bi2+  Bi77  1  0.21696385  0.61312300  0.80107573  1
  Bi2+  Bi78  1  0.25849473  0.88364509  0.27709851  1
  Bi2+  Bi79  1  0.26039379  0.86945899  0.79003778  1
  Bi2+  Bi80  1  0.48953831  0.12947541  0.30324905  1
  Bi2+  Bi81  1  0.50319549  0.19263315  0.80366157  1
  Bi2+  Bi82  1  0.56556447  0.37235246  0.28626027  1
  Bi2+  Bi83  1  0.51451302  0.38813838  0.80533217  1
  Bi2+  Bi84  1  0.49317732  0.65443458  0.29786181  1
  Bi2+  Bi85  1  0.49425712  0.57613163  0.77381930  1
  Bi2+  Bi86  1  0.43403517  0.82639288  0.23416656  1
  Bi2+  Bi87  1  0.50251876  0.90740218  0.78643865  1
  Bi2+  Bi88  1  0.76139420  0.13960602  0.28954442  1
  Bi2+  Bi89  1  0.76619620  0.13213755  0.78491750  1
  Bi2+  Bi90  1  0.76162129  0.38086864  0.28469240  1
  Bi2+  Bi91  1  0.71162237  0.39624979  0.81062041  1
  Bi2+  Bi92  1  0.74816409  0.58034399  0.28213378  1
  Bi2+  Bi93  1  0.74865857  0.59243637  0.79781784  1
  Bi2+  Bi94  1  0.65690248  0.83807406  0.29657320  1
  Bi2+  Bi95  1  0.76496462  0.87078845  0.78437946  1
  Bi2+  Bi96  1  0.11732252  0.00584092  0.20618458  1
  Bi2+  Bi97  1  0.11095311  -0.03213848  0.72925619  1
  Bi2+  Bi98  1  0.11513002  0.19893933  0.21915840  1
  Bi2+  Bi99  1  0.13392162  0.22666096  0.70657928  1
  Bi2+  Bi100  1  0.01408531  0.48638147  0.19517946  1
  Bi2+  Bi101  1  0.16080432  0.50267083  0.71281485  1
  Bi2+  Bi102  1  0.07882964  0.80832494  0.21921082  1
  Bi2+  Bi103  1  0.10896253  0.71913319  0.71308372  1
  Bi2+  Bi104  1  0.36604527  0.01224363  0.21552015  1
  Bi2+  Bi105  1  0.40979357  0.12451459  0.70623735  1
  Bi2+  Bi106  1  0.36280215  0.27178625  0.20408505  1
  Bi2+  Bi107  1  0.39305335  0.32251391  0.70974708  1
  Bi2+  Bi108  1  0.36688950  0.52005040  0.21542916  1
  Bi2+  Bi109  1  0.35376034  0.51528744  0.70355123  1
  Bi2+  Bi110  1  0.26857221  0.77696190  0.18207808  1
  Bi2+  Bi111  1  0.36933538  0.74426297  0.71890030  1
  Bi2+  Bi112  1  0.62891422  -0.01733882  0.21181737  1
  Bi2+  Bi113  1  0.62852782  0.00326348  0.71816917  1
  Bi2+  Bi114  1  0.65314598  0.24823465  0.21507568  1
  Bi2+  Bi115  1  0.60016081  0.19847773  0.70443912  1
  Bi2+  Bi116  1  0.63106189  0.48948436  0.20292598  1
  Bi2+  Bi117  1  0.63097717  0.47337906  0.71390527  1
  Bi2+  Bi118  1  0.68038946  0.76590186  0.19630859  1
  Bi2+  Bi119  1  0.62836692  0.73365664  0.69535467  1
  Bi2+  Bi120  1  0.85110514  -0.03034866  0.26189640  1
  Bi2+  Bi121  1  0.82519399  0.01530115  0.69324388  1
  Bi2+  Bi122  1  0.91536508  0.23779163  0.20075923  1
  Bi2+  Bi123  1  0.89111620  0.26720233  0.70370299  1
  Bi2+  Bi124  1  0.82292663  0.50127165  0.17740472  1
  Bi2+  Bi125  1  0.88824523  0.55902650  0.72290525  1
  Bi2+  Bi126  1  0.86111339  0.70007301  0.21071254  1
  Bi2+  Bi127  1  0.88580676  0.83441625  0.69198139  1
  S2-  S128  1  -0.08699013  0.11369605  0.14050239  1
  S2-  S129  1  -0.04763422  0.12347100  0.66406893  1
  S2-  S130  1  0.02614692  0.33794142  0.14421851  1
  S2-  S131  1  0.02253844  0.33556489  0.65590631  1
  S2-  S132  1  0.01365764  0.66591999  0.16769168  1
  S2-  S133  1  0.01006096  0.63005718  0.65660935  1
  S2-  S134  1  0.01398776  0.91049563  0.14706414  1
  S2-  S135  1  0.08795686  0.86679984  0.64892666  1
  S2-  S136  1  0.23063428  0.22308581  0.14496496  1
  S2-  S137  1  0.16482665  0.08993179  0.65814127  1
  S2-  S138  1  0.26684895  0.41126671  0.17626976  1
  S2-  S139  1  0.25584176  0.27203224  0.64637059  1
  S2-  S140  1  0.22385302  0.61045997  0.18417471  1
  S2-  S141  1  0.24719018  0.70594028  0.64806964  1
  S2-  S142  1  0.25410412  0.98030300  0.13861869  1
  S2-  S143  1  0.31842616  0.89357078  0.69182274  1
  S2-  S144  1  0.41398343  0.12904910  0.15261554  1
  S2-  S145  1  0.49179447  0.01073420  0.64702051  1
  S2-  S146  1  0.47141895  0.35277018  0.15487611  1
  S2-  S147  1  0.57632083  0.36512571  0.64184378  1
  S2-  S148  1  0.42234041  0.62132139  0.14963396  1
  S2-  S149  1  0.61854156  0.59525800  0.63707349  1
  S2-  S150  1  0.50840164  0.90813841  0.15356409  1
  S2-  S151  1  0.47850228  0.74457904  0.64288266  1
  S2-  S152  1  0.64202599  0.10638432  0.14916195  1
  S2-  S153  1  0.74967113  0.21657434  0.64935110  1
  S2-  S154  1  0.77670779  0.27710410  0.14527914  1
  S2-  S155  1  0.81939189  0.41569463  0.67814173  1
  S2-  S156  1  0.64875434  0.63219444  0.13810365  1
  S2-  S157  1  0.77917612  0.72935464  0.64349499  1
  S2-  S158  1  0.75613678  0.90876945  0.15257055  1
  S2-  S159  1  0.63889773  0.87248995  0.64601437  1
  S2-  S160  1  0.13391405  0.01423255  0.34394772  1
  S2-  S161  1  0.12642019  0.10794872  0.84516014  1
  S2-  S162  1  0.14287452  0.26425862  0.34651354  1
  S2-  S163  1  0.10628171  0.31880979  0.82187111  1
  S2-  S164  1  0.20988439  0.48678621  0.35045561  1
  S2-  S165  1  0.07749064  0.54729770  0.85609115  1
  S2-  S166  1  0.10149853  0.72751336  0.34313772  1
  S2-  S167  1  0.17171062  0.76342826  0.84569584  1
  S2-  S168  1  0.36961825  0.03932200  0.35508475  1
  S2-  S169  1  0.29113811  -0.00561987  0.85542833  1
  S2-  S170  1  0.37212255  0.25269297  0.33988129  1
  S2-  S171  1  0.30200599  0.24726307  0.85454254  1
  S2-  S172  1  0.43997372  0.48169387  0.31288498  1
  S2-  S173  1  0.29714644  0.50433235  0.86546954  1
  S2-  S174  1  0.34096869  0.66404162  0.35004251  1
  S2-  S175  1  0.40238754  0.78159250  0.83165442  1
  S2-  S176  1  0.56466544  -0.01048755  0.31830609  1
  S2-  S177  1  0.51090495  0.03274419  0.85354637  1
  S2-  S178  1  0.62743017  0.16988356  0.35746625  1
  S2-  S179  1  0.71987428  0.23567038  0.85640351  1
  S2-  S180  1  0.62611442  0.61064246  0.35406413  1
  S2-  S181  1  0.60884914  0.60956167  0.85524419  1
  S2-  S182  1  0.50528612  0.78377830  0.35864597  1
  S2-  S183  1  0.62431090  0.85374145  0.84299839  1
  S2-  S184  1  0.78063842  0.00600300  0.35697200  1
  S2-  S185  1  0.78363752  -0.00105518  0.85393669  1
  S2-  S186  1  0.89837299  0.20327108  0.34346789  1
  S2-  S187  1  0.91700109  0.18511286  0.81660533  1
  S2-  S188  1  0.87654703  0.59092169  0.36176532  1
  S2-  S189  1  0.87872259  0.39988615  0.84892664  1
  S2-  S190  1  0.76956640  0.77825792  0.35559094  1
  S2-  S191  1  0.80138238  0.74172575  0.85610235  1
  S2-  S192  1  0.00353533  0.12282046  0.45728288  1
  S2-  S193  1  0.01352967  0.12407670  0.94717676  1
  S2-  S194  1  0.00345743  0.37570257  0.45182085  1
  S2-  S195  1  0.02686596  0.37344819  0.94148521  1
  S2-  S196  1  0.01023684  0.62286370  0.45478989  1
  S2-  S197  1  0.02080643  0.61921307  0.96270091  1
  S2-  S198  1  0.00392711  0.87413424  0.44992590  1
  S2-  S199  1  0.01812585  0.87092931  0.94371406  1
  S2-  S200  1  0.25292384  0.12568203  0.46320408  1
  S2-  S201  1  0.27443787  0.11957519  0.95768427  1
  S2-  S202  1  0.25944305  0.37350493  0.45657429  1
  S2-  S203  1  0.27051993  0.36753033  0.96182530  1
  S2-  S204  1  0.25055295  0.62373080  0.45586096  1
  S2-  S205  1  0.27051670  0.62137415  0.96633286  1
  S2-  S206  1  0.25334743  0.87505609  0.44209891  1
  S2-  S207  1  0.27020467  0.86842405  0.95492635  1
  S2-  S208  1  0.49994075  0.12432688  0.45960783  1
  S2-  S209  1  0.52392406  0.12653021  0.95969507  1
  S2-  S210  1  0.49457189  0.37488458  0.44423960  1
  S2-  S211  1  0.52103238  0.36999857  0.95070991  1
  S2-  S212  1  0.49206602  0.61585936  0.45530396  1
  S2-  S213  1  0.51284153  0.61874163  0.95754721  1
  S2-  S214  1  0.50664046  0.88920082  0.46033690  1
  S2-  S215  1  0.51865453  0.86608650  0.94870716  1
  S2-  S216  1  0.75410031  0.12691955  0.46027553  1
  S2-  S217  1  0.76822534  0.12328153  0.95825324  1
  S2-  S218  1  0.75170156  0.37469085  0.43753520  1
  S2-  S219  1  0.76616705  0.37595359  0.95484532  1
  S2-  S220  1  0.75109171  0.62074455  0.45963169  1
  S2-  S221  1  0.77297125  0.61371551  0.95661686  1
  S2-  S222  1  0.75374120  0.87765963  0.45993493  1
  S2-  S223  1  0.77282881  0.86960109  0.95228341  1
  S2-  S224  1  0.13944499  -0.00434719  0.03465656  1
  S2-  S225  1  0.12995039  -0.00366368  0.54890252  1
  S2-  S226  1  0.14160924  0.24268030  0.03490735  1
  S2-  S227  1  0.12472379  0.25155762  0.54774955  1
  S2-  S228  1  0.14826200  0.49455755  0.05151778  1
  S2-  S229  1  0.12883437  0.49852631  0.55015587  1
  S2-  S230  1  0.14511991  0.74620265  0.05417870  1
  S2-  S231  1  0.12755532  0.74912706  0.54399914  1
  S2-  S232  1  0.39949393  -0.00927642  0.04115370  1
  S2-  S233  1  0.36294202  -0.00308676  0.55531507  1
  S2-  S234  1  0.39799222  0.24501408  0.04455666  1
  S2-  S235  1  0.38230871  0.24822365  0.54733179  1
  S2-  S236  1  0.39296335  0.48916225  0.05180389  1
  S2-  S237  1  0.37940438  0.50011857  0.56036108  1
  S2-  S238  1  0.39475829  0.74926739  0.04527540  1
  S2-  S239  1  0.36981392  0.75765366  0.54159832  1
  S2-  S240  1  0.64806844  -0.00660693  0.03789586  1
  S2-  S241  1  0.63401729  0.00439231  0.54610646  1
  S2-  S242  1  0.64467884  0.24899375  0.04838621  1
  S2-  S243  1  0.62719551  0.24506235  0.54503179  1
  S2-  S244  1  0.64598498  0.49071730  0.04252402  1
  S2-  S245  1  0.63240557  0.48840673  0.53742268  1
  S2-  S246  1  0.64945268  0.74560941  0.03521621  1
  S2-  S247  1  0.62608952  0.74818892  0.53691115  1
  S2-  S248  1  0.89346417  -0.00694459  0.03859399  1
  S2-  S249  1  0.87793560  -0.00073168  0.54856880  1
  S2-  S250  1  0.89458857  0.25061724  0.03234836  1
  S2-  S251  1  0.87499168  0.25172502  0.54791670  1
  S2-  S252  1  0.89593538  0.49488063  0.04243573  1
  S2-  S253  1  0.87195841  0.49623959  0.55338217  1
  S2-  S254  1  0.89369008  0.74339245  0.05010189  1
  S2-  S255  1  0.88177040  0.74580764  0.53908978  1
