# generated using pymatgen
data_La9Ce10Pr6Nd4Sm3(BiS2)32
_symmetry_space_group_name_H-M   'P 1'
_cell_length_a   16.19102966
_cell_length_b   16.18560453
_cell_length_c   26.98033230
_cell_angle_alpha   89.97229797
_cell_angle_beta   90.04996697
_cell_angle_gamma   90.01623337
_symmetry_Int_Tables_number   1
_chemical_formula_structural   La9Ce10Pr6Nd4Sm3(BiS2)32
_chemical_formula_sum   'La18 Ce20 Pr12 Nd8 Sm6 Bi64 S128'
_cell_volume   7070.50533377
_cell_formula_units_Z   2
loop_
 _symmetry_equiv_pos_site_id
 _symmetry_equiv_pos_as_xyz
  1  'x, y, z'
loop_
 _atom_type_symbol
 _atom_type_oxidation_number
  La3+  3.0
  Ce3+  3.0
  Pr3+  3.0
  Nd3+  3.0
  Sm3+  3.0
  Bi2+  2.0
  S2-  -2.0
loop_
 _atom_site_type_symbol
 _atom_site_label
 _atom_site_symmetry_multiplicity
 _atom_site_fract_x
 _atom_site_fract_y
 _atom_site_fract_z
 _atom_site_occupancy
  La3+  La0  1  0.86791382  -0.00115996  0.44368434  1
  La3+  La1  1  0.23570287  0.12866725  0.59298274  1
  La3+  La2  1  0.61254784  0.50292703  0.42535858  1
  La3+  La3  1  0.86124262  0.25308955  0.41370370  1
  La3+  La4  1  0.74954783  0.13262619  0.56796602  1
  La3+  La5  1  0.48682636  0.13759503  0.06090873  1
  La3+  La6  1  0.50137924  0.13563047  0.58229216  1
  La3+  La7  1  0.73637631  0.87099765  0.60370977  1
  La3+  La8  1  -0.01555027  0.13882699  0.08611835  1
  La3+  La9  1  0.73784228  0.63692457  0.07443754  1
  La3+  La10  1  0.35632189  0.01023778  0.92937922  1
  La3+  La11  1  0.12248377  0.75535216  0.92985762  1
  La3+  La12  1  0.00185623  0.87166666  0.58495642  1
  La3+  La13  1  0.24177260  0.88678053  0.07495985  1
  La3+  La14  1  -0.00805721  0.87698903  0.07831418  1
  La3+  La15  1  -0.00699409  0.62943557  0.07560193  1
  La3+  La16  1  0.10578273  0.50897486  0.92984023  1
  La3+  La17  1  0.35316669  0.26753073  0.91813962  1
  Ce3+  Ce18  1  0.24029424  0.62868967  0.06014847  1
  Ce3+  Ce19  1  0.74523572  0.37805574  0.55649909  1
  Ce3+  Ce20  1  0.61933515  0.51291754  0.93511241  1
  Ce3+  Ce21  1  -0.01101061  0.38342410  0.06261847  1
  Ce3+  Ce22  1  0.86887389  0.00404750  0.94443291  1
  Ce3+  Ce23  1  0.12114259  0.00218998  0.43429281  1
  Ce3+  Ce24  1  0.86717022  0.50376445  0.44142702  1
  Ce3+  Ce25  1  0.24299669  0.87470488  0.56043921  1
  Ce3+  Ce26  1  0.61697912  0.24751154  0.43515152  1
  Ce3+  Ce27  1  0.36914844  0.00521055  0.45434337  1
  Ce3+  Ce28  1  0.49029755  0.37927822  0.05532791  1
  Ce3+  Ce29  1  0.36793978  0.24798056  0.44494261  1
  Ce3+  Ce30  1  -0.00406082  0.37278090  0.54796234  1
  Ce3+  Ce31  1  0.74595821  0.13366685  0.05681282  1
  Ce3+  Ce32  1  0.74154587  0.88476606  0.06129435  1
  Ce3+  Ce33  1  -0.00916399  0.63234829  0.55761350  1
  Ce3+  Ce34  1  0.74368984  0.62600222  0.56558959  1
  Ce3+  Ce35  1  0.37010299  0.50832401  0.93828454  1
  Ce3+  Ce36  1  0.87077811  0.25612182  0.93430118  1
  Ce3+  Ce37  1  0.36393495  0.50024721  0.43829661  1
  Pr3+  Pr38  1  0.13202631  0.25474111  0.42280885  1
  Pr3+  Pr39  1  0.11828243  0.75329026  0.43362081  1
  Pr3+  Pr40  1  -0.00328630  0.12721435  0.54832037  1
  Pr3+  Pr41  1  0.49160601  0.89225953  0.06758295  1
  Pr3+  Pr42  1  0.11176979  0.00069418  0.94204727  1
  Pr3+  Pr43  1  0.23626587  0.13513856  0.06805282  1
  Pr3+  Pr44  1  0.11770112  0.50419016  0.44001879  1
  Pr3+  Pr45  1  0.37024954  0.75363953  0.43996966  1
  Pr3+  Pr46  1  0.24446653  0.62596191  0.57006089  1
  Pr3+  Pr47  1  0.49056974  0.63756238  0.07798347  1
  Pr3+  Pr48  1  0.23534242  0.37754859  0.57337266  1
  Pr3+  Pr49  1  0.61428922  0.00755239  0.93177009  1
  Nd3+  Nd50  1  0.49230829  0.87660079  0.56865553  1
  Nd3+  Nd51  1  0.10916749  0.25470960  0.93634343  1
  Nd3+  Nd52  1  0.86652584  0.75903841  0.94114146  1
  Nd3+  Nd53  1  0.74026749  0.38391463  0.05496025  1
  Nd3+  Nd54  1  0.62071618  0.75319920  0.44375374  1
  Nd3+  Nd55  1  0.36938367  0.75734991  0.94419697  1
  Nd3+  Nd56  1  0.49346675  0.38020918  0.55827040  1
  Nd3+  Nd57  1  0.61629493  0.25559234  0.93421282  1
  Sm3+  Sm58  1  0.23961183  0.37755892  0.06095894  1
  Sm3+  Sm59  1  0.86654838  0.75539214  0.44406988  1
  Sm3+  Sm60  1  0.61832064  0.00047254  0.45096506  1
  Sm3+  Sm61  1  0.61422032  0.75941920  0.94498113  1
  Sm3+  Sm62  1  0.49576665  0.62645484  0.55871491  1
  Sm3+  Sm63  1  0.85767161  0.51265678  0.93781523  1
  Bi2+  Bi64  1  -0.01066593  0.11235338  0.29258471  1
  Bi2+  Bi65  1  -0.00238602  0.13385804  0.78467906  1
  Bi2+  Bi66  1  0.05550347  0.41750685  0.28289248  1
  Bi2+  Bi67  1  0.02290268  0.39481962  0.78941065  1
  Bi2+  Bi68  1  -0.02156906  0.59592816  0.28848990  1
  Bi2+  Bi69  1  0.00424768  0.63989169  0.79857204  1
  Bi2+  Bi70  1  -0.00142598  0.86349749  0.31204666  1
  Bi2+  Bi71  1  -0.03878418  0.87193602  0.78347777  1
  Bi2+  Bi72  1  0.29570146  0.13741970  0.30805158  1
  Bi2+  Bi73  1  0.27677973  0.11919960  0.79432081  1
  Bi2+  Bi74  1  0.31792905  0.37970669  0.25482920  1
  Bi2+  Bi75  1  0.22205085  0.39191806  0.78906558  1
  Bi2+  Bi76  1  0.29948706  0.56496538  0.29279210  1
  Bi2+  Bi77  1  0.32632981  0.64511057  0.78075958  1
  Bi2+  Bi78  1  0.31921451  0.82466329  0.25819021  1
  Bi2+  Bi79  1  0.20965596  0.87266924  0.79201382  1
  Bi2+  Bi80  1  0.48914076  0.18518748  0.30963907  1
  Bi2+  Bi81  1  0.53864064  0.12326818  0.80379221  1
  Bi2+  Bi82  1  0.51202615  0.37883104  0.29109151  1
  Bi2+  Bi83  1  0.55881337  0.43112242  0.75395325  1
  Bi2+  Bi84  1  0.52392599  0.65784534  0.30131809  1
  Bi2+  Bi85  1  0.48775245  0.56340682  0.82901391  1
  Bi2+  Bi86  1  0.50556760  0.92221421  0.30299332  1
  Bi2+  Bi87  1  0.47888055  0.76268481  0.81385828  1
  Bi2+  Bi88  1  0.66929719  0.14659450  0.26412818  1
  Bi2+  Bi89  1  0.80714865  0.21010874  0.78376467  1
  Bi2+  Bi90  1  0.70624756  0.40885522  0.30135556  1
  Bi2+  Bi91  1  0.75361526  0.40428486  0.78440666  1
  Bi2+  Bi92  1  0.80527700  0.54872012  0.24485681  1
  Bi2+  Bi93  1  0.66818056  0.60009584  0.77153367  1
  Bi2+  Bi94  1  0.74576019  0.89829574  0.31333939  1
  Bi2+  Bi95  1  0.74816214  0.87179995  0.79944319  1
  Bi2+  Bi96  1  0.14082017  -0.02009054  0.21313606  1
  Bi2+  Bi97  1  0.10148266  0.00503181  0.71035448  1
  Bi2+  Bi98  1  0.13339909  0.25531511  0.21764550  1
  Bi2+  Bi99  1  0.12054261  0.25265612  0.71180229  1
  Bi2+  Bi100  1  0.16941795  0.45801889  0.18876483  1
  Bi2+  Bi101  1  0.12560183  0.52742618  0.72140889  1
  Bi2+  Bi102  1  0.11557386  0.70949013  0.22654232  1
  Bi2+  Bi103  1  0.15410264  0.72184645  0.70048409  1
  Bi2+  Bi104  1  0.39164920  -0.00667622  0.21897237  1
  Bi2+  Bi105  1  0.38777449  -0.09738910  0.74879082  1
  Bi2+  Bi106  1  0.38012499  0.20265202  0.20927805  1
  Bi2+  Bi107  1  0.40049419  0.24215803  0.71364822  1
  Bi2+  Bi108  1  0.37872791  0.47170874  0.15486526  1
  Bi2+  Bi109  1  0.37587950  0.49019217  0.71748772  1
  Bi2+  Bi110  1  0.38956456  0.65186058  0.20500649  1
  Bi2+  Bi111  1  0.34031547  0.75468080  0.67387005  1
  Bi2+  Bi112  1  0.63453048  -0.02460283  0.20566039  1
  Bi2+  Bi113  1  0.58124948  -0.00446770  0.71561203  1
  Bi2+  Bi114  1  0.62335251  0.30086336  0.19811484  1
  Bi2+  Bi115  1  0.65315365  0.25128987  0.70515669  1
  Bi2+  Bi116  1  0.55346231  0.50355034  0.20096559  1
  Bi2+  Bi117  1  0.70946751  0.48541380  0.67705407  1
  Bi2+  Bi118  1  0.58399829  0.78181949  0.21525743  1
  Bi2+  Bi119  1  0.52700626  0.70052241  0.70209425  1
  Bi2+  Bi120  1  0.82212117  0.02518584  0.22464059  1
  Bi2+  Bi121  1  0.86369037  0.06538576  0.71291726  1
  Bi2+  Bi122  1  0.86191994  0.27388728  0.21267861  1
  Bi2+  Bi123  1  0.92700595  0.28945733  0.68785879  1
  Bi2+  Bi124  1  0.97079790  0.49145745  0.18594623  1
  Bi2+  Bi125  1  0.90260292  0.48558739  0.70354795  1
  Bi2+  Bi126  1  0.88580252  0.80692938  0.21512416  1
  Bi2+  Bi127  1  0.87183563  0.67458160  0.71501701  1
  S2-  S128  1  0.08499988  0.11847169  0.17367595  1
  S2-  S129  1  0.07293515  0.12733333  0.63958942  1
  S2-  S130  1  -0.01759913  0.29173082  0.14805977  1
  S2-  S131  1  0.07014270  0.36315984  0.63625977  1
  S2-  S132  1  -0.00034257  0.74757402  0.15216876  1
  S2-  S133  1  0.00127563  0.71270578  0.64555667  1
  S2-  S134  1  -0.02373113  0.94324926  0.17804855  1
  S2-  S135  1  -0.05443330  0.92484877  0.67900718  1
  S2-  S136  1  0.26159154  0.02015681  0.14828362  1
  S2-  S137  1  0.24971318  0.06040603  0.69518171  1
  S2-  S138  1  0.24617608  0.26245091  0.14020410  1
  S2-  S139  1  0.26380144  0.26952857  0.65422311  1
  S2-  S140  1  0.16547673  0.62026691  0.14929752  1
  S2-  S141  1  0.25102833  0.50661439  0.64636316  1
  S2-  S142  1  0.20257863  0.83034746  0.17343164  1
  S2-  S143  1  0.15196315  0.87604594  0.64411472  1
  S2-  S144  1  0.50303764  0.02277329  0.14018828  1
  S2-  S145  1  0.44637060  0.09700784  0.67975810  1
  S2-  S146  1  0.48632131  0.26661245  0.13498713  1
  S2-  S147  1  0.51109979  0.29541636  0.64598461  1
  S2-  S148  1  0.61808987  0.63373207  0.15128523  1
  S2-  S149  1  0.49478972  0.55775047  0.65030370  1
  S2-  S150  1  0.46183660  0.78887824  0.15054621  1
  S2-  S151  1  0.57338612  0.86028912  0.65685815  1
  S2-  S152  1  0.82812569  0.14035822  0.14668076  1
  S2-  S153  1  0.64293100  0.11538628  0.65039783  1
  S2-  S154  1  0.75867090  0.37816839  0.15603800  1
  S2-  S155  1  0.77813042  0.27378980  0.63435741  1
  S2-  S156  1  0.84854469  0.60726633  0.15257811  1
  S2-  S157  1  0.75070329  0.71519277  0.65179329  1
  S2-  S158  1  0.76202282  0.82123797  0.15290414  1
  S2-  S159  1  0.74473989  0.94202506  0.70070807  1
  S2-  S160  1  0.10564193  -0.01933157  0.33287947  1
  S2-  S161  1  0.21706755  0.01848961  0.85870671  1
  S2-  S162  1  0.11435089  0.19873836  0.32293614  1
  S2-  S163  1  0.21153430  0.24590755  0.85138013  1
  S2-  S164  1  0.17036814  0.50671658  0.34311042  1
  S2-  S165  1  0.13118512  0.62771850  0.85460694  1
  S2-  S166  1  0.12310983  0.75653239  0.33127201  1
  S2-  S167  1  0.07218720  0.87180853  0.85536042  1
  S2-  S168  1  0.36890860  -0.00228752  0.35497029  1
  S2-  S169  1  0.42102022  -0.00121478  0.83133427  1
  S2-  S170  1  0.28706703  0.28547735  0.36127742  1
  S2-  S171  1  0.41651953  0.22540219  0.82183466  1
  S2-  S172  1  0.44691301  0.51876350  0.35239129  1
  S2-  S173  1  0.34236868  0.42556878  0.85375456  1
  S2-  S174  1  0.37180290  0.75042243  0.33777597  1
  S2-  S175  1  0.28139986  0.77718643  0.85708926  1
  S2-  S176  1  0.62942022  0.01140383  0.35124710  1
  S2-  S177  1  0.64824740  -0.01336582  0.83117789  1
  S2-  S178  1  0.71321812  0.25119464  0.35238641  1
  S2-  S179  1  0.64223759  0.24257580  0.83448444  1
  S2-  S180  1  0.66034457  0.56851332  0.33489379  1
  S2-  S181  1  0.73674356  0.52442060  0.85961411  1
  S2-  S182  1  0.61494294  0.78550155  0.34444496  1
  S2-  S183  1  0.64701391  0.76082476  0.84660261  1
  S2-  S184  1  0.86242240  0.01565263  0.34151378  1
  S2-  S185  1  0.86865855  -0.02559483  0.84540558  1
  S2-  S186  1  0.91181443  0.24957917  0.31221053  1
  S2-  S187  1  0.98667870  0.25487605  0.85900395  1
  S2-  S188  1  0.86808730  0.48785018  0.34275463  1
  S2-  S189  1  0.96183835  0.50478204  0.85810458  1
  S2-  S190  1  0.85374241  0.77476992  0.34406528  1
  S2-  S191  1  0.87207657  0.74987938  0.83840850  1
  S2-  S192  1  -0.00473456  0.12920478  0.44046655  1
  S2-  S193  1  -0.01180004  0.12723670  0.95989774  1
  S2-  S194  1  -0.00406280  0.37494670  0.43925851  1
  S2-  S195  1  -0.01626598  0.38406409  0.95808249  1
  S2-  S196  1  -0.00890038  0.63086686  0.44857760  1
  S2-  S197  1  -0.01415829  0.63532366  0.96074855  1
  S2-  S198  1  -0.00545779  0.87518683  0.45438249  1
  S2-  S199  1  -0.01239046  0.87963859  0.96534907  1
  S2-  S200  1  0.24349843  0.12397855  0.45192862  1
  S2-  S201  1  0.23351117  0.13496687  0.96046279  1
  S2-  S202  1  0.24178655  0.38262941  0.46328545  1
  S2-  S203  1  0.23080010  0.38721744  0.95650861  1
  S2-  S204  1  0.24480259  0.62909160  0.45445622  1
  S2-  S205  1  0.24791633  0.62810363  0.95553314  1
  S2-  S206  1  0.24459667  0.87642867  0.45116888  1
  S2-  S207  1  0.24140847  0.88176040  0.96416302  1
  S2-  S208  1  0.49641200  0.12481265  0.46285471  1
  S2-  S209  1  0.48931845  0.13493428  0.94688559  1
  S2-  S210  1  0.49193735  0.37337119  0.45064926  1
  S2-  S211  1  0.49678631  0.38247587  0.94656054  1
  S2-  S212  1  0.49404906  0.62974107  0.45429551  1
  S2-  S213  1  0.49376447  0.63567109  0.96198611  1
  S2-  S214  1  0.49487371  0.87756999  0.46024262  1
  S2-  S215  1  0.49094188  0.88424597  0.95429765  1
  S2-  S216  1  0.74203580  0.12375010  0.45697376  1
  S2-  S217  1  0.74367500  0.13104402  0.94715780  1
  S2-  S218  1  0.74153486  0.38154155  0.45047248  1
  S2-  S219  1  0.74224217  0.37861181  0.94830832  1
  S2-  S220  1  0.74496484  0.62959856  0.45490725  1
  S2-  S221  1  0.73809055  0.63995033  0.96203614  1
  S2-  S222  1  0.74195978  0.87675787  0.45553209  1
  S2-  S223  1  0.73855841  0.88268074  0.95372980  1
  S2-  S224  1  0.10911729  0.00870117  0.05273025  1
  S2-  S225  1  0.12226206  0.00047847  0.54181628  1
  S2-  S226  1  0.11031005  0.25976755  0.04439520  1
  S2-  S227  1  0.12218090  0.24925627  0.53382840  1
  S2-  S228  1  0.11653793  0.50288998  0.04409566  1
  S2-  S229  1  0.11290948  0.50913813  0.54598234  1
  S2-  S230  1  0.12062765  0.75564391  0.04493350  1
  S2-  S231  1  0.12297017  0.74805672  0.54146078  1
  S2-  S232  1  0.36576959  0.01150190  0.03973615  1
  S2-  S233  1  0.36669090  0.00290461  0.56268062  1
  S2-  S234  1  0.36327659  0.26299767  0.03139535  1
  S2-  S235  1  0.36762058  0.25025254  0.54965814  1
  S2-  S236  1  0.36665846  0.50560370  0.04351291  1
  S2-  S237  1  0.37107479  0.50415692  0.54412773  1
  S2-  S238  1  0.36307149  0.75695809  0.04934676  1
  S2-  S239  1  0.37138627  0.74917873  0.54746844  1
  S2-  S240  1  0.62180026  0.01198726  0.04023998  1
  S2-  S241  1  0.62328457  -0.00548911  0.55477498  1
  S2-  S242  1  0.62197614  0.25535846  0.04078950  1
  S2-  S243  1  0.62168548  0.25630467  0.54047277  1
  S2-  S244  1  0.61357490  0.50506340  0.04467084  1
  S2-  S245  1  0.61781163  0.50265636  0.53952863  1
  S2-  S246  1  0.61215623  0.76520215  0.04949781  1
  S2-  S247  1  0.61772675  0.74975099  0.54998403  1
  S2-  S248  1  0.86703996  0.00562387  0.05162495  1
  S2-  S249  1  0.87006597  -0.00122458  0.55509064  1
  S2-  S250  1  0.86410003  0.26005514  0.04036352  1
  S2-  S251  1  0.87416586  0.25250575  0.52769632  1
  S2-  S252  1  0.86386291  0.50680262  0.04323729  1
  S2-  S253  1  0.87148408  0.50182282  0.54928663  1
  S2-  S254  1  0.86431925  0.75818590  0.04747218  1
  S2-  S255  1  0.86570130  0.75898264  0.54899200  1
