# generated using pymatgen
data_La9Ce10Pr6Nd4Sm3(BiS2)32
_symmetry_space_group_name_H-M   'P 1'
_cell_length_a   16.17072975
_cell_length_b   16.23619489
_cell_length_c   27.19389303
_cell_angle_alpha   89.97565246
_cell_angle_beta   90.27957530
_cell_angle_gamma   89.92063920
_symmetry_Int_Tables_number   1
_chemical_formula_structural   La9Ce10Pr6Nd4Sm3(BiS2)32
_chemical_formula_sum   'La18 Ce20 Pr12 Nd8 Sm6 Bi64 S128'
_cell_volume   7139.69455164
_cell_formula_units_Z   2
loop_
 _symmetry_equiv_pos_site_id
 _symmetry_equiv_pos_as_xyz
  1  'x, y, z'
loop_
 _atom_type_symbol
 _atom_type_oxidation_number
  La3+  3.0
  Ce3+  3.0
  Pr3+  3.0
  Nd3+  3.0
  Sm3+  3.0
  Bi2+  2.0
  S2-  -2.0
loop_
 _atom_site_type_symbol
 _atom_site_label
 _atom_site_symmetry_multiplicity
 _atom_site_fract_x
 _atom_site_fract_y
 _atom_site_fract_z
 _atom_site_occupancy
  La3+  La0  1  0.26472562  0.12649569  0.56971661  1
  La3+  La1  1  0.34128357  0.74705176  0.92365791  1
  La3+  La2  1  0.76210235  0.12119472  0.57812135  1
  La3+  La3  1  0.01571972  0.88017573  0.56165754  1
  La3+  La4  1  0.26131104  0.63491795  0.59323171  1
  La3+  La5  1  0.59807580  0.00450646  0.92547406  1
  La3+  La6  1  0.51379295  0.12490025  0.56651746  1
  La3+  La7  1  0.52282145  0.38940780  0.57455238  1
  La3+  La8  1  0.63179869  0.50566033  0.41965763  1
  La3+  La9  1  0.59200053  0.50485369  0.92554969  1
  La3+  La10  1  0.38588310  0.50374155  0.44392953  1
  La3+  La11  1  0.52342472  0.63665031  0.57380232  1
  La3+  La12  1  0.01378789  0.13233641  0.57324570  1
  La3+  La13  1  0.09767655  0.49987990  0.90385593  1
  La3+  La14  1  0.09412403  0.24922825  0.93143023  1
  La3+  La15  1  -0.02483260  0.37631017  0.06461979  1
  La3+  La16  1  0.08808123  0.75337014  0.92577903  1
  La3+  La17  1  0.22033980  0.13134263  0.07638577  1
  Ce3+  Ce18  1  0.85083165  0.50346258  0.93795799  1
  Ce3+  Ce19  1  0.59691160  0.25132421  0.94504651  1
  Ce3+  Ce20  1  0.01550708  0.37920306  0.55697882  1
  Ce3+  Ce21  1  -0.03097094  0.12202256  0.06985044  1
  Ce3+  Ce22  1  0.72174152  0.62640608  0.05695788  1
  Ce3+  Ce23  1  0.72207866  0.12598661  0.07312207  1
  Ce3+  Ce24  1  0.38793506  0.00419971  0.42862790  1
  Ce3+  Ce25  1  0.22127908  0.87837986  0.04528070  1
  Ce3+  Ce26  1  0.76419591  0.62573031  0.55556380  1
  Ce3+  Ce27  1  0.34686189  0.49938939  0.92925318  1
  Ce3+  Ce28  1  0.26630473  0.87532294  0.55962058  1
  Ce3+  Ce29  1  -0.02344369  0.62858202  0.05825656  1
  Ce3+  Ce30  1  0.88919875  0.00630078  0.43251384  1
  Ce3+  Ce31  1  0.88987354  0.50318380  0.43882146  1
  Ce3+  Ce32  1  0.22340166  0.37740829  0.05728945  1
  Ce3+  Ce33  1  0.14061136  0.25269620  0.44767790  1
  Ce3+  Ce34  1  0.14545883  0.50244903  0.44861700  1
  Ce3+  Ce35  1  0.46890289  0.87721924  0.05183654  1
  Ce3+  Ce36  1  0.14002997  0.00490757  0.43300043  1
  Ce3+  Ce37  1  0.38899455  0.25371577  0.44680754  1
  Pr3+  Pr38  1  0.71967687  0.87792188  0.06406044  1
  Pr3+  Pr39  1  0.84544537  0.25237956  0.94386496  1
  Pr3+  Pr40  1  0.72090381  0.38117601  0.05753849  1
  Pr3+  Pr41  1  0.01308850  0.62414001  0.56972212  1
  Pr3+  Pr42  1  0.84701181  0.75285210  0.93845939  1
  Pr3+  Pr43  1  0.27421785  0.37879178  0.57867643  1
  Pr3+  Pr44  1  -0.02653264  0.86766115  0.07275366  1
  Pr3+  Pr45  1  0.38660511  0.74949557  0.44228891  1
  Pr3+  Pr46  1  0.47229538  0.38142670  0.06128315  1
  Pr3+  Pr47  1  0.47280281  0.12396933  0.06735189  1
  Pr3+  Pr48  1  0.34776748  0.00523804  0.92880546  1
  Pr3+  Pr49  1  0.34474928  0.25062318  0.94170188  1
  Nd3+  Nd50  1  0.63872887  0.00646282  0.42682252  1
  Nd3+  Nd51  1  0.76386137  0.87985720  0.55488803  1
  Nd3+  Nd52  1  0.89091164  0.75205156  0.44606176  1
  Nd3+  Nd53  1  0.09086013  0.00777553  0.93525381  1
  Nd3+  Nd54  1  0.51582747  0.87868377  0.55330307  1
  Nd3+  Nd55  1  0.63947241  0.75318998  0.43137859  1
  Nd3+  Nd56  1  0.46859321  0.62997183  0.06035765  1
  Nd3+  Nd57  1  0.84687815  0.00310140  0.94013470  1
  Sm3+  Sm58  1  0.22203281  0.62786688  0.05234446  1
  Sm3+  Sm59  1  0.88777573  0.25334611  0.44383456  1
  Sm3+  Sm60  1  0.13930498  0.74875546  0.44388457  1
  Sm3+  Sm61  1  0.76161923  0.37998291  0.55402378  1
  Sm3+  Sm62  1  0.63819476  0.25328060  0.44551306  1
  Sm3+  Sm63  1  0.59575086  0.75135014  0.94529468  1
  Bi2+  Bi64  1  0.02035174  0.11182849  0.27962967  1
  Bi2+  Bi65  1  0.00297342  0.12036064  0.78959405  1
  Bi2+  Bi66  1  0.06400682  0.40462277  0.28920789  1
  Bi2+  Bi67  1  -0.05055751  0.37890877  0.78517015  1
  Bi2+  Bi68  1  0.06182728  0.60735613  0.29342787  1
  Bi2+  Bi69  1  0.02198543  0.63646190  0.79069656  1
  Bi2+  Bi70  1  -0.04697044  0.88947814  0.28633183  1
  Bi2+  Bi71  1  0.02817355  0.87827820  0.80234750  1
  Bi2+  Bi72  1  0.24081782  0.12669644  0.29250503  1
  Bi2+  Bi73  1  0.27484113  0.11619794  0.80267037  1
  Bi2+  Bi74  1  0.25957391  0.37686506  0.30061453  1
  Bi2+  Bi75  1  0.21537615  0.36647380  0.78126972  1
  Bi2+  Bi76  1  0.25708927  0.64725421  0.30442435  1
  Bi2+  Bi77  1  0.28610857  0.62171808  0.77984896  1
  Bi2+  Bi78  1  0.27806903  0.86640322  0.24775776  1
  Bi2+  Bi79  1  0.21973673  0.92502235  0.79587186  1
  Bi2+  Bi80  1  0.44290301  0.12584555  0.28654339  1
  Bi2+  Bi81  1  0.52235537  0.08866336  0.77211305  1
  Bi2+  Bi82  1  0.52088275  0.35960795  0.29664664  1
  Bi2+  Bi83  1  0.49556050  0.28350543  0.79160301  1
  Bi2+  Bi84  1  0.49910240  0.62124934  0.29137341  1
  Bi2+  Bi85  1  0.53267524  0.63098259  0.80361991  1
  Bi2+  Bi86  1  0.56183611  0.87633236  0.28614003  1
  Bi2+  Bi87  1  0.58231129  0.89929230  0.78999368  1
  Bi2+  Bi88  1  0.70763034  0.09649814  0.28018605  1
  Bi2+  Bi89  1  0.76535921  0.17571402  0.79053126  1
  Bi2+  Bi90  1  0.78261488  0.35110511  0.30478621  1
  Bi2+  Bi91  1  0.74927856  0.38973935  0.78135083  1
  Bi2+  Bi92  1  0.75671774  0.61187756  0.28145715  1
  Bi2+  Bi93  1  0.78901747  0.61645666  0.77508904  1
  Bi2+  Bi94  1  0.74721209  0.82904753  0.30525059  1
  Bi2+  Bi95  1  0.78219146  0.88647905  0.79294778  1
  Bi2+  Bi96  1  0.14816700  0.01182281  0.21361013  1
  Bi2+  Bi97  1  0.08967770  -0.00986752  0.71317972  1
  Bi2+  Bi98  1  0.08271375  0.26576142  0.20732397  1
  Bi2+  Bi99  1  0.10011972  0.23672742  0.71481817  1
  Bi2+  Bi100  1  0.18790737  0.52137812  0.21490347  1
  Bi2+  Bi101  1  0.03821443  0.50476502  0.70712196  1
  Bi2+  Bi102  1  0.12467680  0.78536927  0.18871650  1
  Bi2+  Bi103  1  0.14511154  0.78195514  0.70908488  1
  Bi2+  Bi104  1  0.42581849  -0.02246264  0.21145065  1
  Bi2+  Bi105  1  0.36189236  -0.00934245  0.72394602  1
  Bi2+  Bi106  1  0.34288363  0.23555012  0.21003383  1
  Bi2+  Bi107  1  0.33881700  0.21778555  0.70931813  1
  Bi2+  Bi108  1  0.36946436  0.44099913  0.21447888  1
  Bi2+  Bi109  1  0.41993043  0.45335971  0.72449984  1
  Bi2+  Bi110  1  0.38200355  0.71950612  0.20002166  1
  Bi2+  Bi111  1  0.41596383  0.80474724  0.72281261  1
  Bi2+  Bi112  1  0.62913657  -0.02065387  0.19335340  1
  Bi2+  Bi113  1  0.60127017  -0.03348007  0.68193573  1
  Bi2+  Bi114  1  0.67499157  0.24040120  0.20825175  1
  Bi2+  Bi115  1  0.63889932  0.26334627  0.71405488  1
  Bi2+  Bi116  1  0.61513411  0.48954311  0.18373992  1
  Bi2+  Bi117  1  0.65692388  0.51448195  0.70388889  1
  Bi2+  Bi118  1  0.65797196  0.76219239  0.20883564  1
  Bi2+  Bi119  1  0.69602912  0.76411250  0.71683746  1
  Bi2+  Bi120  1  0.82941733  -0.02099585  0.21554785  1
  Bi2+  Bi121  1  0.84122728  0.02983000  0.72660600  1
  Bi2+  Bi122  1  0.86717147  0.20568024  0.23592456  1
  Bi2+  Bi123  1  0.85279200  0.28474844  0.70093499  1
  Bi2+  Bi124  1  0.91937156  0.49940897  0.23333559  1
  Bi2+  Bi125  1  0.86760365  0.56543229  0.67164074  1
  Bi2+  Bi126  1  0.91407329  0.70995020  0.24030686  1
  Bi2+  Bi127  1  0.89168009  0.74976795  0.71192526  1
  S2-  S128  1  0.08585183  0.12855907  0.14360100  1
  S2-  S129  1  -0.10731141  0.13284784  0.64890006  1
  S2-  S130  1  -0.02720523  0.38475630  0.16603090  1
  S2-  S131  1  -0.00071635  0.34010343  0.65181245  1
  S2-  S132  1  -0.01371583  0.71664903  0.14178436  1
  S2-  S133  1  0.11146771  0.63808348  0.65435695  1
  S2-  S134  1  0.02400954  0.91765607  0.16724784  1
  S2-  S135  1  0.00192905  0.86276800  0.66177981  1
  S2-  S136  1  0.35516251  0.10659496  0.14401169  1
  S2-  S137  1  0.14120330  0.11714425  0.64682313  1
  S2-  S138  1  0.21735897  0.29696974  0.14509588  1
  S2-  S139  1  0.21827630  0.34310096  0.67457523  1
  S2-  S140  1  0.23430882  0.65469440  0.15109042  1
  S2-  S141  1  0.30829804  0.56374041  0.68863852  1
  S2-  S142  1  0.23674648  0.89204162  0.14257179  1
  S2-  S143  1  0.27373407  0.79466455  0.64982898  1
  S2-  S144  1  0.59495433  0.13203980  0.14335148  1
  S2-  S145  1  0.38981120  0.10510091  0.64234482  1
  S2-  S146  1  0.49486483  0.36478551  0.16203527  1
  S2-  S147  1  0.42402532  0.33625669  0.65514256  1
  S2-  S148  1  0.47919224  0.60124900  0.15953146  1
  S2-  S149  1  0.50886933  0.52546729  0.65215444  1
  S2-  S150  1  0.46922325  0.83919532  0.14756060  1
  S2-  S151  1  0.51342754  0.80626276  0.64676600  1
  S2-  S152  1  0.84913032  0.11880850  0.14405010  1
  S2-  S153  1  0.62564652  0.12841748  0.64645890  1
  S2-  S154  1  0.73462665  0.38184743  0.15903995  1
  S2-  S155  1  0.67049094  0.38560968  0.63805286  1
  S2-  S156  1  0.71574741  0.61729773  0.15512022  1
  S2-  S157  1  0.67202077  0.64853540  0.63761306  1
  S2-  S158  1  0.78447333  0.84666148  0.15672765  1
  S2-  S159  1  0.75833138  0.96135130  0.64267989  1
  S2-  S160  1  0.01428035  0.00334165  0.35936351  1
  S2-  S161  1  0.12759053  0.12637269  0.85909209  1
  S2-  S162  1  0.15813217  0.25682969  0.34991072  1
  S2-  S163  1  0.09639448  0.35056008  0.84535727  1
  S2-  S164  1  0.25289761  0.50626024  0.36984420  1
  S2-  S165  1  0.24627243  0.49702892  0.84411835  1
  S2-  S166  1  0.14690566  0.74846127  0.34481377  1
  S2-  S167  1  0.15921346  0.68806327  0.83870650  1
  S2-  S168  1  0.26055402  0.00192605  0.35964600  1
  S2-  S169  1  0.46750747  0.00258643  0.85326903  1
  S2-  S170  1  0.40560314  0.26867787  0.34861576  1
  S2-  S171  1  0.33619034  0.27356645  0.84068954  1
  S2-  S172  1  0.48366277  0.49538300  0.35739504  1
  S2-  S173  1  0.46129429  0.50848161  0.85233975  1
  S2-  S174  1  0.40801790  0.72395110  0.34173862  1
  S2-  S175  1  0.38888157  0.74239200  0.82481769  1
  S2-  S176  1  0.50974729  0.00740143  0.35426008  1
  S2-  S177  1  0.73581113  0.00351985  0.86052803  1
  S2-  S178  1  0.63858402  0.27338138  0.34601887  1
  S2-  S179  1  0.61510509  0.20294857  0.85264339  1
  S2-  S180  1  0.65124192  0.46919930  0.28175884  1
  S2-  S181  1  0.67575428  0.52638363  0.83561955  1
  S2-  S182  1  0.63412030  0.64637073  0.35176994  1
  S2-  S183  1  0.61348784  0.75008883  0.84758816  1
  S2-  S184  1  0.77040299  0.01511800  0.35882153  1
  S2-  S185  1  0.96333595  -0.00083364  0.86246309  1
  S2-  S186  1  0.88997986  0.25188669  0.34431572  1
  S2-  S187  1  0.89940514  0.23355661  0.84849171  1
  S2-  S188  1  0.85153219  0.50158426  0.34316551  1
  S2-  S189  1  0.94042409  0.51107397  0.85265217  1
  S2-  S190  1  0.89566982  0.75736067  0.34654511  1
  S2-  S191  1  0.94882970  0.75373557  0.85660039  1
  S2-  S192  1  0.01345758  0.13422101  0.46083691  1
  S2-  S193  1  -0.03195700  0.12925011  0.96265329  1
  S2-  S194  1  0.01399814  0.37816374  0.44977108  1
  S2-  S195  1  -0.02739334  0.38028682  0.95598871  1
  S2-  S196  1  0.01558030  0.62613970  0.45728440  1
  S2-  S197  1  -0.02366837  0.62193409  0.95516535  1
  S2-  S198  1  0.01692158  0.87260652  0.45462901  1
  S2-  S199  1  -0.03039613  0.87620965  0.96266093  1
  S2-  S200  1  0.26532309  0.13066987  0.45961982  1
  S2-  S201  1  0.22645392  0.12435742  0.96245734  1
  S2-  S202  1  0.26413452  0.37419807  0.46774050  1
  S2-  S203  1  0.22027213  0.37853886  0.95296002  1
  S2-  S204  1  0.26096663  0.63208516  0.46749563  1
  S2-  S205  1  0.21865995  0.62170292  0.94960490  1
  S2-  S206  1  0.26107955  0.87155727  0.45470307  1
  S2-  S207  1  0.22012270  0.87972064  0.93790371  1
  S2-  S208  1  0.51556519  0.13110856  0.45569881  1
  S2-  S209  1  0.47221923  0.12884222  0.95610125  1
  S2-  S210  1  0.51587051  0.37612939  0.46089654  1
  S2-  S211  1  0.47143488  0.37454193  0.95324713  1
  S2-  S212  1  0.51486920  0.63123278  0.46021645  1
  S2-  S213  1  0.46926069  0.63199587  0.95334915  1
  S2-  S214  1  0.51418527  0.87337255  0.44807284  1
  S2-  S215  1  0.47006407  0.87053793  0.94613776  1
  S2-  S216  1  0.76421146  0.13496237  0.45905217  1
  S2-  S217  1  0.72247821  0.12956622  0.96347326  1
  S2-  S218  1  0.76273687  0.37843271  0.44980710  1
  S2-  S219  1  0.72164138  0.38025408  0.94896134  1
  S2-  S220  1  0.76643350  0.62831154  0.44969724  1
  S2-  S221  1  0.72258109  0.62839300  0.95004701  1
  S2-  S222  1  0.76509127  0.87517048  0.45037034  1
  S2-  S223  1  0.71980513  0.87175400  0.95622078  1
  S2-  S224  1  0.09510407  -0.00252546  0.04262938  1
  S2-  S225  1  0.14146362  -0.00005911  0.54349932  1
  S2-  S226  1  0.09632340  0.25366495  0.04135892  1
  S2-  S227  1  0.14193733  0.25851742  0.55238838  1
  S2-  S228  1  0.10085297  0.50455473  0.05912212  1
  S2-  S229  1  0.14243299  0.50102636  0.55548739  1
  S2-  S230  1  0.10124928  0.75015685  0.03656200  1
  S2-  S231  1  0.13696403  0.75247559  0.54887968  1
  S2-  S232  1  0.34838684  -0.00082520  0.03648951  1
  S2-  S233  1  0.38892960  -0.00439375  0.53804348  1
  S2-  S234  1  0.35180814  0.25479572  0.04741436  1
  S2-  S235  1  0.39161069  0.25411835  0.54926532  1
  S2-  S236  1  0.34621573  0.50446881  0.04500458  1
  S2-  S237  1  0.38564010  0.51026531  0.55363430  1
  S2-  S238  1  0.34442675  0.75128686  0.03601054  1
  S2-  S239  1  0.39002654  0.75242563  0.54795228  1
  S2-  S240  1  0.59472180  -0.00166666  0.04006414  1
  S2-  S241  1  0.63815124  0.00023938  0.53452631  1
  S2-  S242  1  0.59675430  0.25673191  0.04826365  1
  S2-  S243  1  0.64143231  0.25283214  0.54689379  1
  S2-  S244  1  0.59450768  0.50603308  0.04022345  1
  S2-  S245  1  0.64401801  0.50654907  0.53339442  1
  S2-  S246  1  0.59570322  0.75069916  0.04956930  1
  S2-  S247  1  0.64317293  0.75919303  0.53654581  1
  S2-  S248  1  0.84784560  -0.00645259  0.04802403  1
  S2-  S249  1  0.89128298  0.00286747  0.54192758  1
  S2-  S250  1  0.84566912  0.25680429  0.05081010  1
  S2-  S251  1  0.88515854  0.25898810  0.54725289  1
  S2-  S252  1  0.84914942  0.50423375  0.04750345  1
  S2-  S253  1  0.88898379  0.50010890  0.54484957  1
  S2-  S254  1  0.84486446  0.74876919  0.04406697  1
  S2-  S255  1  0.88837592  0.75254276  0.55247362  1
