# generated using pymatgen
data_La9Ce10Pr6Nd4Sm3(BiS2)32
_symmetry_space_group_name_H-M   'P 1'
_cell_length_a   16.22042214
_cell_length_b   16.23817708
_cell_length_c   27.20732118
_cell_angle_alpha   90.34421987
_cell_angle_beta   89.95540592
_cell_angle_gamma   90.00768496
_symmetry_Int_Tables_number   1
_chemical_formula_structural   La9Ce10Pr6Nd4Sm3(BiS2)32
_chemical_formula_sum   'La18 Ce20 Pr12 Nd8 Sm6 Bi64 S128'
_cell_volume   7166.00713685
_cell_formula_units_Z   2
loop_
 _symmetry_equiv_pos_site_id
 _symmetry_equiv_pos_as_xyz
  1  'x, y, z'
loop_
 _atom_type_symbol
 _atom_type_oxidation_number
  La3+  3.0
  Ce3+  3.0
  Pr3+  3.0
  Nd3+  3.0
  Sm3+  3.0
  Bi2+  2.0
  S2-  -2.0
loop_
 _atom_site_type_symbol
 _atom_site_label
 _atom_site_symmetry_multiplicity
 _atom_site_fract_x
 _atom_site_fract_y
 _atom_site_fract_z
 _atom_site_occupancy
  La3+  La0  1  0.37793925  0.75850595  0.92945413  1
  La3+  La1  1  0.00431377  0.37484447  0.06089578  1
  La3+  La2  1  0.50366165  0.60503367  0.62066259  1
  La3+  La3  1  0.49310195  0.86663901  0.56215063  1
  La3+  La4  1  0.00187144  0.12335658  0.60294243  1
  La3+  La5  1  0.13493983  -0.00998673  0.92614846  1
  La3+  La6  1  0.62358446  -0.00998208  0.43738184  1
  La3+  La7  1  0.12867284  0.73361758  0.41368322  1
  La3+  La8  1  0.11803337  -0.00756329  0.43146099  1
  La3+  La9  1  0.25309268  0.12409804  0.06032608  1
  La3+  La10  1  -0.00365154  0.86484685  0.55660528  1
  La3+  La11  1  0.25536393  0.37590026  0.06754223  1
  La3+  La12  1  0.61906725  0.48581743  0.43471603  1
  La3+  La13  1  0.24531417  0.62075129  0.56672636  1
  La3+  La14  1  0.26077920  0.88227657  0.07925072  1
  La3+  La15  1  0.63004718  0.49885120  0.92564400  1
  La3+  La16  1  0.13774834  0.26003699  0.90052578  1
  La3+  La17  1  0.87215287  0.48423345  0.42040508  1
  Ce3+  Ce18  1  0.12036693  0.24859791  0.43131254  1
  Ce3+  Ce19  1  0.13034443  0.75190774  0.95155106  1
  Ce3+  Ce20  1  0.63009489  0.25171595  0.92764524  1
  Ce3+  Ce21  1  0.37000599  -0.00863778  0.43896721  1
  Ce3+  Ce22  1  0.38353363  0.00223816  0.94414643  1
  Ce3+  Ce23  1  0.62853250  0.00230899  0.93578163  1
  Ce3+  Ce24  1  0.37276016  0.24042528  0.44454840  1
  Ce3+  Ce25  1  0.25567444  0.63096642  0.06366189  1
  Ce3+  Ce26  1  0.88155590  -0.00067388  0.94440142  1
  Ce3+  Ce27  1  0.24401214  0.36643983  0.55667020  1
  Ce3+  Ce28  1  0.88129752  0.24660316  0.93909348  1
  Ce3+  Ce29  1  0.50732747  0.62963726  0.05275860  1
  Ce3+  Ce30  1  0.23781952  0.87143320  0.55746107  1
  Ce3+  Ce31  1  0.62147075  0.73971246  0.43804193  1
  Ce3+  Ce32  1  0.37880916  0.24870412  0.94031878  1
  Ce3+  Ce33  1  0.87312448  0.24297408  0.43947622  1
  Ce3+  Ce34  1  0.75168771  0.12540027  0.05537387  1
  Ce3+  Ce35  1  0.74740035  0.86637142  0.55893568  1
  Ce3+  Ce36  1  0.88256927  0.50125182  0.94149877  1
  Ce3+  Ce37  1  0.23952601  0.12061348  0.54908858  1
  Pr3+  Pr38  1  0.74974681  0.12039468  0.56535335  1
  Pr3+  Pr39  1  0.51485971  0.12841687  0.06807257  1
  Pr3+  Pr40  1  0.12494422  0.48924032  0.42966399  1
  Pr3+  Pr41  1  0.00385509  0.61967957  0.08140188  1
  Pr3+  Pr42  1  0.74673379  0.36965294  0.55700094  1
  Pr3+  Pr43  1  0.49393465  0.11497254  0.57012613  1
  Pr3+  Pr44  1  -0.00359754  0.37096471  0.56414745  1
  Pr3+  Pr45  1  0.61732545  0.23010249  0.43571211  1
  Pr3+  Pr46  1  0.50881045  0.37829245  0.05758688  1
  Pr3+  Pr47  1  0.13028495  0.50212071  0.94263587  1
  Pr3+  Pr48  1  -0.00199454  0.61559906  0.55379003  1
  Pr3+  Pr49  1  0.00549811  0.12369207  0.05416575  1
  Nd3+  Nd50  1  0.37203892  0.74082359  0.44058532  1
  Nd3+  Nd51  1  0.37678033  0.49935474  0.94639453  1
  Nd3+  Nd52  1  0.62916387  0.75633764  0.91748883  1
  Nd3+  Nd53  1  0.87540255  -0.00612847  0.44710880  1
  Nd3+  Nd54  1  0.37506647  0.49152162  0.44838350  1
  Nd3+  Nd55  1  0.49625517  0.36745041  0.56625413  1
  Nd3+  Nd56  1  0.88097730  0.74852135  0.94707221  1
  Nd3+  Nd57  1  0.87073049  0.73876051  0.43582844  1
  Sm3+  Sm58  1  0.75194947  0.62582435  0.05810615  1
  Sm3+  Sm59  1  0.75380321  0.37684770  0.05284101  1
  Sm3+  Sm60  1  0.00547986  0.87624656  0.06476729  1
  Sm3+  Sm61  1  0.75517625  0.87290209  0.05480454  1
  Sm3+  Sm62  1  0.74385609  0.61609332  0.55336621  1
  Sm3+  Sm63  1  0.51082292  0.87435291  0.05811287  1
  Bi2+  Bi64  1  0.07220654  0.16473781  0.30613475  1
  Bi2+  Bi65  1  -0.02907181  0.12347601  0.79482873  1
  Bi2+  Bi66  1  -0.00572366  0.33444208  0.27873398  1
  Bi2+  Bi67  1  -0.03578663  0.46021681  0.76603110  1
  Bi2+  Bi68  1  -0.03115180  0.65480164  0.29046411  1
  Bi2+  Bi69  1  0.06259800  0.61869614  0.80056276  1
  Bi2+  Bi70  1  -0.02798451  0.90979972  0.29327226  1
  Bi2+  Bi71  1  0.00055824  0.89519208  0.80865198  1
  Bi2+  Bi72  1  0.26577150  0.18228898  0.28615152  1
  Bi2+  Bi73  1  0.28029754  0.15267872  0.77123677  1
  Bi2+  Bi74  1  0.25594528  0.37961749  0.28905026  1
  Bi2+  Bi75  1  0.26193004  0.41405374  0.79273441  1
  Bi2+  Bi76  1  0.25009742  0.57799639  0.28998560  1
  Bi2+  Bi77  1  0.23503368  0.59181495  0.74409620  1
  Bi2+  Bi78  1  0.24738892  0.88297498  0.30671862  1
  Bi2+  Bi79  1  0.25903064  0.83076578  0.79421400  1
  Bi2+  Bi80  1  0.52605519  0.12635391  0.26402933  1
  Bi2+  Bi81  1  0.53960233  0.12577933  0.83150296  1
  Bi2+  Bi82  1  0.50026047  0.37724095  0.31412547  1
  Bi2+  Bi83  1  0.50793339  0.29943234  0.78491016  1
  Bi2+  Bi84  1  0.53257645  0.66206473  0.30418761  1
  Bi2+  Bi85  1  0.46221186  0.61944321  0.81865911  1
  Bi2+  Bi86  1  0.49428246  0.86257875  0.29043601  1
  Bi2+  Bi87  1  0.49523659  0.92991696  0.80408941  1
  Bi2+  Bi88  1  0.80523919  0.13884486  0.29909972  1
  Bi2+  Bi89  1  0.71920943  0.13118664  0.78898409  1
  Bi2+  Bi90  1  0.74638370  0.40673614  0.29579426  1
  Bi2+  Bi91  1  0.76784136  0.37208447  0.79277123  1
  Bi2+  Bi92  1  0.70949798  0.67472971  0.24623488  1
  Bi2+  Bi93  1  0.76109403  0.64072221  0.78667649  1
  Bi2+  Bi94  1  0.66732954  0.94096286  0.30778515  1
  Bi2+  Bi95  1  0.75992553  0.83776690  0.78917309  1
  Bi2+  Bi96  1  0.13350755  0.00004922  0.20046913  1
  Bi2+  Bi97  1  0.15010866  -0.02021517  0.69846748  1
  Bi2+  Bi98  1  0.13392095  0.25316547  0.20819594  1
  Bi2+  Bi99  1  0.14164955  0.24481179  0.71363221  1
  Bi2+  Bi100  1  0.10231525  0.51688104  0.20412376  1
  Bi2+  Bi101  1  0.09657438  0.48756024  0.68450810  1
  Bi2+  Bi102  1  0.12401956  0.75611453  0.21052216  1
  Bi2+  Bi103  1  0.10941698  0.74460660  0.71597973  1
  Bi2+  Bi104  1  0.39213116  0.00852667  0.21661510  1
  Bi2+  Bi105  1  0.38093023  0.01053417  0.72200805  1
  Bi2+  Bi106  1  0.39827854  0.27354600  0.22068569  1
  Bi2+  Bi107  1  0.40801433  0.19568493  0.68542982  1
  Bi2+  Bi108  1  0.42985420  0.54529520  0.22366303  1
  Bi2+  Bi109  1  0.38480436  0.38598252  0.70517260  1
  Bi2+  Bi110  1  0.36616814  0.72455759  0.24959615  1
  Bi2+  Bi111  1  0.37993477  0.75652560  0.70964783  1
  Bi2+  Bi112  1  0.67506935  0.01655541  0.20293344  1
  Bi2+  Bi113  1  0.60973677  0.00863987  0.71159874  1
  Bi2+  Bi114  1  0.67805004  0.23174972  0.22910204  1
  Bi2+  Bi115  1  0.60352004  0.20399529  0.70194261  1
  Bi2+  Bi116  1  0.60323272  0.46867819  0.20071825  1
  Bi2+  Bi117  1  0.72477501  0.49583082  0.71030199  1
  Bi2+  Bi118  1  0.56800345  0.77633336  0.19159331  1
  Bi2+  Bi119  1  0.66279068  0.77216003  0.70069894  1
  Bi2+  Bi120  1  0.87508940  0.03858422  0.20836885  1
  Bi2+  Bi121  1  0.79956730  -0.00450443  0.71757916  1
  Bi2+  Bi122  1  0.87283323  0.23450475  0.20646664  1
  Bi2+  Bi123  1  0.85938409  0.27365341  0.70776879  1
  Bi2+  Bi124  1  0.84068878  0.49789206  0.20919038  1
  Bi2+  Bi125  1  0.90066741  0.52175640  0.65820568  1
  Bi2+  Bi126  1  0.80446122  0.85059127  0.23681983  1
  Bi2+  Bi127  1  0.92059712  0.68409369  0.72484183  1
  S2-  S128  1  0.06570995  0.11722157  0.14931254  1
  S2-  S129  1  0.01313035  0.05943536  0.70231066  1
  S2-  S130  1  -0.01701788  0.46263017  0.14702231  1
  S2-  S131  1  0.00682598  0.27901122  0.65157679  1
  S2-  S132  1  -0.00765117  0.65633524  0.18229361  1
  S2-  S133  1  0.10819242  0.63848873  0.63284705  1
  S2-  S134  1  0.03015565  0.88108331  0.16262142  1
  S2-  S135  1  0.05307129  0.87222315  0.65142226  1
  S2-  S136  1  0.26147266  0.02990672  0.14430013  1
  S2-  S137  1  0.17701878  0.12169463  0.64036831  1
  S2-  S138  1  0.20548469  0.39318954  0.16348746  1
  S2-  S139  1  0.22054723  0.37027403  0.65430190  1
  S2-  S140  1  0.20603129  0.62605832  0.15721194  1
  S2-  S141  1  0.33326990  0.62047720  0.65649177  1
  S2-  S142  1  0.24596286  0.84260056  0.17997057  1
  S2-  S143  1  0.27397452  0.86954680  0.65435088  1
  S2-  S144  1  0.44122362  0.13302632  0.16158490  1
  S2-  S145  1  0.48469972  -0.01107830  0.64059509  1
  S2-  S146  1  0.50846942  0.35222486  0.15716769  1
  S2-  S147  1  0.51772699  0.44137584  0.65574190  1
  S2-  S148  1  0.54059048  0.61051350  0.14790025  1
  S2-  S149  1  0.49919759  0.63470649  0.72844336  1
  S2-  S150  1  0.46432010  0.89313313  0.15257382  1
  S2-  S151  1  0.51151751  0.77791620  0.64851771  1
  S2-  S152  1  0.65454620  0.14566376  0.13515891  1
  S2-  S153  1  0.83847705  0.12973083  0.65226986  1
  S2-  S154  1  0.74158744  0.40237518  0.15091768  1
  S2-  S155  1  0.73898984  0.34242588  0.65700510  1
  S2-  S156  1  0.77657297  0.62081978  0.15706148  1
  S2-  S157  1  0.67727226  0.62687542  0.64506435  1
  S2-  S158  1  0.71605167  0.85402507  0.14943220  1
  S2-  S159  1  0.79437962  0.85503751  0.65329700  1
  S2-  S160  1  0.12557034  -0.00050765  0.32962124  1
  S2-  S161  1  0.10167716  0.03414867  0.82907379  1
  S2-  S162  1  0.12430460  0.36415041  0.35492013  1
  S2-  S163  1  0.06803669  0.24749816  0.80591564  1
  S2-  S164  1  0.10900923  0.58970328  0.34545803  1
  S2-  S165  1  0.13740101  0.42225765  0.85368469  1
  S2-  S166  1  0.09791823  0.79486724  0.31660256  1
  S2-  S167  1  0.13260545  0.83498944  0.86504562  1
  S2-  S168  1  0.37398214  -0.02361135  0.34087278  1
  S2-  S169  1  0.33720886  -0.05684344  0.85691863  1
  S2-  S170  1  0.41132089  0.23778534  0.35027399  1
  S2-  S171  1  0.29522190  0.24909959  0.85284663  1
  S2-  S172  1  0.36618092  0.47851307  0.34847196  1
  S2-  S173  1  0.39707682  0.46809426  0.84905866  1
  S2-  S174  1  0.28871775  0.73584411  0.35228331  1
  S2-  S175  1  0.30606562  0.69526055  0.83989232  1
  S2-  S176  1  0.60679491  0.09069502  0.35631124  1
  S2-  S177  1  0.65035092  -0.09039422  0.85338552  1
  S2-  S178  1  0.63516407  0.30871634  0.34655411  1
  S2-  S179  1  0.62734686  0.37097006  0.85247844  1
  S2-  S180  1  0.62072699  0.50406883  0.33355949  1
  S2-  S181  1  0.63180717  0.61714788  0.85083867  1
  S2-  S182  1  0.67332187  0.73877327  0.34535423  1
  S2-  S183  1  0.49697039  0.77463220  0.85084187  1
  S2-  S184  1  0.87174811  0.00198925  0.34734491  1
  S2-  S185  1  0.88517396  -0.00586551  0.84660514  1
  S2-  S186  1  0.87484421  0.33848577  0.35589516  1
  S2-  S187  1  0.84632905  0.23436999  0.84250587  1
  S2-  S188  1  0.86171547  0.55466021  0.32589805  1
  S2-  S189  1  0.85208140  0.50321457  0.84535924  1
  S2-  S190  1  0.89218728  0.77301222  0.33848242  1
  S2-  S191  1  0.89732787  0.77479732  0.84887959  1
  S2-  S192  1  -0.00366033  0.12130929  0.44134718  1
  S2-  S193  1  0.01070666  0.12743119  0.94672444  1
  S2-  S194  1  -0.00268746  0.36767581  0.45646242  1
  S2-  S195  1  0.00618709  0.37134502  0.95200447  1
  S2-  S196  1  -0.00619795  0.61509681  0.44731637  1
  S2-  S197  1  0.00556123  0.62557444  0.96010294  1
  S2-  S198  1  -0.00390323  0.86392975  0.44713508  1
  S2-  S199  1  0.00223750  0.87404128  0.96049738  1
  S2-  S200  1  0.24479981  0.11919363  0.44253199  1
  S2-  S201  1  0.25199033  0.12363309  0.95164705  1
  S2-  S202  1  0.25230825  0.36586110  0.45267248  1
  S2-  S203  1  0.25389465  0.37374492  0.95963209  1
  S2-  S204  1  0.25010573  0.61234782  0.45527908  1
  S2-  S205  1  0.25447221  0.62590695  0.95733876  1
  S2-  S206  1  0.24458203  0.86918866  0.44919414  1
  S2-  S207  1  0.25764266  0.87397288  0.96784925  1
  S2-  S208  1  0.49219365  0.11248056  0.46251704  1
  S2-  S209  1  0.50600502  0.12823892  0.95828334  1
  S2-  S210  1  0.49711208  0.36237871  0.45857458  1
  S2-  S211  1  0.50046124  0.37367881  0.95242152  1
  S2-  S212  1  0.49582464  0.61766573  0.44426270  1
  S2-  S213  1  0.50013318  0.62571256  0.94988620  1
  S2-  S214  1  0.49616684  0.86619501  0.45003251  1
  S2-  S215  1  0.50735749  0.87820931  0.95561014  1
  S2-  S216  1  0.75049017  0.11684663  0.45744038  1
  S2-  S217  1  0.75419166  0.12424224  0.94947204  1
  S2-  S218  1  0.74194639  0.36165118  0.45249373  1
  S2-  S219  1  0.76047149  0.37432474  0.95020041  1
  S2-  S220  1  0.74702935  0.61276378  0.44763479  1
  S2-  S221  1  0.75690211  0.62636349  0.95324131  1
  S2-  S222  1  0.75195531  0.86750859  0.45197001  1
  S2-  S223  1  0.75824122  0.87340998  0.95258196  1
  S2-  S224  1  0.12622120  -0.00425308  0.04106284  1
  S2-  S225  1  0.11374526  -0.00155894  0.54035450  1
  S2-  S226  1  0.12966922  0.25126793  0.05111430  1
  S2-  S227  1  0.11806360  0.24426013  0.53897567  1
  S2-  S228  1  0.12990853  0.50346124  0.04897504  1
  S2-  S229  1  0.12245352  0.48955617  0.53855493  1
  S2-  S230  1  0.12604818  0.75145721  0.05671233  1
  S2-  S231  1  0.12107809  0.74520545  0.53013268  1
  S2-  S232  1  0.39051027  0.00241670  0.04752573  1
  S2-  S233  1  0.36197231  -0.00427790  0.54368843  1
  S2-  S234  1  0.38152374  0.25056486  0.04972156  1
  S2-  S235  1  0.37020076  0.24226239  0.55134527  1
  S2-  S236  1  0.38079085  0.50324439  0.05426946  1
  S2-  S237  1  0.37362107  0.49116278  0.55346057  1
  S2-  S238  1  0.38297475  0.75335911  0.05013866  1
  S2-  S239  1  0.36385156  0.74910409  0.54466889  1
  S2-  S240  1  0.63295350  -0.00472893  0.04347086  1
  S2-  S241  1  0.62694669  -0.00619385  0.54677046  1
  S2-  S242  1  0.63277002  0.25677684  0.03572432  1
  S2-  S243  1  0.61971857  0.24026910  0.54848127  1
  S2-  S244  1  0.63339584  0.50175165  0.03876798  1
  S2-  S245  1  0.62098672  0.49342671  0.54445466  1
  S2-  S246  1  0.63300575  0.75081186  0.03747322  1
  S2-  S247  1  0.62707599  0.74394440  0.54163296  1
  S2-  S248  1  0.87826329  -0.00259283  0.05269460  1
  S2-  S249  1  0.87677487  -0.00425187  0.55239696  1
  S2-  S250  1  0.87708804  0.25044597  0.04832544  1
  S2-  S251  1  0.87395349  0.24454508  0.54538139  1
  S2-  S252  1  0.87491540  0.50348660  0.04586349  1
  S2-  S253  1  0.86858541  0.49261313  0.53390345  1
  S2-  S254  1  0.88049692  0.74901260  0.05517159  1
  S2-  S255  1  0.87016233  0.73721610  0.54437523  1
