# generated using pymatgen
data_La9Ce10Pr6Nd4Sm3(BiS2)32
_symmetry_space_group_name_H-M   'P 1'
_cell_length_a   16.15626407
_cell_length_b   16.19835332
_cell_length_c   27.15361323
_cell_angle_alpha   90.26980902
_cell_angle_beta   90.06983174
_cell_angle_gamma   90.04457403
_symmetry_Int_Tables_number   1
_chemical_formula_structural   La9Ce10Pr6Nd4Sm3(BiS2)32
_chemical_formula_sum   'La18 Ce20 Pr12 Nd8 Sm6 Bi64 S128'
_cell_volume   7106.14667003
_cell_formula_units_Z   2
loop_
 _symmetry_equiv_pos_site_id
 _symmetry_equiv_pos_as_xyz
  1  'x, y, z'
loop_
 _atom_type_symbol
 _atom_type_oxidation_number
  La3+  3.0
  Ce3+  3.0
  Pr3+  3.0
  Nd3+  3.0
  Sm3+  3.0
  Bi2+  2.0
  S2-  -2.0
loop_
 _atom_site_type_symbol
 _atom_site_label
 _atom_site_symmetry_multiplicity
 _atom_site_fract_x
 _atom_site_fract_y
 _atom_site_fract_z
 _atom_site_occupancy
  La3+  La0  1  0.65717120  0.23553735  0.88552348  1
  La3+  La1  1  0.37197746  -0.00347241  0.43981880  1
  La3+  La2  1  0.11221796  0.48711029  0.41460337  1
  La3+  La3  1  0.00546876  0.87827792  0.07068859  1
  La3+  La4  1  0.37606948  0.74347589  0.41807041  1
  La3+  La5  1  0.37793926  0.48896059  0.41747091  1
  La3+  La6  1  0.23817288  0.12407317  0.56981051  1
  La3+  La7  1  0.75239316  0.62736850  0.05498873  1
  La3+  La8  1  0.50404494  0.62547708  0.06658293  1
  La3+  La9  1  0.12288652  -0.00210159  0.92961608  1
  La3+  La10  1  0.51273668  0.37276015  0.61357399  1
  La3+  La11  1  0.62132860  -0.00485509  0.44059431  1
  La3+  La12  1  0.11769509  -0.00481741  0.43636642  1
  La3+  La13  1  0.24865816  0.37833418  0.07508462  1
  La3+  La14  1  0.48344198  0.62418304  0.56689210  1
  La3+  La15  1  0.50501270  0.87007029  0.09641516  1
  La3+  La16  1  0.37817115  0.75321816  0.93552340  1
  La3+  La17  1  0.74887230  0.37634573  0.05542208  1
  Ce3+  Ce18  1  0.13803910  0.24425639  0.93745324  1
  Ce3+  Ce19  1  0.88273213  0.24837222  0.94909013  1
  Ce3+  Ce20  1  -0.01385081  0.11259398  0.58715370  1
  Ce3+  Ce21  1  0.87385147  -0.00666773  0.44294065  1
  Ce3+  Ce22  1  0.49380714  0.12638143  0.56671981  1
  Ce3+  Ce23  1  0.12946446  0.49931596  0.94285488  1
  Ce3+  Ce24  1  0.62942408  0.75032707  0.93305949  1
  Ce3+  Ce25  1  0.12061000  0.74288053  0.43663975  1
  Ce3+  Ce26  1  0.62705943  0.00278284  0.94897237  1
  Ce3+  Ce27  1  -0.00066026  0.62474801  0.56147141  1
  Ce3+  Ce28  1  0.49188955  0.86725613  0.56128680  1
  Ce3+  Ce29  1  0.87053065  0.49405729  0.44416535  1
  Ce3+  Ce30  1  0.24601949  0.61766003  0.54478617  1
  Ce3+  Ce31  1  0.25767103  0.12572943  0.06678896  1
  Ce3+  Ce32  1  0.87777322  0.00234741  0.94727664  1
  Ce3+  Ce33  1  0.61831450  0.74153191  0.43935570  1
  Ce3+  Ce34  1  0.61780885  0.49257995  0.44702447  1
  Ce3+  Ce35  1  0.87798480  0.75304010  0.93431809  1
  Ce3+  Ce36  1  0.01309172  0.12698123  0.07519391  1
  Ce3+  Ce37  1  0.74806695  0.12879496  0.06953165  1
  Pr3+  Pr38  1  0.00032985  0.37325219  0.56702409  1
  Pr3+  Pr39  1  0.50427783  0.12845987  0.07056984  1
  Pr3+  Pr40  1  0.12027360  0.75352540  0.92849794  1
  Pr3+  Pr41  1  0.75353355  0.87510377  0.06660340  1
  Pr3+  Pr42  1  0.75551163  0.36928031  0.57075788  1
  Pr3+  Pr43  1  0.36705228  0.50092768  0.93639901  1
  Pr3+  Pr44  1  0.74566943  0.12018336  0.56161422  1
  Pr3+  Pr45  1  0.87862263  0.49623991  0.93338147  1
  Pr3+  Pr46  1  0.25279019  0.63411758  0.06488503  1
  Pr3+  Pr47  1  0.87060450  0.74287900  0.43946016  1
  Pr3+  Pr48  1  0.86710341  0.24652570  0.43470177  1
  Pr3+  Pr49  1  0.11923435  0.24669658  0.43731424  1
  Nd3+  Nd50  1  0.49646657  0.38195612  0.06578998  1
  Nd3+  Nd51  1  0.37809820  0.24834864  0.43619861  1
  Nd3+  Nd52  1  0.00525708  0.38569442  0.07421533  1
  Nd3+  Nd53  1  0.25172783  0.37528572  0.55841955  1
  Nd3+  Nd54  1  0.25298639  0.87877342  0.05965832  1
  Nd3+  Nd55  1  0.61611376  0.50161848  0.92581336  1
  Nd3+  Nd56  1  0.24410382  0.87096928  0.55594214  1
  Nd3+  Nd57  1  0.62162174  0.24756944  0.43914531  1
  Sm3+  Sm58  1  -0.00539307  0.86588521  0.56811382  1
  Sm3+  Sm59  1  0.00268472  0.63168906  0.06356362  1
  Sm3+  Sm60  1  0.74330460  0.61821396  0.55844337  1
  Sm3+  Sm61  1  0.74380927  0.86728241  0.55745077  1
  Sm3+  Sm62  1  0.38141985  0.00314053  0.94716858  1
  Sm3+  Sm63  1  0.38480940  0.25003547  0.94206487  1
  Bi2+  Bi64  1  -0.05322857  0.11625537  0.28036908  1
  Bi2+  Bi65  1  0.03295543  0.14627681  0.77276990  1
  Bi2+  Bi66  1  -0.03241985  0.29991530  0.31727655  1
  Bi2+  Bi67  1  0.02968017  0.34871101  0.78833942  1
  Bi2+  Bi68  1  -0.07937174  0.64263246  0.26039322  1
  Bi2+  Bi69  1  0.01621469  0.57531590  0.80258590  1
  Bi2+  Bi70  1  -0.02031946  0.92914994  0.31640085  1
  Bi2+  Bi71  1  0.02541252  0.85216496  0.79176055  1
  Bi2+  Bi72  1  0.22882656  0.19462849  0.25211464  1
  Bi2+  Bi73  1  0.25281881  0.15178178  0.79197507  1
  Bi2+  Bi74  1  0.24832843  0.40633325  0.28805985  1
  Bi2+  Bi75  1  0.22876957  0.37747507  0.78488971  1
  Bi2+  Bi76  1  0.22833667  0.65479876  0.27778235  1
  Bi2+  Bi77  1  0.20423696  0.57915396  0.76720264  1
  Bi2+  Bi78  1  0.22237966  0.90823172  0.30575968  1
  Bi2+  Bi79  1  0.29232006  0.88017219  0.78761317  1
  Bi2+  Bi80  1  0.54356708  0.12489898  0.27982082  1
  Bi2+  Bi81  1  0.48847027  0.08858339  0.79522299  1
  Bi2+  Bi82  1  0.51596310  0.36132996  0.29729923  1
  Bi2+  Bi83  1  0.46522183  0.37593662  0.81624590  1
  Bi2+  Bi84  1  0.54403596  0.62351603  0.28186776  1
  Bi2+  Bi85  1  0.49023434  0.66935647  0.79348922  1
  Bi2+  Bi86  1  0.47829714  0.88844469  0.29856400  1
  Bi2+  Bi87  1  0.55886449  0.85027898  0.79525461  1
  Bi2+  Bi88  1  0.74230820  0.17691266  0.27063450  1
  Bi2+  Bi89  1  0.75980545  0.00258369  0.79402162  1
  Bi2+  Bi90  1  0.79777553  0.41342013  0.32189078  1
  Bi2+  Bi91  1  0.77978299  0.35601589  0.79087543  1
  Bi2+  Bi92  1  0.74062783  0.59993349  0.30142289  1
  Bi2+  Bi93  1  0.75174168  0.62241633  0.78429752  1
  Bi2+  Bi94  1  0.77698605  0.86906379  0.29726589  1
  Bi2+  Bi95  1  0.75577910  0.81067557  0.81681871  1
  Bi2+  Bi96  1  0.14006806  0.00449857  0.20840578  1
  Bi2+  Bi97  1  0.15598804  0.01183980  0.69423371  1
  Bi2+  Bi98  1  0.05687023  0.25347891  0.20614079  1
  Bi2+  Bi99  1  0.12681601  0.33807885  0.68508686  1
  Bi2+  Bi100  1  0.05453343  0.49419860  0.22029937  1
  Bi2+  Bi101  1  0.12701833  0.51977679  0.64826971  1
  Bi2+  Bi102  1  0.03762097  0.79135311  0.23931593  1
  Bi2+  Bi103  1  0.09427074  0.71260475  0.71948660  1
  Bi2+  Bi104  1  0.34048241  0.03910482  0.22458953  1
  Bi2+  Bi105  1  0.42895880  -0.04463686  0.71563993  1
  Bi2+  Bi106  1  0.40686886  0.25532755  0.22020740  1
  Bi2+  Bi107  1  0.35080522  0.23033603  0.70856822  1
  Bi2+  Bi108  1  0.39663976  0.52119132  0.20636559  1
  Bi2+  Bi109  1  0.37645998  0.51511528  0.70459161  1
  Bi2+  Bi110  1  0.34666259  0.77275540  0.19598104  1
  Bi2+  Bi111  1  0.35106852  0.77433247  0.69337851  1
  Bi2+  Bi112  1  0.68636611  0.00866614  0.21444779  1
  Bi2+  Bi113  1  0.62389699  -0.00754453  0.70891144  1
  Bi2+  Bi114  1  0.60744013  0.27374550  0.20748906  1
  Bi2+  Bi115  1  0.67205438  0.18300674  0.68724284  1
  Bi2+  Bi116  1  0.64895545  0.50386686  0.21275486  1
  Bi2+  Bi117  1  0.64441153  0.50373649  0.71573834  1
  Bi2+  Bi118  1  0.66685307  0.75222831  0.22938291  1
  Bi2+  Bi119  1  0.64928469  0.78064010  0.70204490  1
  Bi2+  Bi120  1  0.86969138  -0.05700140  0.20198559  1
  Bi2+  Bi121  1  0.92662645  -0.01269669  0.74265739  1
  Bi2+  Bi122  1  0.86996098  0.17487182  0.17969017  1
  Bi2+  Bi123  1  0.89664697  0.23979330  0.71677609  1
  Bi2+  Bi124  1  0.87657552  0.36689136  0.21777364  1
  Bi2+  Bi125  1  0.96317596  0.48570657  0.70577138  1
  Bi2+  Bi126  1  0.84661759  0.75441721  0.17461446  1
  Bi2+  Bi127  1  0.85320389  0.72863466  0.70907562  1
  S2-  S128  1  0.00928455  -0.00094875  0.14679648  1
  S2-  S129  1  0.11294727  0.15707320  0.64803827  1
  S2-  S130  1  0.12673793  0.38763047  0.15196635  1
  S2-  S131  1  -0.11433474  0.36822534  0.64507202  1
  S2-  S132  1  -0.02941346  0.52386546  0.14230651  1
  S2-  S133  1  -0.01096822  0.73860933  0.64004741  1
  S2-  S134  1  0.01609579  0.74770732  0.14136578  1
  S2-  S135  1  0.00394171  0.96976582  0.64834090  1
  S2-  S136  1  0.15236021  0.14213779  0.14495029  1
  S2-  S137  1  0.30927642  0.09029430  0.66442157  1
  S2-  S138  1  0.35968846  0.38784319  0.15538514  1
  S2-  S139  1  0.34194973  0.37727118  0.64669783  1
  S2-  S140  1  0.26133646  0.61991126  0.16832566  1
  S2-  S141  1  0.32306590  0.63262705  0.63409701  1
  S2-  S142  1  0.21775567  0.87001013  0.15815704  1
  S2-  S143  1  0.21289083  0.87127242  0.65493492  1
  S2-  S144  1  0.37975401  0.12832649  0.14393248  1
  S2-  S145  1  0.50050077  0.20722087  0.65497466  1
  S2-  S146  1  0.52118443  0.50182524  0.14242942  1
  S2-  S147  1  0.50314258  0.39910097  0.72521243  1
  S2-  S148  1  0.47779716  0.72106402  0.15251905  1
  S2-  S149  1  0.52190240  0.54362206  0.65323153  1
  S2-  S150  1  0.44599038  0.91806337  0.19416233  1
  S2-  S151  1  0.49631548  0.76680190  0.64104964  1
  S2-  S152  1  0.63150519  0.12330287  0.14645590  1
  S2-  S153  1  0.83792747  0.12874492  0.64840176  1
  S2-  S154  1  0.73679645  0.38803196  0.15685535  1
  S2-  S155  1  0.67153844  0.36093593  0.65987407  1
  S2-  S156  1  0.71338597  0.63053362  0.15337711  1
  S2-  S157  1  0.75776026  0.60200811  0.65709552  1
  S2-  S158  1  0.65401093  0.87136450  0.15141721  1
  S2-  S159  1  0.77740547  0.85850094  0.65470327  1
  S2-  S160  1  0.12210981  0.03490368  0.33779255  1
  S2-  S161  1  0.12568476  0.12481552  0.85899974  1
  S2-  S162  1  0.12778816  0.33950520  0.35096752  1
  S2-  S163  1  0.26985141  0.26937936  0.86472099  1
  S2-  S164  1  0.12945392  0.54595060  0.31442970  1
  S2-  S165  1  0.23067318  0.49983518  0.86265696  1
  S2-  S166  1  0.12397634  0.77518410  0.33926894  1
  S2-  S167  1  0.15406028  0.87574925  0.85350601  1
  S2-  S168  1  0.36247441  0.00033098  0.33848616  1
  S2-  S169  1  0.35503138  0.01835591  0.84752557  1
  S2-  S170  1  0.35569721  0.34800128  0.35051528  1
  S2-  S171  1  0.48426859  0.21993903  0.85793045  1
  S2-  S172  1  0.33661264  0.55246172  0.31729858  1
  S2-  S173  1  0.44739572  0.53006591  0.84551279  1
  S2-  S174  1  0.33713845  0.78290226  0.31829396  1
  S2-  S175  1  0.34498795  0.74347308  0.83536225  1
  S2-  S176  1  0.58785469  -0.01534473  0.34101173  1
  S2-  S177  1  0.63322916  0.06207799  0.85611672  1
  S2-  S178  1  0.50936762  0.21649484  0.36065297  1
  S2-  S179  1  0.66661483  0.23279929  0.77599565  1
  S2-  S180  1  0.54075653  0.49316534  0.35669902  1
  S2-  S181  1  0.63297492  0.40097308  0.84321850  1
  S2-  S182  1  0.53010488  0.75126888  0.35461436  1
  S2-  S183  1  0.62210139  0.63706881  0.85562122  1
  S2-  S184  1  0.83422274  0.01583695  0.34844684  1
  S2-  S185  1  0.94611854  -0.01982781  0.85841364  1
  S2-  S186  1  0.73953613  0.25622852  0.36145616  1
  S2-  S187  1  0.83145455  0.23665265  0.85482763  1
  S2-  S188  1  0.94554364  0.48442548  0.35754729  1
  S2-  S189  1  0.85459997  0.50351577  0.83276508  1
  S2-  S190  1  0.89170287  0.76086745  0.33976930  1
  S2-  S191  1  0.98578143  0.72700132  0.85782053  1
  S2-  S192  1  -0.00690393  0.12191199  0.44600359  1
  S2-  S193  1  0.00209013  0.12569501  0.96400858  1
  S2-  S194  1  -0.00826612  0.36789528  0.45935229  1
  S2-  S195  1  0.00663829  0.37364126  0.95325613  1
  S2-  S196  1  -0.00314337  0.62128631  0.45209724  1
  S2-  S197  1  0.00200885  0.62103268  0.95856720  1
  S2-  S198  1  -0.00459102  0.86630537  0.45787697  1
  S2-  S199  1  -0.00100097  0.87501723  0.96186138  1
  S2-  S200  1  0.24676636  0.12360571  0.45112241  1
  S2-  S201  1  0.25984038  0.12234288  0.96138002  1
  S2-  S202  1  0.24651241  0.37111250  0.45319676  1
  S2-  S203  1  0.24941682  0.37619782  0.96651128  1
  S2-  S204  1  0.24478103  0.61824365  0.43713212  1
  S2-  S205  1  0.24704239  0.63472656  0.95610514  1
  S2-  S206  1  0.24606375  0.86973716  0.44730260  1
  S2-  S207  1  0.25668317  0.87946797  0.95455775  1
  S2-  S208  1  0.49739328  0.11784360  0.46164414  1
  S2-  S209  1  0.50110263  0.12188999  0.96435068  1
  S2-  S210  1  0.49918573  0.36852325  0.45644715  1
  S2-  S211  1  0.49322010  0.38278655  0.95755915  1
  S2-  S212  1  0.49485343  0.62015375  0.45546015  1
  S2-  S213  1  0.49914826  0.62920349  0.95745149  1
  S2-  S214  1  0.49598915  0.87063535  0.45526321  1
  S2-  S215  1  0.50444005  0.87778633  0.94182519  1
  S2-  S216  1  0.74597794  0.11704914  0.45621670  1
  S2-  S217  1  0.75290152  0.12857893  0.96174259  1
  S2-  S218  1  0.74647905  0.37409487  0.46317444  1
  S2-  S219  1  0.75312729  0.37168508  0.94814309  1
  S2-  S220  1  0.74407133  0.61855413  0.45133130  1
  S2-  S221  1  0.75772127  0.62484443  0.94770435  1
  S2-  S222  1  0.74447677  0.86723573  0.45119261  1
  S2-  S223  1  0.75357224  0.87761395  0.95582116  1
  S2-  S224  1  0.13267646  0.00245037  0.04258633  1
  S2-  S225  1  0.11701295  -0.00502070  0.54406319  1
  S2-  S226  1  0.12502728  0.25521805  0.04492783  1
  S2-  S227  1  0.12116059  0.25117920  0.54266550  1
  S2-  S228  1  0.12752440  0.51011945  0.04821347  1
  S2-  S229  1  0.12035879  0.49584810  0.53257529  1
  S2-  S230  1  0.12869646  0.75329162  0.03888130  1
  S2-  S231  1  0.12317727  0.74671203  0.54282686  1
  S2-  S232  1  0.38571616  -0.00924085  0.05174148  1
  S2-  S233  1  0.36970153  -0.00467149  0.54917552  1
  S2-  S234  1  0.37767126  0.25564808  0.04665053  1
  S2-  S235  1  0.36594218  0.24130971  0.54440236  1
  S2-  S236  1  0.37061342  0.50783775  0.04524119  1
  S2-  S237  1  0.36815586  0.49788751  0.53468294  1
  S2-  S238  1  0.37822959  0.75722513  0.04530915  1
  S2-  S239  1  0.36576446  0.75132543  0.53080859  1
  S2-  S240  1  0.62519765  -0.00390094  0.05145411  1
  S2-  S241  1  0.61976008  -0.00737437  0.55215087  1
  S2-  S242  1  0.62174775  0.25860881  0.05380594  1
  S2-  S243  1  0.62250187  0.24636425  0.54807689  1
  S2-  S244  1  0.62803728  0.50140873  0.03533980  1
  S2-  S245  1  0.62305871  0.49378689  0.55133055  1
  S2-  S246  1  0.62594817  0.75444982  0.04190815  1
  S2-  S247  1  0.62366809  0.74321780  0.54443100  1
  S2-  S248  1  0.87237382  0.00531645  0.05234831  1
  S2-  S249  1  0.86858353  -0.01191732  0.54754331  1
  S2-  S250  1  0.88311928  0.25539740  0.05540033  1
  S2-  S251  1  0.87660092  0.24043378  0.54256572  1
  S2-  S252  1  0.87688985  0.50073406  0.04002809  1
  S2-  S253  1  0.87415201  0.50334885  0.54919012  1
  S2-  S254  1  0.87725668  0.75210286  0.04085400  1
  S2-  S255  1  0.86418423  0.74415564  0.54479619  1
