# generated using pymatgen
data_La9Ce10Pr6Nd4Sm3(BiS2)32
_symmetry_space_group_name_H-M   'P 1'
_cell_length_a   16.24112531
_cell_length_b   16.23073178
_cell_length_c   27.01952285
_cell_angle_alpha   90.04767844
_cell_angle_beta   89.82241084
_cell_angle_gamma   89.99863052
_symmetry_Int_Tables_number   1
_chemical_formula_structural   La9Ce10Pr6Nd4Sm3(BiS2)32
_chemical_formula_sum   'La18 Ce20 Pr12 Nd8 Sm6 Bi64 S128'
_cell_volume   7122.45406341
_cell_formula_units_Z   2
loop_
 _symmetry_equiv_pos_site_id
 _symmetry_equiv_pos_as_xyz
  1  'x, y, z'
loop_
 _atom_type_symbol
 _atom_type_oxidation_number
  La3+  3.0
  Ce3+  3.0
  Pr3+  3.0
  Nd3+  3.0
  Sm3+  3.0
  Bi2+  2.0
  S2-  -2.0
loop_
 _atom_site_type_symbol
 _atom_site_label
 _atom_site_symmetry_multiplicity
 _atom_site_fract_x
 _atom_site_fract_y
 _atom_site_fract_z
 _atom_site_occupancy
  La3+  La0  1  0.38047708  0.74606020  0.93256751  1
  La3+  La1  1  0.11338865  0.24385751  0.93566996  1
  La3+  La2  1  0.86983847  0.73955629  0.93046725  1
  La3+  La3  1  0.48860888  0.62030910  0.08128286  1
  La3+  La4  1  0.37690457  0.49688398  0.93194847  1
  La3+  La5  1  -0.00064945  0.87359387  0.57099356  1
  La3+  La6  1  0.37189008  0.24531709  0.90186188  1
  La3+  La7  1  0.24643865  0.62117597  0.06110455  1
  La3+  La8  1  0.51115051  0.36594499  0.57802235  1
  La3+  La9  1  0.38226820  -0.00447735  0.92123191  1
  La3+  La10  1  -0.00949319  0.13272826  0.57609792  1
  La3+  La11  1  -0.00885851  0.61707156  0.57332474  1
  La3+  La12  1  0.12873151  -0.01310307  0.43247708  1
  La3+  La13  1  0.87631068  -0.00583348  0.43463622  1
  La3+  La14  1  -0.00258784  0.11625284  0.08594580  1
  La3+  La15  1  0.50055983  0.86835122  0.56732456  1
  La3+  La16  1  0.73910389  0.62924586  0.09026965  1
  La3+  La17  1  0.12155418  0.74460874  0.89830322  1
  Ce3+  Ce18  1  0.12467949  0.24118221  0.44136435  1
  Ce3+  Ce19  1  0.62113509  -0.00419560  0.44479050  1
  Ce3+  Ce20  1  -0.00419119  0.36848630  0.54741503  1
  Ce3+  Ce21  1  0.37592141  0.49313728  0.44355349  1
  Ce3+  Ce22  1  0.25274283  0.37167017  0.56945848  1
  Ce3+  Ce23  1  0.25518092  0.87140587  0.57138198  1
  Ce3+  Ce24  1  -0.00132026  0.87180778  0.05474991  1
  Ce3+  Ce25  1  0.49899587  0.61925918  0.55438410  1
  Ce3+  Ce26  1  0.74848875  0.37175179  0.05886697  1
  Ce3+  Ce27  1  0.24007106  0.11829712  0.57281015  1
  Ce3+  Ce28  1  0.87622456  0.74216581  0.44038750  1
  Ce3+  Ce29  1  0.24988204  0.62057437  0.56180769  1
  Ce3+  Ce30  1  0.75154851  0.12462861  0.06778398  1
  Ce3+  Ce31  1  0.49200206  0.12148387  0.56628674  1
  Ce3+  Ce32  1  0.87295458  -0.00172950  0.94278784  1
  Ce3+  Ce33  1  0.13200260  0.49665111  0.93058470  1
  Ce3+  Ce34  1  0.11030125  -0.00281550  0.92524753  1
  Ce3+  Ce35  1  0.12414732  0.74473013  0.44995725  1
  Ce3+  Ce36  1  0.37272454  0.74652939  0.43997562  1
  Ce3+  Ce37  1  0.74600483  0.87065107  0.06395309  1
  Pr3+  Pr38  1  -0.00223143  0.62367665  0.06175142  1
  Pr3+  Pr39  1  0.12602035  0.49443381  0.44301029  1
  Pr3+  Pr40  1  0.24673506  0.12131887  0.04562400  1
  Pr3+  Pr41  1  0.61929513  0.49680151  0.94318055  1
  Pr3+  Pr42  1  0.87446199  0.49677888  0.42582381  1
  Pr3+  Pr43  1  0.87224015  0.23563873  0.41509558  1
  Pr3+  Pr44  1  0.24711303  0.36737561  0.05552162  1
  Pr3+  Pr45  1  0.74759937  0.61989508  0.55594962  1
  Pr3+  Pr46  1  0.62376773  0.74530979  0.94321667  1
  Pr3+  Pr47  1  0.87230833  0.24691708  0.93906154  1
  Pr3+  Pr48  1  0.74900041  0.87116675  0.55655011  1
  Pr3+  Pr49  1  0.49220034  0.87582601  0.06588835  1
  Nd3+  Nd50  1  0.49750002  0.12054813  0.06160050  1
  Nd3+  Nd51  1  0.49773362  0.36934635  0.06186925  1
  Nd3+  Nd52  1  0.74750602  0.37021085  0.55101110  1
  Nd3+  Nd53  1  0.62081110  0.24492729  0.43260290  1
  Nd3+  Nd54  1  -0.00205206  0.37873690  0.06903110  1
  Nd3+  Nd55  1  0.87499229  0.50057730  0.94462169  1
  Nd3+  Nd56  1  0.62308371  0.24464529  0.93754845  1
  Nd3+  Nd57  1  0.37470628  -0.00446861  0.44490442  1
  Sm3+  Sm58  1  0.62432073  0.74578219  0.43320537  1
  Sm3+  Sm59  1  0.61294627  0.49410206  0.42804104  1
  Sm3+  Sm60  1  0.62645094  -0.00355967  0.94338458  1
  Sm3+  Sm61  1  0.37229299  0.24449673  0.45026346  1
  Sm3+  Sm62  1  0.75011891  0.12311828  0.55821660  1
  Sm3+  Sm63  1  0.24489952  0.87440998  0.04455840  1
  Bi2+  Bi64  1  0.00887042  0.16161026  0.29063410  1
  Bi2+  Bi65  1  -0.05253389  0.13000579  0.78245159  1
  Bi2+  Bi66  1  0.05053590  0.37216560  0.25295029  1
  Bi2+  Bi67  1  -0.08263464  0.38459333  0.81671187  1
  Bi2+  Bi68  1  -0.01446392  0.63843071  0.30095154  1
  Bi2+  Bi69  1  -0.04053749  0.62709258  0.78661355  1
  Bi2+  Bi70  1  0.01243973  0.90321974  0.29765192  1
  Bi2+  Bi71  1  -0.11326342  0.89630513  0.79358954  1
  Bi2+  Bi72  1  0.25886298  0.13409713  0.30879247  1
  Bi2+  Bi73  1  0.23253436  0.14082376  0.78703152  1
  Bi2+  Bi74  1  0.22039343  0.43591545  0.29686820  1
  Bi2+  Bi75  1  0.24132419  0.38343707  0.77107939  1
  Bi2+  Bi76  1  0.23296212  0.62983212  0.29842694  1
  Bi2+  Bi77  1  0.22827823  0.62302940  0.78641006  1
  Bi2+  Bi78  1  0.26699690  0.84690622  0.30118514  1
  Bi2+  Bi79  1  0.28085091  0.88327626  0.79486831  1
  Bi2+  Bi80  1  0.52488719  0.16758586  0.30103510  1
  Bi2+  Bi81  1  0.59169747  0.11339706  0.79020647  1
  Bi2+  Bi82  1  0.48067068  0.35683365  0.28867917  1
  Bi2+  Bi83  1  0.55831799  0.37576954  0.78858622  1
  Bi2+  Bi84  1  0.42570882  0.61794843  0.28658251  1
  Bi2+  Bi85  1  0.54647680  0.61293928  0.78892457  1
  Bi2+  Bi86  1  0.49989105  0.97696961  0.28538872  1
  Bi2+  Bi87  1  0.53231208  0.85987154  0.78991783  1
  Bi2+  Bi88  1  0.74085111  0.09503983  0.29111869  1
  Bi2+  Bi89  1  0.76915679  0.13325218  0.83684627  1
  Bi2+  Bi90  1  0.67564045  0.35833418  0.28689626  1
  Bi2+  Bi91  1  0.73528295  0.33072214  0.83102235  1
  Bi2+  Bi92  1  0.75129239  0.64273283  0.30004070  1
  Bi2+  Bi93  1  0.73423275  0.66920092  0.79031869  1
  Bi2+  Bi94  1  0.74750180  0.88107579  0.24032858  1
  Bi2+  Bi95  1  0.72180995  0.84951707  0.83890352  1
  Bi2+  Bi96  1  0.15626990  0.01419841  0.19814376  1
  Bi2+  Bi97  1  0.09715601  -0.00672752  0.72069020  1
  Bi2+  Bi98  1  0.20050760  0.26611605  0.20771890  1
  Bi2+  Bi99  1  0.09037161  0.25356002  0.71204213  1
  Bi2+  Bi100  1  0.14595957  0.55995787  0.19854635  1
  Bi2+  Bi101  1  0.05621265  0.44179047  0.74102483  1
  Bi2+  Bi102  1  0.12230163  0.75572844  0.22413776  1
  Bi2+  Bi103  1  0.14001488  0.75524927  0.69246441  1
  Bi2+  Bi104  1  0.35818102  0.00359997  0.20706757  1
  Bi2+  Bi105  1  0.40263122  -0.00766377  0.72352371  1
  Bi2+  Bi106  1  0.39384396  0.22566926  0.21547918  1
  Bi2+  Bi107  1  0.40506176  0.23931466  0.70092547  1
  Bi2+  Bi108  1  0.36072016  0.48283683  0.21222101  1
  Bi2+  Bi109  1  0.41855487  0.54505761  0.70796162  1
  Bi2+  Bi110  1  0.33491744  0.75905804  0.20432512  1
  Bi2+  Bi111  1  0.40455781  0.73522903  0.70795763  1
  Bi2+  Bi112  1  0.62691080  0.02524108  0.19797060  1
  Bi2+  Bi113  1  0.59802783  -0.01604247  0.69921216  1
  Bi2+  Bi114  1  0.57724250  0.21121521  0.17714597  1
  Bi2+  Bi115  1  0.66382590  0.27054696  0.71106288  1
  Bi2+  Bi116  1  0.62843777  0.49372423  0.20990883  1
  Bi2+  Bi117  1  0.68031429  0.49490371  0.73051466  1
  Bi2+  Bi118  1  0.59340290  0.76395244  0.22529256  1
  Bi2+  Bi119  1  0.65037207  0.79234668  0.70539805  1
  Bi2+  Bi120  1  0.90289789  -0.01735198  0.21232412  1
  Bi2+  Bi121  1  0.79089916  0.03438430  0.73188468  1
  Bi2+  Bi122  1  0.76554384  0.23495869  0.20957845  1
  Bi2+  Bi123  1  0.85266447  0.26282650  0.70371744  1
  Bi2+  Bi124  1  0.88098779  0.46908207  0.21412561  1
  Bi2+  Bi125  1  0.86965470  0.46494492  0.71030506  1
  Bi2+  Bi126  1  0.93103444  0.78283013  0.21794161  1
  Bi2+  Bi127  1  0.89871853  0.72987632  0.69773235  1
  S2-  S128  1  0.06742129  0.14929252  0.18656973  1
  S2-  S129  1  0.11280861  0.11242737  0.64837192  1
  S2-  S130  1  -0.02986272  0.34042477  0.16647559  1
  S2-  S131  1  -0.02043309  0.29257486  0.63435002  1
  S2-  S132  1  0.00054688  0.54918442  0.15518384  1
  S2-  S133  1  0.05593904  0.62677926  0.66865734  1
  S2-  S134  1  0.02601908  0.95886840  0.13904740  1
  S2-  S135  1  -0.00066702  0.87428557  0.67377317  1
  S2-  S136  1  0.26252270  0.11946771  0.14713747  1
  S2-  S137  1  0.34651886  0.10765435  0.65407276  1
  S2-  S138  1  0.22260475  0.40940998  0.15353726  1
  S2-  S139  1  0.21770507  0.33600046  0.66552745  1
  S2-  S140  1  0.34459347  0.62137414  0.14519595  1
  S2-  S141  1  0.27598131  0.63672622  0.66037068  1
  S2-  S142  1  0.25992907  0.89223545  0.14407696  1
  S2-  S143  1  0.19828800  0.91613596  0.66236730  1
  S2-  S144  1  0.47936934  0.00511869  0.13758730  1
  S2-  S145  1  0.53705114  0.21425719  0.64502625  1
  S2-  S146  1  0.49361596  0.45172657  0.15124791  1
  S2-  S147  1  0.41468136  0.40184432  0.66055686  1
  S2-  S148  1  0.59984408  0.62929155  0.15974303  1
  S2-  S149  1  0.52861959  0.65203773  0.64933200  1
  S2-  S150  1  0.48238409  0.78956621  0.15697637  1
  S2-  S151  1  0.39392592  0.86355710  0.64792287  1
  S2-  S152  1  0.85097506  0.11953941  0.14923677  1
  S2-  S153  1  0.84419953  0.11750678  0.64204522  1
  S2-  S154  1  0.74433280  0.38821243  0.15734101  1
  S2-  S155  1  0.65806239  0.39904640  0.63767598  1
  S2-  S156  1  0.78656179  0.58974159  0.19025341  1
  S2-  S157  1  0.84358665  0.60526227  0.64039157  1
  S2-  S158  1  0.73496751  0.79219773  0.15138438  1
  S2-  S159  1  0.78578976  0.84183327  0.65437961  1
  S2-  S160  1  0.10799600  0.03292318  0.33308221  1
  S2-  S161  1  0.15602358  -0.00419764  0.82515058  1
  S2-  S162  1  0.14402414  0.23683942  0.34273494  1
  S2-  S163  1  0.18589872  0.26914657  0.84291516  1
  S2-  S164  1  0.07872321  0.53057442  0.34715245  1
  S2-  S165  1  0.09744652  0.58906018  0.84846511  1
  S2-  S166  1  0.12350777  0.83078147  0.36446714  1
  S2-  S167  1  0.14803381  0.78438281  0.79195510  1
  S2-  S168  1  0.33047680  -0.01276326  0.34798148  1
  S2-  S169  1  0.35328837  0.04805459  0.82318943  1
  S2-  S170  1  0.37247378  0.23203236  0.35097231  1
  S2-  S171  1  0.35758610  0.26713875  0.79729654  1
  S2-  S172  1  0.45647336  0.48743554  0.35630115  1
  S2-  S173  1  0.27397643  0.48959534  0.84734223  1
  S2-  S174  1  0.39931184  0.76563377  0.34239009  1
  S2-  S175  1  0.31211292  0.72847831  0.83785761  1
  S2-  S176  1  0.63830638  -0.01710262  0.34710754  1
  S2-  S177  1  0.53861212  -0.00463662  0.85884877  1
  S2-  S178  1  0.72704973  0.23855465  0.35306168  1
  S2-  S179  1  0.52913109  0.23686452  0.85246120  1
  S2-  S180  1  0.66245479  0.52121746  0.33367538  1
  S2-  S181  1  0.51035531  0.49549601  0.86140843  1
  S2-  S182  1  0.63114365  0.74129462  0.33280101  1
  S2-  S183  1  0.51620914  0.73717371  0.86208522  1
  S2-  S184  1  0.88234191  0.08763346  0.34910065  1
  S2-  S185  1  0.96539126  0.00542850  0.85935935  1
  S2-  S186  1  0.94088448  0.29318169  0.32385957  1
  S2-  S187  1  0.98408202  0.23762065  0.85987149  1
  S2-  S188  1  0.87184081  0.51576795  0.32348488  1
  S2-  S189  1  0.84647056  0.59497022  0.86055657  1
  S2-  S190  1  0.86794820  0.75615156  0.34290828  1
  S2-  S191  1  0.96818031  0.76664834  0.84528809  1
  S2-  S192  1  0.00232154  0.11840473  0.45573898  1
  S2-  S193  1  -0.00713733  0.11960293  0.96616036  1
  S2-  S194  1  -0.00106316  0.37051089  0.44207599  1
  S2-  S195  1  -0.00130358  0.37938950  0.95868313  1
  S2-  S196  1  -0.00107593  0.61948473  0.45932846  1
  S2-  S197  1  0.00211488  0.62314239  0.95604341  1
  S2-  S198  1  -0.00406981  0.86810698  0.46034343  1
  S2-  S199  1  -0.00021142  0.86390829  0.95175997  1
  S2-  S200  1  0.25067834  0.11919681  0.45942981  1
  S2-  S201  1  0.24907025  0.12198191  0.93871453  1
  S2-  S202  1  0.25098984  0.36979110  0.45622636  1
  S2-  S203  1  0.25345940  0.36231514  0.94947561  1
  S2-  S204  1  0.25043305  0.61979010  0.45288179  1
  S2-  S205  1  0.24604987  0.62688230  0.95186566  1
  S2-  S206  1  0.25386634  0.86843797  0.46273313  1
  S2-  S207  1  0.24358279  0.87098421  0.93811175  1
  S2-  S208  1  0.49755403  0.12179650  0.45534065  1
  S2-  S209  1  0.49733557  0.12399544  0.95612176  1
  S2-  S210  1  0.49882729  0.36554872  0.45834806  1
  S2-  S211  1  0.49492120  0.36244526  0.95566444  1
  S2-  S212  1  0.50110016  0.62511934  0.44791377  1
  S2-  S213  1  0.49783299  0.62026875  0.96770241  1
  S2-  S214  1  0.50037931  0.86933948  0.45517394  1
  S2-  S215  1  0.50307730  0.87528258  0.95871122  1
  S2-  S216  1  0.74623470  0.11598571  0.45374352  1
  S2-  S217  1  0.74765545  0.12125538  0.96026049  1
  S2-  S218  1  0.74405754  0.37771599  0.44478494  1
  S2-  S219  1  0.74798172  0.37477942  0.95356430  1
  S2-  S220  1  0.74580815  0.62047167  0.44763769  1
  S2-  S221  1  0.74288612  0.62005758  0.96558722  1
  S2-  S222  1  0.74786671  0.86860080  0.44851781  1
  S2-  S223  1  0.74979904  0.87229559  0.95784085  1
  S2-  S224  1  0.12395244  -0.00270443  0.03438113  1
  S2-  S225  1  0.12177409  -0.00668679  0.54389839  1
  S2-  S226  1  0.11734898  0.24569385  0.05011132  1
  S2-  S227  1  0.12638989  0.25047402  0.54560254  1
  S2-  S228  1  0.12349037  0.49557725  0.04150644  1
  S2-  S229  1  0.12288267  0.49386721  0.55210452  1
  S2-  S230  1  0.12384594  0.74954032  0.05751926  1
  S2-  S231  1  0.12434557  0.74530520  0.55551243  1
  S2-  S232  1  0.36797390  -0.00323623  0.03158390  1
  S2-  S233  1  0.37429490  -0.00384463  0.54967304  1
  S2-  S234  1  0.37453133  0.24458689  0.05273642  1
  S2-  S235  1  0.37119132  0.24697925  0.55371069  1
  S2-  S236  1  0.37100908  0.49048948  0.04172324  1
  S2-  S237  1  0.37577589  0.49613369  0.54874441  1
  S2-  S238  1  0.36691705  0.75284793  0.04154958  1
  S2-  S239  1  0.37519212  0.74174384  0.54587332  1
  S2-  S240  1  0.62796636  -0.00079479  0.04814765  1
  S2-  S241  1  0.62506524  -0.00104047  0.55255099  1
  S2-  S242  1  0.62445214  0.24597070  0.04595096  1
  S2-  S243  1  0.62919622  0.24175330  0.53801043  1
  S2-  S244  1  0.62331394  0.49466128  0.05016750  1
  S2-  S245  1  0.62286706  0.49937768  0.53538002  1
  S2-  S246  1  0.61848589  0.75041722  0.04945932  1
  S2-  S247  1  0.62549043  0.74583015  0.54176891  1
  S2-  S248  1  0.86951947  -0.00763221  0.04850761  1
  S2-  S249  1  0.87299084  -0.00399640  0.54420837  1
  S2-  S250  1  0.87530404  0.25116992  0.04778358  1
  S2-  S251  1  0.86658790  0.24693629  0.53025136  1
  S2-  S252  1  0.86975887  0.50025426  0.05173102  1
  S2-  S253  1  0.87127513  0.49135637  0.53584627  1
  S2-  S254  1  0.87245184  0.74608487  0.04920055  1
  S2-  S255  1  0.87420309  0.74746550  0.54540680  1
