# generated using pymatgen
data_La9Ce10Pr6Nd4Sm3(BiS2)32
_symmetry_space_group_name_H-M   'P 1'
_cell_length_a   16.16042264
_cell_length_b   16.16733275
_cell_length_c   27.16156804
_cell_angle_alpha   89.96708066
_cell_angle_beta   90.07560576
_cell_angle_gamma   89.79973467
_symmetry_Int_Tables_number   1
_chemical_formula_structural   La9Ce10Pr6Nd4Sm3(BiS2)32
_chemical_formula_sum   'La18 Ce20 Pr12 Nd8 Sm6 Bi64 S128'
_cell_volume   7096.47742867
_cell_formula_units_Z   2
loop_
 _symmetry_equiv_pos_site_id
 _symmetry_equiv_pos_as_xyz
  1  'x, y, z'
loop_
 _atom_type_symbol
 _atom_type_oxidation_number
  La3+  3.0
  Ce3+  3.0
  Pr3+  3.0
  Nd3+  3.0
  Sm3+  3.0
  Bi2+  2.0
  S2-  -2.0
loop_
 _atom_site_type_symbol
 _atom_site_label
 _atom_site_symmetry_multiplicity
 _atom_site_fract_x
 _atom_site_fract_y
 _atom_site_fract_z
 _atom_site_occupancy
  La3+  La0  1  0.13130674  0.02945808  0.42771102  1
  La3+  La1  1  0.13390106  0.52397990  0.42227776  1
  La3+  La2  1  0.50152389  0.13394170  0.07116376  1
  La3+  La3  1  0.25062053  0.87390147  0.07014138  1
  La3+  La4  1  0.87387925  0.25418543  0.93207849  1
  La3+  La5  1  0.62983548  0.27392906  0.43728519  1
  La3+  La6  1  0.25344472  0.15543170  0.56931009  1
  La3+  La7  1  0.00154746  0.12557338  0.06935735  1
  La3+  La8  1  0.38251316  0.52987139  0.42901905  1
  La3+  La9  1  0.87119093  0.00744641  0.92681423  1
  La3+  La10  1  0.12706803  0.27550021  0.42946242  1
  La3+  La11  1  0.50138704  0.87147894  0.10914333  1
  La3+  La12  1  0.75586847  0.14184082  0.57304373  1
  La3+  La13  1  0.12138237  0.50928168  0.91894611  1
  La3+  La14  1  0.87668732  0.76293729  0.92829934  1
  La3+  La15  1  0.51076647  0.65076564  0.56866952  1
  La3+  La16  1  0.50469639  0.15243409  0.57096350  1
  La3+  La17  1  0.75233498  0.86097624  0.61848900  1
  Ce3+  Ce18  1  0.62730821  0.50320737  0.95047567  1
  Ce3+  Ce19  1  0.62510189  0.00668318  0.94856340  1
  Ce3+  Ce20  1  0.00407948  0.90743029  0.56425436  1
  Ce3+  Ce21  1  0.62760392  0.52261490  0.42985634  1
  Ce3+  Ce22  1  0.12918167  0.77435704  0.44495063  1
  Ce3+  Ce23  1  0.37791203  0.25841125  0.94183995  1
  Ce3+  Ce24  1  0.00713078  0.39904713  0.56451234  1
  Ce3+  Ce25  1  0.37730101  0.75829483  0.94003905  1
  Ce3+  Ce26  1  0.62622829  0.25873908  0.93930024  1
  Ce3+  Ce27  1  0.87987535  0.27432537  0.44239678  1
  Ce3+  Ce28  1  0.87914848  0.52323690  0.44218769  1
  Ce3+  Ce29  1  0.37610924  0.50626506  0.94508816  1
  Ce3+  Ce30  1  0.12753971  0.01662436  0.93252360  1
  Ce3+  Ce31  1  0.25501467  0.64320931  0.56504994  1
  Ce3+  Ce32  1  0.88072692  0.77701114  0.43859854  1
  Ce3+  Ce33  1  0.50864538  0.90581965  0.56753041  1
  Ce3+  Ce34  1  0.75121761  0.88744013  0.07297176  1
  Ce3+  Ce35  1  0.50216748  0.63115465  0.05995609  1
  Ce3+  Ce36  1  0.13630520  0.75940057  0.92710540  1
  Ce3+  Ce37  1  0.37938916  0.27323170  0.43867665  1
  Pr3+  Pr38  1  0.25114772  0.12925463  0.06525216  1
  Pr3+  Pr39  1  0.75087231  0.13282069  0.06591058  1
  Pr3+  Pr40  1  0.00037758  0.88151836  0.05551287  1
  Pr3+  Pr41  1  0.12627210  0.26304420  0.93678956  1
  Pr3+  Pr42  1  0.76091825  0.37796278  0.07435675  1
  Pr3+  Pr43  1  -0.00014826  0.63459416  0.05679107  1
  Pr3+  Pr44  1  0.25365246  0.89886608  0.56096242  1
  Pr3+  Pr45  1  0.00339933  0.64458683  0.56190288  1
  Pr3+  Pr46  1  0.62422521  0.75861120  0.94080173  1
  Pr3+  Pr47  1  0.50437447  0.40063627  0.56428705  1
  Pr3+  Pr48  1  0.62971552  0.02831762  0.43498671  1
  Pr3+  Pr49  1  0.50050750  0.38147103  0.07260364  1
  Nd3+  Nd50  1  0.75373210  0.39565959  0.56953693  1
  Nd3+  Nd51  1  0.87967424  0.02523748  0.44375764  1
  Nd3+  Nd52  1  0.38207058  0.77644874  0.44094489  1
  Nd3+  Nd53  1  0.62925357  0.77925323  0.43649806  1
  Nd3+  Nd54  1  0.87370709  0.50858019  0.93774683  1
  Nd3+  Nd55  1  0.24675935  0.38354582  0.06319388  1
  Nd3+  Nd56  1  0.00735602  0.15412602  0.56768623  1
  Nd3+  Nd57  1  0.37486097  0.00765576  0.94802124  1
  Sm3+  Sm58  1  0.38125269  0.02435890  0.44263597  1
  Sm3+  Sm59  1  0.00804771  0.38903806  0.06777355  1
  Sm3+  Sm60  1  0.75048092  0.63606281  0.05691736  1
  Sm3+  Sm61  1  0.25443576  0.40270525  0.55922492  1
  Sm3+  Sm62  1  0.75462209  0.64828626  0.54619472  1
  Sm3+  Sm63  1  0.24891678  0.63112380  0.05739014  1
  Bi2+  Bi64  1  0.01126041  0.12280230  0.30717630  1
  Bi2+  Bi65  1  0.02853463  0.08492251  0.78651777  1
  Bi2+  Bi66  1  0.00522682  0.46076805  0.28074072  1
  Bi2+  Bi67  1  0.00003671  0.35830822  0.78997180  1
  Bi2+  Bi68  1  -0.05546380  0.64928930  0.27401455  1
  Bi2+  Bi69  1  -0.01964708  0.62783655  0.79005849  1
  Bi2+  Bi70  1  0.02070441  0.86002148  0.28479014  1
  Bi2+  Bi71  1  0.05157360  0.80616534  0.75404099  1
  Bi2+  Bi72  1  0.26011358  0.21477193  0.26923183  1
  Bi2+  Bi73  1  0.25350283  0.11636583  0.79441249  1
  Bi2+  Bi74  1  0.24591375  0.40735109  0.28338642  1
  Bi2+  Bi75  1  0.27279613  0.37972966  0.78663135  1
  Bi2+  Bi76  1  0.13987465  0.61572912  0.29476109  1
  Bi2+  Bi77  1  0.25863438  0.63328883  0.78873775  1
  Bi2+  Bi78  1  0.19446446  0.80866703  0.24332821  1
  Bi2+  Bi79  1  0.23390973  0.87286006  0.78582408  1
  Bi2+  Bi80  1  0.48784956  0.09673264  0.31423435  1
  Bi2+  Bi81  1  0.51208298  0.23794610  0.81609775  1
  Bi2+  Bi82  1  0.49653053  0.36278845  0.28279623  1
  Bi2+  Bi83  1  0.51859116  0.42792786  0.78869912  1
  Bi2+  Bi84  1  0.52469424  0.63122134  0.29148553  1
  Bi2+  Bi85  1  0.50251357  0.63188660  0.78614814  1
  Bi2+  Bi86  1  0.47704655  0.85385937  0.30420218  1
  Bi2+  Bi87  1  0.49859157  0.81729733  0.74364126  1
  Bi2+  Bi88  1  0.77599033  0.17693154  0.30570459  1
  Bi2+  Bi89  1  0.75353043  0.12384640  0.79778609  1
  Bi2+  Bi90  1  0.68010679  0.36968253  0.31940208  1
  Bi2+  Bi91  1  0.78920030  0.38868556  0.80168538  1
  Bi2+  Bi92  1  0.71849753  0.55773017  0.30102195  1
  Bi2+  Bi93  1  0.72887252  0.59120512  0.77957992  1
  Bi2+  Bi94  1  0.76200563  0.81386806  0.27157382  1
  Bi2+  Bi95  1  0.73639120  0.84351740  0.81671024  1
  Bi2+  Bi96  1  0.11248176  0.05781940  0.19971530  1
  Bi2+  Bi97  1  0.15152661  -0.03846395  0.69210303  1
  Bi2+  Bi98  1  0.04086481  0.30714704  0.21902177  1
  Bi2+  Bi99  1  0.14010480  0.30120777  0.71496000  1
  Bi2+  Bi100  1  0.19220137  0.51622663  0.18159816  1
  Bi2+  Bi101  1  0.12373892  0.50209028  0.71336934  1
  Bi2+  Bi102  1  0.05480037  0.71185406  0.18105087  1
  Bi2+  Bi103  1  0.15642472  0.69111217  0.68403049  1
  Bi2+  Bi104  1  0.35932341  0.01316445  0.21358254  1
  Bi2+  Bi105  1  0.40938415  -0.00409041  0.74693991  1
  Bi2+  Bi106  1  0.36526885  0.33925168  0.19571799  1
  Bi2+  Bi107  1  0.38042190  0.19869712  0.69519284  1
  Bi2+  Bi108  1  0.44889016  0.51561388  0.18185595  1
  Bi2+  Bi109  1  0.38040637  0.50208577  0.71242266  1
  Bi2+  Bi110  1  0.31524734  0.64687116  0.21978683  1
  Bi2+  Bi111  1  0.35879571  0.70836385  0.68822301  1
  Bi2+  Bi112  1  0.64079694  -0.00135000  0.21905062  1
  Bi2+  Bi113  1  0.57731298  0.09515376  0.74451859  1
  Bi2+  Bi114  1  0.62321387  0.19049513  0.21293585  1
  Bi2+  Bi115  1  0.62151788  0.28984537  0.72049956  1
  Bi2+  Bi116  1  0.62808233  0.44986677  0.20766423  1
  Bi2+  Bi117  1  0.66017546  0.47745938  0.68645255  1
  Bi2+  Bi118  1  0.64975625  0.70446416  0.20581750  1
  Bi2+  Bi119  1  0.61571755  0.67819164  0.69222471  1
  Bi2+  Bi120  1  0.83270048  -0.00406699  0.23952722  1
  Bi2+  Bi121  1  0.88462601  -0.00863114  0.71105817  1
  Bi2+  Bi122  1  0.81154839  0.31823161  0.23091957  1
  Bi2+  Bi123  1  0.88162230  0.26875861  0.71484882  1
  Bi2+  Bi124  1  0.82134656  0.51669393  0.20234797  1
  Bi2+  Bi125  1  0.85319438  0.46819605  0.70397367  1
  Bi2+  Bi126  1  0.91181979  0.84246777  0.18192426  1
  Bi2+  Bi127  1  0.93312339  0.69387463  0.68804951  1
  S2-  S128  1  -0.00523460  0.17773060  0.17087992  1
  S2-  S129  1  0.01871663  0.04508804  0.64858294  1
  S2-  S130  1  -0.10397230  0.38589186  0.14363968  1
  S2-  S131  1  0.01196227  0.28009199  0.64158517  1
  S2-  S132  1  0.03509312  0.55298892  0.14438747  1
  S2-  S133  1  0.00989262  0.52012946  0.63873167  1
  S2-  S134  1  0.01129643  0.98044885  0.14103296  1
  S2-  S135  1  -0.07211375  0.85795047  0.64770235  1
  S2-  S136  1  0.25884540  0.14455855  0.16788786  1
  S2-  S137  1  0.25025132  0.08503336  0.66523421  1
  S2-  S138  1  0.13576769  0.36396990  0.14085594  1
  S2-  S139  1  0.26250868  0.29231124  0.64144266  1
  S2-  S140  1  0.26248817  0.72899524  0.13819631  1
  S2-  S141  1  0.25443165  0.51812880  0.63654844  1
  S2-  S142  1  0.22408194  0.93412722  0.16757180  1
  S2-  S143  1  0.29009231  0.86011836  0.65827770  1
  S2-  S144  1  0.49104231  0.03525924  0.15761504  1
  S2-  S145  1  0.48817176  0.04913270  0.65431587  1
  S2-  S146  1  0.50461972  0.25765557  0.14734606  1
  S2-  S147  1  0.49388485  0.28198766  0.64593628  1
  S2-  S148  1  0.50906529  0.70039322  0.14844598  1
  S2-  S149  1  0.50235731  0.52117906  0.64053198  1
  S2-  S150  1  0.42898950  0.86652125  0.20988213  1
  S2-  S151  1  0.57967577  0.84517547  0.65072144  1
  S2-  S152  1  0.76965475  0.02116489  0.14507774  1
  S2-  S153  1  0.75997664  0.02976181  0.65355420  1
  S2-  S154  1  0.73561753  0.24543402  0.14678373  1
  S2-  S155  1  0.75247876  0.27154582  0.64656419  1
  S2-  S156  1  0.79506535  0.65834948  0.15145163  1
  S2-  S157  1  0.76985414  0.68539170  0.64269109  1
  S2-  S158  1  0.65412547  0.85904394  0.15791444  1
  S2-  S159  1  0.77111221  0.86675202  0.72692689  1
  S2-  S160  1  0.09971291  -0.02042223  0.32984992  1
  S2-  S161  1  0.10587919  -0.04418019  0.83812481  1
  S2-  S162  1  0.15746649  0.16580444  0.34977815  1
  S2-  S163  1  0.12288136  0.15341420  0.85541094  1
  S2-  S164  1  0.11420990  0.39145571  0.35171491  1
  S2-  S165  1  0.14221423  0.37410917  0.85332523  1
  S2-  S166  1  0.15421093  0.76617563  0.34672659  1
  S2-  S167  1  0.12445449  0.64629983  0.85086710  1
  S2-  S168  1  0.36992927  -0.00939108  0.34381953  1
  S2-  S169  1  0.35411182  0.01552210  0.84666527  1
  S2-  S170  1  0.39520267  0.24596329  0.34019360  1
  S2-  S171  1  0.33817500  0.24387791  0.84490085  1
  S2-  S172  1  0.26872451  0.53400503  0.35042398  1
  S2-  S173  1  0.33024918  0.50768213  0.85034045  1
  S2-  S174  1  0.40051155  0.72484478  0.34546676  1
  S2-  S175  1  0.30085548  0.76954947  0.85138290  1
  S2-  S176  1  0.59334336  -0.02512921  0.33615604  1
  S2-  S177  1  0.68574246  0.00115674  0.85494666  1
  S2-  S178  1  0.63189765  0.16198622  0.35892958  1
  S2-  S179  1  0.73405593  0.26110714  0.86034744  1
  S2-  S180  1  0.50626356  0.51019785  0.35467506  1
  S2-  S181  1  0.65090458  0.48279976  0.85314581  1
  S2-  S182  1  0.62588723  0.76408292  0.33499826  1
  S2-  S183  1  0.58330685  0.75492320  0.84037617  1
  S2-  S184  1  0.87186984  0.03491566  0.34268311  1
  S2-  S185  1  0.87817716  -0.11454049  0.85230322  1
  S2-  S186  1  0.92565757  0.25375076  0.34788418  1
  S2-  S187  1  0.89757450  0.13016332  0.85141789  1
  S2-  S188  1  0.87472095  0.50628712  0.34430148  1
  S2-  S189  1  0.96779800  0.49534072  0.85333850  1
  S2-  S190  1  0.88640738  0.77278391  0.33890548  1
  S2-  S191  1  0.82959209  0.67793016  0.83838400  1
  S2-  S192  1  0.00400213  0.14912281  0.45764321  1
  S2-  S193  1  0.00117032  0.13230921  0.95930713  1
  S2-  S194  1  0.00049355  0.40148007  0.45614545  1
  S2-  S195  1  -0.00359764  0.38146258  0.95981635  1
  S2-  S196  1  0.00443395  0.64841006  0.44978628  1
  S2-  S197  1  -0.00222072  0.63683203  0.95080167  1
  S2-  S198  1  0.00615648  0.90042259  0.45333854  1
  S2-  S199  1  0.00947254  0.88308960  0.94994606  1
  S2-  S200  1  0.25995271  0.14770720  0.45751401  1
  S2-  S201  1  0.25465176  0.13597768  0.95821101  1
  S2-  S202  1  0.25910149  0.39773578  0.45282265  1
  S2-  S203  1  0.25482560  0.38323361  0.95803522  1
  S2-  S204  1  0.25631555  0.65526611  0.45692436  1
  S2-  S205  1  0.25446804  0.63270242  0.95464611  1
  S2-  S206  1  0.25617167  0.90019601  0.45203910  1
  S2-  S207  1  0.25237400  0.88423678  0.95689698  1
  S2-  S208  1  0.50039222  0.14840436  0.45930565  1
  S2-  S209  1  0.50048562  0.13239983  0.95805136  1
  S2-  S210  1  0.50453995  0.39604222  0.45582162  1
  S2-  S211  1  0.50088113  0.38246479  0.95968462  1
  S2-  S212  1  0.51008559  0.65304627  0.45775206  1
  S2-  S213  1  0.50188621  0.62968908  0.95168646  1
  S2-  S214  1  0.50414209  0.90080914  0.45683745  1
  S2-  S215  1  0.49837532  0.88482882  0.94285980  1
  S2-  S216  1  0.75850261  0.15014851  0.46065073  1
  S2-  S217  1  0.74648156  0.13251217  0.95977525  1
  S2-  S218  1  0.75497842  0.40003351  0.45639034  1
  S2-  S219  1  0.75393311  0.38369633  0.96351314  1
  S2-  S220  1  0.75321854  0.65047642  0.44190460  1
  S2-  S221  1  0.74831263  0.63154554  0.95271128  1
  S2-  S222  1  0.75512034  0.90096667  0.43915096  1
  S2-  S223  1  0.74726216  0.88141042  0.96060214  1
  S2-  S224  1  0.13222290  0.00443536  0.04147660  1
  S2-  S225  1  0.13303025  0.02635082  0.54088499  1
  S2-  S226  1  0.12602887  0.25299984  0.04407325  1
  S2-  S227  1  0.13189550  0.27860454  0.53862212  1
  S2-  S228  1  0.12863103  0.50974194  0.03404221  1
  S2-  S229  1  0.13044984  0.52542533  0.53376657  1
  S2-  S230  1  0.12621517  0.75507247  0.03775360  1
  S2-  S231  1  0.12659539  0.77271329  0.55167205  1
  S2-  S232  1  0.37634814  0.00076384  0.05392576  1
  S2-  S233  1  0.37634671  0.02335316  0.54780730  1
  S2-  S234  1  0.37127970  0.25944944  0.04887762  1
  S2-  S235  1  0.37927642  0.27840930  0.54194809  1
  S2-  S236  1  0.37312000  0.50722844  0.05181127  1
  S2-  S237  1  0.38155698  0.52688371  0.53794165  1
  S2-  S238  1  0.38442033  0.75831548  0.04428554  1
  S2-  S239  1  0.38376313  0.77399410  0.54820475  1
  S2-  S240  1  0.61841522  0.00204671  0.05248215  1
  S2-  S241  1  0.62733586  0.02515660  0.54437336  1
  S2-  S242  1  0.62583564  0.26128644  0.04328071  1
  S2-  S243  1  0.63091200  0.27595942  0.54460325  1
  S2-  S244  1  0.63044407  0.50607465  0.05782463  1
  S2-  S245  1  0.63546834  0.52324660  0.53935781  1
  S2-  S246  1  0.62574975  0.75746807  0.04688782  1
  S2-  S247  1  0.63658394  0.77591914  0.54212603  1
  S2-  S248  1  0.87560820  0.00560926  0.03824019  1
  S2-  S249  1  0.88585298  0.02856106  0.54742810  1
  S2-  S250  1  0.88212923  0.25464196  0.04469581  1
  S2-  S251  1  0.87850136  0.27597640  0.54607522  1
  S2-  S252  1  0.87415487  0.51180763  0.04372317  1
  S2-  S253  1  0.87302349  0.52220417  0.54677594  1
  S2-  S254  1  0.87352902  0.75883751  0.04124769  1
  S2-  S255  1  0.87832889  0.77221955  0.54160543  1
