# generated using pymatgen
data_La9Ce10Pr6Nd4Sm3(BiS2)32
_symmetry_space_group_name_H-M   'P 1'
_cell_length_a   16.12715582
_cell_length_b   16.16223892
_cell_length_c   27.17524133
_cell_angle_alpha   89.43064130
_cell_angle_beta   89.97070334
_cell_angle_gamma   89.92030992
_symmetry_Int_Tables_number   1
_chemical_formula_structural   La9Ce10Pr6Nd4Sm3(BiS2)32
_chemical_formula_sum   'La18 Ce20 Pr12 Nd8 Sm6 Bi64 S128'
_cell_volume   7082.89489134
_cell_formula_units_Z   2
loop_
 _symmetry_equiv_pos_site_id
 _symmetry_equiv_pos_as_xyz
  1  'x, y, z'
loop_
 _atom_type_symbol
 _atom_type_oxidation_number
  La3+  3.0
  Ce3+  3.0
  Pr3+  3.0
  Nd3+  3.0
  Sm3+  3.0
  Bi2+  2.0
  S2-  -2.0
loop_
 _atom_site_type_symbol
 _atom_site_label
 _atom_site_symmetry_multiplicity
 _atom_site_fract_x
 _atom_site_fract_y
 _atom_site_fract_z
 _atom_site_occupancy
  La3+  La0  1  0.13058715  0.01222540  0.41306966  1
  La3+  La1  1  0.62271483  0.00261230  0.92823996  1
  La3+  La2  1  0.61146459  0.76124179  0.42734823  1
  La3+  La3  1  0.88096717  0.00862586  0.93659668  1
  La3+  La4  1  0.74516206  0.62980194  0.56303500  1
  La3+  La5  1  0.00931910  0.11932797  0.09005357  1
  La3+  La6  1  0.38200853  0.50494382  0.92487098  1
  La3+  La7  1  0.38083554  0.25642625  0.92087681  1
  La3+  La8  1  0.87319443  0.50863911  0.92778497  1
  La3+  La9  1  0.62637036  0.51473044  0.41765155  1
  La3+  La10  1  0.75008794  0.37206204  0.08129537  1
  La3+  La11  1  0.48925418  0.13980015  0.58852533  1
  La3+  La12  1  0.49227859  0.63225396  0.10171846  1
  La3+  La13  1  0.24605035  0.87916015  0.56494510  1
  La3+  La14  1  0.11538974  0.50698154  0.43502830  1
  La3+  La15  1  0.85727861  0.00633672  0.41830775  1
  La3+  La16  1  0.61807521  0.25777137  0.43112968  1
  La3+  La17  1  0.12527223  0.76153855  0.93281410  1
  Ce3+  Ce18  1  0.25498580  0.62470257  0.04916313  1
  Ce3+  Ce19  1  0.62688108  0.25626210  0.94155968  1
  Ce3+  Ce20  1  0.87920490  0.25089321  0.94856416  1
  Ce3+  Ce21  1  0.25508766  0.37825998  0.06253726  1
  Ce3+  Ce22  1  0.74376483  0.37951600  0.55389707  1
  Ce3+  Ce23  1  0.61791608  0.01288013  0.45249246  1
  Ce3+  Ce24  1  0.12127316  0.50189713  0.93590358  1
  Ce3+  Ce25  1  0.00879763  0.87319322  0.07084950  1
  Ce3+  Ce26  1  0.75054436  0.87754800  0.05912047  1
  Ce3+  Ce27  1  0.50190460  0.37836644  0.06424090  1
  Ce3+  Ce28  1  0.36943969  0.00998310  0.44658690  1
  Ce3+  Ce29  1  -0.00032538  0.62564396  0.05639078  1
  Ce3+  Ce30  1  0.37999581  0.00918858  0.93226903  1
  Ce3+  Ce31  1  0.87394767  0.76039278  0.94053488  1
  Ce3+  Ce32  1  0.24233494  0.12571221  0.56535193  1
  Ce3+  Ce33  1  0.74723868  0.62201578  0.07182084  1
  Ce3+  Ce34  1  0.74409511  0.88330709  0.56096150  1
  Ce3+  Ce35  1  0.12555922  0.25386843  0.94920381  1
  Ce3+  Ce36  1  0.51123375  0.88633604  0.07621764  1
  Ce3+  Ce37  1  0.74448066  0.13218445  0.56102658  1
  Pr3+  Pr38  1  0.11499151  0.25666479  0.43094065  1
  Pr3+  Pr39  1  0.00755800  0.37876823  0.06912473  1
  Pr3+  Pr40  1  0.50036691  0.12861172  0.06333478  1
  Pr3+  Pr41  1  0.86808234  0.76207726  0.43293065  1
  Pr3+  Pr42  1  0.25830373  0.87322024  0.06101421  1
  Pr3+  Pr43  1  0.24402175  0.63364072  0.56648348  1
  Pr3+  Pr44  1  -0.00684724  0.37986034  0.56098236  1
  Pr3+  Pr45  1  0.11965277  0.75976374  0.43261376  1
  Pr3+  Pr46  1  -0.00755842  0.12893755  0.55070234  1
  Pr3+  Pr47  1  -0.00589467  0.88507502  0.55261641  1
  Pr3+  Pr48  1  0.49518859  0.62806985  0.56099028  1
  Pr3+  Pr49  1  0.38200547  0.75755210  0.93788291  1
  Nd3+  Nd50  1  0.24525574  0.37904703  0.55337765  1
  Nd3+  Nd51  1  0.36198399  0.75023421  0.42282764  1
  Nd3+  Nd52  1  0.62853283  0.50560092  0.94194158  1
  Nd3+  Nd53  1  0.49598780  0.38446664  0.56185519  1
  Nd3+  Nd54  1  0.49355780  0.87810506  0.55973409  1
  Nd3+  Nd55  1  0.37310233  0.25696004  0.43421202  1
  Nd3+  Nd56  1  0.86561768  0.25507013  0.40759554  1
  Nd3+  Nd57  1  0.86942341  0.50849947  0.43650694  1
  Sm3+  Sm58  1  0.25555292  0.12747026  0.06273228  1
  Sm3+  Sm59  1  0.75328403  0.12569884  0.05967666  1
  Sm3+  Sm60  1  0.62454043  0.75209025  0.94942249  1
  Sm3+  Sm61  1  -0.00517606  0.63107052  0.55516412  1
  Sm3+  Sm62  1  0.12783651  0.00849716  0.94804202  1
  Sm3+  Sm63  1  0.37066769  0.50864054  0.43917408  1
  Bi2+  Bi64  1  0.02100379  0.14433960  0.28938377  1
  Bi2+  Bi65  1  0.01504462  0.09810661  0.80658633  1
  Bi2+  Bi66  1  0.07254266  0.38756175  0.27517801  1
  Bi2+  Bi67  1  0.01615653  0.33882654  0.79948860  1
  Bi2+  Bi68  1  -0.01476465  0.54804211  0.31978443  1
  Bi2+  Bi69  1  0.02905067  0.59306385  0.77992941  1
  Bi2+  Bi70  1  -0.02078188  0.74510377  0.31655535  1
  Bi2+  Bi71  1  0.01227277  0.85629733  0.79286699  1
  Bi2+  Bi72  1  0.29656079  0.14110695  0.28736953  1
  Bi2+  Bi73  1  0.25788346  0.02085232  0.79700615  1
  Bi2+  Bi74  1  0.27110934  0.33752251  0.29777257  1
  Bi2+  Bi75  1  0.16266060  0.37856111  0.72315905  1
  Bi2+  Bi76  1  0.23762693  0.63893379  0.28269210  1
  Bi2+  Bi77  1  0.23121604  0.53462396  0.78263989  1
  Bi2+  Bi78  1  0.28040258  0.88873957  0.28388093  1
  Bi2+  Bi79  1  0.33942881  0.83918287  0.78662184  1
  Bi2+  Bi80  1  0.49577169  0.10221195  0.28526437  1
  Bi2+  Bi81  1  0.51514879  0.11156896  0.80064173  1
  Bi2+  Bi82  1  0.46611007  0.35591552  0.28710039  1
  Bi2+  Bi83  1  0.47148467  0.38067953  0.79124235  1
  Bi2+  Bi84  1  0.49531025  0.62916284  0.29530481  1
  Bi2+  Bi85  1  0.49180084  0.62826706  0.78669076  1
  Bi2+  Bi86  1  0.49920281  0.90613977  0.28080067  1
  Bi2+  Bi87  1  0.54006454  0.85066521  0.78275211  1
  Bi2+  Bi88  1  0.72317180  0.14077721  0.29046854  1
  Bi2+  Bi89  1  0.77641797  0.17398042  0.78246466  1
  Bi2+  Bi90  1  0.84062593  0.39503488  0.29426197  1
  Bi2+  Bi91  1  0.81823550  0.37011038  0.79715666  1
  Bi2+  Bi92  1  0.79711846  0.65807824  0.29726063  1
  Bi2+  Bi93  1  0.73382197  0.63557190  0.80317515  1
  Bi2+  Bi94  1  0.71460711  0.89151782  0.29139956  1
  Bi2+  Bi95  1  0.79562636  0.89677908  0.77285084  1
  Bi2+  Bi96  1  0.11991397  -0.02331420  0.22173667  1
  Bi2+  Bi97  1  0.10259313  -0.01358424  0.70876762  1
  Bi2+  Bi98  1  0.19055201  0.24286215  0.20395174  1
  Bi2+  Bi99  1  0.16349878  0.18429205  0.74951052  1
  Bi2+  Bi100  1  0.17903935  0.52424275  0.19608181  1
  Bi2+  Bi101  1  0.13255271  0.57405954  0.68121434  1
  Bi2+  Bi102  1  0.07715396  0.75108933  0.21752102  1
  Bi2+  Bi103  1  0.19597273  0.73683879  0.73789716  1
  Bi2+  Bi104  1  0.36975205  0.01170707  0.20692517  1
  Bi2+  Bi105  1  0.36733461  0.00604249  0.70130318  1
  Bi2+  Bi106  1  0.37384352  0.25062560  0.14840664  1
  Bi2+  Bi107  1  0.38863540  0.27279203  0.71166216  1
  Bi2+  Bi108  1  0.35322594  0.43079131  0.20091812  1
  Bi2+  Bi109  1  0.36904990  0.52376553  0.70149459  1
  Bi2+  Bi110  1  0.31929910  0.76285295  0.20423398  1
  Bi2+  Bi111  1  0.40464803  0.70746422  0.67697856  1
  Bi2+  Bi112  1  0.70966360  0.04175257  0.19331775  1
  Bi2+  Bi113  1  0.65694473  -0.01861778  0.70796863  1
  Bi2+  Bi114  1  0.54114506  0.23859934  0.20526331  1
  Bi2+  Bi115  1  0.65780519  0.31497039  0.73852201  1
  Bi2+  Bi116  1  0.64160761  0.50304235  0.21177253  1
  Bi2+  Bi117  1  0.63017907  0.50153073  0.70801364  1
  Bi2+  Bi118  1  0.61147389  0.78226276  0.21786635  1
  Bi2+  Bi119  1  0.59768495  0.71655997  0.70509637  1
  Bi2+  Bi120  1  0.86855724  -0.04719674  0.22536970  1
  Bi2+  Bi121  1  0.88966370  -0.01178947  0.68314593  1
  Bi2+  Bi122  1  0.85050621  0.26784431  0.21525703  1
  Bi2+  Bi123  1  0.92778755  0.23505756  0.71663414  1
  Bi2+  Bi124  1  0.90973809  0.53688651  0.20702273  1
  Bi2+  Bi125  1  0.86879713  0.49282815  0.69387551  1
  Bi2+  Bi126  1  0.87595296  0.75843180  0.20949804  1
  Bi2+  Bi127  1  0.88658167  0.72403777  0.75494805  1
  S2-  S128  1  -0.02540541  0.17529792  0.18758203  1
  S2-  S129  1  0.00041158  0.11637055  0.65268676  1
  S2-  S130  1  -0.06630931  0.39141985  0.16134605  1
  S2-  S131  1  -0.02422738  0.38328793  0.66193090  1
  S2-  S132  1  0.04525825  0.61796875  0.15267712  1
  S2-  S133  1  -0.03448899  0.61891804  0.65150494  1
  S2-  S134  1  -0.01442678  0.96944984  0.15152074  1
  S2-  S135  1  0.00664940  0.87522666  0.65450438  1
  S2-  S136  1  0.16983611  0.10295328  0.14982922  1
  S2-  S137  1  0.33572475  0.15903919  0.64694640  1
  S2-  S138  1  0.14568460  0.38430229  0.14123365  1
  S2-  S139  1  0.28870914  0.38395354  0.65059597  1
  S2-  S140  1  0.30291802  0.63009726  0.14272404  1
  S2-  S141  1  0.23497142  0.75648716  0.64011348  1
  S2-  S142  1  0.17349241  0.85195325  0.15020008  1
  S2-  S143  1  0.21768105  0.99468029  0.63970618  1
  S2-  S144  1  0.49591786  0.01727000  0.14264078  1
  S2-  S145  1  0.52895063  0.07977011  0.69142639  1
  S2-  S146  1  0.60083526  0.37821270  0.14876625  1
  S2-  S147  1  0.50960807  0.28584677  0.64679443  1
  S2-  S148  1  0.47981280  0.55186182  0.19807818  1
  S2-  S149  1  0.50847287  0.50671698  0.63721016  1
  S2-  S150  1  0.46798351  0.78407229  0.15522881  1
  S2-  S151  1  0.43003448  0.87844191  0.65288699  1
  S2-  S152  1  0.74233513  0.20529541  0.14716084  1
  S2-  S153  1  0.75275485  0.10136062  0.65853034  1
  S2-  S154  1  0.77178142  0.50628955  0.14738915  1
  S2-  S155  1  0.74105958  0.38877637  0.65317092  1
  S2-  S156  1  0.64493149  0.64823116  0.15703021  1
  S2-  S157  1  0.73533165  0.61846309  0.66401960  1
  S2-  S158  1  0.66748024  0.89119365  0.14436332  1
  S2-  S159  1  0.76415831  0.86459133  0.65748319  1
  S2-  S160  1  0.06615409  -0.01965692  0.31284017  1
  S2-  S161  1  0.10860732  -0.03939374  0.85317509  1
  S2-  S162  1  0.14994736  0.15508229  0.35047203  1
  S2-  S163  1  0.12484997  0.22132867  0.85203578  1
  S2-  S164  1  0.15999411  0.50707096  0.33745401  1
  S2-  S165  1  0.01191579  0.48660266  0.85838058  1
  S2-  S166  1  0.22789309  0.76254704  0.35319587  1
  S2-  S167  1  0.11024320  0.72613890  0.83447631  1
  S2-  S168  1  0.29469977  0.00281915  0.35819547  1
  S2-  S169  1  0.49429673  -0.03122201  0.85593411  1
  S2-  S170  1  0.49039547  0.22814696  0.36016542  1
  S2-  S171  1  0.36279705  0.12502560  0.85240296  1
  S2-  S172  1  0.36799214  0.59269067  0.35199242  1
  S2-  S173  1  0.34107394  0.38428715  0.85082611  1
  S2-  S174  1  0.47848991  0.77940554  0.34878133  1
  S2-  S175  1  0.36847911  0.69463624  0.84279555  1
  S2-  S176  1  0.67928756  0.01682128  0.36103059  1
  S2-  S177  1  0.67035468  0.07172946  0.83440576  1
  S2-  S178  1  0.72174274  0.27682936  0.34545112  1
  S2-  S179  1  0.53905416  0.25474228  0.85547237  1
  S2-  S180  1  0.56390633  0.47458446  0.32284736  1
  S2-  S181  1  0.52083302  0.50424103  0.85616571  1
  S2-  S182  1  0.64399283  0.66513501  0.34436898  1
  S2-  S183  1  0.63734201  0.76610610  0.84863393  1
  S2-  S184  1  0.87500414  0.11977265  0.33912333  1
  S2-  S185  1  0.88366095  -0.11269338  0.86161271  1
  S2-  S186  1  1.00483935  0.29282097  0.34590475  1
  S2-  S187  1  0.89128163  0.14360101  0.86542138  1
  S2-  S188  1  0.77278983  0.50795565  0.35225115  1
  S2-  S189  1  0.73846506  0.49094363  0.85984931  1
  S2-  S190  1  0.85453551  0.87079763  0.35170922  1
  S2-  S191  1  0.86428053  0.66260364  0.85930522  1
  S2-  S192  1  -0.01024615  0.13163605  0.44506484  1
  S2-  S193  1  0.00713202  0.12754900  0.96944027  1
  S2-  S194  1  -0.01116335  0.38115431  0.45356878  1
  S2-  S195  1  -0.00002827  0.37465273  0.96077313  1
  S2-  S196  1  -0.00722733  0.63569344  0.45051956  1
  S2-  S197  1  0.00313766  0.63273552  0.95300927  1
  S2-  S198  1  -0.00182802  0.88790672  0.44516381  1
  S2-  S199  1  0.00439188  0.88151077  0.96386623  1
  S2-  S200  1  0.24853530  0.13859797  0.45814205  1
  S2-  S201  1  0.24952578  0.12927600  0.95776569  1
  S2-  S202  1  0.24609669  0.38166619  0.44606850  1
  S2-  S203  1  0.24625711  0.38156638  0.95629987  1
  S2-  S204  1  0.24109861  0.62813446  0.45763718  1
  S2-  S205  1  0.24974558  0.62810300  0.94359743  1
  S2-  S206  1  0.24683577  0.88066077  0.45633939  1
  S2-  S207  1  0.25397922  0.88304247  0.95116814  1
  S2-  S208  1  0.49339623  0.13070818  0.46543036  1
  S2-  S209  1  0.50393901  0.13003948  0.95669659  1
  S2-  S210  1  0.49397261  0.38851378  0.45088582  1
  S2-  S211  1  0.50348066  0.37874932  0.95892501  1
  S2-  S212  1  0.49432989  0.63007681  0.45357779  1
  S2-  S213  1  0.50344034  0.63269222  0.95224437  1
  S2-  S214  1  0.49321671  0.88771310  0.45388903  1
  S2-  S215  1  0.50303184  0.87721202  0.96369755  1
  S2-  S216  1  0.74661000  0.13740533  0.45564010  1
  S2-  S217  1  0.74939618  0.13016572  0.95652263  1
  S2-  S218  1  0.75019065  0.37965103  0.45076589  1
  S2-  S219  1  0.75405236  0.37320341  0.96413254  1
  S2-  S220  1  0.74736666  0.63858227  0.45485833  1
  S2-  S221  1  0.74896493  0.63303381  0.96437109  1
  S2-  S222  1  0.73675618  0.88031970  0.45674138  1
  S2-  S223  1  0.74680198  0.88037348  0.95433773  1
  S2-  S224  1  0.13234660  -0.00183420  0.04941978  1
  S2-  S225  1  0.11794332  0.00706273  0.53202111  1
  S2-  S226  1  0.12928904  0.24713521  0.05247588  1
  S2-  S227  1  0.11937150  0.25600658  0.54528727  1
  S2-  S228  1  0.12798919  0.50552000  0.04026760  1
  S2-  S229  1  0.11875907  0.50591994  0.54474311  1
  S2-  S230  1  0.12961094  0.74911214  0.04179423  1
  S2-  S231  1  0.11359986  0.75400671  0.54009916  1
  S2-  S232  1  0.37331114  0.00376045  0.04265200  1
  S2-  S233  1  0.37451153  0.00827562  0.55001253  1
  S2-  S234  1  0.37519778  0.25277340  0.03550317  1
  S2-  S235  1  0.37087667  0.26184583  0.53958112  1
  S2-  S236  1  0.38028958  0.50219098  0.04507169  1
  S2-  S237  1  0.36471469  0.50731746  0.54257050  1
  S2-  S238  1  0.37982002  0.74918274  0.04383416  1
  S2-  S239  1  0.37251914  0.75271322  0.53620329  1
  S2-  S240  1  0.63173088  0.00804516  0.03937804  1
  S2-  S241  1  0.61522870  0.00695001  0.55816905  1
  S2-  S242  1  0.62575684  0.24990541  0.04591801  1
  S2-  S243  1  0.62076558  0.25584537  0.54312556  1
  S2-  S244  1  0.61911155  0.50661855  0.04880834  1
  S2-  S245  1  0.62389672  0.50667545  0.53462233  1
  S2-  S246  1  0.62421053  0.75197326  0.05124112  1
  S2-  S247  1  0.61830021  0.75581314  0.54666517  1
  S2-  S248  1  0.87475113  0.00236574  0.04905426  1
  S2-  S249  1  0.86566371  0.00613852  0.53889079  1
  S2-  S250  1  0.88222611  0.24778699  0.05370961  1
  S2-  S251  1  0.86911952  0.25545775  0.55421522  1
  S2-  S252  1  0.87992112  0.50206557  0.04249311  1
  S2-  S253  1  0.87145247  0.50671214  0.54360993  1
  S2-  S254  1  0.87622540  0.75256444  0.05320285  1
  S2-  S255  1  0.87137995  0.75609254  0.54447451  1
