# generated using pymatgen
data_La9Ce10Pr6Nd4Sm3(BiS2)32
_symmetry_space_group_name_H-M   'P 1'
_cell_length_a   16.24336054
_cell_length_b   16.24598936
_cell_length_c   27.12284606
_cell_angle_alpha   89.88200968
_cell_angle_beta   90.02405041
_cell_angle_gamma   89.93594367
_symmetry_Int_Tables_number   1
_chemical_formula_structural   La9Ce10Pr6Nd4Sm3(BiS2)32
_chemical_formula_sum   'La18 Ce20 Pr12 Nd8 Sm6 Bi64 S128'
_cell_volume   7157.41297715
_cell_formula_units_Z   2
loop_
 _symmetry_equiv_pos_site_id
 _symmetry_equiv_pos_as_xyz
  1  'x, y, z'
loop_
 _atom_type_symbol
 _atom_type_oxidation_number
  La3+  3.0
  Ce3+  3.0
  Pr3+  3.0
  Nd3+  3.0
  Sm3+  3.0
  Bi2+  2.0
  S2-  -2.0
loop_
 _atom_site_type_symbol
 _atom_site_label
 _atom_site_symmetry_multiplicity
 _atom_site_fract_x
 _atom_site_fract_y
 _atom_site_fract_z
 _atom_site_occupancy
  La3+  La0  1  0.62949322  0.00608395  0.40102903  1
  La3+  La1  1  0.25013760  0.38216369  0.56732354  1
  La3+  La2  1  0.37733823  0.51011561  0.44136653  1
  La3+  La3  1  0.37937148  0.72796476  0.92106486  1
  La3+  La4  1  0.74558846  0.85920214  0.07357195  1
  La3+  La5  1  0.24336719  0.60250275  0.07126974  1
  La3+  La6  1  0.37428591  0.00998008  0.42701593  1
  La3+  La7  1  0.24616417  0.85018718  0.06865856  1
  La3+  La8  1  -0.00526440  0.60832056  0.06293525  1
  La3+  La9  1  0.62887380  0.51455394  0.42977166  1
  La3+  La10  1  0.62333356  0.76086734  0.43366298  1
  La3+  La11  1  0.12372292  -0.02510408  0.92202120  1
  La3+  La12  1  0.24377064  0.10630891  0.05503493  1
  La3+  La13  1  0.12228335  0.23998753  0.88622954  1
  La3+  La14  1  0.74723051  0.10741327  0.06948932  1
  La3+  La15  1  0.62528618  0.25660675  0.43168078  1
  La3+  La16  1  0.48732665  0.85349096  0.08571655  1
  La3+  La17  1  0.86072013  -0.02004025  0.92215441  1
  Ce3+  Ce18  1  0.75174316  0.38063785  0.55207511  1
  Ce3+  Ce19  1  0.25154103  0.12896183  0.56189274  1
  Ce3+  Ce20  1  0.36972941  0.48274882  0.94089085  1
  Ce3+  Ce21  1  0.62468327  0.23176361  0.93473500  1
  Ce3+  Ce22  1  0.87711381  0.25590609  0.44505584  1
  Ce3+  Ce23  1  0.86692518  0.48309538  0.94447913  1
  Ce3+  Ce24  1  0.36838136  0.23346561  0.93871340  1
  Ce3+  Ce25  1  -0.00407519  0.35337085  0.05277690  1
  Ce3+  Ce26  1  0.74456052  0.63164829  0.56155764  1
  Ce3+  Ce27  1  0.24622066  0.63422839  0.56679632  1
  Ce3+  Ce28  1  0.50496595  0.39206281  0.56119056  1
  Ce3+  Ce29  1  0.86770088  0.73633632  0.94381450  1
  Ce3+  Ce30  1  0.12764684  0.75711859  0.44017565  1
  Ce3+  Ce31  1  0.00330620  0.63220856  0.56323988  1
  Ce3+  Ce32  1  0.87818401  0.50800531  0.44658031  1
  Ce3+  Ce33  1  0.49726327  0.35601860  0.05185108  1
  Ce3+  Ce34  1  0.61866605  -0.02096154  0.94744822  1
  Ce3+  Ce35  1  0.24438056  0.36029677  0.06137998  1
  Ce3+  Ce36  1  0.74903486  0.13155758  0.56012062  1
  Ce3+  Ce37  1  0.37588397  0.25640249  0.44825376  1
  Pr3+  Pr38  1  0.86910334  0.23419163  0.92919528  1
  Pr3+  Pr39  1  0.49266770  0.60531698  0.07087359  1
  Pr3+  Pr40  1  0.74486267  0.60655036  0.07705923  1
  Pr3+  Pr41  1  0.12078019  0.48219238  0.93641255  1
  Pr3+  Pr42  1  0.00040460  0.88426304  0.55389057  1
  Pr3+  Pr43  1  0.87452236  0.01114561  0.43479678  1
  Pr3+  Pr44  1  0.50244372  0.13102991  0.56021651  1
  Pr3+  Pr45  1  0.12922624  0.00926248  0.42913178  1
  Pr3+  Pr46  1  0.49239919  0.64820065  0.61756235  1
  Pr3+  Pr47  1  -0.00388858  0.87126879  0.06248642  1
  Pr3+  Pr48  1  0.12146285  0.73246001  0.93900771  1
  Pr3+  Pr49  1  0.74969693  0.88315663  0.55787451  1
  Nd3+  Nd50  1  -0.00071978  0.10760307  0.03988684  1
  Nd3+  Nd51  1  0.12738218  0.25793527  0.44464362  1
  Nd3+  Nd52  1  0.87639594  0.75895222  0.44084707  1
  Nd3+  Nd53  1  0.74645215  0.35461614  0.06909479  1
  Nd3+  Nd54  1  0.25199468  0.88266310  0.56109275  1
  Nd3+  Nd55  1  0.12659136  0.50867075  0.44436007  1
  Nd3+  Nd56  1  0.49482143  0.10803314  0.05597214  1
  Nd3+  Nd57  1  0.37183596  -0.02077110  0.93858731  1
  Sm3+  Sm58  1  0.50067019  0.88160793  0.55696286  1
  Sm3+  Sm59  1  -0.00081228  0.37994200  0.55945104  1
  Sm3+  Sm60  1  0.61779008  0.73160068  0.95056029  1
  Sm3+  Sm61  1  0.62230491  0.48337862  0.94923715  1
  Sm3+  Sm62  1  0.00222925  0.12898610  0.55971406  1
  Sm3+  Sm63  1  0.37622361  0.75799759  0.44244077  1
  Bi2+  Bi64  1  0.03472620  0.10669739  0.28865830  1
  Bi2+  Bi65  1  -0.04109997  0.15130711  0.76152531  1
  Bi2+  Bi66  1  -0.06203133  0.41915964  0.28224111  1
  Bi2+  Bi67  1  -0.02965243  0.39903529  0.78407990  1
  Bi2+  Bi68  1  -0.00456648  0.61469811  0.27603103  1
  Bi2+  Bi69  1  -0.03267197  0.63828028  0.80341349  1
  Bi2+  Bi70  1  0.00948753  0.91664038  0.28668195  1
  Bi2+  Bi71  1  -0.00585869  0.91335054  0.79809921  1
  Bi2+  Bi72  1  0.23437524  0.13904321  0.29192004  1
  Bi2+  Bi73  1  0.28049401  0.14194447  0.77167806  1
  Bi2+  Bi74  1  0.20004177  0.35350567  0.29608347  1
  Bi2+  Bi75  1  0.26580873  0.39895385  0.79366751  1
  Bi2+  Bi76  1  0.23581891  0.60292580  0.30132603  1
  Bi2+  Bi77  1  0.22095351  0.58690521  0.78125900  1
  Bi2+  Bi78  1  0.20008601  0.88249746  0.28008973  1
  Bi2+  Bi79  1  0.23384768  0.89879017  0.79396816  1
  Bi2+  Bi80  1  0.50324502  0.12670733  0.27417877  1
  Bi2+  Bi81  1  0.52335434  0.19259804  0.81452704  1
  Bi2+  Bi82  1  0.55248745  0.31143801  0.30189357  1
  Bi2+  Bi83  1  0.49508637  0.37607987  0.78369357  1
  Bi2+  Bi84  1  0.48453045  0.61514612  0.31552886  1
  Bi2+  Bi85  1  0.51741096  0.59965456  0.81600688  1
  Bi2+  Bi86  1  0.49816685  0.86960530  0.28125390  1
  Bi2+  Bi87  1  0.55940157  0.90958849  0.81147411  1
  Bi2+  Bi88  1  0.76689073  0.13788462  0.27829585  1
  Bi2+  Bi89  1  0.69817930  0.12867631  0.78472745  1
  Bi2+  Bi90  1  0.76032676  0.33738731  0.29081582  1
  Bi2+  Bi91  1  0.72048223  0.38517139  0.79420707  1
  Bi2+  Bi92  1  0.73045327  0.58439604  0.28248258  1
  Bi2+  Bi93  1  0.76994184  0.65460043  0.78356680  1
  Bi2+  Bi94  1  0.76442825  0.87522502  0.28463563  1
  Bi2+  Bi95  1  0.74812865  0.84959483  0.79206781  1
  Bi2+  Bi96  1  0.13392415  -0.03013331  0.18653733  1
  Bi2+  Bi97  1  0.12513451  -0.00323725  0.68564613  1
  Bi2+  Bi98  1  0.12212652  0.25399952  0.20866661  1
  Bi2+  Bi99  1  0.13248866  0.25972478  0.68375521  1
  Bi2+  Bi100  1  0.11506106  0.45974892  0.20728092  1
  Bi2+  Bi101  1  0.08029574  0.51392226  0.70942480  1
  Bi2+  Bi102  1  0.12561392  0.72342543  0.21475477  1
  Bi2+  Bi103  1  0.09984910  0.72026282  0.73192638  1
  Bi2+  Bi104  1  0.38343913  0.02353395  0.19556846  1
  Bi2+  Bi105  1  0.42202483  -0.00811277  0.74668028  1
  Bi2+  Bi106  1  0.37093874  0.28270013  0.25090556  1
  Bi2+  Bi107  1  0.42797218  0.22967862  0.71308663  1
  Bi2+  Bi108  1  0.37860019  0.47311782  0.21261755  1
  Bi2+  Bi109  1  0.36133486  0.49430036  0.71459722  1
  Bi2+  Bi110  1  0.36403122  0.66734443  0.22308447  1
  Bi2+  Bi111  1  0.35819377  0.76984643  0.71775575  1
  Bi2+  Bi112  1  0.63447715  0.04936556  0.20112537  1
  Bi2+  Bi113  1  0.60365896  0.01131512  0.71282108  1
  Bi2+  Bi114  1  0.64613829  0.32125967  0.19834054  1
  Bi2+  Bi115  1  0.61167117  0.28027043  0.69951940  1
  Bi2+  Bi116  1  0.56419428  0.52729813  0.20319780  1
  Bi2+  Bi117  1  0.64615058  0.49402060  0.70560841  1
  Bi2+  Bi118  1  0.62752038  0.70448960  0.21611107  1
  Bi2+  Bi119  1  0.62169456  0.77334210  0.71318376  1
  Bi2+  Bi120  1  0.89906138  0.02447814  0.21223370  1
  Bi2+  Bi121  1  0.84903891  -0.03496297  0.70396832  1
  Bi2+  Bi122  1  0.93000315  0.24878117  0.22021948  1
  Bi2+  Bi123  1  0.80434775  0.24796581  0.71354262  1
  Bi2+  Bi124  1  0.86422599  0.54598637  0.19975689  1
  Bi2+  Bi125  1  0.88151259  0.54574031  0.70933557  1
  Bi2+  Bi126  1  0.86813966  0.74223042  0.23298364  1
  Bi2+  Bi127  1  0.90391613  0.74096353  0.70987526  1
  S2-  S128  1  0.00792615  0.04676647  0.13481699  1
  S2-  S129  1  0.01910601  0.13057917  0.65842681  1
  S2-  S130  1  -0.00481160  0.36114444  0.15159206  1
  S2-  S131  1  0.01392279  0.36684825  0.65758093  1
  S2-  S132  1  0.06917291  0.59522554  0.15393878  1
  S2-  S133  1  0.11354836  0.64153726  0.63941180  1
  S2-  S134  1  0.04135582  0.83426306  0.15803076  1
  S2-  S135  1  0.00045736  0.91063520  0.65403738  1
  S2-  S136  1  0.25232125  0.09760363  0.15695896  1
  S2-  S137  1  0.23942629  0.12206635  0.66000599  1
  S2-  S138  1  0.25039548  0.46260271  0.14244326  1
  S2-  S139  1  0.25953927  0.37608169  0.66869889  1
  S2-  S140  1  0.24887000  0.71630919  0.14756015  1
  S2-  S141  1  0.32805063  0.63750039  0.65382095  1
  S2-  S142  1  0.34775979  0.89340548  0.14881338  1
  S2-  S143  1  0.24328465  0.87870959  0.66243794  1
  S2-  S144  1  0.50201663  0.13741562  0.15455098  1
  S2-  S145  1  0.47720299  0.07174657  0.65514714  1
  S2-  S146  1  0.49693993  0.38600198  0.14831806  1
  S2-  S147  1  0.50493957  0.47815904  0.64741417  1
  S2-  S148  1  0.48471936  0.71018218  0.15275029  1
  S2-  S149  1  0.48941117  0.66714447  0.72725913  1
  S2-  S150  1  0.55468268  0.91254264  0.18135869  1
  S2-  S151  1  0.48857254  0.81950237  0.64938316  1
  S2-  S152  1  0.74742550  0.23255959  0.14271493  1
  S2-  S153  1  0.78406613  0.10077430  0.65522476  1
  S2-  S154  1  0.74336982  0.47126820  0.14669524  1
  S2-  S155  1  0.74969228  0.38382193  0.65039167  1
  S2-  S156  1  0.75256457  0.73636880  0.15042585  1
  S2-  S157  1  0.66376450  0.63807147  0.64895195  1
  S2-  S158  1  0.76704564  0.98391409  0.14436272  1
  S2-  S159  1  0.74478263  0.86726238  0.65877937  1
  S2-  S160  1  0.24668174  0.00623528  0.35298860  1
  S2-  S161  1  0.11171721  0.02003844  0.82162594  1
  S2-  S162  1  0.10182600  0.24083306  0.34707489  1
  S2-  S163  1  0.13046510  0.21089473  0.77874943  1
  S2-  S164  1  0.12672591  0.49634931  0.34523260  1
  S2-  S165  1  0.12114404  0.40474040  0.84545746  1
  S2-  S166  1  0.15850510  0.74695319  0.34402885  1
  S2-  S167  1  0.11552414  0.82602657  0.85389105  1
  S2-  S168  1  0.47678288  0.00119371  0.34291943  1
  S2-  S169  1  0.33882437  0.01200105  0.84091384  1
  S2-  S170  1  0.35266290  0.22499437  0.35354245  1
  S2-  S171  1  0.29283758  0.25070392  0.85020564  1
  S2-  S172  1  0.35543486  0.50762646  0.34065896  1
  S2-  S173  1  0.37127804  0.57731163  0.85889052  1
  S2-  S174  1  0.41131517  0.77129365  0.34381404  1
  S2-  S175  1  0.33404050  0.78270530  0.82083299  1
  S2-  S176  1  0.62493453  -0.14328220  0.34385775  1
  S2-  S177  1  0.69993070  -0.01751888  0.86150128  1
  S2-  S178  1  0.62870439  0.15689806  0.34730313  1
  S2-  S179  1  0.73613879  0.24324000  0.85890617  1
  S2-  S180  1  0.56344058  0.46406994  0.33929968  1
  S2-  S181  1  0.64369048  0.50124002  0.85184638  1
  S2-  S182  1  0.64035947  0.64773453  0.35567071  1
  S2-  S183  1  0.53735770  0.74553058  0.86245963  1
  S2-  S184  1  0.78353188  0.00444665  0.34863472  1
  S2-  S185  1  0.89847795  0.04750765  0.82413829  1
  S2-  S186  1  0.85725771  0.22611793  0.35048586  1
  S2-  S187  1  0.96084076  0.25472610  0.84100234  1
  S2-  S188  1  0.85634507  0.52521026  0.35070652  1
  S2-  S189  1  0.85956149  0.45216420  0.84685983  1
  S2-  S190  1  0.85523886  0.76908971  0.34138778  1
  S2-  S191  1  0.87436983  0.83278718  0.86118935  1
  S2-  S192  1  0.00372083  0.13124211  0.45312752  1
  S2-  S193  1  0.00225311  0.10981728  0.93659764  1
  S2-  S194  1  0.00218850  0.38190135  0.45331807  1
  S2-  S195  1  -0.00434476  0.35880391  0.94908659  1
  S2-  S196  1  0.00178176  0.63391063  0.45354788  1
  S2-  S197  1  -0.00605262  0.60854876  0.95194333  1
  S2-  S198  1  0.00181147  0.88518659  0.44530412  1
  S2-  S199  1  -0.00463906  0.85742352  0.95615891  1
  S2-  S200  1  0.24910615  0.13423285  0.45691928  1
  S2-  S201  1  0.24362480  0.10926317  0.94603685  1
  S2-  S202  1  0.24967466  0.38210044  0.45628022  1
  S2-  S203  1  0.24479353  0.35878658  0.95527346  1
  S2-  S204  1  0.25017945  0.63408635  0.45667940  1
  S2-  S205  1  0.24277254  0.60709347  0.95634174  1
  S2-  S206  1  0.25091993  0.88038743  0.45323421  1
  S2-  S207  1  0.25314308  0.85261712  0.95328194  1
  S2-  S208  1  0.50133559  0.13148242  0.45299982  1
  S2-  S209  1  0.49425171  0.10706196  0.94849739  1
  S2-  S210  1  0.49998776  0.38054936  0.45425626  1
  S2-  S211  1  0.49755571  0.35935946  0.94465203  1
  S2-  S212  1  0.49713150  0.63578995  0.45009459  1
  S2-  S213  1  0.49957701  0.60310785  0.96230611  1
  S2-  S214  1  0.49640213  0.88434803  0.45375307  1
  S2-  S215  1  0.49454369  0.85816966  0.96253230  1
  S2-  S216  1  0.75020403  0.13215047  0.45568330  1
  S2-  S217  1  0.74271268  0.10745335  0.95893640  1
  S2-  S218  1  0.75293460  0.38175979  0.44571276  1
  S2-  S219  1  0.74449227  0.36164100  0.96084883  1
  S2-  S220  1  0.75769711  0.63531175  0.45718240  1
  S2-  S221  1  0.74339136  0.60982463  0.96184323  1
  S2-  S222  1  0.75350491  0.88403577  0.45238249  1
  S2-  S223  1  0.73895246  0.85204196  0.96339205  1
  S2-  S224  1  0.12615967  -0.01992911  0.03395238  1
  S2-  S225  1  0.12613731  0.00756952  0.54013047  1
  S2-  S226  1  0.12162473  0.23313992  0.05305113  1
  S2-  S227  1  0.12353461  0.25527067  0.55107696  1
  S2-  S228  1  0.11729100  0.48026526  0.04260822  1
  S2-  S229  1  0.12220459  0.50166067  0.54971200  1
  S2-  S230  1  0.11651206  0.73361621  0.04449906  1
  S2-  S231  1  0.12498949  0.76275494  0.54490665  1
  S2-  S232  1  0.37150283  -0.01497603  0.04350582  1
  S2-  S233  1  0.37548304  0.00466873  0.54358594  1
  S2-  S234  1  0.36964114  0.23445460  0.04706952  1
  S2-  S235  1  0.37917364  0.25854155  0.55579650  1
  S2-  S236  1  0.37311087  0.48075653  0.04484616  1
  S2-  S237  1  0.37127477  0.50748011  0.54909775  1
  S2-  S238  1  0.37115264  0.72745427  0.04198373  1
  S2-  S239  1  0.37426855  0.75847955  0.54718790  1
  S2-  S240  1  0.61304296  -0.01942850  0.05233857  1
  S2-  S241  1  0.62397492  0.00495455  0.55308145  1
  S2-  S242  1  0.61849912  0.23301390  0.04171041  1
  S2-  S243  1  0.62510421  0.25794216  0.54463637  1
  S2-  S244  1  0.61912391  0.48315609  0.05125986  1
  S2-  S245  1  0.63280834  0.50387778  0.53905528  1
  S2-  S246  1  0.61812714  0.73020352  0.05323664  1
  S2-  S247  1  0.62410341  0.76091915  0.54428910  1
  S2-  S248  1  0.87158613  -0.01372650  0.03443161  1
  S2-  S249  1  0.87725161  0.00975053  0.54329046  1
  S2-  S250  1  0.87471586  0.23004744  0.03921688  1
  S2-  S251  1  0.87966044  0.25383733  0.55244609  1
  S2-  S252  1  0.87183480  0.48216908  0.04920344  1
  S2-  S253  1  0.87830552  0.50648837  0.55366601  1
  S2-  S254  1  0.87532916  0.73600417  0.05054045  1
  S2-  S255  1  0.87661812  0.75633197  0.54943263  1
