# generated using pymatgen
data_La9Ce10Pr6Nd4Sm3(BiS2)32
_symmetry_space_group_name_H-M   'P 1'
_cell_length_a   16.22153619
_cell_length_b   16.24593743
_cell_length_c   27.02981874
_cell_angle_alpha   89.87031845
_cell_angle_beta   89.84967892
_cell_angle_gamma   89.99579330
_symmetry_Int_Tables_number   1
_chemical_formula_structural   La9Ce10Pr6Nd4Sm3(BiS2)32
_chemical_formula_sum   'La18 Ce20 Pr12 Nd8 Sm6 Bi64 S128'
_cell_volume   7123.23515072
_cell_formula_units_Z   2
loop_
 _symmetry_equiv_pos_site_id
 _symmetry_equiv_pos_as_xyz
  1  'x, y, z'
loop_
 _atom_type_symbol
 _atom_type_oxidation_number
  La3+  3.0
  Ce3+  3.0
  Pr3+  3.0
  Nd3+  3.0
  Sm3+  3.0
  Bi2+  2.0
  S2-  -2.0
loop_
 _atom_site_type_symbol
 _atom_site_label
 _atom_site_symmetry_multiplicity
 _atom_site_fract_x
 _atom_site_fract_y
 _atom_site_fract_z
 _atom_site_occupancy
  La3+  La0  1  0.24295219  0.63650424  0.58618321  1
  La3+  La1  1  0.11812892  -0.01945926  0.91726437  1
  La3+  La2  1  0.73440325  0.36149541  0.08570886  1
  La3+  La3  1  0.13434001  0.25595304  0.42714117  1
  La3+  La4  1  0.48605811  0.85974048  0.07923299  1
  La3+  La5  1  0.87905477  0.76098519  0.42816802  1
  La3+  La6  1  0.24466226  0.37863606  0.58203121  1
  La3+  La7  1  0.63490296  0.47532933  0.92205075  1
  La3+  La8  1  0.37055748  0.73628471  0.93389557  1
  La3+  La9  1  0.62366312  0.49764144  0.42021526  1
  La3+  La10  1  -0.01172212  0.88741151  0.59045337  1
  La3+  La11  1  0.36771888  -0.01371530  0.92832202  1
  La3+  La12  1  0.36214322  0.23587198  0.92770156  1
  La3+  La13  1  0.38008176  0.48314714  0.91814794  1
  La3+  La14  1  0.37412799  0.75387543  0.44060457  1
  La3+  La15  1  0.88812220  0.51252219  0.40759196  1
  La3+  La16  1  -0.00616104  0.62978961  0.56699801  1
  La3+  La17  1  0.61941575  0.74426681  0.93054878  1
  Ce3+  Ce18  1  0.25272257  0.87816709  0.56686849  1
  Ce3+  Ce19  1  0.73968657  0.61279049  0.05736952  1
  Ce3+  Ce20  1  0.49532171  0.61236986  0.05552998  1
  Ce3+  Ce21  1  0.36792921  0.50064734  0.45440452  1
  Ce3+  Ce22  1  0.24560840  0.61171420  0.05835241  1
  Ce3+  Ce23  1  0.50167562  0.87864624  0.55750040  1
  Ce3+  Ce24  1  0.62567628  0.75248121  0.43815331  1
  Ce3+  Ce25  1  0.49287255  0.36628608  0.05762039  1
  Ce3+  Ce26  1  0.62389273  0.00607170  0.43459597  1
  Ce3+  Ce27  1  0.87698083  0.00528122  0.42780538  1
  Ce3+  Ce28  1  -0.01030385  0.60926710  0.06250421  1
  Ce3+  Ce29  1  0.51476598  0.38834809  0.57716327  1
  Ce3+  Ce30  1  0.62628553  0.23620520  0.94438904  1
  Ce3+  Ce31  1  0.50119935  0.13113922  0.55585126  1
  Ce3+  Ce32  1  -0.00284382  0.10845520  0.06188267  1
  Ce3+  Ce33  1  0.75125760  0.12774032  0.54798598  1
  Ce3+  Ce34  1  0.62432366  0.25837922  0.44005211  1
  Ce3+  Ce35  1  0.00235880  0.37836530  0.55471308  1
  Ce3+  Ce36  1  0.75590018  0.62595774  0.54962445  1
  Ce3+  Ce37  1  0.50277970  0.62586294  0.55500687  1
  Pr3+  Pr38  1  0.23917499  0.85221195  0.06389784  1
  Pr3+  Pr39  1  0.24503723  0.10760938  0.05980950  1
  Pr3+  Pr40  1  0.74609174  0.11015924  0.07071203  1
  Pr3+  Pr41  1  -0.00094459  0.12860702  0.55700768  1
  Pr3+  Pr42  1  0.86898768  0.73610906  0.93577184  1
  Pr3+  Pr43  1  0.11856716  0.48651546  0.94414533  1
  Pr3+  Pr44  1  0.25265239  0.12882389  0.56539390  1
  Pr3+  Pr45  1  0.49188045  0.11062667  0.05878154  1
  Pr3+  Pr46  1  0.24666259  0.36376533  0.06227366  1
  Pr3+  Pr47  1  0.74855987  0.88124721  0.55606222  1
  Pr3+  Pr48  1  0.13260203  0.50791921  0.43849073  1
  Pr3+  Pr49  1  0.11744203  0.73253915  0.93244429  1
  Nd3+  Nd50  1  0.00242640  0.34838495  0.08781114  1
  Nd3+  Nd51  1  0.12737737  0.00456397  0.44575918  1
  Nd3+  Nd52  1  0.12512760  0.75767629  0.45132117  1
  Nd3+  Nd53  1  0.11251417  0.23936963  0.93423796  1
  Nd3+  Nd54  1  0.87176718  -0.01401764  0.93043268  1
  Nd3+  Nd55  1  0.74426273  0.86176832  0.05976020  1
  Nd3+  Nd56  1  0.75456850  0.37993887  0.55211450  1
  Nd3+  Nd57  1  0.61875452  -0.01138533  0.94058996  1
  Sm3+  Sm58  1  -0.00825683  0.85949402  0.05658564  1
  Sm3+  Sm59  1  0.86923532  0.48062825  0.95662250  1
  Sm3+  Sm60  1  0.87312167  0.23589686  0.94893121  1
  Sm3+  Sm61  1  0.37422769  0.25673477  0.45095271  1
  Sm3+  Sm62  1  0.87924235  0.25782373  0.43242481  1
  Sm3+  Sm63  1  0.37615019  0.00505991  0.44203366  1
  Bi2+  Bi64  1  -0.06941076  0.07409354  0.30142413  1
  Bi2+  Bi65  1  -0.06267653  0.14399915  0.78874565  1
  Bi2+  Bi66  1  -0.01466922  0.37463280  0.28648927  1
  Bi2+  Bi67  1  -0.00357993  0.41126455  0.77282934  1
  Bi2+  Bi68  1  0.03794060  0.64159541  0.29319669  1
  Bi2+  Bi69  1  -0.04995673  0.62057551  0.78894387  1
  Bi2+  Bi70  1  -0.01188706  0.88888925  0.26391829  1
  Bi2+  Bi71  1  -0.00228743  0.87787790  0.78959876  1
  Bi2+  Bi72  1  0.28827873  0.12160824  0.30012830  1
  Bi2+  Bi73  1  0.32640239  0.11816507  0.79889340  1
  Bi2+  Bi74  1  0.24769650  0.38378144  0.29433704  1
  Bi2+  Bi75  1  0.26351189  0.36591536  0.80837436  1
  Bi2+  Bi76  1  0.24661812  0.60618808  0.28526529  1
  Bi2+  Bi77  1  0.13418724  0.60309007  0.81747897  1
  Bi2+  Bi78  1  0.25299811  0.87727808  0.31200394  1
  Bi2+  Bi79  1  0.24705890  0.93852103  0.74769180  1
  Bi2+  Bi80  1  0.45978805  0.21366456  0.28409180  1
  Bi2+  Bi81  1  0.58467685  0.12112314  0.75777666  1
  Bi2+  Bi82  1  0.46057170  0.41254617  0.29498853  1
  Bi2+  Bi83  1  0.58655152  0.39049229  0.77449329  1
  Bi2+  Bi84  1  0.43448170  0.59026485  0.24424038  1
  Bi2+  Bi85  1  0.46081021  0.63137707  0.80125862  1
  Bi2+  Bi86  1  0.49705659  0.86701023  0.29364600  1
  Bi2+  Bi87  1  0.49017616  0.88942081  0.79635020  1
  Bi2+  Bi88  1  0.72854823  0.10409961  0.29608384  1
  Bi2+  Bi89  1  0.73970006  0.11396248  0.82605557  1
  Bi2+  Bi90  1  0.72885508  0.37981824  0.28857888  1
  Bi2+  Bi91  1  0.81172515  0.30606698  0.82009577  1
  Bi2+  Bi92  1  0.73208063  0.68949980  0.29574094  1
  Bi2+  Bi93  1  0.75721498  0.57990022  0.79631023  1
  Bi2+  Bi94  1  0.74601512  0.90685448  0.29148444  1
  Bi2+  Bi95  1  0.75337358  0.91758718  0.79387290  1
  Bi2+  Bi96  1  0.10652408  0.03946315  0.24610423  1
  Bi2+  Bi97  1  0.11429410  0.06716405  0.72340434  1
  Bi2+  Bi98  1  0.13093608  0.22112142  0.21473703  1
  Bi2+  Bi99  1  0.07246413  0.25500915  0.71577637  1
  Bi2+  Bi100  1  0.19965479  0.48773954  0.20019922  1
  Bi2+  Bi101  1  0.15866803  0.49804375  0.70931058  1
  Bi2+  Bi102  1  0.15847915  0.76254372  0.23478438  1
  Bi2+  Bi103  1  0.14429408  0.72473971  0.72559900  1
  Bi2+  Bi104  1  0.37735167  0.02994956  0.20238246  1
  Bi2+  Bi105  1  0.41145312  -0.02103701  0.69514037  1
  Bi2+  Bi106  1  0.36183053  0.33122728  0.20543903  1
  Bi2+  Bi107  1  0.37648383  0.22780119  0.70531455  1
  Bi2+  Bi108  1  0.37164462  0.49861236  0.14285042  1
  Bi2+  Bi109  1  0.41033942  0.48407925  0.71113492  1
  Bi2+  Bi110  1  0.35660239  0.75772537  0.19829331  1
  Bi2+  Bi111  1  0.40391109  0.78607502  0.71677152  1
  Bi2+  Bi112  1  0.62590869  0.04013898  0.20081959  1
  Bi2+  Bi113  1  0.65484186  -0.02677042  0.69901058  1
  Bi2+  Bi114  1  0.61181643  0.23671414  0.21461096  1
  Bi2+  Bi115  1  0.70663702  0.26192383  0.72214153  1
  Bi2+  Bi116  1  0.60049014  0.49461114  0.21369736  1
  Bi2+  Bi117  1  0.66245566  0.53756704  0.69747792  1
  Bi2+  Bi118  1  0.63491257  0.73989508  0.20477456  1
  Bi2+  Bi119  1  0.67829449  0.72612999  0.73807980  1
  Bi2+  Bi120  1  0.81875066  0.01027775  0.19458833  1
  Bi2+  Bi121  1  0.85511523  0.02086828  0.70857040  1
  Bi2+  Bi122  1  0.87044980  0.19447759  0.22009250  1
  Bi2+  Bi123  1  0.88854193  0.29209060  0.68249891  1
  Bi2+  Bi124  1  0.86833750  0.53919979  0.20421991  1
  Bi2+  Bi125  1  0.86891691  0.48502875  0.69821378  1
  Bi2+  Bi126  1  0.89590275  0.77573760  0.19049536  1
  Bi2+  Bi127  1  0.86454058  0.74698508  0.70927928  1
  S2-  S128  1  0.00269102  0.19300780  0.14927437  1
  S2-  S129  1  -0.00592475  0.04018328  0.64518909  1
  S2-  S130  1  -0.04315991  0.41242167  0.18139813  1
  S2-  S131  1  0.09245423  0.37548608  0.64002500  1
  S2-  S132  1  -0.01071254  0.64727434  0.15964248  1
  S2-  S133  1  0.09619679  0.61587804  0.65208169  1
  S2-  S134  1  0.00697592  0.88607614  0.15467840  1
  S2-  S135  1  0.02833542  0.81918532  0.68791168  1
  S2-  S136  1  0.25503677  0.12605425  0.16181897  1
  S2-  S137  1  0.23927317  0.14097177  0.66588006  1
  S2-  S138  1  0.14971077  0.34425185  0.14718619  1
  S2-  S139  1  0.28722852  0.36955381  0.68529047  1
  S2-  S140  1  0.22666379  0.71556037  0.13772814  1
  S2-  S141  1  0.29794960  0.58609834  0.68075482  1
  S2-  S142  1  0.32539148  0.90405205  0.14831779  1
  S2-  S143  1  0.25707641  0.79239656  0.65228960  1
  S2-  S144  1  0.48976207  0.14222873  0.15855017  1
  S2-  S145  1  0.49075508  0.12189624  0.65467909  1
  S2-  S146  1  0.57266116  0.36972806  0.14587642  1
  S2-  S147  1  0.48044661  0.33980241  0.67231618  1
  S2-  S148  1  0.50116978  0.71228288  0.13887720  1
  S2-  S149  1  0.51317892  0.57986086  0.64968141  1
  S2-  S150  1  0.52085232  0.92126910  0.17807962  1
  S2-  S151  1  0.52849053  0.85662976  0.65438841  1
  S2-  S152  1  0.74806615  0.22171866  0.15017899  1
  S2-  S153  1  0.74171655  0.09969943  0.64525230  1
  S2-  S154  1  0.74966636  0.43100826  0.18485624  1
  S2-  S155  1  0.66339123  0.39915855  0.63588684  1
  S2-  S156  1  0.73825075  0.63351723  0.15597496  1
  S2-  S157  1  0.85380828  0.62623371  0.63365657  1
  S2-  S158  1  0.73930787  0.84513110  0.16015220  1
  S2-  S159  1  0.83512376  0.87437927  0.64367195  1
  S2-  S160  1  0.15840359  0.02066367  0.34687144  1
  S2-  S161  1  0.24827886  -0.00602211  0.84651865  1
  S2-  S162  1  0.06970571  0.26426697  0.33029734  1
  S2-  S163  1  0.21743112  0.22626974  0.85177518  1
  S2-  S164  1  0.04101401  0.50436832  0.34881766  1
  S2-  S165  1  0.10834099  0.42504038  0.84936611  1
  S2-  S166  1  0.12709214  0.76760102  0.35022942  1
  S2-  S167  1  0.11373948  0.82947667  0.84780645  1
  S2-  S168  1  0.38009453  -0.01226683  0.34243037  1
  S2-  S169  1  0.45822892  0.03654424  0.84193386  1
  S2-  S170  1  0.28256789  0.25641544  0.36568460  1
  S2-  S171  1  0.40208105  0.30039452  0.83362079  1
  S2-  S172  1  0.27017335  0.50606806  0.37245122  1
  S2-  S173  1  0.31378127  0.53687475  0.82695164  1
  S2-  S174  1  0.36912871  0.77218838  0.33914351  1
  S2-  S175  1  0.36948150  0.76920668  0.83388294  1
  S2-  S176  1  0.59777228  -0.02576787  0.33759794  1
  S2-  S177  1  0.61836268  -0.11748730  0.86056549  1
  S2-  S178  1  0.60207656  0.34912882  0.35778268  1
  S2-  S179  1  0.64249812  0.32466901  0.85972347  1
  S2-  S180  1  0.65221203  0.55155765  0.32089604  1
  S2-  S181  1  0.51583000  0.48814018  0.84557663  1
  S2-  S182  1  0.58597226  0.75649520  0.34073065  1
  S2-  S183  1  0.61055130  0.67547136  0.83490203  1
  S2-  S184  1  0.88112387  -0.11008598  0.35285310  1
  S2-  S185  1  0.98256646  0.00606937  0.85060958  1
  S2-  S186  1  0.85413706  0.29294924  0.33622754  1
  S2-  S187  1  0.97541373  0.24429649  0.86797241  1
  S2-  S188  1  0.84705507  0.48445998  0.30563664  1
  S2-  S189  1  0.80366230  0.46094894  0.86606642  1
  S2-  S190  1  0.89231184  0.66697132  0.34288660  1
  S2-  S191  1  0.86453309  0.81995532  0.84633486  1
  S2-  S192  1  0.00260407  0.13166332  0.44741286  1
  S2-  S193  1  -0.00453736  0.10605488  0.95857043  1
  S2-  S194  1  0.00219474  0.37702797  0.44846992  1
  S2-  S195  1  -0.00747621  0.36480761  0.96987707  1
  S2-  S196  1  0.00474861  0.63198810  0.45586417  1
  S2-  S197  1  -0.01139539  0.60825246  0.95220112  1
  S2-  S198  1  0.00465013  0.88499366  0.45452202  1
  S2-  S199  1  -0.00815193  0.86145501  0.95339056  1
  S2-  S200  1  0.25566905  0.12570073  0.45883437  1
  S2-  S201  1  0.23863712  0.10793234  0.95337640  1
  S2-  S202  1  0.25066786  0.37536856  0.47142252  1
  S2-  S203  1  0.24499437  0.36457742  0.95369476  1
  S2-  S204  1  0.24991054  0.63673255  0.46990858  1
  S2-  S205  1  0.24507109  0.61085591  0.95009932  1
  S2-  S206  1  0.25313148  0.88264005  0.45851753  1
  S2-  S207  1  0.24192042  0.85794528  0.95433695  1
  S2-  S208  1  0.49673030  0.13290239  0.44612132  1
  S2-  S209  1  0.49704058  0.11589004  0.95201886  1
  S2-  S210  1  0.49475665  0.37896142  0.46379283  1
  S2-  S211  1  0.49742254  0.35705284  0.95294853  1
  S2-  S212  1  0.49748266  0.62408056  0.44596668  1
  S2-  S213  1  0.49872270  0.61256309  0.94863943  1
  S2-  S214  1  0.50000339  0.88086574  0.45144332  1
  S2-  S215  1  0.49136073  0.86593154  0.95911146  1
  S2-  S216  1  0.75242479  0.13389094  0.44085435  1
  S2-  S217  1  0.74986320  0.10965385  0.96107349  1
  S2-  S218  1  0.75690492  0.38040867  0.44580833  1
  S2-  S219  1  0.75102186  0.35451877  0.97234040  1
  S2-  S220  1  0.75129835  0.62780115  0.44325256  1
  S2-  S221  1  0.74584485  0.61136358  0.95131759  1
  S2-  S222  1  0.74419841  0.88200922  0.44871536  1
  S2-  S223  1  0.74969565  0.86672987  0.95517111  1
  S2-  S224  1  0.11814723  -0.01876209  0.05033574  1
  S2-  S225  1  0.12831608  0.00252905  0.55247737  1
  S2-  S226  1  0.12192740  0.23244747  0.04184582  1
  S2-  S227  1  0.12547925  0.24741196  0.54250355  1
  S2-  S228  1  0.11761060  0.48989974  0.05265485  1
  S2-  S229  1  0.12475123  0.50673266  0.54530947  1
  S2-  S230  1  0.10906546  0.73391722  0.03984005  1
  S2-  S231  1  0.11640870  0.76534709  0.55623760  1
  S2-  S232  1  0.36909791  -0.01420284  0.04024209  1
  S2-  S233  1  0.37768039  0.00311792  0.54849596  1
  S2-  S234  1  0.36770495  0.23726286  0.04476630  1
  S2-  S235  1  0.37655751  0.25618894  0.55616393  1
  S2-  S236  1  0.37072361  0.48750800  0.03071402  1
  S2-  S237  1  0.37431820  0.50296279  0.55919836  1
  S2-  S238  1  0.36913990  0.73428612  0.04145542  1
  S2-  S239  1  0.38057031  0.75255883  0.55061774  1
  S2-  S240  1  0.61961632  -0.01417213  0.05011108  1
  S2-  S241  1  0.62308468  0.00582848  0.54201123  1
  S2-  S242  1  0.61719947  0.23261877  0.04880816  1
  S2-  S243  1  0.62747614  0.25291299  0.54548129  1
  S2-  S244  1  0.61919032  0.48927223  0.04147660  1
  S2-  S245  1  0.63005200  0.50817333  0.53246918  1
  S2-  S246  1  0.62152713  0.74127915  0.04006398  1
  S2-  S247  1  0.62864592  0.75108174  0.54632501  1
  S2-  S248  1  0.87074608  -0.01505355  0.04687069  1
  S2-  S249  1  0.87409367  0.00482241  0.53597681  1
  S2-  S250  1  0.87425808  0.23468004  0.05208702  1
  S2-  S251  1  0.87553507  0.25301685  0.53932813  1
  S2-  S252  1  0.86557771  0.48491362  0.06074376  1
  S2-  S253  1  0.87804902  0.49926864  0.53475139  1
  S2-  S254  1  0.86739837  0.73731032  0.04441056  1
  S2-  S255  1  0.87471971  0.75954215  0.53726352  1
