# generated using pymatgen
data_La9Ce10Pr6Nd4Sm3(BiS2)32
_symmetry_space_group_name_H-M   'P 1'
_cell_length_a   16.17952891
_cell_length_b   16.16874309
_cell_length_c   26.94326464
_cell_angle_alpha   90.08900546
_cell_angle_beta   89.66667159
_cell_angle_gamma   89.96489312
_symmetry_Int_Tables_number   1
_chemical_formula_structural   La9Ce10Pr6Nd4Sm3(BiS2)32
_chemical_formula_sum   'La18 Ce20 Pr12 Nd8 Sm6 Bi64 S128'
_cell_volume   7048.30018525
_cell_formula_units_Z   2
loop_
 _symmetry_equiv_pos_site_id
 _symmetry_equiv_pos_as_xyz
  1  'x, y, z'
loop_
 _atom_type_symbol
 _atom_type_oxidation_number
  La3+  3.0
  Ce3+  3.0
  Pr3+  3.0
  Nd3+  3.0
  Sm3+  3.0
  Bi2+  2.0
  S2-  -2.0
loop_
 _atom_site_type_symbol
 _atom_site_label
 _atom_site_symmetry_multiplicity
 _atom_site_fract_x
 _atom_site_fract_y
 _atom_site_fract_z
 _atom_site_occupancy
  La3+  La0  1  0.74072306  0.85665558  0.57100918  1
  La3+  La1  1  0.62732640  -0.02017105  0.41866504  1
  La3+  La2  1  0.60960720  0.24619545  0.41493540  1
  La3+  La3  1  0.11821212  0.48552323  0.44859107  1
  La3+  La4  1  0.49223571  0.36520281  0.07677874  1
  La3+  La5  1  0.36541854  0.74105448  0.43712977  1
  La3+  La6  1  0.74209414  0.35741629  0.07217377  1
  La3+  La7  1  0.11140992  -0.01693093  0.92876203  1
  La3+  La8  1  0.37801262  0.23497576  0.92570831  1
  La3+  La9  1  0.36857682  -0.01007719  0.39328027  1
  La3+  La10  1  0.37696386  -0.01687114  0.92303343  1
  La3+  La11  1  0.62125799  0.23304836  0.94118023  1
  La3+  La12  1  -0.01153358  0.61362231  0.57746326  1
  La3+  La13  1  -0.01064942  0.11531689  0.56685354  1
  La3+  La14  1  -0.01260490  0.86383574  0.60821913  1
  La3+  La15  1  0.11888684  0.23720690  0.93171203  1
  La3+  La16  1  0.37998187  0.48121744  0.92122448  1
  La3+  La17  1  0.87218657  0.73414910  0.43018358  1
  Ce3+  Ce18  1  -0.00382593  0.10636565  0.06134319  1
  Ce3+  Ce19  1  0.87121395  0.24133575  0.43280334  1
  Ce3+  Ce20  1  0.12132607  -0.01299402  0.44469678  1
  Ce3+  Ce21  1  0.48792257  0.10593722  0.07423477  1
  Ce3+  Ce22  1  0.87451258  0.48655171  0.93765752  1
  Ce3+  Ce23  1  0.12268975  0.23490976  0.43985441  1
  Ce3+  Ce24  1  0.74365233  0.61266344  0.55768164  1
  Ce3+  Ce25  1  0.49043959  0.61154684  0.55951558  1
  Ce3+  Ce26  1  0.86840258  -0.01384950  0.43952078  1
  Ce3+  Ce27  1  0.11927177  0.73192951  0.93736927  1
  Ce3+  Ce28  1  0.49649416  0.86479975  0.55853498  1
  Ce3+  Ce29  1  0.24387401  0.61374660  0.56881883  1
  Ce3+  Ce30  1  0.74119207  0.36315033  0.55906190  1
  Ce3+  Ce31  1  0.49357932  0.86100432  0.06282742  1
  Ce3+  Ce32  1  0.87030713  -0.01891134  0.93744093  1
  Ce3+  Ce33  1  0.24370042  0.35571243  0.57847476  1
  Ce3+  Ce34  1  0.49463287  0.60844480  0.05594559  1
  Ce3+  Ce35  1  0.62340580  0.48398446  0.94125909  1
  Ce3+  Ce36  1  0.49465192  0.11344714  0.54564926  1
  Ce3+  Ce37  1  -0.00979948  0.36011931  0.07470130  1
  Pr3+  Pr38  1  0.12130532  0.48371489  0.93936881  1
  Pr3+  Pr39  1  0.11658433  0.74025050  0.45243560  1
  Pr3+  Pr40  1  0.74845964  0.61204701  0.06230865  1
  Pr3+  Pr41  1  0.87079350  0.48444143  0.43104537  1
  Pr3+  Pr42  1  0.24466675  0.10940825  0.56376160  1
  Pr3+  Pr43  1  0.73965128  0.11321867  0.55188111  1
  Pr3+  Pr44  1  0.62283552  0.73514067  0.94013121  1
  Pr3+  Pr45  1  0.24376555  0.85954676  0.05638245  1
  Pr3+  Pr46  1  -0.01044375  0.36232386  0.57153565  1
  Pr3+  Pr47  1  0.37011708  0.73395030  0.93623562  1
  Pr3+  Pr48  1  0.24544204  0.86776209  0.57059311  1
  Pr3+  Pr49  1  0.87076594  0.23587082  0.93576027  1
  Nd3+  Nd50  1  0.74601374  0.10687856  0.06278842  1
  Nd3+  Nd51  1  0.24463779  0.10898201  0.05821209  1
  Nd3+  Nd52  1  0.36795042  0.48226253  0.45217798  1
  Nd3+  Nd53  1  0.61763502  0.73468537  0.43573913  1
  Nd3+  Nd54  1  0.24735615  0.35740764  0.05992348  1
  Nd3+  Nd55  1  0.87381101  0.72818364  0.92043898  1
  Nd3+  Nd56  1  0.62255021  -0.01660836  0.94223944  1
  Nd3+  Nd57  1  0.50174738  0.34753220  0.58341664  1
  Sm3+  Sm58  1  0.61436977  0.48405085  0.44655060  1
  Sm3+  Sm59  1  -0.00744249  0.60601589  0.06794679  1
  Sm3+  Sm60  1  -0.00405573  0.84856351  0.06287602  1
  Sm3+  Sm61  1  0.74825319  0.85851092  0.05641564  1
  Sm3+  Sm62  1  0.24687581  0.60669739  0.05343717  1
  Sm3+  Sm63  1  0.36372495  0.23905517  0.43731612  1
  Bi2+  Bi64  1  0.00939554  0.16421962  0.33260941  1
  Bi2+  Bi65  1  -0.08072200  0.16142785  0.78091769  1
  Bi2+  Bi66  1  0.03539450  0.36518939  0.32126562  1
  Bi2+  Bi67  1  -0.05955269  0.38348881  0.80165013  1
  Bi2+  Bi68  1  0.00396593  0.66392983  0.30483522  1
  Bi2+  Bi69  1  0.02062862  0.61313489  0.78793364  1
  Bi2+  Bi70  1  0.04569702  0.98550760  0.27921510  1
  Bi2+  Bi71  1  0.00999952  0.87584749  0.80381698  1
  Bi2+  Bi72  1  0.19285154  0.15324539  0.27934582  1
  Bi2+  Bi73  1  0.22492416  0.14939556  0.78186622  1
  Bi2+  Bi74  1  0.24866427  0.38666709  0.29662770  1
  Bi2+  Bi75  1  0.24301248  0.41909827  0.78829010  1
  Bi2+  Bi76  1  0.23328853  0.65180268  0.26004666  1
  Bi2+  Bi77  1  0.31814872  0.70896825  0.78905667  1
  Bi2+  Bi78  1  0.23245475  0.84582232  0.28997259  1
  Bi2+  Bi79  1  0.28790145  0.91095420  0.78388878  1
  Bi2+  Bi80  1  0.50655757  0.13631345  0.27683243  1
  Bi2+  Bi81  1  0.48641187  0.11531940  0.78979521  1
  Bi2+  Bi82  1  0.48255883  0.38936067  0.29580536  1
  Bi2+  Bi83  1  0.49687527  0.36443215  0.78400755  1
  Bi2+  Bi84  1  0.53762638  0.62209910  0.30398422  1
  Bi2+  Bi85  1  0.56326062  0.60817466  0.78208016  1
  Bi2+  Bi86  1  0.51551763  0.85113421  0.28285951  1
  Bi2+  Bi87  1  0.59009343  0.85495112  0.80398334  1
  Bi2+  Bi88  1  0.82154087  0.14324856  0.30216792  1
  Bi2+  Bi89  1  0.74069014  0.19057528  0.82446567  1
  Bi2+  Bi90  1  0.75022470  0.43483348  0.28810798  1
  Bi2+  Bi91  1  0.74325023  0.38327181  0.79896293  1
  Bi2+  Bi92  1  0.73315444  0.63559475  0.28870153  1
  Bi2+  Bi93  1  0.78473377  0.56829609  0.76469659  1
  Bi2+  Bi94  1  0.77767988  0.85260747  0.28855761  1
  Bi2+  Bi95  1  0.72407229  0.99507485  0.81630358  1
  Bi2+  Bi96  1  0.12905216  0.07628000  0.18098636  1
  Bi2+  Bi97  1  0.11832730  0.03168081  0.71484182  1
  Bi2+  Bi98  1  0.13669744  0.28994212  0.17957786  1
  Bi2+  Bi99  1  0.11602825  0.29534516  0.70677241  1
  Bi2+  Bi100  1  0.12296700  0.47190179  0.22469456  1
  Bi2+  Bi101  1  0.01839055  0.47168662  0.70233270  1
  Bi2+  Bi102  1  0.09918342  0.84765382  0.20311613  1
  Bi2+  Bi103  1  0.22808302  0.78288354  0.69593241  1
  Bi2+  Bi104  1  0.35360185  -0.00949612  0.20451644  1
  Bi2+  Bi105  1  0.39353622  -0.00168640  0.70137125  1
  Bi2+  Bi106  1  0.32090919  0.25551886  0.21473090  1
  Bi2+  Bi107  1  0.37313635  0.19975951  0.70934528  1
  Bi2+  Bi108  1  0.34136455  0.51534748  0.20378589  1
  Bi2+  Bi109  1  0.36218288  0.53338392  0.70273933  1
  Bi2+  Bi110  1  0.41548544  0.70725700  0.22445755  1
  Bi2+  Bi111  1  0.42068368  0.80248707  0.68955009  1
  Bi2+  Bi112  1  0.63687715  -0.00424182  0.19329601  1
  Bi2+  Bi113  1  0.60658087  0.00525314  0.71659122  1
  Bi2+  Bi114  1  0.71272720  0.26392459  0.21633751  1
  Bi2+  Bi115  1  0.64146360  0.19835124  0.70677214  1
  Bi2+  Bi116  1  0.61193013  0.50329721  0.21311746  1
  Bi2+  Bi117  1  0.64193719  0.47774928  0.70797374  1
  Bi2+  Bi118  1  0.61267838  0.70587206  0.20476885  1
  Bi2+  Bi119  1  0.61043263  0.75015237  0.70675566  1
  Bi2+  Bi120  1  0.87745495  0.01517932  0.22186413  1
  Bi2+  Bi121  1  0.84640504  0.01278706  0.72168388  1
  Bi2+  Bi122  1  0.95268339  0.26754443  0.23190870  1
  Bi2+  Bi123  1  0.86498643  0.31159092  0.70182782  1
  Bi2+  Bi124  1  0.88827012  0.47906044  0.21382332  1
  Bi2+  Bi125  1  0.84536730  0.48944081  0.65312493  1
  Bi2+  Bi126  1  0.87000914  0.75808183  0.18782240  1
  Bi2+  Bi127  1  0.84783912  0.74568255  0.72302491  1
  S2-  S128  1  -0.02948854  0.13307268  0.15877298  1
  S2-  S129  1  -0.01702129  0.02774722  0.65555181  1
  S2-  S130  1  0.01233637  0.49010813  0.14429133  1
  S2-  S131  1  -0.00351136  0.24034830  0.64657488  1
  S2-  S132  1  0.01461893  0.72159197  0.14180548  1
  S2-  S133  1  -0.02996568  0.70627257  0.66414857  1
  S2-  S134  1  -0.05142598  0.90700195  0.15406521  1
  S2-  S135  1  0.07383823  0.87331725  0.70278610  1
  S2-  S136  1  0.34593407  0.11403622  0.14209708  1
  S2-  S137  1  0.23545634  0.21629037  0.64711146  1
  S2-  S138  1  0.35295426  0.36331939  0.14203819  1
  S2-  S139  1  0.24364799  0.41362907  0.67882698  1
  S2-  S140  1  0.23464393  0.61400960  0.15285413  1
  S2-  S141  1  0.21799163  0.62056097  0.66686422  1
  S2-  S142  1  0.25231471  0.87133282  0.15829466  1
  S2-  S143  1  0.24065936  0.99521065  0.64625338  1
  S2-  S144  1  0.54897315  0.12595254  0.17154804  1
  S2-  S145  1  0.50175247  0.18723003  0.63728428  1
  S2-  S146  1  0.62310652  0.34814293  0.15374331  1
  S2-  S147  1  0.45953935  0.40842068  0.68143978  1
  S2-  S148  1  0.48640210  0.52513246  0.14177953  1
  S2-  S149  1  0.47425817  0.63866940  0.65718450  1
  S2-  S150  1  0.49164426  0.92294513  0.15573870  1
  S2-  S151  1  0.60403102  0.88880201  0.63816123  1
  S2-  S152  1  0.75460247  0.11138322  0.16423039  1
  S2-  S153  1  0.76127675  0.12151301  0.65404939  1
  S2-  S154  1  0.85521035  0.34548840  0.15019119  1
  S2-  S155  1  0.65190134  0.33936398  0.64393819  1
  S2-  S156  1  0.82813694  0.61069687  0.15304589  1
  S2-  S157  1  0.73513100  0.69552567  0.64463464  1
  S2-  S158  1  0.73128466  0.85641578  0.15633505  1
  S2-  S159  1  0.83251673  0.87924373  0.66054545  1
  S2-  S160  1  0.19860880  -0.02941591  0.35597997  1
  S2-  S161  1  0.15845521  -0.00343648  0.82887320  1
  S2-  S162  1  0.23781657  0.25280256  0.36464501  1
  S2-  S163  1  0.18244752  0.28204380  0.83474975  1
  S2-  S164  1  0.07673806  0.52300623  0.35150896  1
  S2-  S165  1  0.11416860  0.50303485  0.83692922  1
  S2-  S166  1  0.14858297  0.72719677  0.35086757  1
  S2-  S167  1  0.09935198  0.73526665  0.83816573  1
  S2-  S168  1  0.35834514  0.07315134  0.29624283  1
  S2-  S169  1  0.34824735  0.11201163  0.85281983  1
  S2-  S170  1  0.46050210  0.25447234  0.35043063  1
  S2-  S171  1  0.36672097  0.35657416  0.84520104  1
  S2-  S172  1  0.36293173  0.47965333  0.35076097  1
  S2-  S173  1  0.33807240  0.56670969  0.83039063  1
  S2-  S174  1  0.37352593  0.82930571  0.34823707  1
  S2-  S175  1  0.38580485  0.83645954  0.85471870  1
  S2-  S176  1  0.52628675  0.00030496  0.33521650  1
  S2-  S177  1  0.52614999  -0.00844288  0.85927204  1
  S2-  S178  1  0.66338863  0.19979491  0.31427605  1
  S2-  S179  1  0.52907656  0.24368596  0.85498829  1
  S2-  S180  1  0.61196275  0.40607689  0.35715071  1
  S2-  S181  1  0.54204313  0.47939492  0.85424068  1
  S2-  S182  1  0.63519684  0.82625378  0.35002345  1
  S2-  S183  1  0.66080063  0.70597609  0.84197442  1
  S2-  S184  1  0.77910636  -0.01306483  0.35235894  1
  S2-  S185  1  0.96192568  0.00361683  0.85531174  1
  S2-  S186  1  0.86515611  0.35860173  0.35779270  1
  S2-  S187  1  0.98745067  0.24394129  0.85782271  1
  S2-  S188  1  0.87862920  0.60442718  0.35386271  1
  S2-  S189  1  0.88578930  0.58952815  0.85552251  1
  S2-  S190  1  0.91380199  0.80379938  0.33278924  1
  S2-  S191  1  0.87137008  0.80612629  0.82723531  1
  S2-  S192  1  -0.00705267  0.11137350  0.45581448  1
  S2-  S193  1  -0.00637152  0.11025176  0.95695540  1
  S2-  S194  1  -0.00366771  0.35891245  0.46172611  1
  S2-  S195  1  -0.00524112  0.36394550  0.96173146  1
  S2-  S196  1  -0.00475199  0.61215112  0.46521519  1
  S2-  S197  1  -0.00193772  0.60952180  0.95948315  1
  S2-  S198  1  -0.00492544  0.86571586  0.44699717  1
  S2-  S199  1  -0.00802288  0.85234074  0.95370472  1
  S2-  S200  1  0.24993331  0.10682636  0.45521909  1
  S2-  S201  1  0.23735148  0.10689740  0.95271342  1
  S2-  S202  1  0.24365584  0.36378869  0.46766787  1
  S2-  S203  1  0.24699556  0.36044812  0.95342717  1
  S2-  S204  1  0.24420780  0.61174873  0.45907105  1
  S2-  S205  1  0.24587462  0.60963630  0.94750302  1
  S2-  S206  1  0.24428000  0.86298985  0.46260389  1
  S2-  S207  1  0.24116175  0.85933227  0.94837416  1
  S2-  S208  1  0.48726917  0.11034761  0.44130312  1
  S2-  S209  1  0.49940701  0.10731752  0.96337509  1
  S2-  S210  1  0.49019579  0.36324997  0.46401110  1
  S2-  S211  1  0.50155500  0.36253654  0.96370404  1
  S2-  S212  1  0.49135086  0.61074850  0.45095755  1
  S2-  S213  1  0.49765155  0.61312144  0.94981683  1
  S2-  S214  1  0.49334540  0.86260662  0.45143892  1
  S2-  S215  1  0.49892767  0.85626857  0.95866297  1
  S2-  S216  1  0.74324982  0.12017548  0.44490944  1
  S2-  S217  1  0.74853591  0.10636990  0.95529911  1
  S2-  S218  1  0.74016975  0.36408048  0.45453422  1
  S2-  S219  1  0.74810754  0.36150218  0.95444591  1
  S2-  S220  1  0.73754291  0.60729763  0.44992512  1
  S2-  S221  1  0.74740747  0.60983870  0.95412672  1
  S2-  S222  1  0.74764273  0.85500502  0.45700387  1
  S2-  S223  1  0.74880048  0.85649161  0.94954757  1
  S2-  S224  1  0.11650018  -0.02019843  0.04398496  1
  S2-  S225  1  0.11127906  -0.01645479  0.55040930  1
  S2-  S226  1  0.12023370  0.23509206  0.04534822  1
  S2-  S227  1  0.11906956  0.23768146  0.54460908  1
  S2-  S228  1  0.12574558  0.48443518  0.04618818  1
  S2-  S229  1  0.11724654  0.48705047  0.55935846  1
  S2-  S230  1  0.12412443  0.73003132  0.04294511  1
  S2-  S231  1  0.11628232  0.74345833  0.56012326  1
  S2-  S232  1  0.36769152  -0.01886135  0.03923373  1
  S2-  S233  1  0.37618530  -0.01235731  0.55047625  1
  S2-  S234  1  0.36923552  0.23281954  0.03924366  1
  S2-  S235  1  0.36959000  0.23886859  0.54370977  1
  S2-  S236  1  0.36812884  0.48877445  0.03565826  1
  S2-  S237  1  0.36858738  0.48448251  0.55919858  1
  S2-  S238  1  0.36952497  0.73296683  0.04743408  1
  S2-  S239  1  0.36710764  0.73864846  0.54781941  1
  S2-  S240  1  0.62303610  -0.01832512  0.04918515  1
  S2-  S241  1  0.61874268  -0.00976903  0.53190472  1
  S2-  S242  1  0.61972880  0.22778843  0.05021236  1
  S2-  S243  1  0.61869384  0.23799800  0.53215384  1
  S2-  S244  1  0.62444223  0.48897678  0.04684536  1
  S2-  S245  1  0.61429416  0.48821659  0.55158920  1
  S2-  S246  1  0.62143418  0.73609082  0.04957250  1
  S2-  S247  1  0.61333645  0.73253856  0.54139795  1
  S2-  S248  1  0.87026613  -0.01923672  0.04570011  1
  S2-  S249  1  0.86518738  -0.01430544  0.54599171  1
  S2-  S250  1  0.87007972  0.23048063  0.04427229  1
  S2-  S251  1  0.86366111  0.24082736  0.54269758  1
  S2-  S252  1  0.86843290  0.48454257  0.04433150  1
  S2-  S253  1  0.86788479  0.48689169  0.54005701  1
  S2-  S254  1  0.86980876  0.73527111  0.03861468  1
  S2-  S255  1  0.86989274  0.73629271  0.54461354  1
