# generated using pymatgen
data_La9Ce10Pr6Nd4Sm3(BiS2)32
_symmetry_space_group_name_H-M   'P 1'
_cell_length_a   16.18027511
_cell_length_b   16.15921628
_cell_length_c   27.19373950
_cell_angle_alpha   90.30700646
_cell_angle_beta   90.03041481
_cell_angle_gamma   90.00983910
_symmetry_Int_Tables_number   1
_chemical_formula_structural   La9Ce10Pr6Nd4Sm3(BiS2)32
_chemical_formula_sum   'La18 Ce20 Pr12 Nd8 Sm6 Bi64 S128'
_cell_volume   7109.98731790
_cell_formula_units_Z   2
loop_
 _symmetry_equiv_pos_site_id
 _symmetry_equiv_pos_as_xyz
  1  'x, y, z'
loop_
 _atom_type_symbol
 _atom_type_oxidation_number
  La3+  3.0
  Ce3+  3.0
  Pr3+  3.0
  Nd3+  3.0
  Sm3+  3.0
  Bi2+  2.0
  S2-  -2.0
loop_
 _atom_site_type_symbol
 _atom_site_label
 _atom_site_symmetry_multiplicity
 _atom_site_fract_x
 _atom_site_fract_y
 _atom_site_fract_z
 _atom_site_occupancy
  La3+  La0  1  0.11943494  0.72699481  0.38588146  1
  La3+  La1  1  0.89902274  0.25970003  0.93424914  1
  La3+  La2  1  0.64765509  0.75327778  0.91398791  1
  La3+  La3  1  0.74773658  0.60406081  0.57809805  1
  La3+  La4  1  0.14470440  0.50483734  0.93533776  1
  La3+  La5  1  0.02777098  0.37828339  0.07266086  1
  La3+  La6  1  0.39481716  -0.00496562  0.92042769  1
  La3+  La7  1  0.23497406  0.35497045  0.57419940  1
  La3+  La8  1  0.52648638  0.38677468  0.08377968  1
  La3+  La9  1  0.64771848  0.49201244  0.93404995  1
  La3+  La10  1  0.36770646  0.23635912  0.43034851  1
  La3+  La11  1  0.74227730  0.86198223  0.56962283  1
  La3+  La12  1  0.76255843  0.63344758  0.07469189  1
  La3+  La13  1  -0.01007872  0.11008380  0.56908878  1
  La3+  La14  1  0.02542228  0.12488350  0.06510712  1
  La3+  La15  1  0.02367556  0.63376652  0.08528737  1
  La3+  La16  1  0.36690040  0.48202014  0.43595156  1
  La3+  La17  1  0.65230113  0.25069096  0.94083514  1
  Ce3+  Ce18  1  0.02032905  0.87231118  0.05658465  1
  Ce3+  Ce19  1  0.51904401  0.62581604  0.04647075  1
  Ce3+  Ce20  1  0.89511892  0.50173649  0.95862440  1
  Ce3+  Ce21  1  0.61845615  0.48659003  0.44424786  1
  Ce3+  Ce22  1  0.14154230  0.25784909  0.92258531  1
  Ce3+  Ce23  1  0.86400475  0.23520948  0.44444695  1
  Ce3+  Ce24  1  0.14350434  0.74217457  0.93553454  1
  Ce3+  Ce25  1  0.76892183  0.87779912  0.05879485  1
  Ce3+  Ce26  1  0.39933474  0.25317630  0.93975569  1
  Ce3+  Ce27  1  0.48970894  0.62137828  0.56927525  1
  Ce3+  Ce28  1  0.14173717  0.00053463  0.93559540  1
  Ce3+  Ce29  1  0.86626332  0.73254058  0.43910737  1
  Ce3+  Ce30  1  0.24368820  0.10688742  0.55955679  1
  Ce3+  Ce31  1  0.65818712  0.00066168  0.93110963  1
  Ce3+  Ce32  1  0.62366770  0.73319656  0.44360600  1
  Ce3+  Ce33  1  0.89102423  0.74508655  0.94032473  1
  Ce3+  Ce34  1  0.86502191  0.48291811  0.43596305  1
  Ce3+  Ce35  1  0.11590905  0.47711889  0.43198653  1
  Ce3+  Ce36  1  0.73723309  0.11306780  0.55517690  1
  Ce3+  Ce37  1  0.39832861  0.74017137  0.91480081  1
  Pr3+  Pr38  1  -0.00346695  0.61035650  0.55309060  1
  Pr3+  Pr39  1  0.52028535  0.87622113  0.04966894  1
  Pr3+  Pr40  1  0.37082187  0.73046839  0.42980492  1
  Pr3+  Pr41  1  0.61808548  -0.01901233  0.43051131  1
  Pr3+  Pr42  1  0.39554933  0.49480786  0.93437250  1
  Pr3+  Pr43  1  0.27289479  0.63521190  0.07030613  1
  Pr3+  Pr44  1  -0.00599670  0.86136577  0.56701468  1
  Pr3+  Pr45  1  0.11571623  0.23417245  0.43385467  1
  Pr3+  Pr46  1  0.90464297  0.00076509  0.93538606  1
  Pr3+  Pr47  1  0.73150036  0.36126428  0.56991525  1
  Pr3+  Pr48  1  0.77781857  0.36945038  0.07962662  1
  Pr3+  Pr49  1  0.11481695  -0.01734852  0.43459985  1
  Nd3+  Nd50  1  0.27403732  0.87622187  0.05016824  1
  Nd3+  Nd51  1  0.49216269  0.86786829  0.56932874  1
  Nd3+  Nd52  1  0.36938239  -0.01953096  0.43649952  1
  Nd3+  Nd53  1  0.86915282  -0.01883564  0.44126905  1
  Nd3+  Nd54  1  0.77075336  0.12526096  0.06646031  1
  Nd3+  Nd55  1  0.51902676  0.12604725  0.05542012  1
  Nd3+  Nd56  1  0.48957612  0.36596252  0.56048360  1
  Nd3+  Nd57  1  0.62692964  0.23124065  0.41676778  1
  Sm3+  Sm58  1  -0.00840683  0.35614929  0.56394828  1
  Sm3+  Sm59  1  0.49271270  0.10923752  0.55173637  1
  Sm3+  Sm60  1  0.24201299  0.85873734  0.55093617  1
  Sm3+  Sm61  1  0.27234415  0.37765392  0.05790815  1
  Sm3+  Sm62  1  0.24093428  0.61143247  0.55326160  1
  Sm3+  Sm63  1  0.27199442  0.12666590  0.04789196  1
  Bi2+  Bi64  1  0.07398998  0.12139269  0.31975372  1
  Bi2+  Bi65  1  0.08727553  0.11953344  0.78548497  1
  Bi2+  Bi66  1  0.00220791  0.29470106  0.29131288  1
  Bi2+  Bi67  1  0.01308806  0.37296801  0.79732840  1
  Bi2+  Bi68  1  -0.01754700  0.61107108  0.28971383  1
  Bi2+  Bi69  1  -0.01012717  0.68500932  0.82300660  1
  Bi2+  Bi70  1  -0.03293557  0.89048681  0.29081599  1
  Bi2+  Bi71  1  0.00080941  0.86782831  0.78645628  1
  Bi2+  Bi72  1  0.26208676  0.18308094  0.31169161  1
  Bi2+  Bi73  1  0.27945681  0.08045725  0.80121779  1
  Bi2+  Bi74  1  0.26346969  0.34704798  0.25038728  1
  Bi2+  Bi75  1  0.26864123  0.28397878  0.80138405  1
  Bi2+  Bi76  1  0.26093162  0.59852793  0.28611361  1
  Bi2+  Bi77  1  0.19256538  0.68697448  0.75477159  1
  Bi2+  Bi78  1  0.20613554  0.97361512  0.27378274  1
  Bi2+  Bi79  1  0.22124134  0.87044015  0.79352042  1
  Bi2+  Bi80  1  0.48673940  0.02707388  0.29268528  1
  Bi2+  Bi81  1  0.53908700  0.19106598  0.76903175  1
  Bi2+  Bi82  1  0.47215479  0.41665250  0.30010595  1
  Bi2+  Bi83  1  0.52045622  0.46322643  0.80782747  1
  Bi2+  Bi84  1  0.52036158  0.65823211  0.29413524  1
  Bi2+  Bi85  1  0.43229872  0.64025879  0.76541118  1
  Bi2+  Bi86  1  0.51796692  0.84241311  0.34450387  1
  Bi2+  Bi87  1  0.49248713  0.94262854  0.78572493  1
  Bi2+  Bi88  1  0.75422325  0.06524127  0.28201526  1
  Bi2+  Bi89  1  0.72248459  0.13375791  0.79253649  1
  Bi2+  Bi90  1  0.71415275  0.36470862  0.30354163  1
  Bi2+  Bi91  1  0.75573336  0.39762354  0.80915808  1
  Bi2+  Bi92  1  0.74423611  0.68531127  0.26570692  1
  Bi2+  Bi93  1  0.81306023  0.67234471  0.75835629  1
  Bi2+  Bi94  1  0.70485079  0.86939323  0.30876466  1
  Bi2+  Bi95  1  0.76915876  0.88810531  0.79225953  1
  Bi2+  Bi96  1  0.05112379  0.01047760  0.20981789  1
  Bi2+  Bi97  1  0.11858087  -0.03280926  0.71058992  1
  Bi2+  Bi98  1  0.13494445  0.21200702  0.21529792  1
  Bi2+  Bi99  1  0.13479668  0.26456086  0.71174480  1
  Bi2+  Bi100  1  0.10207531  0.47998350  0.19680570  1
  Bi2+  Bi101  1  0.16459064  0.51579514  0.69841728  1
  Bi2+  Bi102  1  0.14745592  0.78857916  0.19305274  1
  Bi2+  Bi103  1  0.04993689  0.75203167  0.68430177  1
  Bi2+  Bi104  1  0.32817581  -0.03224402  0.18277395  1
  Bi2+  Bi105  1  0.36479340  0.03584551  0.69925404  1
  Bi2+  Bi106  1  0.38714162  0.15296107  0.22257509  1
  Bi2+  Bi107  1  0.38189032  0.23212399  0.70867270  1
  Bi2+  Bi108  1  0.38599967  0.61192368  0.20382734  1
  Bi2+  Bi109  1  0.35141996  0.44779151  0.75176155  1
  Bi2+  Bi110  1  0.38044844  0.78539498  0.25861224  1
  Bi2+  Bi111  1  0.35505691  0.83484137  0.70781997  1
  Bi2+  Bi112  1  0.60684531  -0.01051867  0.20210181  1
  Bi2+  Bi113  1  0.62312630  0.00917724  0.70903573  1
  Bi2+  Bi114  1  0.60683177  0.25957083  0.20439623  1
  Bi2+  Bi115  1  0.68688776  0.24806527  0.69703108  1
  Bi2+  Bi116  1  0.61364519  0.51679667  0.21606288  1
  Bi2+  Bi117  1  0.63230921  0.49916877  0.69758554  1
  Bi2+  Bi118  1  0.59801362  0.78969169  0.21610737  1
  Bi2+  Bi119  1  0.58536062  0.74331193  0.73254460  1
  Bi2+  Bi120  1  0.79706826  -0.00078933  0.17427153  1
  Bi2+  Bi121  1  0.90190605  0.09341025  0.71093776  1
  Bi2+  Bi122  1  0.86141083  0.20223147  0.23066210  1
  Bi2+  Bi123  1  0.87295736  0.28240918  0.72846601  1
  Bi2+  Bi124  1  0.86187902  0.46766529  0.22538123  1
  Bi2+  Bi125  1  0.95111773  0.54001681  0.74791405  1
  Bi2+  Bi126  1  0.85251578  0.82261754  0.20754161  1
  Bi2+  Bi127  1  0.86951305  0.82764930  0.69515130  1
  S2-  S128  1  -0.00991549  0.15213924  0.16341663  1
  S2-  S129  1  -0.02533655  0.21718070  0.65100453  1
  S2-  S130  1  -0.05586747  0.37935075  0.16253366  1
  S2-  S131  1  0.09364014  0.38792964  0.64213333  1
  S2-  S132  1  -0.03270296  0.58496248  0.18474562  1
  S2-  S133  1  -0.02785870  0.60631039  0.65468061  1
  S2-  S134  1  0.00532948  0.78918980  0.14311839  1
  S2-  S135  1  -0.00985426  0.98569966  0.64376601  1
  S2-  S136  1  0.26904808  0.12229633  0.14753423  1
  S2-  S137  1  0.24006745  0.20503467  0.64158966  1
  S2-  S138  1  0.22749112  0.38650474  0.15457657  1
  S2-  S139  1  0.30207431  0.43186582  0.66120951  1
  S2-  S140  1  0.16389636  0.61207674  0.15200129  1
  S2-  S141  1  0.23681943  0.64487395  0.65219355  1
  S2-  S142  1  0.28894065  0.79481703  0.13810845  1
  S2-  S143  1  0.25114882  0.93186789  0.64106455  1
  S2-  S144  1  0.52756776  0.13950910  0.15545741  1
  S2-  S145  1  0.50185976  0.01089930  0.63484364  1
  S2-  S146  1  0.47779701  0.34698979  0.18191190  1
  S2-  S147  1  0.58984048  0.35179199  0.64228494  1
  S2-  S148  1  0.51327794  0.56375035  0.13951508  1
  S2-  S149  1  0.49452792  0.54573420  0.65684827  1
  S2-  S150  1  0.48199882  0.91313231  0.14727423  1
  S2-  S151  1  0.47700823  0.76445862  0.64951891  1
  S2-  S152  1  0.76448366  0.22251305  0.15174905  1
  S2-  S153  1  0.75296412  0.09011065  0.65281588  1
  S2-  S154  1  0.66630961  0.39768915  0.15625902  1
  S2-  S155  1  0.76847720  0.47047566  0.64665859  1
  S2-  S156  1  0.75521601  0.58055650  0.17563197  1
  S2-  S157  1  0.69658228  0.65817130  0.67578572  1
  S2-  S158  1  0.73043473  0.78172203  0.13747476  1
  S2-  S159  1  0.69939027  0.87615342  0.66813423  1
  S2-  S160  1  0.11007409  -0.10676402  0.34833560  1
  S2-  S161  1  0.03386447  -0.00246045  0.85823630  1
  S2-  S162  1  0.11174717  0.35162316  0.35884201  1
  S2-  S163  1  0.01091958  0.23235265  0.85499692  1
  S2-  S164  1  0.12305798  0.55957696  0.34416264  1
  S2-  S165  1  0.15222965  0.39351840  0.85485706  1
  S2-  S166  1  0.11026046  0.71380327  0.27411342  1
  S2-  S167  1  0.13930521  0.63013422  0.85832760  1
  S2-  S168  1  0.34039070  -0.01283554  0.33819996  1
  S2-  S169  1  0.44347826  0.09033894  0.83866208  1
  S2-  S170  1  0.35465276  0.35896858  0.35592729  1
  S2-  S171  1  0.40051622  0.35979302  0.86211181  1
  S2-  S172  1  0.40025443  0.56453635  0.34723786  1
  S2-  S173  1  0.36502851  0.60268672  0.85345660  1
  S2-  S174  1  0.28417931  0.74342399  0.34109357  1
  S2-  S175  1  0.37721988  0.86639580  0.84617338  1
  S2-  S176  1  0.62240280  0.08880118  0.35024032  1
  S2-  S177  1  0.63139067  -0.09243524  0.84769468  1
  S2-  S178  1  0.56033979  0.28613243  0.32468099  1
  S2-  S179  1  0.61574807  0.35732828  0.86245677  1
  S2-  S180  1  0.62826391  0.49086437  0.34460248  1
  S2-  S181  1  0.67088174  0.54046856  0.83259996  1
  S2-  S182  1  0.73544608  0.71925457  0.36595600  1
  S2-  S183  1  0.53714407  0.72362424  0.83033608  1
  S2-  S184  1  0.88844860  0.01190686  0.34284845  1
  S2-  S185  1  0.80092619  0.01491285  0.85411508  1
  S2-  S186  1  0.78097189  0.25028516  0.35901594  1
  S2-  S187  1  0.77646832  0.24492396  0.86087911  1
  S2-  S188  1  0.87222388  0.48570149  0.33411548  1
  S2-  S189  1  0.89167748  0.43861102  0.86699291  1
  S2-  S190  1  0.94842872  0.74140084  0.35112065  1
  S2-  S191  1  0.79385117  0.74445831  0.85463214  1
  S2-  S192  1  -0.01058325  0.11009528  0.45658581  1
  S2-  S193  1  0.02592437  0.12821005  0.95897229  1
  S2-  S194  1  -0.01411208  0.35794911  0.45790848  1
  S2-  S195  1  0.02402850  0.37924804  0.96479585  1
  S2-  S196  1  -0.00902303  0.60643426  0.44803036  1
  S2-  S197  1  0.01656928  0.62647789  0.96614939  1
  S2-  S198  1  -0.00998620  0.85980684  0.45972991  1
  S2-  S199  1  0.02051392  0.86697345  0.95243333  1
  S2-  S200  1  0.24390190  0.10708858  0.45070476  1
  S2-  S201  1  0.26716710  0.12925229  0.94307384  1
  S2-  S202  1  0.24184493  0.35495278  0.46241576  1
  S2-  S203  1  0.26883456  0.37252623  0.95720571  1
  S2-  S204  1  0.24054012  0.61107336  0.44877489  1
  S2-  S205  1  0.27159906  0.62708548  0.96122841  1
  S2-  S206  1  0.24409827  0.85880940  0.44845374  1
  S2-  S207  1  0.26247059  0.87234687  0.94601088  1
  S2-  S208  1  0.49110373  0.10988194  0.44777016  1
  S2-  S209  1  0.52569934  0.12479761  0.94966189  1
  S2-  S210  1  0.49846239  0.35716931  0.45421840  1
  S2-  S211  1  0.51841228  0.37396907  0.97016136  1
  S2-  S212  1  0.49680191  0.61323875  0.45838831  1
  S2-  S213  1  0.52409803  0.62052207  0.94371818  1
  S2-  S214  1  0.49297229  0.85814772  0.46070635  1
  S2-  S215  1  0.52042282  0.87488334  0.94507765  1
  S2-  S216  1  0.74405390  0.10612122  0.45192138  1
  S2-  S217  1  0.77815472  0.12435042  0.96217851  1
  S2-  S218  1  0.74004964  0.36255782  0.46038981  1
  S2-  S219  1  0.77324674  0.37644905  0.97076020  1
  S2-  S220  1  0.74602436  0.60394541  0.46593540  1
  S2-  S221  1  0.76911655  0.62255307  0.95900400  1
  S2-  S222  1  0.74343189  0.86204005  0.45980172  1
  S2-  S223  1  0.77580364  0.87649788  0.95482945  1
  S2-  S224  1  0.14894928  -0.00112752  0.04493538  1
  S2-  S225  1  0.11946122  -0.01515457  0.54149229  1
  S2-  S226  1  0.15058004  0.25061415  0.04843699  1
  S2-  S227  1  0.11269294  0.23129181  0.54127507  1
  S2-  S228  1  0.14897308  0.50256330  0.04638217  1
  S2-  S229  1  0.11909043  0.48713650  0.53989505  1
  S2-  S230  1  0.14644355  0.75314098  0.04151986  1
  S2-  S231  1  0.12071914  0.73840572  0.54947454  1
  S2-  S232  1  0.39362886  0.00341670  0.03255354  1
  S2-  S233  1  0.36700245  -0.01418532  0.54044997  1
  S2-  S234  1  0.39356131  0.25096327  0.04948274  1
  S2-  S235  1  0.37257483  0.23333444  0.54189023  1
  S2-  S236  1  0.38944082  0.50183442  0.04590900  1
  S2-  S237  1  0.36616049  0.48924254  0.54455240  1
  S2-  S238  1  0.39863822  0.75089931  0.03371970  1
  S2-  S239  1  0.36266289  0.73792150  0.54089226  1
  S2-  S240  1  0.64503282  0.00279450  0.04303744  1
  S2-  S241  1  0.61825245  -0.01408014  0.53847963  1
  S2-  S242  1  0.64330809  0.24931845  0.04975520  1
  S2-  S243  1  0.61210975  0.23194123  0.53844826  1
  S2-  S244  1  0.64899417  0.50427128  0.04591279  1
  S2-  S245  1  0.61215086  0.49241627  0.54777913  1
  S2-  S246  1  0.64008586  0.75107419  0.03123097  1
  S2-  S247  1  0.62032202  0.73734923  0.55105197  1
  S2-  S248  1  0.89914987  -0.00057280  0.04663752  1
  S2-  S249  1  0.86317449  -0.01332769  0.54721084  1
  S2-  S250  1  0.90090408  0.24926221  0.04860562  1
  S2-  S251  1  0.86031277  0.23979154  0.54971659  1
  S2-  S252  1  0.89484999  0.50684043  0.06272858  1
  S2-  S253  1  0.87523617  0.48058304  0.54396907  1
  S2-  S254  1  0.89106600  0.75166142  0.04501795  1
  S2-  S255  1  0.86843076  0.73570979  0.55129382  1
