# generated using pymatgen
data_La9Ce10Pr6Nd4Sm3(BiS2)32
_symmetry_space_group_name_H-M   'P 1'
_cell_length_a   16.22380565
_cell_length_b   16.18472700
_cell_length_c   27.05259661
_cell_angle_alpha   90.20595943
_cell_angle_beta   89.88431255
_cell_angle_gamma   89.90570662
_symmetry_Int_Tables_number   1
_chemical_formula_structural   La9Ce10Pr6Nd4Sm3(BiS2)32
_chemical_formula_sum   'La18 Ce20 Pr12 Nd8 Sm6 Bi64 S128'
_cell_volume   7103.34299097
_cell_formula_units_Z   2
loop_
 _symmetry_equiv_pos_site_id
 _symmetry_equiv_pos_as_xyz
  1  'x, y, z'
loop_
 _atom_type_symbol
 _atom_type_oxidation_number
  La3+  3.0
  Ce3+  3.0
  Pr3+  3.0
  Nd3+  3.0
  Sm3+  3.0
  Bi2+  2.0
  S2-  -2.0
loop_
 _atom_site_type_symbol
 _atom_site_label
 _atom_site_symmetry_multiplicity
 _atom_site_fract_x
 _atom_site_fract_y
 _atom_site_fract_z
 _atom_site_occupancy
  La3+  La0  1  0.86802676  -0.01807264  0.92186194  1
  La3+  La1  1  0.74477299  0.86606368  0.06714339  1
  La3+  La2  1  0.63098367  0.00431295  0.43421391  1
  La3+  La3  1  0.88426767  0.25134615  0.42451378  1
  La3+  La4  1  0.00680601  0.36766077  0.08592038  1
  La3+  La5  1  0.12772379  -0.01628881  0.93269351  1
  La3+  La6  1  0.88432648  0.23666105  0.93373460  1
  La3+  La7  1  0.24949339  0.11654097  0.06324717  1
  La3+  La8  1  0.75309956  0.14251030  0.56542849  1
  La3+  La9  1  0.61748335  0.72793926  0.92416591  1
  La3+  La10  1  0.63734711  0.24913980  0.40722999  1
  La3+  La11  1  0.74516707  0.35967664  0.09458154  1
  La3+  La12  1  0.37458673  0.01090342  0.42673795  1
  La3+  La13  1  0.00385392  0.10763833  0.06843294  1
  La3+  La14  1  0.37809646  0.51046326  0.42612944  1
  La3+  La15  1  0.13291479  0.23283891  0.92665696  1
  La3+  La16  1  0.49933154  0.88844323  0.57219833  1
  La3+  La17  1  0.63494256  0.50894439  0.42461000  1
  Ce3+  Ce18  1  0.50585078  0.38358375  0.54252638  1
  Ce3+  Ce19  1  0.25407621  0.13859657  0.56099191  1
  Ce3+  Ce20  1  0.75389180  0.38154321  0.55554814  1
  Ce3+  Ce21  1  0.50669360  0.11460922  0.05795608  1
  Ce3+  Ce22  1  0.62705354  0.48525744  0.93920814  1
  Ce3+  Ce23  1  0.00176599  0.61312030  0.05782190  1
  Ce3+  Ce24  1  0.87806208  0.76804280  0.44553285  1
  Ce3+  Ce25  1  0.88047313  0.50792186  0.43829615  1
  Ce3+  Ce26  1  0.37837086  0.75915283  0.43025978  1
  Ce3+  Ce27  1  0.00420897  0.63287397  0.55982628  1
  Ce3+  Ce28  1  0.25612064  0.88736297  0.56532299  1
  Ce3+  Ce29  1  -0.00049031  0.88980143  0.56759207  1
  Ce3+  Ce30  1  0.62870513  0.76767369  0.44563627  1
  Ce3+  Ce31  1  0.74518278  0.89495580  0.58475537  1
  Ce3+  Ce32  1  0.00140641  0.86341158  0.05740944  1
  Ce3+  Ce33  1  0.51381071  0.60909149  0.07144030  1
  Ce3+  Ce34  1  0.25219246  0.36097723  0.05887012  1
  Ce3+  Ce35  1  0.00312235  0.14833064  0.57489153  1
  Ce3+  Ce36  1  0.74887214  0.61146616  0.05774302  1
  Ce3+  Ce37  1  0.12913863  0.74105758  0.93848501  1
  Pr3+  Pr38  1  0.25639815  0.86342770  0.07173348  1
  Pr3+  Pr39  1  0.12975157  0.76241152  0.44483580  1
  Pr3+  Pr40  1  0.62057174  -0.01990262  0.92659074  1
  Pr3+  Pr41  1  0.87287629  0.73689660  0.93917657  1
  Pr3+  Pr42  1  0.25259243  0.61013469  0.05997323  1
  Pr3+  Pr43  1  0.12669481  0.48588576  0.93434270  1
  Pr3+  Pr44  1  0.12593578  0.50943119  0.43550640  1
  Pr3+  Pr45  1  0.76205639  0.11465219  0.06902001  1
  Pr3+  Pr46  1  0.50114059  0.86419287  0.06650630  1
  Pr3+  Pr47  1  0.37947683  0.23816079  0.93024746  1
  Pr3+  Pr48  1  0.25755899  0.63736071  0.56049798  1
  Pr3+  Pr49  1  0.75449682  0.63645909  0.55618515  1
  Nd3+  Nd50  1  0.37865609  0.73362158  0.94690434  1
  Nd3+  Nd51  1  0.50228270  0.36084522  0.06427109  1
  Nd3+  Nd52  1  0.50497817  0.63286191  0.55610738  1
  Nd3+  Nd53  1  0.01070309  0.39326712  0.56897158  1
  Nd3+  Nd54  1  0.63233214  0.23492297  0.94089142  1
  Nd3+  Nd55  1  0.87849240  0.48228252  0.94745371  1
  Nd3+  Nd56  1  0.12507239  0.25809419  0.43817030  1
  Nd3+  Nd57  1  0.37602038  0.26126702  0.42891970  1
  Sm3+  Sm58  1  0.12818559  0.01252812  0.45376202  1
  Sm3+  Sm59  1  0.37874119  0.48542024  0.94690529  1
  Sm3+  Sm60  1  0.38080369  -0.01535701  0.94061781  1
  Sm3+  Sm61  1  0.25621916  0.38804451  0.55955016  1
  Sm3+  Sm62  1  0.50176700  0.13763258  0.55013343  1
  Sm3+  Sm63  1  0.88003075  0.00608672  0.44353573  1
  Bi2+  Bi64  1  0.02980001  0.12407079  0.29848457  1
  Bi2+  Bi65  1  0.03618808  0.12399259  0.77559098  1
  Bi2+  Bi66  1  0.00227359  0.39098521  0.28522068  1
  Bi2+  Bi67  1  -0.03281610  0.36314697  0.79783350  1
  Bi2+  Bi68  1  -0.03114838  0.66295563  0.29530381  1
  Bi2+  Bi69  1  0.01717447  0.60819007  0.79879467  1
  Bi2+  Bi70  1  -0.01732726  0.85990748  0.28393396  1
  Bi2+  Bi71  1  0.01042896  0.80297743  0.79299063  1
  Bi2+  Bi72  1  0.21726887  0.16384126  0.31450207  1
  Bi2+  Bi73  1  0.27893598  0.12507901  0.78796759  1
  Bi2+  Bi74  1  0.20608852  0.36389574  0.29602095  1
  Bi2+  Bi75  1  0.25170337  0.38697611  0.78583705  1
  Bi2+  Bi76  1  0.24016921  0.66887823  0.28464657  1
  Bi2+  Bi77  1  0.20810601  0.65971428  0.79229137  1
  Bi2+  Bi78  1  0.24464988  0.90810152  0.29215712  1
  Bi2+  Bi79  1  0.28066100  0.85515533  0.79477495  1
  Bi2+  Bi80  1  0.41099889  0.05950331  0.26547248  1
  Bi2+  Bi81  1  0.46886585  0.14992660  0.80599904  1
  Bi2+  Bi82  1  0.43557906  0.35301070  0.26876297  1
  Bi2+  Bi83  1  0.46540232  0.36310280  0.81477441  1
  Bi2+  Bi84  1  0.49954045  0.69337852  0.29195592  1
  Bi2+  Bi85  1  0.48091238  0.59947492  0.79003250  1
  Bi2+  Bi86  1  0.51033572  0.89582434  0.28937959  1
  Bi2+  Bi87  1  0.48214731  0.86302749  0.79032039  1
  Bi2+  Bi88  1  0.75559643  0.07422998  0.29158799  1
  Bi2+  Bi89  1  0.78919347  0.13325655  0.79307613  1
  Bi2+  Bi90  1  0.73122127  0.40237792  0.29490901  1
  Bi2+  Bi91  1  0.75160045  0.45934905  0.78339406  1
  Bi2+  Bi92  1  0.77400039  0.66435680  0.29679719  1
  Bi2+  Bi93  1  0.74614047  0.65636724  0.79650998  1
  Bi2+  Bi94  1  0.75977230  0.86786301  0.29087585  1
  Bi2+  Bi95  1  0.75060144  0.87100974  0.78440651  1
  Bi2+  Bi96  1  0.14195246  -0.09413464  0.19291743  1
  Bi2+  Bi97  1  0.20893244  -0.01351446  0.71578789  1
  Bi2+  Bi98  1  0.21011291  0.22664507  0.20574415  1
  Bi2+  Bi99  1  0.12812879  0.26569981  0.70492293  1
  Bi2+  Bi100  1  0.12842219  0.49672727  0.20793183  1
  Bi2+  Bi101  1  0.13014672  0.52848427  0.71447388  1
  Bi2+  Bi102  1  0.07669050  0.72779398  0.20552098  1
  Bi2+  Bi103  1  0.15096693  0.78759788  0.70536521  1
  Bi2+  Bi104  1  0.29095178  0.02576700  0.18287530  1
  Bi2+  Bi105  1  0.40643185  0.00063213  0.71413980  1
  Bi2+  Bi106  1  0.37302417  0.30627984  0.16704941  1
  Bi2+  Bi107  1  0.39499671  0.28119547  0.71540529  1
  Bi2+  Bi108  1  0.33026886  0.49372193  0.21382356  1
  Bi2+  Bi109  1  0.39354764  0.48151024  0.70849616  1
  Bi2+  Bi110  1  0.36587876  0.77903103  0.22703048  1
  Bi2+  Bi111  1  0.33931627  0.73213211  0.70051272  1
  Bi2+  Bi112  1  0.62460798  -0.01794167  0.20649830  1
  Bi2+  Bi113  1  0.61741207  0.02166282  0.70745712  1
  Bi2+  Bi114  1  0.58661628  0.23621219  0.20986860  1
  Bi2+  Bi115  1  0.59366558  0.26563391  0.74468211  1
  Bi2+  Bi116  1  0.57777200  0.52298301  0.21587028  1
  Bi2+  Bi117  1  0.59267190  0.46202528  0.71559580  1
  Bi2+  Bi118  1  0.64503642  0.73491824  0.21955659  1
  Bi2+  Bi119  1  0.61519625  0.67710402  0.71458880  1
  Bi2+  Bi120  1  0.88637646  0.00258785  0.21324201  1
  Bi2+  Bi121  1  0.88524720  -0.03811355  0.70658809  1
  Bi2+  Bi122  1  0.85022837  0.24436588  0.21898849  1
  Bi2+  Bi123  1  0.85469589  0.22470736  0.70123865  1
  Bi2+  Bi124  1  0.86205011  0.56361998  0.20958461  1
  Bi2+  Bi125  1  0.85426076  0.50457432  0.69375108  1
  Bi2+  Bi126  1  0.87444506  0.76297471  0.19899121  1
  Bi2+  Bi127  1  0.89337608  0.69188059  0.71996701  1
  S2-  S128  1  -0.09931229  0.13739190  0.15084187  1
  S2-  S129  1  -0.02802828  0.09788489  0.67192815  1
  S2-  S130  1  -0.01835198  0.32109721  0.19116026  1
  S2-  S131  1  -0.01608934  0.28929033  0.64729013  1
  S2-  S132  1  -0.00134071  0.52866271  0.14399862  1
  S2-  S133  1  0.00798150  0.53205720  0.64076193  1
  S2-  S134  1  -0.00322559  0.95250073  0.14035864  1
  S2-  S135  1  0.01657419  0.88862338  0.66593108  1
  S2-  S136  1  0.13492655  0.12360397  0.14237477  1
  S2-  S137  1  0.22207397  0.13935837  0.65856450  1
  S2-  S138  1  0.16076936  0.37343633  0.14165193  1
  S2-  S139  1  0.17563639  0.38672240  0.64820385  1
  S2-  S140  1  0.23078721  0.61258010  0.16073446  1
  S2-  S141  1  0.27081678  0.58473284  0.65722914  1
  S2-  S142  1  0.38108175  0.87521910  0.14547349  1
  S2-  S143  1  0.36605601  0.88216511  0.64172802  1
  S2-  S144  1  0.52136125  0.10075853  0.15702648  1
  S2-  S145  1  0.50167625  0.10571264  0.64886615  1
  S2-  S146  1  0.58750089  0.38209083  0.15288124  1
  S2-  S147  1  0.48852415  0.38183108  0.64041024  1
  S2-  S148  1  0.45349918  0.58525858  0.16505821  1
  S2-  S149  1  0.48674252  0.68502860  0.65159872  1
  S2-  S150  1  0.61389573  0.84675860  0.14364550  1
  S2-  S151  1  0.60767215  0.88978541  0.65270946  1
  S2-  S152  1  0.71775068  0.21445469  0.15527355  1
  S2-  S153  1  0.75271445  0.04143134  0.65151739  1
  S2-  S154  1  0.78988363  0.41679882  0.19200522  1
  S2-  S155  1  0.74184572  0.28023527  0.63660260  1
  S2-  S156  1  0.65694242  0.61127652  0.14157071  1
  S2-  S157  1  0.71785287  0.57718495  0.64906360  1
  S2-  S158  1  0.75667922  0.98803858  0.14439907  1
  S2-  S159  1  0.80627358  0.82361504  0.67101940  1
  S2-  S160  1  0.13883785  0.01361473  0.35375455  1
  S2-  S161  1  0.14703625  0.08099925  0.84839528  1
  S2-  S162  1  0.02056475  0.26897873  0.35560070  1
  S2-  S163  1  0.01194168  0.23962343  0.85340122  1
  S2-  S164  1  0.12491069  0.50309987  0.33381236  1
  S2-  S165  1  0.11834722  0.41903202  0.83978107  1
  S2-  S166  1  0.16428579  0.77012551  0.34425383  1
  S2-  S167  1  0.13492447  0.85116665  0.86076816  1
  S2-  S168  1  0.37464870  -0.12174181  0.35819884  1
  S2-  S169  1  0.47798678  -0.01038617  0.85741004  1
  S2-  S170  1  0.38094962  0.14248626  0.35131469  1
  S2-  S171  1  0.26363635  0.25660973  0.85324983  1
  S2-  S172  1  0.35550181  0.38532653  0.35523219  1
  S2-  S173  1  0.36480751  0.49515626  0.84774043  1
  S2-  S174  1  0.37132344  0.63473482  0.35278800  1
  S2-  S175  1  0.45187828  0.72899069  0.85557752  1
  S2-  S176  1  0.62962822  0.09960962  0.34726881  1
  S2-  S177  1  0.73252612  0.00548499  0.84894834  1
  S2-  S178  1  0.58639816  0.30498653  0.31000429  1
  S2-  S179  1  0.62505380  0.20600605  0.84060993  1
  S2-  S180  1  0.61079474  0.52397337  0.32362822  1
  S2-  S181  1  0.61470396  0.58336621  0.85740426  1
  S2-  S182  1  0.63411886  0.86676544  0.36489271  1
  S2-  S183  1  0.62720118  0.84056949  0.84540361  1
  S2-  S184  1  0.90148577  0.09377782  0.35582779  1
  S2-  S185  1  0.93020614  0.04003782  0.82557279  1
  S2-  S186  1  0.77939171  0.27131257  0.34058694  1
  S2-  S187  1  0.82805722  0.27596696  0.83352534  1
  S2-  S188  1  0.87507128  0.46610441  0.34207034  1
  S2-  S189  1  0.89265339  0.49507101  0.84650374  1
  S2-  S190  1  0.87972035  0.87774311  0.36869153  1
  S2-  S191  1  0.87304857  0.83288199  0.85368661  1
  S2-  S192  1  0.00826303  0.13216718  0.46501970  1
  S2-  S193  1  0.00204472  0.10606704  0.95655572  1
  S2-  S194  1  0.00451473  0.38853934  0.45845424  1
  S2-  S195  1  0.00477114  0.36606682  0.95796443  1
  S2-  S196  1  0.00278141  0.63779230  0.45108798  1
  S2-  S197  1  0.00244913  0.61421773  0.95069718  1
  S2-  S198  1  0.00974242  0.88800358  0.46118987  1
  S2-  S199  1  -0.00026485  0.85856374  0.95432981  1
  S2-  S200  1  0.24971650  0.13780804  0.45553659  1
  S2-  S201  1  0.26169261  0.10842275  0.95422901  1
  S2-  S202  1  0.24744931  0.38399401  0.45555292  1
  S2-  S203  1  0.25541934  0.36666515  0.95436495  1
  S2-  S204  1  0.24958451  0.63359173  0.45299796  1
  S2-  S205  1  0.25324947  0.61083796  0.95108052  1
  S2-  S206  1  0.25051882  0.88779759  0.45984698  1
  S2-  S207  1  0.26132918  0.86094093  0.96128490  1
  S2-  S208  1  0.50316186  0.13692606  0.44784147  1
  S2-  S209  1  0.50272864  0.11509624  0.95268611  1
  S2-  S210  1  0.51053072  0.38193021  0.43757426  1
  S2-  S211  1  0.50288714  0.36133304  0.95453878  1
  S2-  S212  1  0.51103322  0.63509085  0.44870516  1
  S2-  S213  1  0.49850622  0.60492951  0.96310121  1
  S2-  S214  1  0.49932204  0.88448744  0.46135845  1
  S2-  S215  1  0.49798257  0.85905415  0.95945251  1
  S2-  S216  1  0.75772704  0.13041770  0.45495140  1
  S2-  S217  1  0.75477468  0.11565516  0.95596749  1
  S2-  S218  1  0.75538132  0.38401333  0.44864797  1
  S2-  S219  1  0.75116097  0.36339138  0.94633693  1
  S2-  S220  1  0.75611995  0.63959839  0.44755022  1
  S2-  S221  1  0.75409708  0.60854356  0.95227044  1
  S2-  S222  1  0.75605243  0.88533734  0.47171994  1
  S2-  S223  1  0.74470810  0.85610032  0.95664530  1
  S2-  S224  1  0.13321577  -0.01969246  0.04191936  1
  S2-  S225  1  0.12863869  0.01263672  0.55893905  1
  S2-  S226  1  0.12656777  0.24194867  0.03929824  1
  S2-  S227  1  0.13248578  0.26497290  0.54458522  1
  S2-  S228  1  0.12649723  0.49154148  0.04121597  1
  S2-  S229  1  0.13498404  0.51285663  0.54214799  1
  S2-  S230  1  0.12935899  0.73797198  0.04801115  1
  S2-  S231  1  0.12803023  0.76007631  0.55380387  1
  S2-  S232  1  0.37884064  -0.00710386  0.04409092  1
  S2-  S233  1  0.37510566  0.01706961  0.54006468  1
  S2-  S234  1  0.37969869  0.23700554  0.04054306  1
  S2-  S235  1  0.37675872  0.26275153  0.54085795  1
  S2-  S236  1  0.37866412  0.48605337  0.05221364  1
  S2-  S237  1  0.37924657  0.50928112  0.53833509  1
  S2-  S238  1  0.37975267  0.73131171  0.05281360  1
  S2-  S239  1  0.37930039  0.75662478  0.53950547  1
  S2-  S240  1  0.62404932  -0.00839890  0.03899320  1
  S2-  S241  1  0.62343618  0.01630077  0.54356067  1
  S2-  S242  1  0.62835053  0.24027014  0.04604316  1
  S2-  S243  1  0.62404911  0.25912506  0.53305136  1
  S2-  S244  1  0.63160910  0.47989205  0.04359464  1
  S2-  S245  1  0.62948076  0.50894169  0.53602196  1
  S2-  S246  1  0.62627147  0.73391739  0.03738201  1
  S2-  S247  1  0.62850164  0.75794317  0.55055273  1
  S2-  S248  1  0.87641492  -0.01734946  0.03675015  1
  S2-  S249  1  0.88285373  0.01496745  0.55034254  1
  S2-  S250  1  0.87742906  0.25034162  0.04874826  1
  S2-  S251  1  0.88190136  0.26532631  0.53821299  1
  S2-  S252  1  0.86987609  0.48437185  0.05285576  1
  S2-  S253  1  0.87665229  0.50900207  0.54355634  1
  S2-  S254  1  0.87448887  0.73644329  0.04872137  1
  S2-  S255  1  0.88218474  0.75828816  0.55245076  1
