# generated using pymatgen
data_La9Ce10Pr6Nd4Sm3(BiS2)32
_symmetry_space_group_name_H-M   'P 1'
_cell_length_a   16.15543158
_cell_length_b   16.17298487
_cell_length_c   27.10794234
_cell_angle_alpha   89.83869219
_cell_angle_beta   90.01231626
_cell_angle_gamma   90.05134766
_symmetry_Int_Tables_number   1
_chemical_formula_structural   La9Ce10Pr6Nd4Sm3(BiS2)32
_chemical_formula_sum   'La18 Ce20 Pr12 Nd8 Sm6 Bi64 S128'
_cell_volume   7082.77413464
_cell_formula_units_Z   2
loop_
 _symmetry_equiv_pos_site_id
 _symmetry_equiv_pos_as_xyz
  1  'x, y, z'
loop_
 _atom_type_symbol
 _atom_type_oxidation_number
  La3+  3.0
  Ce3+  3.0
  Pr3+  3.0
  Nd3+  3.0
  Sm3+  3.0
  Bi2+  2.0
  S2-  -2.0
loop_
 _atom_site_type_symbol
 _atom_site_label
 _atom_site_symmetry_multiplicity
 _atom_site_fract_x
 _atom_site_fract_y
 _atom_site_fract_z
 _atom_site_occupancy
  La3+  La0  1  0.51416748  0.36397229  0.07215092  1
  La3+  La1  1  0.49172238  0.13994649  0.57357656  1
  La3+  La2  1  0.24983335  0.12894998  0.54945666  1
  La3+  La3  1  0.48889485  0.87700405  0.56879292  1
  La3+  La4  1  0.37396042  0.50925853  0.40006109  1
  La3+  La5  1  0.37834015  0.25234009  0.41854918  1
  La3+  La6  1  0.26148853  0.62134465  0.57994011  1
  La3+  La7  1  0.40545554  -0.00537320  0.89182009  1
  La3+  La8  1  0.77250373  0.37142967  0.07303905  1
  La3+  La9  1  0.51307985  0.12336217  0.05564209  1
  La3+  La10  1  0.38976717  0.50181909  0.92776539  1
  La3+  La11  1  0.26229218  0.38330497  0.06893665  1
  La3+  La12  1  0.12403910  0.75625355  0.43361540  1
  La3+  La13  1  0.75288571  0.88916621  0.58893850  1
  La3+  La14  1  0.00259597  0.87414771  0.57228828  1
  La3+  La15  1  0.25921315  0.13142424  0.08600386  1
  La3+  La16  1  0.51773627  0.87579970  0.07231162  1
  La3+  La17  1  0.11939123  0.00490216  0.39707429  1
  Ce3+  Ce18  1  0.37883428  -0.00028575  0.41857754  1
  Ce3+  Ce19  1  0.76701279  0.13016861  0.06342566  1
  Ce3+  Ce20  1  0.89043680  0.00083380  0.94260663  1
  Ce3+  Ce21  1  0.49755371  0.38345697  0.54438012  1
  Ce3+  Ce22  1  0.87563426  0.76168538  0.44643045  1
  Ce3+  Ce23  1  0.64577040  0.25087205  0.93084858  1
  Ce3+  Ce24  1  0.50011464  0.62585568  0.54877604  1
  Ce3+  Ce25  1  0.01672539  0.87489232  0.05813940  1
  Ce3+  Ce26  1  0.74941457  0.62747265  0.55507190  1
  Ce3+  Ce27  1  0.13435657  0.50528018  0.93649869  1
  Ce3+  Ce28  1  0.63586859  0.49956382  0.94976128  1
  Ce3+  Ce29  1  0.00050972  0.13175331  0.56065451  1
  Ce3+  Ce30  1  0.63673997  0.75188802  0.94888802  1
  Ce3+  Ce31  1  0.64867223  -0.00235661  0.93886971  1
  Ce3+  Ce32  1  0.14669066  0.75247529  0.95079062  1
  Ce3+  Ce33  1  0.12952497  0.25380906  0.42290228  1
  Ce3+  Ce34  1  0.01395675  0.62774548  0.06081576  1
  Ce3+  Ce35  1  0.62670634  0.25164801  0.43277874  1
  Ce3+  Ce36  1  0.15022447  0.00200876  0.94960896  1
  Ce3+  Ce37  1  0.25413335  0.38350582  0.54615885  1
  Pr3+  Pr38  1  0.00281081  0.38167322  0.55861169  1
  Pr3+  Pr39  1  0.24819339  0.87749032  0.54892928  1
  Pr3+  Pr40  1  0.76200428  0.62000094  0.08173670  1
  Pr3+  Pr41  1  0.63264257  0.50594085  0.42308668  1
  Pr3+  Pr42  1  0.88678673  0.75131452  0.94520446  1
  Pr3+  Pr43  1  0.39001236  0.24746344  0.93702861  1
  Pr3+  Pr44  1  0.00091085  0.62133610  0.56584413  1
  Pr3+  Pr45  1  0.87799049  0.50443126  0.42636751  1
  Pr3+  Pr46  1  0.37742895  0.75501750  0.42652529  1
  Pr3+  Pr47  1  0.27147884  0.87305056  0.07995153  1
  Pr3+  Pr48  1  0.51486493  0.61941025  0.07584217  1
  Pr3+  Pr49  1  0.62374261  0.00757225  0.44622846  1
  Nd3+  Nd50  1  0.01298807  0.12622567  0.06841920  1
  Nd3+  Nd51  1  0.12548105  0.50685110  0.42926244  1
  Nd3+  Nd52  1  0.27245831  0.62355323  0.07238220  1
  Nd3+  Nd53  1  0.76517191  0.87665696  0.07493332  1
  Nd3+  Nd54  1  0.89020857  0.25054395  0.93274168  1
  Nd3+  Nd55  1  0.62642309  0.76026666  0.44202508  1
  Nd3+  Nd56  1  0.74726105  0.38516390  0.56262197  1
  Nd3+  Nd57  1  0.74548761  0.13858138  0.56964387  1
  Sm3+  Sm58  1  0.01046258  0.37922261  0.05528859  1
  Sm3+  Sm59  1  0.87826681  0.25377252  0.44306432  1
  Sm3+  Sm60  1  0.14165862  0.25102303  0.95046299  1
  Sm3+  Sm61  1  0.38995906  0.74818018  0.94458252  1
  Sm3+  Sm62  1  0.88777682  0.50427834  0.93913384  1
  Sm3+  Sm63  1  0.87748471  0.00637486  0.44551262  1
  Bi2+  Bi64  1  -0.04642893  0.11938074  0.28484989  1
  Bi2+  Bi65  1  -0.00516801  0.04999870  0.81870032  1
  Bi2+  Bi66  1  -0.01254980  0.38759210  0.32253783  1
  Bi2+  Bi67  1  -0.00843357  0.32457975  0.79198060  1
  Bi2+  Bi68  1  0.00724774  0.58494201  0.32084608  1
  Bi2+  Bi69  1  -0.03249630  0.60110313  0.75363113  1
  Bi2+  Bi70  1  -0.02206451  0.85508337  0.29101781  1
  Bi2+  Bi71  1  0.00672303  0.86066821  0.79410276  1
  Bi2+  Bi72  1  0.21819286  0.14311820  0.27246982  1
  Bi2+  Bi73  1  0.22822426  0.12902352  0.79028837  1
  Bi2+  Bi74  1  0.16974122  0.36663169  0.27927920  1
  Bi2+  Bi75  1  0.25352858  0.34358904  0.80338582  1
  Bi2+  Bi76  1  0.21431747  0.64416836  0.28722854  1
  Bi2+  Bi77  1  0.24752622  0.62934216  0.79587924  1
  Bi2+  Bi78  1  0.24864083  0.89123332  0.27192307  1
  Bi2+  Bi79  1  0.21313406  0.86657729  0.79154580  1
  Bi2+  Bi80  1  0.48952564  0.11605408  0.28435143  1
  Bi2+  Bi81  1  0.45971314  0.19980050  0.76726680  1
  Bi2+  Bi82  1  0.56155531  0.37883122  0.29287804  1
  Bi2+  Bi83  1  0.44740292  0.37559842  0.81461084  1
  Bi2+  Bi84  1  0.48812002  0.65608746  0.27244919  1
  Bi2+  Bi85  1  0.49492479  0.59262775  0.78409154  1
  Bi2+  Bi86  1  0.50799998  0.87524802  0.28811819  1
  Bi2+  Bi87  1  0.50517437  0.84037235  0.79515710  1
  Bi2+  Bi88  1  0.70577581  0.10065507  0.31982194  1
  Bi2+  Bi89  1  0.86125455  0.18281192  0.78624409  1
  Bi2+  Bi90  1  0.79548183  0.35860468  0.29466796  1
  Bi2+  Bi91  1  0.72341496  0.42694065  0.78418106  1
  Bi2+  Bi92  1  0.82215155  0.63659955  0.28757639  1
  Bi2+  Bi93  1  0.81421564  0.58423722  0.82050853  1
  Bi2+  Bi94  1  0.75262463  0.91763538  0.30009659  1
  Bi2+  Bi95  1  0.73388176  0.86365603  0.81573607  1
  Bi2+  Bi96  1  0.05409421  -0.00484146  0.20375404  1
  Bi2+  Bi97  1  0.12036765  0.00931284  0.72400677  1
  Bi2+  Bi98  1  0.03408354  0.26876965  0.21150168  1
  Bi2+  Bi99  1  0.14819064  0.26904111  0.70798637  1
  Bi2+  Bi100  1  0.10779782  0.51804912  0.21381405  1
  Bi2+  Bi101  1  0.08610219  0.45595345  0.72623858  1
  Bi2+  Bi102  1  0.06293265  0.71726107  0.22192569  1
  Bi2+  Bi103  1  0.10848076  0.81525062  0.69761638  1
  Bi2+  Bi104  1  0.45751468  0.00907429  0.19045057  1
  Bi2+  Bi105  1  0.40058902  -0.00009258  0.68884361  1
  Bi2+  Bi106  1  0.41299444  0.25121683  0.21173748  1
  Bi2+  Bi107  1  0.33401592  0.30151968  0.67357769  1
  Bi2+  Bi108  1  0.36535330  0.47852724  0.20919333  1
  Bi2+  Bi109  1  0.35850584  0.47721484  0.72648191  1
  Bi2+  Bi110  1  0.29142665  0.74512305  0.19966620  1
  Bi2+  Bi111  1  0.34085183  0.74055390  0.70749747  1
  Bi2+  Bi112  1  0.64836578  0.02436312  0.21293419  1
  Bi2+  Bi113  1  0.63743830  -0.02648829  0.71007462  1
  Bi2+  Bi114  1  0.67627202  0.23858869  0.23767297  1
  Bi2+  Bi115  1  0.61323282  0.34484754  0.70359948  1
  Bi2+  Bi116  1  0.63575871  0.51342598  0.21893069  1
  Bi2+  Bi117  1  0.53237607  0.51161976  0.66970564  1
  Bi2+  Bi118  1  0.66237181  0.76486139  0.22748565  1
  Bi2+  Bi119  1  0.67359362  0.60197345  0.73093907  1
  Bi2+  Bi120  1  0.84219093  -0.04222626  0.19669951  1
  Bi2+  Bi121  1  0.88428212  0.00135473  0.72292135  1
  Bi2+  Bi122  1  0.88250530  0.14884018  0.18064233  1
  Bi2+  Bi123  1  0.95620859  0.25312802  0.68261696  1
  Bi2+  Bi124  1  0.89128664  0.47808277  0.21932942  1
  Bi2+  Bi125  1  0.82930387  0.40234011  0.68906605  1
  Bi2+  Bi126  1  0.84710363  0.75670976  0.19636350  1
  Bi2+  Bi127  1  0.85089768  0.74882970  0.71251857  1
  S2-  S128  1  0.11077770  0.13251559  0.15361032  1
  S2-  S129  1  -0.00269069  0.08638009  0.65672528  1
  S2-  S130  1  -0.05812296  0.36247555  0.14555636  1
  S2-  S131  1  0.01072093  0.48788416  0.63850734  1
  S2-  S132  1  -0.02359622  0.60100042  0.15527637  1
  S2-  S133  1  -0.00760195  0.70129553  0.65757994  1
  S2-  S134  1  0.00691920  0.84877276  0.15453679  1
  S2-  S135  1  -0.10221678  0.88357617  0.65407486  1
  S2-  S136  1  0.31561039  0.11013311  0.18536365  1
  S2-  S137  1  0.33536427  0.13827956  0.63798471  1
  S2-  S138  1  0.29297367  0.31692207  0.16288749  1
  S2-  S139  1  0.26609218  0.46055322  0.63415312  1
  S2-  S140  1  0.23103579  0.50828365  0.14549711  1
  S2-  S141  1  0.20584443  0.67068864  0.67511564  1
  S2-  S142  1  0.20870908  0.90924993  0.17703130  1
  S2-  S143  1  0.32203607  0.87098692  0.64059716  1
  S2-  S144  1  0.51855288  0.22332563  0.13920765  1
  S2-  S145  1  0.54861898  0.09481832  0.67345603  1
  S2-  S146  1  0.51245802  0.43947554  0.16714858  1
  S2-  S147  1  0.49131493  0.29671811  0.63150760  1
  S2-  S148  1  0.39597653  0.62552543  0.15521300  1
  S2-  S149  1  0.42169521  0.64694769  0.63613100  1
  S2-  S150  1  0.41513082  0.85559260  0.15695580  1
  S2-  S151  1  0.52051255  0.87566013  0.67079807  1
  S2-  S152  1  0.74732472  0.24128045  0.14186672  1
  S2-  S153  1  0.75806091  0.03980995  0.65333920  1
  S2-  S154  1  0.76190706  0.48606616  0.15251379  1
  S2-  S155  1  0.73362056  0.27154331  0.64096596  1
  S2-  S156  1  0.63074718  0.64239891  0.15487607  1
  S2-  S157  1  0.75962647  0.54282177  0.64045943  1
  S2-  S158  1  0.64325563  0.87681139  0.14899416  1
  S2-  S159  1  0.71201635  0.81307054  0.68227732  1
  S2-  S160  1  0.26689842  0.03038298  0.33430565  1
  S2-  S161  1  0.22710334  -0.00455800  0.86062324  1
  S2-  S162  1  0.09103566  0.15500636  0.34201103  1
  S2-  S163  1  0.13294005  0.24367476  0.85047884  1
  S2-  S164  1  0.21851046  0.49981082  0.34284817  1
  S2-  S165  1  0.22524884  0.49430987  0.85413678  1
  S2-  S166  1  0.12231333  0.84644424  0.34340142  1
  S2-  S167  1  0.14971847  0.73074815  0.85122174  1
  S2-  S168  1  0.37224229  -0.13502671  0.34516725  1
  S2-  S169  1  0.41924930  -0.01337504  0.78204597  1
  S2-  S170  1  0.26128775  0.25839804  0.34023397  1
  S2-  S171  1  0.36471149  0.15734223  0.84970314  1
  S2-  S172  1  0.40329280  0.42244504  0.30446191  1
  S2-  S173  1  0.38051064  0.63570626  0.86008792  1
  S2-  S174  1  0.37250543  0.65395415  0.33900777  1
  S2-  S175  1  0.38305481  0.83240245  0.85680113  1
  S2-  S176  1  0.52614168  0.00439062  0.35956284  1
  S2-  S177  1  0.57565681  -0.03549066  0.85035914  1
  S2-  S178  1  0.51937601  0.24279591  0.35322549  1
  S2-  S179  1  0.55731431  0.24232440  0.83845263  1
  S2-  S180  1  0.56273744  0.54425961  0.32797965  1
  S2-  S181  1  0.54704127  0.50042993  0.86439233  1
  S2-  S182  1  0.59212085  0.76432426  0.34231855  1
  S2-  S183  1  0.62824008  0.74238618  0.84878155  1
  S2-  S184  1  0.95338337  -0.00799565  0.35520266  1
  S2-  S185  1  0.78353144  -0.00492434  0.86470639  1
  S2-  S186  1  0.83947390  0.21022130  0.34942283  1
  S2-  S187  1  0.77256773  0.26078236  0.85883303  1
  S2-  S188  1  0.76368417  0.50947456  0.34924992  1
  S2-  S189  1  0.97422886  0.52583816  0.85260297  1
  S2-  S190  1  0.84596780  0.78453797  0.34907666  1
  S2-  S191  1  0.87425634  0.78376765  0.84497440  1
  S2-  S192  1  0.00088820  0.13054985  0.45465402  1
  S2-  S193  1  0.01666449  0.12640723  0.95853535  1
  S2-  S194  1  0.00215724  0.37754745  0.45005187  1
  S2-  S195  1  0.01282506  0.37591644  0.95060003  1
  S2-  S196  1  -0.00260413  0.63196041  0.45356938  1
  S2-  S197  1  0.01366554  0.63152445  0.95567805  1
  S2-  S198  1  0.00191853  0.88333370  0.46124891  1
  S2-  S199  1  0.01727851  0.87648725  0.95150834  1
  S2-  S200  1  0.24698620  0.12472217  0.44383223  1
  S2-  S201  1  0.25938761  0.13181889  0.96832470  1
  S2-  S202  1  0.25120409  0.38205431  0.44227082  1
  S2-  S203  1  0.26327805  0.37442655  0.95725495  1
  S2-  S204  1  0.24697609  0.63219579  0.44382585  1
  S2-  S205  1  0.26272111  0.62400742  0.96521859  1
  S2-  S206  1  0.24409642  0.88584572  0.44528094  1
  S2-  S207  1  0.26726879  0.87292872  0.96851884  1
  S2-  S208  1  0.49981721  0.13148088  0.45913183  1
  S2-  S209  1  0.51545544  0.11907876  0.94827413  1
  S2-  S210  1  0.50119767  0.38774973  0.43924775  1
  S2-  S211  1  0.51476332  0.36904184  0.95993584  1
  S2-  S212  1  0.50556550  0.63036100  0.44442195  1
  S2-  S213  1  0.51557720  0.62756380  0.96585831  1
  S2-  S214  1  0.50134282  0.87779335  0.45887888  1
  S2-  S215  1  0.51290331  0.87647280  0.96251307  1
  S2-  S216  1  0.75350298  0.13024341  0.46097283  1
  S2-  S217  1  0.76955336  0.12755292  0.95917978  1
  S2-  S218  1  0.75325333  0.37489966  0.45103630  1
  S2-  S219  1  0.76855855  0.38217758  0.95845933  1
  S2-  S220  1  0.75198498  0.63598662  0.44929485  1
  S2-  S221  1  0.76319814  0.62445713  0.96091920  1
  S2-  S222  1  0.75107172  0.88508861  0.45884823  1
  S2-  S223  1  0.76548611  0.87288824  0.96751089  1
  S2-  S224  1  0.13980769  -0.00098464  0.05473702  1
  S2-  S225  1  0.12479804  0.00362362  0.55778394  1
  S2-  S226  1  0.13315111  0.25820676  0.05475044  1
  S2-  S227  1  0.12661624  0.25807759  0.54120062  1
  S2-  S228  1  0.13065847  0.50249481  0.04289670  1
  S2-  S229  1  0.13021191  0.50761036  0.53501535  1
  S2-  S230  1  0.14332497  0.74787164  0.05918232  1
  S2-  S231  1  0.12830357  0.74710850  0.54549109  1
  S2-  S232  1  0.38521206  0.00497364  0.06373459  1
  S2-  S233  1  0.37493241  0.00395710  0.53631092  1
  S2-  S234  1  0.38156496  0.24839134  0.04532872  1
  S2-  S235  1  0.37291520  0.26012390  0.52767067  1
  S2-  S236  1  0.39386056  0.49687128  0.04521941  1
  S2-  S237  1  0.37718610  0.50659147  0.52882470  1
  S2-  S238  1  0.39284247  0.74798790  0.04979878  1
  S2-  S239  1  0.37140881  0.74938125  0.53398411  1
  S2-  S240  1  0.64613303  0.00449242  0.04845403  1
  S2-  S241  1  0.62197874  0.00619478  0.55303441  1
  S2-  S242  1  0.64349424  0.24880728  0.03668084  1
  S2-  S243  1  0.62374673  0.25929989  0.53650060  1
  S2-  S244  1  0.63877058  0.49413296  0.05295706  1
  S2-  S245  1  0.62648372  0.50434328  0.53347308  1
  S2-  S246  1  0.64431780  0.74763627  0.05217519  1
  S2-  S247  1  0.62507031  0.75511909  0.55138868  1
  S2-  S248  1  0.89103382  -0.00013737  0.05152963  1
  S2-  S249  1  0.87652648  0.00876111  0.54841197  1
  S2-  S250  1  0.89532312  0.24897368  0.03924882  1
  S2-  S251  1  0.87627768  0.25809076  0.54660216  1
  S2-  S252  1  0.88986152  0.50515573  0.04366566  1
  S2-  S253  1  0.87369037  0.50250070  0.53429952  1
  S2-  S254  1  0.88568063  0.75025293  0.05302623  1
  S2-  S255  1  0.87181064  0.75217934  0.55129041  1
