# generated using pymatgen
data_La9Ce10Pr6Nd4Sm3(BiS2)32
_symmetry_space_group_name_H-M   'P 1'
_cell_length_a   16.15599261
_cell_length_b   16.13459132
_cell_length_c   27.10402155
_cell_angle_alpha   89.71682408
_cell_angle_beta   89.67593400
_cell_angle_gamma   89.83810292
_symmetry_Int_Tables_number   1
_chemical_formula_structural   La9Ce10Pr6Nd4Sm3(BiS2)32
_chemical_formula_sum   'La18 Ce20 Pr12 Nd8 Sm6 Bi64 S128'
_cell_volume   7064.98751271
_cell_formula_units_Z   2
loop_
 _symmetry_equiv_pos_site_id
 _symmetry_equiv_pos_as_xyz
  1  'x, y, z'
loop_
 _atom_type_symbol
 _atom_type_oxidation_number
  La3+  3.0
  Ce3+  3.0
  Pr3+  3.0
  Nd3+  3.0
  Sm3+  3.0
  Bi2+  2.0
  S2-  -2.0
loop_
 _atom_site_type_symbol
 _atom_site_label
 _atom_site_symmetry_multiplicity
 _atom_site_fract_x
 _atom_site_fract_y
 _atom_site_fract_z
 _atom_site_occupancy
  La3+  La0  1  0.76577631  0.61532786  0.59494586  1
  La3+  La1  1  0.13059036  0.26015041  0.91634478  1
  La3+  La2  1  0.01182171  0.12895751  0.56946952  1
  La3+  La3  1  0.49705830  0.62845180  0.06579489  1
  La3+  La4  1  0.23871457  0.88313955  0.07768380  1
  La3+  La5  1  0.23669977  0.37454364  0.08470685  1
  La3+  La6  1  0.14096871  0.25384160  0.43343545  1
  La3+  La7  1  0.76471676  0.11496786  0.10824276  1
  La3+  La8  1  0.75147328  0.36753731  0.57699188  1
  La3+  La9  1  0.88266504  0.25436419  0.43122117  1
  La3+  La10  1  -0.00906611  0.87326330  0.06593167  1
  La3+  La11  1  0.75653302  0.87679013  0.57297805  1
  La3+  La12  1  0.86816644  0.75895656  0.91505862  1
  La3+  La13  1  0.12379480  0.75492512  0.93007402  1
  La3+  La14  1  0.37570564  0.51759478  0.38239840  1
  La3+  La15  1  0.50918147  0.38113343  0.07770860  1
  La3+  La16  1  0.37071630  0.75619205  0.92796302  1
  La3+  La17  1  0.62431352  0.50043122  0.91827622  1
  Ce3+  Ce18  1  0.00585894  0.37673207  0.55728903  1
  Ce3+  Ce19  1  0.49837123  0.87006523  0.05861805  1
  Ce3+  Ce20  1  0.62984504  0.50117635  0.43778446  1
  Ce3+  Ce21  1  0.25824023  0.37650831  0.55857626  1
  Ce3+  Ce22  1  -0.00802848  0.62844428  0.05144107  1
  Ce3+  Ce23  1  0.87112126  0.00272634  0.93783090  1
  Ce3+  Ce24  1  0.37178442  0.00111420  0.94659340  1
  Ce3+  Ce25  1  0.00143693  0.62199543  0.55411107  1
  Ce3+  Ce26  1  0.25594830  0.62741222  0.56712492  1
  Ce3+  Ce27  1  0.50817674  0.62170889  0.55734652  1
  Ce3+  Ce28  1  0.75985321  0.12590404  0.56160648  1
  Ce3+  Ce29  1  0.12436381  -0.00097491  0.92864705  1
  Ce3+  Ce30  1  0.62154100  0.25555028  0.94147965  1
  Ce3+  Ce31  1  0.74966054  0.62853967  0.04976147  1
  Ce3+  Ce32  1  0.89644186  0.01002944  0.42893889  1
  Ce3+  Ce33  1  0.87115642  0.25152692  0.94244753  1
  Ce3+  Ce34  1  0.37407367  0.25597350  0.94753734  1
  Ce3+  Ce35  1  0.38208646  -0.00029728  0.44819650  1
  Ce3+  Ce36  1  0.38706558  0.25736710  0.43480692  1
  Ce3+  Ce37  1  -0.00196304  0.12739601  0.04706866  1
  Pr3+  Pr38  1  0.50111536  0.13294254  0.07449787  1
  Pr3+  Pr39  1  0.51143741  0.87264458  0.57059376  1
  Pr3+  Pr40  1  0.50515043  0.37920834  0.56155148  1
  Pr3+  Pr41  1  -0.00224082  0.87347983  0.56784150  1
  Pr3+  Pr42  1  0.25973634  0.12210481  0.57427030  1
  Pr3+  Pr43  1  0.24403364  0.62904630  0.06935840  1
  Pr3+  Pr44  1  0.24419494  0.12858972  0.05858601  1
  Pr3+  Pr45  1  0.13472895  0.75122519  0.43970377  1
  Pr3+  Pr46  1  0.62320715  0.00456693  0.94460694  1
  Pr3+  Pr47  1  0.50216225  0.12639507  0.57010937  1
  Pr3+  Pr48  1  0.63364287  0.74980486  0.44563937  1
  Pr3+  Pr49  1  0.74952010  0.37821935  0.06186323  1
  Nd3+  Nd50  1  0.63524296  0.00048929  0.44083980  1
  Nd3+  Nd51  1  0.12502849  0.50112738  0.94677579  1
  Nd3+  Nd52  1  -0.00623957  0.37442417  0.05970576  1
  Nd3+  Nd53  1  0.63154787  0.25156005  0.44099451  1
  Nd3+  Nd54  1  0.74570635  0.86824098  0.06289696  1
  Nd3+  Nd55  1  0.14396105  -0.00180983  0.44044171  1
  Nd3+  Nd56  1  0.24678407  0.86977173  0.58070978  1
  Nd3+  Nd57  1  0.87934309  0.49888274  0.43334283  1
  Sm3+  Sm58  1  0.87270585  0.49770994  0.92683731  1
  Sm3+  Sm59  1  0.13806399  0.50486915  0.44350505  1
  Sm3+  Sm60  1  0.88045686  0.75387552  0.44269671  1
  Sm3+  Sm61  1  0.38262175  0.75157422  0.44756138  1
  Sm3+  Sm62  1  0.37322940  0.50086629  0.95122075  1
  Sm3+  Sm63  1  0.62179267  0.74742535  0.92629915  1
  Bi2+  Bi64  1  -0.01628346  0.13327715  0.23637033  1
  Bi2+  Bi65  1  -0.13545267  0.07479234  0.80209677  1
  Bi2+  Bi66  1  0.02779694  0.39971779  0.28438894  1
  Bi2+  Bi67  1  -0.01650611  0.39296104  0.80328921  1
  Bi2+  Bi68  1  -0.05642368  0.57810658  0.27414023  1
  Bi2+  Bi69  1  0.04781763  0.59815243  0.78478477  1
  Bi2+  Bi70  1  -0.00638876  0.85651256  0.31003933  1
  Bi2+  Bi71  1  -0.00886006  0.92818351  0.77201589  1
  Bi2+  Bi72  1  0.27438968  0.10948046  0.30508752  1
  Bi2+  Bi73  1  0.28625088  0.15698437  0.78087893  1
  Bi2+  Bi74  1  0.23552493  0.34654966  0.28796409  1
  Bi2+  Bi75  1  0.23350346  0.37334626  0.78545321  1
  Bi2+  Bi76  1  0.21826796  0.61230785  0.27823712  1
  Bi2+  Bi77  1  0.28271863  0.60370443  0.79467459  1
  Bi2+  Bi78  1  0.26202707  0.83075812  0.30583549  1
  Bi2+  Bi79  1  0.23830707  0.89669878  0.80386278  1
  Bi2+  Bi80  1  0.46866821  0.10964389  0.30385861  1
  Bi2+  Bi81  1  0.46635049  0.18706825  0.81605386  1
  Bi2+  Bi82  1  0.55223608  0.35453655  0.30755125  1
  Bi2+  Bi83  1  0.47477468  0.39334424  0.78829360  1
  Bi2+  Bi84  1  0.62325890  0.65211624  0.25944793  1
  Bi2+  Bi85  1  0.46253365  0.70483104  0.80241656  1
  Bi2+  Bi86  1  0.46023049  0.83587218  0.30930676  1
  Bi2+  Bi87  1  0.50152571  0.90224733  0.78680599  1
  Bi2+  Bi88  1  0.76813197  0.09954405  0.30177845  1
  Bi2+  Bi89  1  0.65753829  0.13365000  0.80599064  1
  Bi2+  Bi90  1  0.76513201  0.36749900  0.28730898  1
  Bi2+  Bi91  1  0.72470059  0.31064174  0.78271835  1
  Bi2+  Bi92  1  0.75731732  0.55001270  0.31898694  1
  Bi2+  Bi93  1  0.74957815  0.63592653  0.79456438  1
  Bi2+  Bi94  1  0.74519025  0.83505204  0.30201281  1
  Bi2+  Bi95  1  0.75294658  0.90120287  0.77884025  1
  Bi2+  Bi96  1  0.12590911  0.00771685  0.25964679  1
  Bi2+  Bi97  1  0.10848370  0.02028899  0.70142751  1
  Bi2+  Bi98  1  0.15268184  0.16948748  0.18423760  1
  Bi2+  Bi99  1  0.10123229  0.27572749  0.71673940  1
  Bi2+  Bi100  1  0.09748898  0.53662250  0.20403799  1
  Bi2+  Bi101  1  0.17063213  0.53852030  0.69808275  1
  Bi2+  Bi102  1  0.10574110  0.76482767  0.20124954  1
  Bi2+  Bi103  1  0.12809397  0.73488399  0.71407837  1
  Bi2+  Bi104  1  0.38898025  -0.04136425  0.22195726  1
  Bi2+  Bi105  1  0.39026164  0.03281059  0.71372568  1
  Bi2+  Bi106  1  0.37631837  0.16417000  0.20771208  1
  Bi2+  Bi107  1  0.36520250  0.33159849  0.69548196  1
  Bi2+  Bi108  1  0.38706407  0.44376295  0.20093950  1
  Bi2+  Bi109  1  0.37467868  0.52849616  0.70629627  1
  Bi2+  Bi110  1  0.37622390  0.75960465  0.21699365  1
  Bi2+  Bi111  1  0.38336418  0.81287521  0.71050735  1
  Bi2+  Bi112  1  0.58295696  -0.01025237  0.23769216  1
  Bi2+  Bi113  1  0.58152211  0.04163630  0.68675253  1
  Bi2+  Bi114  1  0.61812680  0.23833862  0.21381705  1
  Bi2+  Bi115  1  0.56549708  0.23572235  0.71587793  1
  Bi2+  Bi116  1  0.70916776  0.50198699  0.20475372  1
  Bi2+  Bi117  1  0.63576603  0.49826906  0.70629767  1
  Bi2+  Bi118  1  0.63455763  0.81489879  0.19463417  1
  Bi2+  Bi119  1  0.57220719  0.74885728  0.70804886  1
  Bi2+  Bi120  1  0.88973565  -0.08408769  0.21678847  1
  Bi2+  Bi121  1  0.78069916  0.03662795  0.69342626  1
  Bi2+  Bi122  1  0.93309056  0.32522677  0.19527865  1
  Bi2+  Bi123  1  0.87209353  0.21031784  0.71645689  1
  Bi2+  Bi124  1  0.89494722  0.50399066  0.15819712  1
  Bi2+  Bi125  1  0.93960363  0.48898558  0.70869495  1
  Bi2+  Bi126  1  0.86232744  0.72389376  0.20868911  1
  Bi2+  Bi127  1  0.92949690  0.75987550  0.71984811  1
  S2-  S128  1  -0.05075005  0.10532215  0.14144834  1
  S2-  S129  1  -0.05177054  0.07560687  0.66161632  1
  S2-  S130  1  0.08185939  0.32683735  0.14197628  1
  S2-  S131  1  -0.02459635  0.33965728  0.65285166  1
  S2-  S132  1  -0.01884688  0.72490201  0.13454122  1
  S2-  S133  1  -0.06765969  0.62593463  0.64550691  1
  S2-  S134  1  0.09505050  0.89470240  0.14749361  1
  S2-  S135  1  0.10093913  0.86826723  0.65045539  1
  S2-  S136  1  0.24032709  0.03882343  0.14596555  1
  S2-  S137  1  0.13714836  0.15995221  0.64723805  1
  S2-  S138  1  0.27082237  0.30931350  0.18470415  1
  S2-  S139  1  0.20761511  0.37280240  0.65398360  1
  S2-  S140  1  0.24794723  0.51773946  0.15305714  1
  S2-  S141  1  0.26755136  0.73187353  0.64742960  1
  S2-  S142  1  0.25096485  0.74861969  0.14684288  1
  S2-  S143  1  0.25754050  0.99227120  0.65287950  1
  S2-  S144  1  0.60481203  0.10059820  0.15523904  1
  S2-  S145  1  0.38500485  0.16746483  0.64597592  1
  S2-  S146  1  0.47689998  0.26617015  0.15413991  1
  S2-  S147  1  0.59313874  0.37388740  0.64989351  1
  S2-  S148  1  0.49740814  0.51861337  0.14896344  1
  S2-  S149  1  0.51343497  0.59393264  0.65581129  1
  S2-  S150  1  0.49694998  0.76073799  0.13742022  1
  S2-  S151  1  0.62702516  0.87796618  0.64790237  1
  S2-  S152  1  0.77029439  0.17888739  0.20794313  1
  S2-  S153  1  0.76297786  0.22539948  0.64288047  1
  S2-  S154  1  0.65957999  0.36742113  0.14914810  1
  S2-  S155  1  0.77682141  0.47146187  0.65908747  1
  S2-  S156  1  0.74351965  0.72853705  0.13194860  1
  S2-  S157  1  0.71677247  0.66963078  0.69002754  1
  S2-  S158  1  0.77691677  0.95308944  0.15287663  1
  S2-  S159  1  0.87636346  0.85708799  0.64834992  1
  S2-  S160  1  0.05267984  -0.00706540  0.35476220  1
  S2-  S161  1  0.19317973  0.05061705  0.83899725  1
  S2-  S162  1  0.11719456  0.26716802  0.33221464  1
  S2-  S163  1  0.06366889  0.24721311  0.81867933  1
  S2-  S164  1  0.20430483  0.49783447  0.35144407  1
  S2-  S165  1  0.13378674  0.43738051  0.85403272  1
  S2-  S166  1  0.12290327  0.73644010  0.33792386  1
  S2-  S167  1  0.09232242  0.87340679  0.85243316  1
  S2-  S168  1  0.27896703  -0.02818239  0.37044373  1
  S2-  S169  1  0.37334254  -0.08726976  0.86145791  1
  S2-  S170  1  0.38319304  0.34115929  0.34559295  1
  S2-  S171  1  0.28446766  0.27082222  0.86218511  1
  S2-  S172  1  0.37118780  0.54291100  0.27511035  1
  S2-  S173  1  0.38877529  0.49148681  0.85088493  1
  S2-  S174  1  0.36591515  0.69912386  0.35476959  1
  S2-  S175  1  0.24709169  0.73766298  0.85302502  1
  S2-  S176  1  0.63905185  -0.00602532  0.34054736  1
  S2-  S177  1  0.63007369  -0.03128161  0.84371701  1
  S2-  S178  1  0.67582700  0.23598391  0.34285917  1
  S2-  S179  1  0.60971440  0.35543147  0.85749435  1
  S2-  S180  1  0.54631929  0.50097047  0.34984211  1
  S2-  S181  1  0.59479554  0.62705462  0.84590925  1
  S2-  S182  1  0.60388463  0.74848089  0.34546959  1
  S2-  S183  1  0.72571533  0.77584848  0.84622948  1
  S2-  S184  1  0.84609812  -0.04791391  0.33888037  1
  S2-  S185  1  0.87519285  -0.08760642  0.85320965  1
  S2-  S186  1  0.89505687  0.14437995  0.35319451  1
  S2-  S187  1  0.85590593  0.30256749  0.84817891  1
  S2-  S188  1  0.88956326  0.38026347  0.35628089  1
  S2-  S189  1  0.77318088  0.50528915  0.84667588  1
  S2-  S190  1  0.86786680  0.74244522  0.34376379  1
  S2-  S191  1  0.91308297  0.68734615  0.82001618  1
  S2-  S192  1  0.01966036  0.13006244  0.45727775  1
  S2-  S193  1  -0.00057152  0.12806783  0.93945752  1
  S2-  S194  1  0.01617125  0.38169153  0.45132335  1
  S2-  S195  1  -0.00353152  0.37723862  0.95220076  1
  S2-  S196  1  0.00587473  0.62390224  0.44572009  1
  S2-  S197  1  -0.00295261  0.62348697  0.94204680  1
  S2-  S198  1  0.00691988  0.87232870  0.45773252  1
  S2-  S199  1  -0.00587172  0.87899120  0.95716561  1
  S2-  S200  1  0.26414974  0.12929901  0.45982885  1
  S2-  S201  1  0.25138802  0.12629864  0.95342488  1
  S2-  S202  1  0.26306698  0.38320986  0.45277897  1
  S2-  S203  1  0.24915933  0.38095913  0.96655201  1
  S2-  S204  1  0.26002713  0.62607323  0.45861476  1
  S2-  S205  1  0.24839657  0.62220077  0.95834238  1
  S2-  S206  1  0.25873109  0.86762474  0.47090533  1
  S2-  S207  1  0.24584999  0.88153176  0.96237102  1
  S2-  S208  1  0.50718262  0.12513357  0.45499333  1
  S2-  S209  1  0.49633354  0.12812662  0.96007793  1
  S2-  S210  1  0.50916605  0.37661589  0.45548207  1
  S2-  S211  1  0.49696316  0.37844123  0.96376008  1
  S2-  S212  1  0.50278637  0.62556865  0.45235408  1
  S2-  S213  1  0.49332400  0.62649384  0.95465072  1
  S2-  S214  1  0.50796930  0.87509451  0.45975555  1
  S2-  S215  1  0.50301015  0.87428927  0.95332331  1
  S2-  S216  1  0.75578280  0.12531807  0.45478585  1
  S2-  S217  1  0.74679907  0.13012647  0.94114676  1
  S2-  S218  1  0.75201434  0.37676553  0.45675385  1
  S2-  S219  1  0.74990099  0.37743385  0.95545455  1
  S2-  S220  1  0.75951836  0.62598938  0.44834608  1
  S2-  S221  1  0.75073003  0.62673013  0.94611204  1
  S2-  S222  1  0.75761780  0.87579209  0.45851592  1
  S2-  S223  1  0.74430051  0.87851668  0.95537112  1
  S2-  S224  1  0.11838710  0.00452777  0.03766308  1
  S2-  S225  1  0.13027950  -0.00126148  0.54650392  1
  S2-  S226  1  0.12024268  0.25025463  0.03293901  1
  S2-  S227  1  0.13484437  0.25663685  0.54159132  1
  S2-  S228  1  0.11464432  0.50245841  0.05110114  1
  S2-  S229  1  0.13125697  0.50253873  0.54841107  1
  S2-  S230  1  0.12039064  0.74921223  0.03855192  1
  S2-  S231  1  0.12420086  0.74425356  0.54693294  1
  S2-  S232  1  0.37951964  0.00207135  0.05259490  1
  S2-  S233  1  0.38620334  -0.00553954  0.55286530  1
  S2-  S234  1  0.36869308  0.25319420  0.05258588  1
  S2-  S235  1  0.38301865  0.25538052  0.54072850  1
  S2-  S236  1  0.36840269  0.49883913  0.05305631  1
  S2-  S237  1  0.37871851  0.50256733  0.55931113  1
  S2-  S238  1  0.36788591  0.75465460  0.03873360  1
  S2-  S239  1  0.38814128  0.75007846  0.55164926  1
  S2-  S240  1  0.62279362  -0.00421621  0.05068561  1
  S2-  S241  1  0.63001478  0.00495595  0.54694783  1
  S2-  S242  1  0.63276983  0.24366151  0.04742770  1
  S2-  S243  1  0.62510633  0.24598120  0.54624661  1
  S2-  S244  1  0.62825046  0.50596537  0.03907561  1
  S2-  S245  1  0.63695447  0.50273879  0.54630869  1
  S2-  S246  1  0.62221332  0.74940424  0.03190889  1
  S2-  S247  1  0.63777926  0.74126705  0.55243201  1
  S2-  S248  1  0.86704901  0.00375305  0.04207945  1
  S2-  S249  1  0.88143966  0.00295343  0.54188502  1
  S2-  S250  1  0.86870311  0.24827490  0.05053783  1
  S2-  S251  1  0.88462764  0.25159202  0.54066263  1
  S2-  S252  1  0.87267255  0.50126333  0.03347293  1
  S2-  S253  1  0.87877296  0.49696044  0.54052436  1
  S2-  S254  1  0.87060389  0.75023317  0.02868771  1
  S2-  S255  1  0.87442795  0.74274934  0.54514576  1
