# generated using pymatgen
data_La9Ce10Pr6Nd4Sm3(BiS2)32
_symmetry_space_group_name_H-M   'P 1'
_cell_length_a   16.13890673
_cell_length_b   16.22122246
_cell_length_c   27.13138619
_cell_angle_alpha   89.79519945
_cell_angle_beta   89.98864414
_cell_angle_gamma   89.98331411
_symmetry_Int_Tables_number   1
_chemical_formula_structural   La9Ce10Pr6Nd4Sm3(BiS2)32
_chemical_formula_sum   'La18 Ce20 Pr12 Nd8 Sm6 Bi64 S128'
_cell_volume   7102.75564418
_cell_formula_units_Z   2
loop_
 _symmetry_equiv_pos_site_id
 _symmetry_equiv_pos_as_xyz
  1  'x, y, z'
loop_
 _atom_type_symbol
 _atom_type_oxidation_number
  La3+  3.0
  Ce3+  3.0
  Pr3+  3.0
  Nd3+  3.0
  Sm3+  3.0
  Bi2+  2.0
  S2-  -2.0
loop_
 _atom_site_type_symbol
 _atom_site_label
 _atom_site_symmetry_multiplicity
 _atom_site_fract_x
 _atom_site_fract_y
 _atom_site_fract_z
 _atom_site_occupancy
  La3+  La0  1  0.23688462  0.62202637  0.57336354  1
  La3+  La1  1  0.24363963  0.88071596  0.56518668  1
  La3+  La2  1  0.73933326  0.11688241  0.58672005  1
  La3+  La3  1  0.73182430  0.38597521  0.58452658  1
  La3+  La4  1  0.51081648  0.36481451  0.07646928  1
  La3+  La5  1  0.86148882  0.49929083  0.42197074  1
  La3+  La6  1  0.36600007  0.50826473  0.41005807  1
  La3+  La7  1  0.87242746  -0.00308539  0.91786117  1
  La3+  La8  1  0.50119254  0.61188256  0.07438633  1
  La3+  La9  1  0.87765744  0.75028631  0.42192396  1
  La3+  La10  1  0.25070850  0.35664736  0.07521907  1
  La3+  La11  1  0.49312671  0.63016853  0.58085949  1
  La3+  La12  1  -0.00837421  0.62199688  0.56219603  1
  La3+  La13  1  0.63094850  0.25400671  0.43498607  1
  La3+  La14  1  0.50234476  0.85981935  0.07481164  1
  La3+  La15  1  0.87752955  0.24923484  0.91171859  1
  La3+  La16  1  -0.00021214  0.36788997  0.57454670  1
  La3+  La17  1  -0.00386316  0.11758891  0.57176034  1
  Ce3+  Ce18  1  0.25243689  0.61669502  0.06117129  1
  Ce3+  Ce19  1  0.75624861  0.61418936  0.05747500  1
  Ce3+  Ce20  1  0.37720255  0.24323057  0.93785064  1
  Ce3+  Ce21  1  0.24871231  0.12714413  0.54815650  1
  Ce3+  Ce22  1  -0.01174019  0.87782719  0.56383755  1
  Ce3+  Ce23  1  0.61527951  0.50340174  0.43707306  1
  Ce3+  Ce24  1  0.74639918  0.87391970  0.55836450  1
  Ce3+  Ce25  1  0.37633624  0.49163314  0.94731135  1
  Ce3+  Ce26  1  0.49358260  0.37790532  0.55386380  1
  Ce3+  Ce27  1  0.12621215  -0.00831533  0.93673603  1
  Ce3+  Ce28  1  0.11628733  0.25285979  0.43996228  1
  Ce3+  Ce29  1  0.87676985  0.74326555  0.94005027  1
  Ce3+  Ce30  1  0.49680433  0.12975875  0.56188455  1
  Ce3+  Ce31  1  0.12950070  0.74457742  0.94101495  1
  Ce3+  Ce32  1  0.37847324  -0.00664122  0.94954495  1
  Ce3+  Ce33  1  0.62710177  0.24374978  0.93546403  1
  Ce3+  Ce34  1  0.11440184  0.49377953  0.42779266  1
  Ce3+  Ce35  1  0.11176804  0.00220514  0.43404720  1
  Ce3+  Ce36  1  0.13097999  0.49250479  0.94789383  1
  Ce3+  Ce37  1  0.37305743  0.00190385  0.43511902  1
  Pr3+  Pr38  1  0.86379161  0.24984374  0.45799131  1
  Pr3+  Pr39  1  0.36658340  0.75093246  0.44574109  1
  Pr3+  Pr40  1  0.61505289  0.00025013  0.43832223  1
  Pr3+  Pr41  1  0.00145008  0.87008421  0.05624888  1
  Pr3+  Pr42  1  -0.00134287  0.11935886  0.05827977  1
  Pr3+  Pr43  1  0.62213038  -0.00804040  0.93511705  1
  Pr3+  Pr44  1  0.12978660  0.24206493  0.92867753  1
  Pr3+  Pr45  1  0.75934900  0.36722385  0.05847275  1
  Pr3+  Pr46  1  0.61334452  0.74867143  0.44403609  1
  Pr3+  Pr47  1  0.87594869  0.49592221  0.92378305  1
  Pr3+  Pr48  1  0.75351598  0.86911738  0.05630467  1
  Pr3+  Pr49  1  0.75325222  0.11839643  0.05774155  1
  Nd3+  Nd50  1  0.00285331  0.61718381  0.05418018  1
  Nd3+  Nd51  1  0.62164181  0.49448629  0.93717180  1
  Nd3+  Nd52  1  0.86079090  -0.00108643  0.42683627  1
  Nd3+  Nd53  1  0.48759718  0.87854179  0.57453347  1
  Nd3+  Nd54  1  0.50859528  0.11991749  0.07230368  1
  Nd3+  Nd55  1  0.62428693  0.74200061  0.94408677  1
  Nd3+  Nd56  1  0.74733968  0.62724048  0.55836707  1
  Nd3+  Nd57  1  0.37490629  0.25443036  0.42661019  1
  Sm3+  Sm58  1  0.11904341  0.74854894  0.44708921  1
  Sm3+  Sm59  1  0.25253739  0.86931184  0.06140537  1
  Sm3+  Sm60  1  -0.00205520  0.36508346  0.05219785  1
  Sm3+  Sm61  1  0.24652867  0.37578610  0.55229537  1
  Sm3+  Sm62  1  0.37851474  0.74509017  0.94129754  1
  Sm3+  Sm63  1  0.25230061  0.11799461  0.05910656  1
  Bi2+  Bi64  1  0.02122041  0.14355714  0.28919608  1
  Bi2+  Bi65  1  0.01458521  0.08883214  0.79238355  1
  Bi2+  Bi66  1  -0.00747163  0.34819922  0.27921065  1
  Bi2+  Bi67  1  0.02922004  0.40203634  0.80190891  1
  Bi2+  Bi68  1  -0.00801694  0.62065658  0.29302529  1
  Bi2+  Bi69  1  -0.00091032  0.60434499  0.78004304  1
  Bi2+  Bi70  1  -0.03090428  0.89057776  0.28738487  1
  Bi2+  Bi71  1  0.00643727  0.80347129  0.78149533  1
  Bi2+  Bi72  1  0.23712628  0.14298360  0.29036531  1
  Bi2+  Bi73  1  0.29641744  0.13186283  0.77695622  1
  Bi2+  Bi74  1  0.22581901  0.39860227  0.28575406  1
  Bi2+  Bi75  1  0.26807893  0.35198176  0.78283074  1
  Bi2+  Bi76  1  0.22588376  0.61881243  0.25719138  1
  Bi2+  Bi77  1  0.28171932  0.55412866  0.78807757  1
  Bi2+  Bi78  1  0.22843854  0.94861978  0.29022835  1
  Bi2+  Bi79  1  0.23306644  0.89771431  0.79838277  1
  Bi2+  Bi80  1  0.42964902  0.13201477  0.31458191  1
  Bi2+  Bi81  1  0.48090290  0.16340633  0.81715571  1
  Bi2+  Bi82  1  0.50619233  0.38617097  0.29039254  1
  Bi2+  Bi83  1  0.47147571  0.35546362  0.79726141  1
  Bi2+  Bi84  1  0.51658932  0.67036334  0.29301971  1
  Bi2+  Bi85  1  0.51760454  0.64047746  0.81196398  1
  Bi2+  Bi86  1  0.40375426  0.86737573  0.30036263  1
  Bi2+  Bi87  1  0.50473398  0.88894620  0.79950619  1
  Bi2+  Bi88  1  0.80160271  0.14931839  0.29157628  1
  Bi2+  Bi89  1  0.74888207  0.12524164  0.77055629  1
  Bi2+  Bi90  1  0.76979957  0.37829887  0.28683183  1
  Bi2+  Bi91  1  0.72630381  0.37781677  0.78778601  1
  Bi2+  Bi92  1  0.77032053  0.65762737  0.25175355  1
  Bi2+  Bi93  1  0.80106066  0.60894574  0.80073018  1
  Bi2+  Bi94  1  0.70448711  0.90772640  0.29138966  1
  Bi2+  Bi95  1  0.76796432  0.88834326  0.78721336  1
  Bi2+  Bi96  1  0.06407193  0.04012268  0.19257530  1
  Bi2+  Bi97  1  0.18199997  -0.06976389  0.69316733  1
  Bi2+  Bi98  1  0.06421251  0.23601527  0.18705611  1
  Bi2+  Bi99  1  0.16443641  0.22824657  0.70551990  1
  Bi2+  Bi100  1  0.08488805  0.49044353  0.21715377  1
  Bi2+  Bi101  1  0.12807265  0.48620592  0.71210069  1
  Bi2+  Bi102  1  0.13155134  0.78501368  0.26615503  1
  Bi2+  Bi103  1  0.14106609  0.74395757  0.70572536  1
  Bi2+  Bi104  1  0.37117448  0.04765349  0.21766489  1
  Bi2+  Bi105  1  0.44924449  0.03045848  0.72570096  1
  Bi2+  Bi106  1  0.34449434  0.25114541  0.21397608  1
  Bi2+  Bi107  1  0.35991847  0.18448492  0.66984464  1
  Bi2+  Bi108  1  0.38358392  0.52087678  0.22013682  1
  Bi2+  Bi109  1  0.37650442  0.45085409  0.70916931  1
  Bi2+  Bi110  1  0.36641864  0.78469417  0.19986205  1
  Bi2+  Bi111  1  0.38641630  0.78222473  0.71667396  1
  Bi2+  Bi112  1  0.58245839  0.03860521  0.23527118  1
  Bi2+  Bi113  1  0.60848334  -0.09861440  0.70121601  1
  Bi2+  Bi114  1  0.60876434  0.22302566  0.21033359  1
  Bi2+  Bi115  1  0.54466490  0.23994947  0.71309064  1
  Bi2+  Bi116  1  0.63854241  0.46786096  0.21755298  1
  Bi2+  Bi117  1  0.61042618  0.48570198  0.71619747  1
  Bi2+  Bi118  1  0.63251174  0.80038862  0.20726125  1
  Bi2+  Bi119  1  0.71823875  0.73573485  0.72310779  1
  Bi2+  Bi120  1  0.87170112  0.02393389  0.21544795  1
  Bi2+  Bi121  1  0.88962398  -0.08535825  0.69893374  1
  Bi2+  Bi122  1  0.85124673  0.26340617  0.20124353  1
  Bi2+  Bi123  1  0.90912527  0.28030446  0.71645648  1
  Bi2+  Bi124  1  0.89027919  0.52486822  0.19331586  1
  Bi2+  Bi125  1  0.86668560  0.54801280  0.69952051  1
  Bi2+  Bi126  1  0.88966821  0.77674124  0.19432676  1
  Bi2+  Bi127  1  0.87126484  0.74030414  0.64929896  1
  S2-  S128  1  -0.12446188  0.12547317  0.13276314  1
  S2-  S129  1  0.01929004  0.22824555  0.64996830  1
  S2-  S130  1  -0.10891967  0.38093180  0.12992855  1
  S2-  S131  1  -0.02852158  0.42884048  0.67016671  1
  S2-  S132  1  -0.00953762  0.64283407  0.15275829  1
  S2-  S133  1  0.10085036  0.60904048  0.64355961  1
  S2-  S134  1  0.01370191  0.88031695  0.15661057  1
  S2-  S135  1  0.01003594  0.98299758  0.64330240  1
  S2-  S136  1  0.22629611  0.21125079  0.14011845  1
  S2-  S137  1  0.21000159  0.08909782  0.64275262  1
  S2-  S138  1  0.29459438  0.40632443  0.17237066  1
  S2-  S139  1  0.19086774  0.36915572  0.64707027  1
  S2-  S140  1  0.29085742  0.64159909  0.15580110  1
  S2-  S141  1  0.29268715  0.68376990  0.66620486  1
  S2-  S142  1  0.26156517  0.88480145  0.15936002  1
  S2-  S143  1  0.34894794  0.90215327  0.64808201  1
  S2-  S144  1  0.47540223  0.23975221  0.14758434  1
  S2-  S145  1  0.59158324  0.12786553  0.64552395  1
  S2-  S146  1  0.50390701  0.49220552  0.15124123  1
  S2-  S147  1  0.57123241  0.37165581  0.64225308  1
  S2-  S148  1  0.51582708  0.72027502  0.15391454  1
  S2-  S149  1  0.48620268  0.57181800  0.68154362  1
  S2-  S150  1  0.52649999  0.92262474  0.16822890  1
  S2-  S151  1  0.51541396  0.76710232  0.65186638  1
  S2-  S152  1  0.64458797  0.10753291  0.14167411  1
  S2-  S153  1  0.81870379  0.14037221  0.68559271  1
  S2-  S154  1  0.66030510  0.35112907  0.14505315  1
  S2-  S155  1  0.77043249  0.34323589  0.68704350  1
  S2-  S156  1  0.73195690  0.58618416  0.15420345  1
  S2-  S157  1  0.71203362  0.54509063  0.64600179  1
  S2-  S158  1  0.77177830  0.87931135  0.15698062  1
  S2-  S159  1  0.74080934  0.95967964  0.64385291  1
  S2-  S160  1  -0.00242691  0.01378788  0.35907044  1
  S2-  S161  1  0.15435954  0.03835901  0.84294722  1
  S2-  S162  1  0.12439388  0.32203960  0.35023948  1
  S2-  S163  1  0.03294874  0.24534348  0.84216678  1
  S2-  S164  1  0.22181758  0.53311384  0.35131782  1
  S2-  S165  1  0.16491266  0.48826840  0.85170875  1
  S2-  S166  1  0.04542898  0.75534998  0.35734846  1
  S2-  S167  1  0.14983401  0.77030270  0.84371901  1
  S2-  S168  1  0.48907342  -0.01614850  0.36221241  1
  S2-  S169  1  0.37646173  -0.04864677  0.85396080  1
  S2-  S170  1  0.36301999  0.36332472  0.34536638  1
  S2-  S171  1  0.26524047  0.24324007  0.86126894  1
  S2-  S172  1  0.51188171  0.52896762  0.35243928  1
  S2-  S173  1  0.42035577  0.50734984  0.85186889  1
  S2-  S174  1  0.37934506  0.70899284  0.34669097  1
  S2-  S175  1  0.39129700  0.72481072  0.84253521  1
  S2-  S176  1  0.72270536  0.03409284  0.35791079  1
  S2-  S177  1  0.68982869  0.00335051  0.84095917  1
  S2-  S178  1  0.54945929  0.24992740  0.34317865  1
  S2-  S179  1  0.70134533  0.24760754  0.84396166  1
  S2-  S180  1  0.71915307  0.47120240  0.35952596  1
  S2-  S181  1  0.64866451  0.52083726  0.83741815  1
  S2-  S182  1  0.61560310  0.77217613  0.34171593  1
  S2-  S183  1  0.60886074  0.76274674  0.84482032  1
  S2-  S184  1  0.84272378  -0.13171643  0.34805470  1
  S2-  S185  1  0.96845157  -0.04914836  0.83329621  1
  S2-  S186  1  0.78051114  0.25955960  0.36743442  1
  S2-  S187  1  0.87078023  0.12211931  0.84127995  1
  S2-  S188  1  0.99316726  0.48985669  0.35278277  1
  S2-  S189  1  0.86945199  0.38881702  0.84275442  1
  S2-  S190  1  0.84574418  0.63797550  0.34307980  1
  S2-  S191  1  0.85246447  0.75816783  0.84383714  1
  S2-  S192  1  -0.00764262  0.12988801  0.46003492  1
  S2-  S193  1  0.00383497  0.11489466  0.94994793  1
  S2-  S194  1  -0.01029363  0.37159899  0.46074166  1
  S2-  S195  1  0.00411219  0.37371974  0.94892705  1
  S2-  S196  1  -0.00316247  0.62228853  0.45565831  1
  S2-  S197  1  0.00453077  0.61871491  0.94572379  1
  S2-  S198  1  -0.00437460  0.87683272  0.45766075  1
  S2-  S199  1  0.00255899  0.86594285  0.94926618  1
  S2-  S200  1  0.24449145  0.12731001  0.44036749  1
  S2-  S201  1  0.25321625  0.11396261  0.95666497  1
  S2-  S202  1  0.24747238  0.37562154  0.45068534  1
  S2-  S203  1  0.25330599  0.36892918  0.96225006  1
  S2-  S204  1  0.24204915  0.62663674  0.46108070  1
  S2-  S205  1  0.25504566  0.62110526  0.95386486  1
  S2-  S206  1  0.24078504  0.87690314  0.44960554  1
  S2-  S207  1  0.25421459  0.86783822  0.95576209  1
  S2-  S208  1  0.49445960  0.13196157  0.45547030  1
  S2-  S209  1  0.50218102  0.11796988  0.95793868  1
  S2-  S210  1  0.49260482  0.37882063  0.45040369  1
  S2-  S211  1  0.50234688  0.36780345  0.95529036  1
  S2-  S212  1  0.48682374  0.62604960  0.46364737  1
  S2-  S213  1  0.49907829  0.62023491  0.96170600  1
  S2-  S214  1  0.49018584  0.87236711  0.46491275  1
  S2-  S215  1  0.50081294  0.86550014  0.96083671  1
  S2-  S216  1  0.74283479  0.12120404  0.46910548  1
  S2-  S217  1  0.74751737  0.11672556  0.95068313  1
  S2-  S218  1  0.74371833  0.38191010  0.47067763  1
  S2-  S219  1  0.74839969  0.37407219  0.94979332  1
  S2-  S220  1  0.74250684  0.62885481  0.45344434  1
  S2-  S221  1  0.75016553  0.61812889  0.94953695  1
  S2-  S222  1  0.73902048  0.87264578  0.45408128  1
  S2-  S223  1  0.74990617  0.86721573  0.94914005  1
  S2-  S224  1  0.12966538  -0.00511790  0.04683670  1
  S2-  S225  1  0.12222451  0.00110880  0.53716949  1
  S2-  S226  1  0.12117725  0.24287450  0.03716195  1
  S2-  S227  1  0.12520557  0.24775371  0.54312799  1
  S2-  S228  1  0.12446357  0.48831361  0.05603355  1
  S2-  S229  1  0.11878799  0.49277685  0.53989870  1
  S2-  S230  1  0.12894309  0.74465082  0.04985375  1
  S2-  S231  1  0.11679083  0.75692800  0.55083402  1
  S2-  S232  1  0.37772289  -0.00484757  0.05663585  1
  S2-  S233  1  0.37163114  0.00554335  0.54139846  1
  S2-  S234  1  0.37757625  0.23811057  0.04332689  1
  S2-  S235  1  0.37004194  0.25382672  0.53701517  1
  S2-  S236  1  0.37263268  0.48782165  0.05200150  1
  S2-  S237  1  0.36634621  0.49971319  0.56090130  1
  S2-  S238  1  0.37320622  0.74378321  0.04770719  1
  S2-  S239  1  0.36499127  0.75073959  0.55119712  1
  S2-  S240  1  0.62395087  -0.01198911  0.04276637  1
  S2-  S241  1  0.61085781  -0.00427994  0.54575088  1
  S2-  S242  1  0.62917177  0.24261003  0.03953113  1
  S2-  S243  1  0.61866912  0.25207084  0.54427870  1
  S2-  S244  1  0.63084600  0.49336204  0.04319475  1
  S2-  S245  1  0.61070865  0.50889971  0.54375482  1
  S2-  S246  1  0.63241990  0.74002375  0.04984468  1
  S2-  S247  1  0.62190545  0.75131141  0.55072089  1
  S2-  S248  1  0.87733544  -0.00893316  0.03460905  1
  S2-  S249  1  0.86777246  -0.00166166  0.54172182  1
  S2-  S250  1  0.87935452  0.24495525  0.02730188  1
  S2-  S251  1  0.86178801  0.24909626  0.56304450  1
  S2-  S252  1  0.88129906  0.49693507  0.03156342  1
  S2-  S253  1  0.86850314  0.49819000  0.55220908  1
  S2-  S254  1  0.87850127  0.74221784  0.04622702  1
  S2-  S255  1  0.87021145  0.75109484  0.53427768  1
