# generated using pymatgen
data_La9Ce10Pr6Nd4Sm3(BiS2)32
_symmetry_space_group_name_H-M   'P 1'
_cell_length_a   16.13776947
_cell_length_b   16.11977057
_cell_length_c   27.34734502
_cell_angle_alpha   89.72348518
_cell_angle_beta   89.75405172
_cell_angle_gamma   89.89564372
_symmetry_Int_Tables_number   1
_chemical_formula_structural   La9Ce10Pr6Nd4Sm3(BiS2)32
_chemical_formula_sum   'La18 Ce20 Pr12 Nd8 Sm6 Bi64 S128'
_cell_volume   7113.90023370
_cell_formula_units_Z   2
loop_
 _symmetry_equiv_pos_site_id
 _symmetry_equiv_pos_as_xyz
  1  'x, y, z'
loop_
 _atom_type_symbol
 _atom_type_oxidation_number
  La3+  3.0
  Ce3+  3.0
  Pr3+  3.0
  Nd3+  3.0
  Sm3+  3.0
  Bi2+  2.0
  S2-  -2.0
loop_
 _atom_site_type_symbol
 _atom_site_label
 _atom_site_symmetry_multiplicity
 _atom_site_fract_x
 _atom_site_fract_y
 _atom_site_fract_z
 _atom_site_occupancy
  La3+  La0  1  0.37287858  0.49476139  0.42103358  1
  La3+  La1  1  0.62883536  0.75160181  0.42632313  1
  La3+  La2  1  0.11373757  0.25250213  0.42177606  1
  La3+  La3  1  0.88183120  0.00269219  0.93803875  1
  La3+  La4  1  0.51502432  0.36485869  0.09175752  1
  La3+  La5  1  0.11636730  0.00202591  0.44550388  1
  La3+  La6  1  0.25428449  0.62395557  0.07941386  1
  La3+  La7  1  -0.00973438  0.85949601  0.57994896  1
  La3+  La8  1  0.88626339  0.50391940  0.92331237  1
  La3+  La9  1  0.51717338  0.63016747  0.10366118  1
  La3+  La10  1  0.00495335  0.37700824  0.06284996  1
  La3+  La11  1  0.25779482  0.37462866  0.07240419  1
  La3+  La12  1  0.24401491  0.11955626  0.59864112  1
  La3+  La13  1  0.74951740  0.12908909  0.06287160  1
  La3+  La14  1  0.50345851  0.87447401  0.06218874  1
  La3+  La15  1  0.87748235  0.75417436  0.43311723  1
  La3+  La16  1  0.63860829  0.24594203  0.90542394  1
  La3+  La17  1  -0.00579649  0.12725409  0.57669082  1
  Ce3+  Ce18  1  0.49038579  0.37491979  0.56042544  1
  Ce3+  Ce19  1  0.38366567  0.74611886  0.94095507  1
  Ce3+  Ce20  1  0.13382760  0.74871816  0.93612496  1
  Ce3+  Ce21  1  0.73614424  0.12293482  0.57971584  1
  Ce3+  Ce22  1  0.74401055  0.87661336  0.56599569  1
  Ce3+  Ce23  1  0.24301697  0.61578598  0.56339398  1
  Ce3+  Ce24  1  0.24404461  0.87396116  0.56174885  1
  Ce3+  Ce25  1  0.13422419  0.25230442  0.94044286  1
  Ce3+  Ce26  1  0.86939721  0.24317145  0.44012119  1
  Ce3+  Ce27  1  0.12585529  0.49853175  0.42993428  1
  Ce3+  Ce28  1  0.62951259  0.00151257  0.93487820  1
  Ce3+  Ce29  1  0.49486010  0.62116631  0.55411223  1
  Ce3+  Ce30  1  0.36758867  0.00585982  0.44215794  1
  Ce3+  Ce31  1  0.62759703  0.75119806  0.93289702  1
  Ce3+  Ce32  1  0.88290145  0.25174609  0.93997197  1
  Ce3+  Ce33  1  0.86266211  0.49777232  0.43406894  1
  Ce3+  Ce34  1  0.73982987  0.37291986  0.55642859  1
  Ce3+  Ce35  1  0.61930549  0.00482070  0.44676426  1
  Ce3+  Ce36  1  0.86978558  0.00299789  0.45463411  1
  Ce3+  Ce37  1  0.74753725  0.38164731  0.05094992  1
  Pr3+  Pr38  1  0.12041612  0.74778891  0.43982842  1
  Pr3+  Pr39  1  0.49118984  0.87416808  0.55480136  1
  Pr3+  Pr40  1  0.37631526  0.26318585  0.92319861  1
  Pr3+  Pr41  1  0.13315950  0.00355388  0.93539934  1
  Pr3+  Pr42  1  -0.00764410  0.37315614  0.55603779  1
  Pr3+  Pr43  1  0.00719947  0.87402993  0.05998226  1
  Pr3+  Pr44  1  0.39098094  0.49705302  0.95307655  1
  Pr3+  Pr45  1  0.25943494  0.12753260  0.06725854  1
  Pr3+  Pr46  1  0.73486967  0.62355547  0.56692409  1
  Pr3+  Pr47  1  0.00772823  0.12295079  0.06039097  1
  Pr3+  Pr48  1  0.63489748  0.50006470  0.92115505  1
  Pr3+  Pr49  1  0.24061831  0.37215854  0.56302791  1
  Nd3+  Nd50  1  0.75337884  0.87145198  0.05378484  1
  Nd3+  Nd51  1  0.61909140  0.24400865  0.44187430  1
  Nd3+  Nd52  1  0.13403887  0.50054907  0.93373523  1
  Nd3+  Nd53  1  0.37023367  0.74834806  0.44026985  1
  Nd3+  Nd54  1  0.61995816  0.49238158  0.42838677  1
  Nd3+  Nd55  1  0.50491702  0.13053668  0.04755924  1
  Nd3+  Nd56  1  0.38185030  0.00570533  0.93299521  1
  Nd3+  Nd57  1  0.49025781  0.12653748  0.57710705  1
  Sm3+  Sm58  1  -0.01008772  0.61938008  0.55190227  1
  Sm3+  Sm59  1  0.00610024  0.62570930  0.05953404  1
  Sm3+  Sm60  1  0.88312088  0.75188869  0.94198107  1
  Sm3+  Sm61  1  0.75021766  0.62399368  0.04830238  1
  Sm3+  Sm62  1  0.36645995  0.24769894  0.44072852  1
  Sm3+  Sm63  1  0.25777986  0.87511163  0.04662729  1
  Bi2+  Bi64  1  0.01505531  0.07679560  0.29688670  1
  Bi2+  Bi65  1  0.00847705  0.09044898  0.79727046  1
  Bi2+  Bi66  1  -0.05387462  0.45901625  0.30724762  1
  Bi2+  Bi67  1  0.01142598  0.27585596  0.82631425  1
  Bi2+  Bi68  1  0.02381847  0.64278207  0.28711603  1
  Bi2+  Bi69  1  -0.09074064  0.57454761  0.79416393  1
  Bi2+  Bi70  1  -0.08991455  0.83934908  0.29151932  1
  Bi2+  Bi71  1  -0.01408707  0.85128677  0.79962891  1
  Bi2+  Bi72  1  0.26045230  0.08791174  0.28493131  1
  Bi2+  Bi73  1  0.28463039  0.11629692  0.79652001  1
  Bi2+  Bi74  1  0.23883861  0.37366299  0.29995861  1
  Bi2+  Bi75  1  0.17787439  0.37797008  0.79600609  1
  Bi2+  Bi76  1  0.21764092  0.68139772  0.30186696  1
  Bi2+  Bi77  1  0.27007211  0.54825846  0.81331101  1
  Bi2+  Bi78  1  0.21613492  0.87153191  0.28147274  1
  Bi2+  Bi79  1  0.28623497  0.81374118  0.77740208  1
  Bi2+  Bi80  1  0.51638732  0.14441962  0.28430846  1
  Bi2+  Bi81  1  0.52506140  0.12201752  0.77585636  1
  Bi2+  Bi82  1  0.50003105  0.38959129  0.28868557  1
  Bi2+  Bi83  1  0.49052217  0.39905770  0.79379564  1
  Bi2+  Bi84  1  0.50953752  0.66104051  0.28961057  1
  Bi2+  Bi85  1  0.43938550  0.65609634  0.76988487  1
  Bi2+  Bi86  1  0.46146286  0.95610861  0.26674464  1
  Bi2+  Bi87  1  0.56733266  0.86311533  0.81215558  1
  Bi2+  Bi88  1  0.76681104  0.17608405  0.31853245  1
  Bi2+  Bi89  1  0.78153041  0.10933544  0.78750682  1
  Bi2+  Bi90  1  0.75037745  0.37056461  0.29770878  1
  Bi2+  Bi91  1  0.86270097  0.32649899  0.75905304  1
  Bi2+  Bi92  1  0.76061244  0.64446314  0.28303478  1
  Bi2+  Bi93  1  0.68771496  0.58044604  0.77621916  1
  Bi2+  Bi94  1  0.66415646  0.92828650  0.28064904  1
  Bi2+  Bi95  1  0.73571981  0.83950948  0.76395518  1
  Bi2+  Bi96  1  0.12076164  0.05263706  0.18397466  1
  Bi2+  Bi97  1  0.13946475  -0.01320563  0.72712845  1
  Bi2+  Bi98  1  0.11072579  0.24070283  0.20783306  1
  Bi2+  Bi99  1  0.10823121  0.24172475  0.72216248  1
  Bi2+  Bi100  1  0.10765067  0.51694004  0.21084480  1
  Bi2+  Bi101  1  0.09931315  0.49070654  0.71144690  1
  Bi2+  Bi102  1  0.11846615  0.78918179  0.20056851  1
  Bi2+  Bi103  1  0.14735237  0.66704962  0.75604131  1
  Bi2+  Bi104  1  0.31862563  0.01809401  0.18281183  1
  Bi2+  Bi105  1  0.38106513  -0.04901253  0.71784671  1
  Bi2+  Bi106  1  0.38496335  0.21986081  0.21059230  1
  Bi2+  Bi107  1  0.35821655  0.25729872  0.71528837  1
  Bi2+  Bi108  1  0.35858295  0.52854347  0.21962950  1
  Bi2+  Bi109  1  0.36145052  0.52735053  0.69975560  1
  Bi2+  Bi110  1  0.38302567  0.80436040  0.21145531  1
  Bi2+  Bi111  1  0.29191390  0.71114456  0.68101600  1
  Bi2+  Bi112  1  0.59135998  0.03653417  0.19177058  1
  Bi2+  Bi113  1  0.61684917  -0.00515055  0.71319531  1
  Bi2+  Bi114  1  0.65060151  0.22969066  0.20954325  1
  Bi2+  Bi115  1  0.68342267  0.26083027  0.71903464  1
  Bi2+  Bi116  1  0.69304646  0.50532382  0.21038445  1
  Bi2+  Bi117  1  0.56768681  0.47655038  0.69022357  1
  Bi2+  Bi118  1  0.67668828  0.77753961  0.20409967  1
  Bi2+  Bi119  1  0.57992683  0.75635312  0.71252367  1
  Bi2+  Bi120  1  0.84056294  0.01576782  0.26205226  1
  Bi2+  Bi121  1  0.88494788  -0.03281969  0.69862016  1
  Bi2+  Bi122  1  0.91293970  0.27513902  0.26637663  1
  Bi2+  Bi123  1  0.86522757  0.16634587  0.68799514  1
  Bi2+  Bi124  1  0.89453091  0.53556178  0.20340689  1
  Bi2+  Bi125  1  0.90650912  0.47794329  0.69157924  1
  Bi2+  Bi126  1  0.87926202  0.73316091  0.19905673  1
  Bi2+  Bi127  1  0.90008051  0.70803691  0.70794758  1
  S2-  S128  1  -0.01232994  0.15869944  0.15778924  1
  S2-  S129  1  0.09731749  0.11032243  0.65950797  1
  S2-  S130  1  0.05507345  0.37962401  0.15890236  1
  S2-  S131  1  0.02386575  0.35783408  0.65504068  1
  S2-  S132  1  0.10329723  0.64516911  0.14059083  1
  S2-  S133  1  0.01786872  0.66385517  0.64456993  1
  S2-  S134  1  0.02420010  0.90638720  0.15798176  1
  S2-  S135  1  0.04154768  0.88769894  0.67991054  1
  S2-  S136  1  0.25503863  0.24455300  0.14520316  1
  S2-  S137  1  0.38663349  0.11944270  0.66141020  1
  S2-  S138  1  0.24504350  0.48630848  0.15095293  1
  S2-  S139  1  0.24020392  0.27583960  0.65137643  1
  S2-  S140  1  0.36138084  0.65982302  0.15806539  1
  S2-  S141  1  0.22763634  0.49900003  0.63730491  1
  S2-  S142  1  0.26036328  0.85893393  0.14372445  1
  S2-  S143  1  0.25474691  0.95171034  0.65067274  1
  S2-  S144  1  0.51266989  0.19831778  0.13959461  1
  S2-  S145  1  0.60878826  0.14285389  0.65323538  1
  S2-  S146  1  0.43039926  0.37949040  0.18427790  1
  S2-  S147  1  0.47776410  0.34226967  0.65784175  1
  S2-  S148  1  0.52490052  0.55995035  0.20206752  1
  S2-  S149  1  0.58577121  0.62818891  0.63696008  1
  S2-  S150  1  0.52144838  0.79511199  0.15146614  1
  S2-  S151  1  0.49296226  0.88480787  0.65616213  1
  S2-  S152  1  0.74451317  0.11592288  0.16279014  1
  S2-  S153  1  0.73752464  -0.01308396  0.64547935  1
  S2-  S154  1  0.67466223  0.36972984  0.14150751  1
  S2-  S155  1  0.70783633  0.39051768  0.65303076  1
  S2-  S156  1  0.68673738  0.62983901  0.13979511  1
  S2-  S157  1  0.79630127  0.60643640  0.66331017  1
  S2-  S158  1  0.78431777  0.86606919  0.15110418  1
  S2-  S159  1  0.84655420  0.82849300  0.64223041  1
  S2-  S160  1  0.14014595  -0.00981245  0.34524175  1
  S2-  S161  1  0.15544228  0.01703229  0.83534260  1
  S2-  S162  1  0.20254022  0.22273998  0.33061915  1
  S2-  S163  1  0.23231457  0.24083631  0.86030107  1
  S2-  S164  1  0.09626183  0.39584209  0.35169475  1
  S2-  S165  1  0.02172781  0.50980169  0.85538804  1
  S2-  S166  1  0.01535829  0.76994449  0.35955128  1
  S2-  S167  1  0.11957728  0.78195837  0.83925490  1
  S2-  S168  1  0.39277574  0.07454294  0.35300321  1
  S2-  S169  1  0.39190793  0.01154171  0.83254292  1
  S2-  S170  1  0.37584593  0.34298077  0.35564803  1
  S2-  S171  1  0.44126629  0.22776582  0.82719864  1
  S2-  S172  1  0.24679105  0.52612819  0.35077421  1
  S2-  S173  1  0.36202966  0.42337267  0.86180267  1
  S2-  S174  1  0.36855014  0.71289286  0.34258024  1
  S2-  S175  1  0.41589415  0.77581867  0.84549821  1
  S2-  S176  1  0.64420267  0.06101678  0.35541962  1
  S2-  S177  1  0.63779678  0.08826531  0.84911329  1
  S2-  S178  1  0.60304376  0.32581307  0.35286133  1
  S2-  S179  1  0.62874009  0.32888339  0.81391645  1
  S2-  S180  1  0.50722300  0.51794735  0.34921529  1
  S2-  S181  1  0.55245094  0.54164879  0.83173656  1
  S2-  S182  1  0.56916484  0.78841184  0.33173909  1
  S2-  S183  1  0.67593952  0.72786047  0.83897609  1
  S2-  S184  1  0.91109762  -0.02030873  0.36010449  1
  S2-  S185  1  0.88350108  -0.02079101  0.83855290  1
  S2-  S186  1  0.97121457  0.21191762  0.35925786  1
  S2-  S187  1  0.80600361  0.23450312  0.85386576  1
  S2-  S188  1  0.74825656  0.51656018  0.35854277  1
  S2-  S189  1  0.76657270  0.50009644  0.84610447  1
  S2-  S190  1  0.77483029  0.76254772  0.35356713  1
  S2-  S191  1  0.90323890  0.73516141  0.84495397  1
  S2-  S192  1  -0.00602394  0.12530826  0.46735951  1
  S2-  S193  1  0.00756366  0.12703922  0.95268240  1
  S2-  S194  1  -0.01450435  0.37449907  0.45219215  1
  S2-  S195  1  0.00775727  0.37582493  0.95566330  1
  S2-  S196  1  -0.00619682  0.61709239  0.44730186  1
  S2-  S197  1  0.00814206  0.63043383  0.95633664  1
  S2-  S198  1  -0.00448348  0.87498551  0.46802927  1
  S2-  S199  1  0.00822992  0.87545170  0.95212045  1
  S2-  S200  1  0.24271602  0.12799062  0.44965228  1
  S2-  S201  1  0.25885663  0.12359014  0.95914070  1
  S2-  S202  1  0.24359692  0.37063785  0.45531707  1
  S2-  S203  1  0.25221797  0.37974764  0.96357212  1
  S2-  S204  1  0.24651102  0.62624500  0.45727193  1
  S2-  S205  1  0.25847427  0.62226633  0.95286102  1
  S2-  S206  1  0.24532468  0.87290739  0.45245818  1
  S2-  S207  1  0.25930550  0.87753432  0.94214580  1
  S2-  S208  1  0.49233264  0.12709095  0.46261403  1
  S2-  S209  1  0.50468107  0.12920779  0.94417352  1
  S2-  S210  1  0.49471545  0.37038529  0.45720321  1
  S2-  S211  1  0.51698588  0.37172780  0.94015121  1
  S2-  S212  1  0.49858433  0.62820066  0.45073459  1
  S2-  S213  1  0.50882380  0.62603255  0.94460160  1
  S2-  S214  1  0.49316172  0.87755125  0.44734798  1
  S2-  S215  1  0.50379613  0.87933415  0.95295642  1
  S2-  S216  1  0.74441203  0.12516307  0.46706117  1
  S2-  S217  1  0.75505783  0.12355530  0.95541015  1
  S2-  S218  1  0.74566796  0.36747374  0.45236958  1
  S2-  S219  1  0.75926776  0.37632178  0.94813379  1
  S2-  S220  1  0.74283885  0.62455273  0.45843594  1
  S2-  S221  1  0.75927305  0.63015954  0.94647471  1
  S2-  S222  1  0.74377899  0.88202827  0.45793198  1
  S2-  S223  1  0.75633105  0.87461508  0.94688456  1
  S2-  S224  1  0.13434014  -0.00090981  0.04279986  1
  S2-  S225  1  0.11798530  -0.00468511  0.55314688  1
  S2-  S226  1  0.12880509  0.24840904  0.04610776  1
  S2-  S227  1  0.11751911  0.24741802  0.54489490  1
  S2-  S228  1  0.12741086  0.50393479  0.04101526  1
  S2-  S229  1  0.11283097  0.49872708  0.53702060  1
  S2-  S230  1  0.13377132  0.75291685  0.04054125  1
  S2-  S231  1  0.12168469  0.74478581  0.54585827  1
  S2-  S232  1  0.38130951  0.00144243  0.04143844  1
  S2-  S233  1  0.36764243  0.00192316  0.54657566  1
  S2-  S234  1  0.38500845  0.25594866  0.03941419  1
  S2-  S235  1  0.36745662  0.24604530  0.54575564  1
  S2-  S236  1  0.39695222  0.49902377  0.05854598  1
  S2-  S237  1  0.37102139  0.49919730  0.54012577  1
  S2-  S238  1  0.38068695  0.74887614  0.04469119  1
  S2-  S239  1  0.36806447  0.74645822  0.54675582  1
  S2-  S240  1  0.62939570  -0.00052247  0.04336219  1
  S2-  S241  1  0.61176354  0.00146623  0.54927113  1
  S2-  S242  1  0.62944873  0.25308704  0.03607028  1
  S2-  S243  1  0.61503652  0.25011737  0.54739506  1
  S2-  S244  1  0.62526453  0.50363450  0.03991890  1
  S2-  S245  1  0.61631120  0.49549110  0.53711668  1
  S2-  S246  1  0.62863754  0.74972565  0.03944454  1
  S2-  S247  1  0.61922358  0.75466259  0.53920194  1
  S2-  S248  1  0.87880028  -0.00080032  0.04715015  1
  S2-  S249  1  0.87297625  -0.00003382  0.55628989  1
  S2-  S250  1  0.87740839  0.25284830  0.04874241  1
  S2-  S251  1  0.86399310  0.24844491  0.55069522  1
  S2-  S252  1  0.87973232  0.50538576  0.04348073  1
  S2-  S253  1  0.86551330  0.49885042  0.54352549  1
  S2-  S254  1  0.87995605  0.74716287  0.04659881  1
  S2-  S255  1  0.86594564  0.73999768  0.54016496  1
