# generated using pymatgen
data_La9Ce10Pr6Nd4Sm3(BiS2)32
_symmetry_space_group_name_H-M   'P 1'
_cell_length_a   16.14542269
_cell_length_b   16.16100472
_cell_length_c   27.12060172
_cell_angle_alpha   89.92402956
_cell_angle_beta   89.91083308
_cell_angle_gamma   90.00764941
_symmetry_Int_Tables_number   1
_chemical_formula_structural   La9Ce10Pr6Nd4Sm3(BiS2)32
_chemical_formula_sum   'La18 Ce20 Pr12 Nd8 Sm6 Bi64 S128'
_cell_volume   7076.46210950
_cell_formula_units_Z   2
loop_
 _symmetry_equiv_pos_site_id
 _symmetry_equiv_pos_as_xyz
  1  'x, y, z'
loop_
 _atom_type_symbol
 _atom_type_oxidation_number
  La3+  3.0
  Ce3+  3.0
  Pr3+  3.0
  Nd3+  3.0
  Sm3+  3.0
  Bi2+  2.0
  S2-  -2.0
loop_
 _atom_site_type_symbol
 _atom_site_label
 _atom_site_symmetry_multiplicity
 _atom_site_fract_x
 _atom_site_fract_y
 _atom_site_fract_z
 _atom_site_occupancy
  La3+  La0  1  -0.00348679  0.38868366  0.56615957  1
  La3+  La1  1  0.10723231  0.24074847  0.92831481  1
  La3+  La2  1  -0.01320452  0.10847875  0.06376687  1
  La3+  La3  1  -0.01674008  0.35774209  0.09178131  1
  La3+  La4  1  0.49468537  0.12839151  0.57675969  1
  La3+  La5  1  0.73845634  0.89624394  0.58999875  1
  La3+  La6  1  0.75389456  0.63275170  0.56909260  1
  La3+  La7  1  0.50581812  0.63862190  0.56533292  1
  La3+  La8  1  0.48554897  0.86543329  0.09204325  1
  La3+  La9  1  0.73455100  0.36315278  0.06415892  1
  La3+  La10  1  0.74487817  0.38405200  0.55899353  1
  La3+  La11  1  0.61197707  0.02275275  0.41460385  1
  La3+  La12  1  0.61493824  0.51561620  0.42521045  1
  La3+  La13  1  0.24312740  0.14327367  0.58722708  1
  La3+  La14  1  0.85794294  -0.02451810  0.92753842  1
  La3+  La15  1  0.73600530  0.86301325  0.07802027  1
  La3+  La16  1  0.36891230  0.50394005  0.42543153  1
  La3+  La17  1  0.23429184  0.36629291  0.07040479  1
  Ce3+  Ce18  1  0.11200780  0.48622346  0.93823271  1
  Ce3+  Ce19  1  0.36680608  0.73605676  0.94712939  1
  Ce3+  Ce20  1  0.12075354  0.01269269  0.44191476  1
  Ce3+  Ce21  1  0.37104909  0.75921197  0.43968225  1
  Ce3+  Ce22  1  0.86429101  0.48523621  0.94312265  1
  Ce3+  Ce23  1  0.24253756  0.88398639  0.56013922  1
  Ce3+  Ce24  1  0.73399974  0.61243600  0.05314588  1
  Ce3+  Ce25  1  0.61099176  0.48491387  0.93224039  1
  Ce3+  Ce26  1  -0.00680984  0.12490240  0.56938619  1
  Ce3+  Ce27  1  -0.00332814  0.63673242  0.55552258  1
  Ce3+  Ce28  1  0.73534157  0.10551111  0.05816053  1
  Ce3+  Ce29  1  0.49907269  0.88665347  0.54895474  1
  Ce3+  Ce30  1  0.36388581  -0.01666420  0.94059667  1
  Ce3+  Ce31  1  0.86443107  0.23779751  0.94263760  1
  Ce3+  Ce32  1  -0.01217358  0.60922262  0.06524333  1
  Ce3+  Ce33  1  0.36791194  0.01375110  0.44410452  1
  Ce3+  Ce34  1  -0.01593078  0.86278846  0.06956438  1
  Ce3+  Ce35  1  0.36352367  0.48676256  0.94145178  1
  Ce3+  Ce36  1  0.62520602  0.76626371  0.43702905  1
  Ce3+  Ce37  1  0.86254093  0.73745549  0.94441712  1
  Pr3+  Pr38  1  0.11196069  0.73476081  0.93012392  1
  Pr3+  Pr39  1  0.12424935  0.50109875  0.42449243  1
  Pr3+  Pr40  1  0.23365612  0.11055019  0.05586060  1
  Pr3+  Pr41  1  0.48272035  0.36399550  0.06594233  1
  Pr3+  Pr42  1  0.87068835  0.50900324  0.42677636  1
  Pr3+  Pr43  1  -0.00085768  0.88791845  0.56600082  1
  Pr3+  Pr44  1  0.25007057  0.63442779  0.56558085  1
  Pr3+  Pr45  1  0.48573190  0.10815472  0.05915362  1
  Pr3+  Pr46  1  0.86826020  0.76640083  0.44434195  1
  Pr3+  Pr47  1  0.24816288  0.39006002  0.56710813  1
  Pr3+  Pr48  1  0.87242842  0.26253668  0.43612259  1
  Pr3+  Pr49  1  0.12032138  0.75866677  0.43428309  1
  Nd3+  Nd50  1  0.48885384  0.60802127  0.07306630  1
  Nd3+  Nd51  1  0.74759557  0.12971364  0.55451518  1
  Nd3+  Nd52  1  0.87975239  0.01753290  0.41512140  1
  Nd3+  Nd53  1  0.37111271  0.25694012  0.43968393  1
  Nd3+  Nd54  1  0.10616930  -0.01100411  0.92153825  1
  Nd3+  Nd55  1  0.36229143  0.23573038  0.93470013  1
  Nd3+  Nd56  1  0.23422302  0.86064125  0.06194105  1
  Nd3+  Nd57  1  0.49444587  0.38547683  0.55871070  1
  Sm3+  Sm58  1  0.62059931  0.25827875  0.44710851  1
  Sm3+  Sm59  1  0.61212827  0.23515998  0.94449483  1
  Sm3+  Sm60  1  0.12142527  0.26014600  0.44501148  1
  Sm3+  Sm61  1  0.60999026  0.73575406  0.94382295  1
  Sm3+  Sm62  1  0.61539750  -0.01936714  0.93607458  1
  Sm3+  Sm63  1  0.23540593  0.61476098  0.05905989  1
  Bi2+  Bi64  1  0.09604980  0.09463917  0.28425092  1
  Bi2+  Bi65  1  0.00830944  0.14457334  0.78634411  1
  Bi2+  Bi66  1  -0.00398350  0.36252605  0.28452859  1
  Bi2+  Bi67  1  -0.00275773  0.41099669  0.81145666  1
  Bi2+  Bi68  1  0.00655908  0.55411230  0.31466957  1
  Bi2+  Bi69  1  0.03709348  0.67587215  0.78462223  1
  Bi2+  Bi70  1  0.01548225  0.82744541  0.26889746  1
  Bi2+  Bi71  1  -0.01652239  0.88144048  0.78759961  1
  Bi2+  Bi72  1  0.28736078  0.12954960  0.31627051  1
  Bi2+  Bi73  1  0.26753097  0.12407156  0.78375121  1
  Bi2+  Bi74  1  0.25456137  0.38416917  0.29368158  1
  Bi2+  Bi75  1  0.27055107  0.36933918  0.78763581  1
  Bi2+  Bi76  1  0.17407723  0.63925193  0.28033716  1
  Bi2+  Bi77  1  0.24749319  0.68283142  0.77309821  1
  Bi2+  Bi78  1  0.22644721  0.94251642  0.30680879  1
  Bi2+  Bi79  1  0.21734631  0.89825163  0.77254500  1
  Bi2+  Bi80  1  0.50736203  0.15261160  0.28574165  1
  Bi2+  Bi81  1  0.50992758  0.02183824  0.80305994  1
  Bi2+  Bi82  1  0.51784001  0.40472245  0.29130952  1
  Bi2+  Bi83  1  0.59619681  0.38139033  0.80365313  1
  Bi2+  Bi84  1  0.48325458  0.66586552  0.28052923  1
  Bi2+  Bi85  1  0.46825602  0.61115079  0.79491886  1
  Bi2+  Bi86  1  0.40331126  0.86722512  0.27459050  1
  Bi2+  Bi87  1  0.48652309  0.83156219  0.79036046  1
  Bi2+  Bi88  1  0.75690585  0.12516566  0.29430160  1
  Bi2+  Bi89  1  0.73400285  0.13499558  0.79294611  1
  Bi2+  Bi90  1  0.74539272  0.33058144  0.28936654  1
  Bi2+  Bi91  1  0.79551338  0.39097882  0.79532643  1
  Bi2+  Bi92  1  0.82357578  0.62326582  0.30949219  1
  Bi2+  Bi93  1  0.77452672  0.58551598  0.76626015  1
  Bi2+  Bi94  1  0.74526369  0.84539057  0.31050289  1
  Bi2+  Bi95  1  0.73413420  0.85737966  0.79052009  1
  Bi2+  Bi96  1  0.13881762  -0.07622421  0.19753572  1
  Bi2+  Bi97  1  0.09762056  0.00276116  0.70516341  1
  Bi2+  Bi98  1  0.19194330  0.23240147  0.22741520  1
  Bi2+  Bi99  1  0.14173019  0.27228489  0.72191371  1
  Bi2+  Bi100  1  0.11469122  0.48173284  0.21267095  1
  Bi2+  Bi101  1  0.13336453  0.51803773  0.72015803  1
  Bi2+  Bi102  1  0.09119581  0.73451851  0.16338772  1
  Bi2+  Bi103  1  0.11956516  0.70075339  0.67582599  1
  Bi2+  Bi104  1  0.35356982  0.01909407  0.21024152  1
  Bi2+  Bi105  1  0.37526480  -0.04091753  0.71427105  1
  Bi2+  Bi106  1  0.40999201  0.25376497  0.21261074  1
  Bi2+  Bi107  1  0.42049936  0.26075182  0.69848706  1
  Bi2+  Bi108  1  0.38626244  0.51467236  0.19421223  1
  Bi2+  Bi109  1  0.34706332  0.52012019  0.72544374  1
  Bi2+  Bi110  1  0.27371206  0.75757688  0.21064729  1
  Bi2+  Bi111  1  0.30497192  0.78347295  0.67852134  1
  Bi2+  Bi112  1  0.61871234  -0.02124535  0.21319495  1
  Bi2+  Bi113  1  0.61105533  0.01585233  0.70943690  1
  Bi2+  Bi114  1  0.60605881  0.27820270  0.21114036  1
  Bi2+  Bi115  1  0.67998058  0.28266234  0.71306704  1
  Bi2+  Bi116  1  0.63949155  0.51813384  0.21814933  1
  Bi2+  Bi117  1  0.63240370  0.48612452  0.70579717  1
  Bi2+  Bi118  1  0.68032668  0.71094956  0.23638677  1
  Bi2+  Bi119  1  0.55349325  0.74319911  0.70110443  1
  Bi2+  Bi120  1  0.87630897  -0.02280371  0.20530121  1
  Bi2+  Bi121  1  0.85282622  0.03107658  0.72366524  1
  Bi2+  Bi122  1  0.88641913  0.23580311  0.22258706  1
  Bi2+  Bi123  1  0.86848606  0.22903228  0.72019790  1
  Bi2+  Bi124  1  0.84158439  0.49266122  0.21259575  1
  Bi2+  Bi125  1  0.91599459  0.49400194  0.70511978  1
  Bi2+  Bi126  1  0.91879465  0.68888738  0.21381613  1
  Bi2+  Bi127  1  0.89393977  0.74124952  0.71677902  1
  S2-  S128  1  -0.01711832  0.20743430  0.14942935  1
  S2-  S129  1  0.09989473  0.15080370  0.64996271  1
  S2-  S130  1  0.13156884  0.34795338  0.15324674  1
  S2-  S131  1  0.04555810  0.39000811  0.66332330  1
  S2-  S132  1  -0.01986297  0.50955840  0.14822620  1
  S2-  S133  1  -0.10349091  0.62383720  0.63643877  1
  S2-  S134  1  0.00822716  0.99129881  0.14217784  1
  S2-  S135  1  -0.04476530  0.99948848  0.64259862  1
  S2-  S136  1  0.24918887  0.11478716  0.15765390  1
  S2-  S137  1  0.36779575  0.10884461  0.65795356  1
  S2-  S138  1  0.36060087  0.36006179  0.14332654  1
  S2-  S139  1  0.26603427  0.29142423  0.65399492  1
  S2-  S140  1  0.24712879  0.54341016  0.14992320  1
  S2-  S141  1  0.24819211  0.51398629  0.64178961  1
  S2-  S142  1  0.33446701  0.87049890  0.14660883  1
  S2-  S143  1  0.13208417  0.87529657  0.63902107  1
  S2-  S144  1  0.50196680  0.02431282  0.14841810  1
  S2-  S145  1  0.55680192  0.17691452  0.67061012  1
  S2-  S146  1  0.53359730  0.47589133  0.14212892  1
  S2-  S147  1  0.48773091  0.40095109  0.65895216  1
  S2-  S148  1  0.45408099  0.66423182  0.16981379  1
  S2-  S149  1  0.42269960  0.65854215  0.65565619  1
  S2-  S150  1  0.62011437  0.84628913  0.15875848  1
  S2-  S151  1  0.56693834  0.89183554  0.64016147  1
  S2-  S152  1  0.74428308  0.04835105  0.15215170  1
  S2-  S153  1  0.73676750  0.04794170  0.64386329  1
  S2-  S154  1  0.82035802  0.35741295  0.15252992  1
  S2-  S155  1  0.77390309  0.44640913  0.65109163  1
  S2-  S156  1  0.72823635  0.62312918  0.15122149  1
  S2-  S157  1  0.63401139  0.63110582  0.64425023  1
  S2-  S158  1  0.86249131  0.84728109  0.15061985  1
  S2-  S159  1  0.76449603  0.82580842  0.68486779  1
  S2-  S160  1  0.03241406  0.00551317  0.35875755  1
  S2-  S161  1  0.14283757  0.12388637  0.84990029  1
  S2-  S162  1  0.12077856  0.34641881  0.35766541  1
  S2-  S163  1  0.13675702  0.37504198  0.85928268  1
  S2-  S164  1  0.24653360  0.52740628  0.35087985  1
  S2-  S165  1  0.11446465  0.60152096  0.86136460  1
  S2-  S166  1  0.14257728  0.78594515  0.33476046  1
  S2-  S167  1  0.12274085  0.85638780  0.85387729  1
  S2-  S168  1  0.43916465  0.04885893  0.35767742  1
  S2-  S169  1  0.34861941  0.01299323  0.84399065  1
  S2-  S170  1  0.38006763  0.34678761  0.35281204  1
  S2-  S171  1  0.36017318  0.24231094  0.83276308  1
  S2-  S172  1  0.48328414  0.54074584  0.35017942  1
  S2-  S173  1  0.37024051  0.48400342  0.84247388  1
  S2-  S174  1  0.37189400  0.73820959  0.34103418  1
  S2-  S175  1  0.36841452  0.73397648  0.84788844  1
  S2-  S176  1  0.62417805  -0.04821381  0.31861194  1
  S2-  S177  1  0.72339232  -0.01514072  0.85524808  1
  S2-  S178  1  0.62132858  0.18387934  0.35778653  1
  S2-  S179  1  0.60927457  0.22126777  0.84565894  1
  S2-  S180  1  0.66789223  0.45759535  0.33272182  1
  S2-  S181  1  0.60163136  0.55509581  0.84148032  1
  S2-  S182  1  0.61702806  0.71934288  0.34059795  1
  S2-  S183  1  0.63125147  0.78202035  0.84771500  1
  S2-  S184  1  0.84070112  -0.02012851  0.31163546  1
  S2-  S185  1  0.96848149  0.00989698  0.85024965  1
  S2-  S186  1  0.88086954  0.16378401  0.35156487  1
  S2-  S187  1  0.95514430  0.26086469  0.85925722  1
  S2-  S188  1  0.87271383  0.38031838  0.35632958  1
  S2-  S189  1  0.87259779  0.53351369  0.84625231  1
  S2-  S190  1  0.90117763  0.77460669  0.34467148  1
  S2-  S191  1  0.86248701  0.81162793  0.85535282  1
  S2-  S192  1  -0.00102416  0.13922096  0.46031901  1
  S2-  S193  1  -0.01597868  0.11170209  0.95550552  1
  S2-  S194  1  -0.00195214  0.38490922  0.45791147  1
  S2-  S195  1  -0.01667625  0.36612643  0.96478120  1
  S2-  S196  1  -0.00546384  0.63502673  0.44893203  1
  S2-  S197  1  -0.01624420  0.61229364  0.95871950  1
  S2-  S198  1  -0.00052405  0.88429624  0.45736954  1
  S2-  S199  1  -0.01151633  0.85818240  0.95858819  1
  S2-  S200  1  0.24455513  0.13787190  0.45580693  1
  S2-  S201  1  0.24149311  0.11063037  0.95129072  1
  S2-  S202  1  0.24695686  0.38078189  0.45971731  1
  S2-  S203  1  0.24480626  0.36046581  0.95964685  1
  S2-  S204  1  0.24539961  0.63640821  0.45551908  1
  S2-  S205  1  0.24232888  0.61235093  0.95556959  1
  S2-  S206  1  0.24574723  0.88559714  0.45181576  1
  S2-  S207  1  0.24228790  0.85912756  0.95547509  1
  S2-  S208  1  0.49440856  0.13858890  0.46443186  1
  S2-  S209  1  0.49108646  0.10974795  0.95110780  1
  S2-  S210  1  0.50023212  0.38058773  0.45282071  1
  S2-  S211  1  0.48865898  0.35856274  0.95349629  1
  S2-  S212  1  0.49888073  0.64380631  0.45654598  1
  S2-  S213  1  0.48970732  0.61040050  0.95749909  1
  S2-  S214  1  0.49498491  0.88672146  0.44323517  1
  S2-  S215  1  0.49081551  0.86213550  0.95042418  1
  S2-  S216  1  0.74745511  0.13496775  0.45101462  1
  S2-  S217  1  0.73555435  0.11330387  0.95347643  1
  S2-  S218  1  0.74030959  0.38324184  0.45218789  1
  S2-  S219  1  0.73548465  0.35983519  0.95195611  1
  S2-  S220  1  0.74704790  0.63479708  0.45204054  1
  S2-  S221  1  0.73551043  0.61271171  0.94723179  1
  S2-  S222  1  0.74645050  0.89471134  0.43457535  1
  S2-  S223  1  0.73187408  0.85548002  0.96366867  1
  S2-  S224  1  0.11551614  -0.01792664  0.03634065  1
  S2-  S225  1  0.12696808  0.01591292  0.54615122  1
  S2-  S226  1  0.11239320  0.23646031  0.04209128  1
  S2-  S227  1  0.12109523  0.26399495  0.54770652  1
  S2-  S228  1  0.11265381  0.49198722  0.04535413  1
  S2-  S229  1  0.11906710  0.51340435  0.54058734  1
  S2-  S230  1  0.11215483  0.73637263  0.04215600  1
  S2-  S231  1  0.12143866  0.75592405  0.54025175  1
  S2-  S232  1  0.36189363  -0.01497273  0.04514795  1
  S2-  S233  1  0.36770483  0.00606461  0.54953017  1
  S2-  S234  1  0.36355971  0.23232403  0.04300260  1
  S2-  S235  1  0.37332976  0.25867710  0.54706770  1
  S2-  S236  1  0.36282957  0.49355319  0.04480272  1
  S2-  S237  1  0.37770366  0.51241982  0.54013074  1
  S2-  S238  1  0.36426789  0.73416551  0.05193843  1
  S2-  S239  1  0.37218808  0.76343423  0.54462937  1
  S2-  S240  1  0.60995013  -0.01710549  0.04135531  1
  S2-  S241  1  0.62035041  0.01129703  0.53564218  1
  S2-  S242  1  0.60926589  0.23595871  0.05165538  1
  S2-  S243  1  0.62086433  0.25715059  0.55170377  1
  S2-  S244  1  0.61339192  0.48656358  0.03760454  1
  S2-  S245  1  0.62189893  0.50728121  0.53938433  1
  S2-  S246  1  0.60551843  0.73594524  0.04959013  1
  S2-  S247  1  0.63185011  0.76851398  0.54227242  1
  S2-  S248  1  0.85798956  -0.01584713  0.04037270  1
  S2-  S249  1  0.86575272  0.00512951  0.53504562  1
  S2-  S250  1  0.85505471  0.23415979  0.04685456  1
  S2-  S251  1  0.87184256  0.25740241  0.55234945  1
  S2-  S252  1  0.85772297  0.48889416  0.04727821  1
  S2-  S253  1  0.87179904  0.50770561  0.53429127  1
  S2-  S254  1  0.86199198  0.73185300  0.04878441  1
  S2-  S255  1  0.86679958  0.77149483  0.55066368  1
