# generated using pymatgen
data_La9Ce10Pr6Nd4Sm3(BiS2)32
_symmetry_space_group_name_H-M   'P 1'
_cell_length_a   16.25213254
_cell_length_b   16.24408827
_cell_length_c   27.09519608
_cell_angle_alpha   90.08098465
_cell_angle_beta   90.16559342
_cell_angle_gamma   90.00513744
_symmetry_Int_Tables_number   1
_chemical_formula_structural   La9Ce10Pr6Nd4Sm3(BiS2)32
_chemical_formula_sum   'La18 Ce20 Pr12 Nd8 Sm6 Bi64 S128'
_cell_volume   7153.12385892
_cell_formula_units_Z   2
loop_
 _symmetry_equiv_pos_site_id
 _symmetry_equiv_pos_as_xyz
  1  'x, y, z'
loop_
 _atom_type_symbol
 _atom_type_oxidation_number
  La3+  3.0
  Ce3+  3.0
  Pr3+  3.0
  Nd3+  3.0
  Sm3+  3.0
  Bi2+  2.0
  S2-  -2.0
loop_
 _atom_site_type_symbol
 _atom_site_label
 _atom_site_symmetry_multiplicity
 _atom_site_fract_x
 _atom_site_fract_y
 _atom_site_fract_z
 _atom_site_occupancy
  La3+  La0  1  0.24495772  0.61389231  0.09156585  1
  La3+  La1  1  0.51176949  0.87733640  0.07195988  1
  La3+  La2  1  0.77045203  0.13905831  0.58309403  1
  La3+  La3  1  0.00159328  0.63554352  0.06948572  1
  La3+  La4  1  0.02785280  0.39015878  0.57178948  1
  La3+  La5  1  0.76421224  0.87396964  0.57445441  1
  La3+  La6  1  0.63407730  0.49500772  0.42345539  1
  La3+  La7  1  0.88394108  0.50137086  0.93859125  1
  La3+  La8  1  0.88146400  0.24972857  0.93188466  1
  La3+  La9  1  0.26110549  0.88324915  0.08879749  1
  La3+  La10  1  0.37674278  0.50652471  0.94001772  1
  La3+  La11  1  0.26682557  0.87548135  0.56313994  1
  La3+  La12  1  0.13864376  0.24810110  0.43993511  1
  La3+  La13  1  0.12858109  0.50947840  0.41732200  1
  La3+  La14  1  0.61987703  0.73974411  0.92867545  1
  La3+  La15  1  0.23099076  0.61120408  0.61198708  1
  La3+  La16  1  0.61629981  -0.01187889  0.90265289  1
  La3+  La17  1  0.64605366  0.24699939  0.42571132  1
  Ce3+  Ce18  1  0.12992494  0.24921131  0.94520456  1
  Ce3+  Ce19  1  0.87990752  0.75481693  0.42975155  1
  Ce3+  Ce20  1  0.26125773  0.38171019  0.55259480  1
  Ce3+  Ce21  1  0.37723248  -0.00610465  0.93999960  1
  Ce3+  Ce22  1  0.25750882  0.12566535  0.06105837  1
  Ce3+  Ce23  1  0.01295775  0.87419926  0.55016207  1
  Ce3+  Ce24  1  0.25359048  0.37473541  0.06173846  1
  Ce3+  Ce25  1  0.50121518  0.62766385  0.55663852  1
  Ce3+  Ce26  1  0.14008230  0.75062671  0.43312121  1
  Ce3+  Ce27  1  0.75884817  0.62445161  0.55537433  1
  Ce3+  Ce28  1  0.01206507  0.12787230  0.56198250  1
  Ce3+  Ce29  1  0.88874865  0.50041015  0.44118144  1
  Ce3+  Ce30  1  0.13789147  -0.00031763  0.44415570  1
  Ce3+  Ce31  1  0.62725339  0.50052317  0.93930785  1
  Ce3+  Ce32  1  0.13220821  0.75056974  0.95281379  1
  Ce3+  Ce33  1  0.75110985  0.62656513  0.05785044  1
  Ce3+  Ce34  1  0.13047863  -0.00344472  0.94905591  1
  Ce3+  Ce35  1  0.64399224  0.00981498  0.44644955  1
  Ce3+  Ce36  1  0.50456544  0.37709087  0.06109673  1
  Ce3+  Ce37  1  0.89054803  0.25451585  0.44598621  1
  Pr3+  Pr38  1  0.62608993  0.25114796  0.93182896  1
  Pr3+  Pr39  1  0.76140583  0.38196881  0.56198286  1
  Pr3+  Pr40  1  0.87554503  -0.00354613  0.93609726  1
  Pr3+  Pr41  1  0.50813320  0.61711009  0.08234188  1
  Pr3+  Pr42  1  0.51660152  0.13056895  0.56487220  1
  Pr3+  Pr43  1  0.87719383  0.75096919  0.93664211  1
  Pr3+  Pr44  1  0.75449822  0.37391553  0.05675106  1
  Pr3+  Pr45  1  0.39318219  0.75394138  0.42401954  1
  Pr3+  Pr46  1  0.63810518  0.75259038  0.43637458  1
  Pr3+  Pr47  1  0.00668234  0.37534835  0.06046298  1
  Pr3+  Pr48  1  0.37636005  0.25001448  0.94185879  1
  Pr3+  Pr49  1  0.13692364  0.51074667  0.92305179  1
  Nd3+  Nd50  1  0.51416808  0.87918294  0.55686786  1
  Nd3+  Nd51  1  0.37809396  0.74831225  0.96173543  1
  Nd3+  Nd52  1  -0.00263220  0.87812671  0.06395395  1
  Nd3+  Nd53  1  0.38204605  0.50457859  0.43401053  1
  Nd3+  Nd54  1  0.51277242  0.37907225  0.55251211  1
  Nd3+  Nd55  1  0.00626849  0.63362788  0.55456416  1
  Nd3+  Nd56  1  0.38918183  0.00508477  0.43591607  1
  Nd3+  Nd57  1  0.26326643  0.12567107  0.56892713  1
  Sm3+  Sm58  1  0.38498658  0.24994496  0.44719646  1
  Sm3+  Sm59  1  0.74680522  0.87720225  0.05364833  1
  Sm3+  Sm60  1  0.00093024  0.12454436  0.05322216  1
  Sm3+  Sm61  1  0.50734377  0.12444489  0.04663524  1
  Sm3+  Sm62  1  0.88617936  0.00287349  0.44901647  1
  Sm3+  Sm63  1  0.75111388  0.12570647  0.04574336  1
  Bi2+  Bi64  1  -0.04996145  0.08811830  0.28477823  1
  Bi2+  Bi65  1  0.00544711  0.15651288  0.78823523  1
  Bi2+  Bi66  1  -0.03448108  0.32384523  0.29916802  1
  Bi2+  Bi67  1  -0.03009997  0.37663058  0.81233024  1
  Bi2+  Bi68  1  -0.03495317  0.69727736  0.30166958  1
  Bi2+  Bi69  1  0.00413745  0.70255882  0.78562489  1
  Bi2+  Bi70  1  -0.02136023  0.89019517  0.29844631  1
  Bi2+  Bi71  1  -0.00054095  0.88789835  0.79959558  1
  Bi2+  Bi72  1  0.26685571  0.11997380  0.28651173  1
  Bi2+  Bi73  1  0.25568478  0.06757151  0.80543948  1
  Bi2+  Bi74  1  0.24717195  0.31750616  0.29947046  1
  Bi2+  Bi75  1  0.25902680  0.34534882  0.78634103  1
  Bi2+  Bi76  1  0.26843801  0.60798738  0.29859194  1
  Bi2+  Bi77  1  0.27392890  0.64950376  0.80944845  1
  Bi2+  Bi78  1  0.16501480  0.92153018  0.28224847  1
  Bi2+  Bi79  1  0.22431870  0.87505049  0.79357474  1
  Bi2+  Bi80  1  0.49466911  0.09790259  0.30342928  1
  Bi2+  Bi81  1  0.41947085  0.14493218  0.76104942  1
  Bi2+  Bi82  1  0.49266964  0.28328517  0.26032217  1
  Bi2+  Bi83  1  0.51227012  0.37040656  0.80321690  1
  Bi2+  Bi84  1  0.49931188  0.63576141  0.28479588  1
  Bi2+  Bi85  1  0.49647232  0.55869696  0.77423579  1
  Bi2+  Bi86  1  0.55289396  0.89337205  0.28947735  1
  Bi2+  Bi87  1  0.47269273  0.82967935  0.79866877  1
  Bi2+  Bi88  1  0.75225159  0.12252406  0.28289715  1
  Bi2+  Bi89  1  0.76406479  0.11617502  0.77971777  1
  Bi2+  Bi90  1  0.74599785  0.37124499  0.28705429  1
  Bi2+  Bi91  1  0.69949985  0.40748362  0.77306894  1
  Bi2+  Bi92  1  0.76845847  0.63944652  0.29235163  1
  Bi2+  Bi93  1  0.74148839  0.60554083  0.78929031  1
  Bi2+  Bi94  1  0.75177690  0.88824860  0.27959808  1
  Bi2+  Bi95  1  0.75863067  0.86282007  0.78222745  1
  Bi2+  Bi96  1  0.10845513  0.07293270  0.21293288  1
  Bi2+  Bi97  1  0.14485166  0.07174160  0.70156067  1
  Bi2+  Bi98  1  0.13774761  0.26877378  0.20323282  1
  Bi2+  Bi99  1  0.12325076  0.26253870  0.71784502  1
  Bi2+  Bi100  1  0.11861480  0.46297199  0.21636927  1
  Bi2+  Bi101  1  0.10258946  0.50202300  0.71729197  1
  Bi2+  Bi102  1  0.11487157  0.71882688  0.21784558  1
  Bi2+  Bi103  1  0.12048154  0.79505297  0.71117496  1
  Bi2+  Bi104  1  0.38487586  0.04550929  0.20552541  1
  Bi2+  Bi105  1  0.36029609  -0.03255146  0.72506167  1
  Bi2+  Bi106  1  0.33276001  0.24333011  0.18387261  1
  Bi2+  Bi107  1  0.30608623  0.23556200  0.68429298  1
  Bi2+  Bi108  1  0.38393160  0.42209408  0.21546052  1
  Bi2+  Bi109  1  0.39293485  0.40752749  0.71280583  1
  Bi2+  Bi110  1  0.35593765  0.79653130  0.22537825  1
  Bi2+  Bi111  1  0.40257044  0.74760172  0.70023065  1
  Bi2+  Bi112  1  0.63700265  0.01119871  0.21049250  1
  Bi2+  Bi113  1  0.60300961  -0.00924604  0.70743242  1
  Bi2+  Bi114  1  0.62389566  0.22265506  0.18950781  1
  Bi2+  Bi115  1  0.61947927  0.25297990  0.70476293  1
  Bi2+  Bi116  1  0.64711951  0.47929782  0.20872852  1
  Bi2+  Bi117  1  0.58807001  0.53621506  0.67074715  1
  Bi2+  Bi118  1  0.63698483  0.75218861  0.20689664  1
  Bi2+  Bi119  1  0.60093996  0.70473679  0.72641209  1
  Bi2+  Bi120  1  0.88719219  -0.08412581  0.19521498  1
  Bi2+  Bi121  1  0.96113081  0.00971438  0.71301951  1
  Bi2+  Bi122  1  0.86940922  0.21523476  0.20790221  1
  Bi2+  Bi123  1  0.89151595  0.27537909  0.70890318  1
  Bi2+  Bi124  1  0.89367967  0.49881139  0.26497940  1
  Bi2+  Bi125  1  0.77598555  0.50886196  0.68565447  1
  Bi2+  Bi126  1  0.85480133  0.72537344  0.19962206  1
  Bi2+  Bi127  1  0.87292642  0.77574371  0.70871257  1
  S2-  S128  1  -0.02096317  0.12660747  0.15041617  1
  S2-  S129  1  -0.07626854  0.13811919  0.64639823  1
  S2-  S130  1  0.01032659  0.37352879  0.16245742  1
  S2-  S131  1  -0.02626064  0.39520096  0.66987703  1
  S2-  S132  1  0.08858278  0.59015084  0.15206768  1
  S2-  S133  1  0.06306865  0.61039579  0.64809688  1
  S2-  S134  1  -0.00639455  0.77971734  0.14670264  1
  S2-  S135  1  -0.00923097  0.86407339  0.64742785  1
  S2-  S136  1  0.24861040  0.03959295  0.14476519  1
  S2-  S137  1  0.27194299  0.00325767  0.64080377  1
  S2-  S138  1  0.25376418  0.45853314  0.14874027  1
  S2-  S139  1  0.18888402  0.43737075  0.63449967  1
  S2-  S140  1  0.27519997  0.65996063  0.19357241  1
  S2-  S141  1  0.23499707  0.59339552  0.72174536  1
  S2-  S142  1  0.20079748  0.84654314  0.18564010  1
  S2-  S143  1  0.25289114  0.77762678  0.64772606  1
  S2-  S144  1  0.52316812  0.10083343  0.14436785  1
  S2-  S145  1  0.51366941  0.12663790  0.66701384  1
  S2-  S146  1  0.51021482  0.46967884  0.14599716  1
  S2-  S147  1  0.53295716  0.36150091  0.65267741  1
  S2-  S148  1  0.49616551  0.68734186  0.17922225  1
  S2-  S149  1  0.40567189  0.61954967  0.63952057  1
  S2-  S150  1  0.40733291  0.89201948  0.15417457  1
  S2-  S151  1  0.48774183  0.88637923  0.65567137  1
  S2-  S152  1  0.75044652  0.13818840  0.14436873  1
  S2-  S153  1  0.72444712  0.08410567  0.68065086  1
  S2-  S154  1  0.74097330  0.37732374  0.15788986  1
  S2-  S155  1  0.74998786  0.28469941  0.64641204  1
  S2-  S156  1  0.71167870  0.61435932  0.15362392  1
  S2-  S157  1  0.83535068  0.65623870  0.64194570  1
  S2-  S158  1  0.65138579  0.88505261  0.13710823  1
  S2-  S159  1  0.72805531  0.87500527  0.67434210  1
  S2-  S160  1  0.15978540  0.04951349  0.35197510  1
  S2-  S161  1  0.11648014  -0.01405630  0.85119002  1
  S2-  S162  1  0.09417726  0.26005263  0.34197252  1
  S2-  S163  1  0.10172614  0.25909975  0.84870997  1
  S2-  S164  1  0.18053405  0.46334391  0.32118556  1
  S2-  S165  1  0.07204013  0.49209597  0.82563820  1
  S2-  S166  1  0.12392380  0.66444998  0.34663901  1
  S2-  S167  1  0.13184847  0.68673459  0.86135823  1
  S2-  S168  1  0.41181531  -0.03310374  0.33851742  1
  S2-  S169  1  0.45319542  -0.03049111  0.85425748  1
  S2-  S170  1  0.37928585  0.22507055  0.34992122  1
  S2-  S171  1  0.37527729  0.26073830  0.84061629  1
  S2-  S172  1  0.40659021  0.51987805  0.33348658  1
  S2-  S173  1  0.27887859  0.50288478  0.85650488  1
  S2-  S174  1  0.32315546  0.75052932  0.32807678  1
  S2-  S175  1  0.41000653  0.71211033  0.86506610  1
  S2-  S176  1  0.64014962  0.10691088  0.36287481  1
  S2-  S177  1  0.62496135  0.05358298  0.80433598  1
  S2-  S178  1  0.62436963  0.36151829  0.35003321  1
  S2-  S179  1  0.64376835  0.26922020  0.83120082  1
  S2-  S180  1  0.62609651  0.57212465  0.32996905  1
  S2-  S181  1  0.61101680  0.59901547  0.85992429  1
  S2-  S182  1  0.52889116  0.75945276  0.35293449  1
  S2-  S183  1  0.62567887  0.84167119  0.84573837  1
  S2-  S184  1  0.84738178  0.00958686  0.35288304  1
  S2-  S185  1  0.82836751  -0.00688250  0.83847140  1
  S2-  S186  1  0.82477898  0.25837356  0.35507468  1
  S2-  S187  1  0.86248526  0.23705839  0.83159697  1
  S2-  S188  1  0.97338982  0.47794218  0.35629131  1
  S2-  S189  1  0.85230717  0.48518425  0.83910237  1
  S2-  S190  1  0.75870871  0.77280692  0.36009079  1
  S2-  S191  1  0.81474391  0.73827177  0.84214479  1
  S2-  S192  1  0.01030910  0.12380854  0.45401525  1
  S2-  S193  1  0.00289821  0.12028573  0.94791021  1
  S2-  S194  1  0.01640292  0.37504662  0.45978192  1
  S2-  S195  1  0.00761930  0.37627128  0.95218906  1
  S2-  S196  1  0.00361753  0.63382668  0.44877744  1
  S2-  S197  1  0.00274654  0.62871984  0.95824225  1
  S2-  S198  1  0.00978773  0.87747112  0.44337857  1
  S2-  S199  1  0.00165604  0.87342216  0.95690914  1
  S2-  S200  1  0.26424566  0.12493726  0.46065945  1
  S2-  S201  1  0.25368525  0.12320492  0.95347600  1
  S2-  S202  1  0.26175308  0.37566851  0.44620266  1
  S2-  S203  1  0.25173129  0.37373108  0.95520327  1
  S2-  S204  1  0.26522822  0.62986446  0.43897618  1
  S2-  S205  1  0.25277947  0.62674461  0.96923358  1
  S2-  S206  1  0.26455416  0.87901604  0.44849109  1
  S2-  S207  1  0.25524947  0.87376364  0.96103137  1
  S2-  S208  1  0.50890309  0.13006845  0.45764753  1
  S2-  S209  1  0.50280021  0.12541994  0.94127057  1
  S2-  S210  1  0.50362546  0.37325239  0.44761668  1
  S2-  S211  1  0.50148186  0.37609561  0.95164420  1
  S2-  S212  1  0.51230038  0.62313057  0.45050788  1
  S2-  S213  1  0.50178110  0.62055354  0.97069433  1
  S2-  S214  1  0.51925080  0.88737118  0.45154982  1
  S2-  S215  1  0.50274771  0.87106486  0.96190411  1
  S2-  S216  1  0.77078539  0.12866293  0.46782355  1
  S2-  S217  1  0.75025776  0.12428056  0.94062648  1
  S2-  S218  1  0.76507166  0.37907568  0.45514299  1
  S2-  S219  1  0.75361199  0.37476943  0.94807735  1
  S2-  S220  1  0.76078234  0.62228160  0.44942913  1
  S2-  S221  1  0.75589561  0.62262617  0.95323748  1
  S2-  S222  1  0.76065617  0.88329041  0.46380397  1
  S2-  S223  1  0.74915890  0.87396697  0.95006902  1
  S2-  S224  1  0.12211500  -0.00026783  0.05303557  1
  S2-  S225  1  0.13411422  0.00158218  0.54835322  1
  S2-  S226  1  0.12726941  0.24536858  0.05218199  1
  S2-  S227  1  0.14022666  0.24942578  0.55111318  1
  S2-  S228  1  0.12655838  0.49843671  0.04140248  1
  S2-  S229  1  0.13744120  0.51469873  0.53053962  1
  S2-  S230  1  0.13358647  0.75737968  0.05727597  1
  S2-  S231  1  0.13640172  0.75091347  0.54101241  1
  S2-  S232  1  0.38320953  0.00423489  0.04469077  1
  S2-  S233  1  0.39350811  0.00585011  0.54379055  1
  S2-  S234  1  0.38350303  0.24950326  0.04858866  1
  S2-  S235  1  0.38696457  0.25311624  0.55187247  1
  S2-  S236  1  0.37799936  0.49760700  0.04888146  1
  S2-  S237  1  0.38521409  0.49783818  0.54070204  1
  S2-  S238  1  0.37682047  0.74175830  0.06618102  1
  S2-  S239  1  0.39423273  0.76073913  0.53451716  1
  S2-  S240  1  0.63113554  0.00631219  0.03453874  1
  S2-  S241  1  0.64165962  0.00584739  0.55520512  1
  S2-  S242  1  0.62829216  0.25031636  0.04013912  1
  S2-  S243  1  0.63645767  0.25497716  0.54028616  1
  S2-  S244  1  0.63188759  0.49780661  0.04440743  1
  S2-  S245  1  0.63408279  0.50250020  0.53752855  1
  S2-  S246  1  0.62907775  0.74629824  0.04332892  1
  S2-  S247  1  0.63548616  0.75040371  0.54911486  1
  S2-  S248  1  0.87379735  0.00104899  0.04450851  1
  S2-  S249  1  0.88802631  -0.00050341  0.55371484  1
  S2-  S250  1  0.87920940  0.24856705  0.04152388  1
  S2-  S251  1  0.89678934  0.26446115  0.54962214  1
  S2-  S252  1  0.88066841  0.50124881  0.05084735  1
  S2-  S253  1  0.88896918  0.50279750  0.54726289  1
  S2-  S254  1  0.87036456  0.75582391  0.04429151  1
  S2-  S255  1  0.88383129  0.75533216  0.53729227  1
