# generated using pymatgen
data_La9Ce10Pr6Nd4Sm3(BiS2)32
_symmetry_space_group_name_H-M   'P 1'
_cell_length_a   16.11598555
_cell_length_b   16.07402782
_cell_length_c   27.37911371
_cell_angle_alpha   89.99752015
_cell_angle_beta   89.91141340
_cell_angle_gamma   90.00829720
_symmetry_Int_Tables_number   1
_chemical_formula_structural   La9Ce10Pr6Nd4Sm3(BiS2)32
_chemical_formula_sum   'La18 Ce20 Pr12 Nd8 Sm6 Bi64 S128'
_cell_volume   7092.51799434
_cell_formula_units_Z   2
loop_
 _symmetry_equiv_pos_site_id
 _symmetry_equiv_pos_as_xyz
  1  'x, y, z'
loop_
 _atom_type_symbol
 _atom_type_oxidation_number
  La3+  3.0
  Ce3+  3.0
  Pr3+  3.0
  Nd3+  3.0
  Sm3+  3.0
  Bi2+  2.0
  S2-  -2.0
loop_
 _atom_site_type_symbol
 _atom_site_label
 _atom_site_symmetry_multiplicity
 _atom_site_fract_x
 _atom_site_fract_y
 _atom_site_fract_z
 _atom_site_occupancy
  La3+  La0  1  0.13116091  0.29016471  0.93579108  1
  La3+  La1  1  0.63024738  0.28356207  0.93550306  1
  La3+  La2  1  0.64188405  0.77852371  0.92347440  1
  La3+  La3  1  0.38467128  0.46507318  0.42599420  1
  La3+  La4  1  0.39003656  0.21735108  0.42779802  1
  La3+  La5  1  0.50987216  0.83630801  0.57776566  1
  La3+  La6  1  0.63710749  0.03285479  0.91832112  1
  La3+  La7  1  0.00262924  0.90477502  0.07805733  1
  La3+  La8  1  0.76925901  0.34717386  0.57019503  1
  La3+  La9  1  0.38594503  0.72523594  0.42524479  1
  La3+  La10  1  0.26018384  0.34075967  0.56763103  1
  La3+  La11  1  0.26563035  0.66383067  0.10825274  1
  La3+  La12  1  0.13977311  0.46663599  0.41441742  1
  La3+  La13  1  0.00048182  0.39060652  0.08890559  1
  La3+  La14  1  0.88215614  0.47221833  0.42298044  1
  La3+  La15  1  0.88546978  0.72272823  0.41657671  1
  La3+  La16  1  0.88257572  0.29084540  0.93305321  1
  La3+  La17  1  0.88460575  0.22232971  0.42456952  1
  Ce3+  Ce18  1  0.00624794  0.15558221  0.05181322  1
  Ce3+  Ce19  1  0.63724184  0.46902979  0.44596548  1
  Ce3+  Ce20  1  0.25543273  0.59728050  0.55263810  1
  Ce3+  Ce21  1  0.13580225  -0.02920164  0.44036447  1
  Ce3+  Ce22  1  0.50310013  0.40294418  0.06803346  1
  Ce3+  Ce23  1  0.50775052  0.90502993  0.04238796  1
  Ce3+  Ce24  1  0.25843233  0.90117760  0.04927762  1
  Ce3+  Ce25  1  0.13771425  0.22065532  0.43638267  1
  Ce3+  Ce26  1  0.38211270  0.77794302  0.93104632  1
  Ce3+  Ce27  1  0.01238052  0.59454944  0.54473926  1
  Ce3+  Ce28  1  0.25618910  0.40068834  0.07584293  1
  Ce3+  Ce29  1  0.12917566  0.03026397  0.94134338  1
  Ce3+  Ce30  1  0.01607761  0.34915752  0.55671528  1
  Ce3+  Ce31  1  0.87795281  0.02707386  0.94413142  1
  Ce3+  Ce32  1  0.39200474  -0.02667218  0.43594552  1
  Ce3+  Ce33  1  0.88433759  -0.03077391  0.44735955  1
  Ce3+  Ce34  1  0.63306355  0.72693006  0.43180564  1
  Ce3+  Ce35  1  0.25876571  0.08775326  0.56493773  1
  Ce3+  Ce36  1  0.63712327  -0.03245111  0.44491841  1
  Ce3+  Ce37  1  0.13852508  0.72499630  0.42768701  1
  Pr3+  Pr38  1  0.00545684  0.65710221  0.08218681  1
  Pr3+  Pr39  1  0.76154908  0.83496377  0.57059324  1
  Pr3+  Pr40  1  0.38126616  0.03865190  0.92499061  1
  Pr3+  Pr41  1  0.73990864  0.89702788  0.07469902  1
  Pr3+  Pr42  1  0.37969866  0.28414643  0.94016871  1
  Pr3+  Pr43  1  0.37769348  0.52807259  0.94394063  1
  Pr3+  Pr44  1  0.00844714  0.09806315  0.55913425  1
  Pr3+  Pr45  1  0.75269758  0.15267049  0.06086114  1
  Pr3+  Pr46  1  0.50801875  0.15452317  0.06903480  1
  Pr3+  Pr47  1  0.26161899  0.15285513  0.07145446  1
  Pr3+  Pr48  1  0.12674593  0.78231536  0.94083507  1
  Pr3+  Pr49  1  0.50529516  0.65579958  0.05884931  1
  Nd3+  Nd50  1  0.00717143  0.83815621  0.56308480  1
  Nd3+  Nd51  1  0.50889495  0.09327026  0.56670846  1
  Nd3+  Nd52  1  0.25667896  0.84232255  0.56395882  1
  Nd3+  Nd53  1  0.75914174  0.09456372  0.56019424  1
  Nd3+  Nd54  1  0.50797490  0.34469632  0.56014494  1
  Nd3+  Nd55  1  0.76421455  0.59728990  0.55321615  1
  Nd3+  Nd56  1  0.75290171  0.40459079  0.07224526  1
  Nd3+  Nd57  1  0.13111266  0.53270130  0.96196314  1
  Sm3+  Sm58  1  0.88699128  0.52784835  0.95353563  1
  Sm3+  Sm59  1  0.75543476  0.65412881  0.05895673  1
  Sm3+  Sm60  1  0.63686914  0.21922490  0.44829903  1
  Sm3+  Sm61  1  0.88262117  0.77861824  0.94737203  1
  Sm3+  Sm62  1  0.63315018  0.52449148  0.94207839  1
  Sm3+  Sm63  1  0.50552253  0.59561133  0.54873136  1
  Bi2+  Bi64  1  -0.03636811  0.17177996  0.29564997  1
  Bi2+  Bi65  1  0.03500506  0.04440738  0.77299151  1
  Bi2+  Bi66  1  0.01798506  0.36608103  0.27731445  1
  Bi2+  Bi67  1  -0.00600619  0.33420730  0.80476944  1
  Bi2+  Bi68  1  -0.02497077  0.63648164  0.27474302  1
  Bi2+  Bi69  1  -0.06188646  0.63668371  0.81702131  1
  Bi2+  Bi70  1  -0.01765664  0.89702488  0.30810802  1
  Bi2+  Bi71  1  -0.01523017  0.83923559  0.81232615  1
  Bi2+  Bi72  1  0.26416266  0.16117067  0.29917861  1
  Bi2+  Bi73  1  0.18551746  0.16192296  0.74060720  1
  Bi2+  Bi74  1  0.28322828  0.35786357  0.29265576  1
  Bi2+  Bi75  1  0.22210864  0.36634555  0.81017674  1
  Bi2+  Bi76  1  0.34358074  0.64009267  0.28566267  1
  Bi2+  Bi77  1  0.23542994  0.56694169  0.78647545  1
  Bi2+  Bi78  1  0.25374169  0.90130235  0.31280293  1
  Bi2+  Bi79  1  0.20930794  0.77166908  0.77322541  1
  Bi2+  Bi80  1  0.53477365  0.09721550  0.29234461  1
  Bi2+  Bi81  1  0.47010527  0.10531099  0.79124062  1
  Bi2+  Bi82  1  0.54606573  0.41025087  0.28401719  1
  Bi2+  Bi83  1  0.45686648  0.31311990  0.80163029  1
  Bi2+  Bi84  1  0.54476959  0.61428655  0.27409240  1
  Bi2+  Bi85  1  0.42660563  0.58129715  0.76079567  1
  Bi2+  Bi86  1  0.44298619  0.86076153  0.30242724  1
  Bi2+  Bi87  1  0.46740791  0.85711644  0.78629104  1
  Bi2+  Bi88  1  0.76832072  0.16217699  0.31324504  1
  Bi2+  Bi89  1  0.81694899  0.09875037  0.77751551  1
  Bi2+  Bi90  1  0.75287064  0.35338814  0.28171459  1
  Bi2+  Bi91  1  0.69263283  0.28209693  0.79638590  1
  Bi2+  Bi92  1  0.74369063  0.64447031  0.27757689  1
  Bi2+  Bi93  1  0.71540696  0.59069835  0.73588748  1
  Bi2+  Bi94  1  0.71453223  0.89731152  0.29314831  1
  Bi2+  Bi95  1  0.71823773  0.85984744  0.79663891  1
  Bi2+  Bi96  1  0.13245215  0.02244184  0.18771788  1
  Bi2+  Bi97  1  0.09263397  -0.09037428  0.68429466  1
  Bi2+  Bi98  1  0.13465291  0.21204644  0.21484976  1
  Bi2+  Bi99  1  0.06923234  0.30668841  0.69751646  1
  Bi2+  Bi100  1  0.16705356  0.51631693  0.23437108  1
  Bi2+  Bi101  1  0.05118700  0.53555563  0.74423110  1
  Bi2+  Bi102  1  0.14704699  0.83263544  0.22150244  1
  Bi2+  Bi103  1  0.08472469  0.70949367  0.68743599  1
  Bi2+  Bi104  1  0.32394943  0.01659259  0.22599286  1
  Bi2+  Bi105  1  0.24275254  -0.02944629  0.74614361  1
  Bi2+  Bi106  1  0.38672083  0.22590378  0.20909697  1
  Bi2+  Bi107  1  0.34332205  0.28650193  0.71035592  1
  Bi2+  Bi108  1  0.42238119  0.49204057  0.21029079  1
  Bi2+  Bi109  1  0.30453467  0.47675039  0.69298911  1
  Bi2+  Bi110  1  0.42904890  0.82998248  0.18939851  1
  Bi2+  Bi111  1  0.36494559  0.74013988  0.69749925  1
  Bi2+  Bi112  1  0.69779258  0.05436777  0.22665658  1
  Bi2+  Bi113  1  0.62897898  0.01897149  0.70569255  1
  Bi2+  Bi114  1  0.64545257  0.26674104  0.20044420  1
  Bi2+  Bi115  1  0.59210806  0.25275691  0.69857365  1
  Bi2+  Bi116  1  0.60864771  0.50029849  0.16974282  1
  Bi2+  Bi117  1  0.57960406  0.46226279  0.76923663  1
  Bi2+  Bi118  1  0.61779321  0.79295290  0.21491138  1
  Bi2+  Bi119  1  0.60963556  0.74725510  0.69945088  1
  Bi2+  Bi120  1  0.94090075  0.01645223  0.22344704  1
  Bi2+  Bi121  1  0.88955375  -0.06609013  0.72790874  1
  Bi2+  Bi122  1  0.85849776  0.20445177  0.19496678  1
  Bi2+  Bi123  1  0.85983193  0.23970710  0.69176077  1
  Bi2+  Bi124  1  0.79163760  0.50192065  0.20475378  1
  Bi2+  Bi125  1  0.86473846  0.47066141  0.76646901  1
  Bi2+  Bi126  1  0.87020986  0.77761857  0.19806278  1
  Bi2+  Bi127  1  0.87007124  0.70751773  0.70794317  1
  S2-  S128  1  0.00801881  0.22092572  0.14151093  1
  S2-  S129  1  -0.00464300  0.15706886  0.65464670  1
  S2-  S130  1  0.05855593  0.42795802  0.18736830  1
  S2-  S131  1  -0.08418554  0.36434828  0.63650218  1
  S2-  S132  1  -0.07482376  0.61554638  0.17297578  1
  S2-  S133  1  -0.03237008  0.60599835  0.63974965  1
  S2-  S134  1  0.02894354  0.78819023  0.15328317  1
  S2-  S135  1  -0.10551691  0.83488310  0.64080694  1
  S2-  S136  1  0.25499839  0.27500589  0.14891493  1
  S2-  S137  1  0.25586687  0.19763180  0.64053072  1
  S2-  S138  1  0.27327603  0.50087269  0.15628304  1
  S2-  S139  1  0.16120201  0.41433585  0.64118060  1
  S2-  S140  1  0.21030229  0.67922414  0.20969844  1
  S2-  S141  1  0.24322717  0.70271013  0.63222094  1
  S2-  S142  1  0.27527565  0.84224929  0.14034356  1
  S2-  S143  1  0.24932021  0.96184502  0.64096083  1
  S2-  S144  1  0.38946710  0.09876134  0.14129633  1
  S2-  S145  1  0.49760256  0.10612770  0.66684795  1
  S2-  S146  1  0.50323639  0.29226458  0.14501411  1
  S2-  S147  1  0.48046550  0.36434695  0.65678507  1
  S2-  S148  1  0.42855592  0.67555652  0.14885816  1
  S2-  S149  1  0.49823881  0.67286953  0.63591400  1
  S2-  S150  1  0.57486333  0.89974086  0.13308580  1
  S2-  S151  1  0.46715439  0.87409640  0.67850413  1
  S2-  S152  1  0.64147215  0.12731061  0.13918686  1
  S2-  S153  1  0.75139879  0.10687906  0.65874056  1
  S2-  S154  1  0.85179997  0.36646252  0.15123900  1
  S2-  S155  1  0.71323836  0.34468527  0.66776636  1
  S2-  S156  1  0.73218788  0.74497918  0.14154942  1
  S2-  S157  1  0.73768979  0.68008322  0.63945352  1
  S2-  S158  1  0.86130376  0.92272630  0.14767171  1
  S2-  S159  1  0.67239769  0.88554675  0.65633791  1
  S2-  S160  1  0.11628457  -0.00338960  0.34347926  1
  S2-  S161  1  0.09204663  -0.04753887  0.85678168  1
  S2-  S162  1  0.13978368  0.31564199  0.35278217  1
  S2-  S163  1  0.14443665  0.22176618  0.84017686  1
  S2-  S164  1  0.06643005  0.51881580  0.32268834  1
  S2-  S165  1  0.12129114  0.44312073  0.87406699  1
  S2-  S166  1  0.25764796  0.72825470  0.35082359  1
  S2-  S167  1  0.08360918  0.71093560  0.85197792  1
  S2-  S168  1  0.39153365  0.08825929  0.35722316  1
  S2-  S169  1  0.36666589  -0.01777541  0.82657248  1
  S2-  S170  1  0.41420718  0.33852247  0.35068215  1
  S2-  S171  1  0.37793622  0.17926576  0.85655020  1
  S2-  S172  1  0.28512671  0.50710989  0.34343828  1
  S2-  S173  1  0.37061516  0.41276015  0.86650225  1
  S2-  S174  1  0.51552806  0.73155511  0.35389543  1
  S2-  S175  1  0.35525797  0.76218938  0.83487577  1
  S2-  S176  1  0.56978778  -0.03950728  0.35433661  1
  S2-  S177  1  0.58819994  -0.02266282  0.81440868  1
  S2-  S178  1  0.60632105  0.20170607  0.35154631  1
  S2-  S179  1  0.61687194  0.17520565  0.85282576  1
  S2-  S180  1  0.66844166  0.45577540  0.35056869  1
  S2-  S181  1  0.64569845  0.41875755  0.86365592  1
  S2-  S182  1  0.74232850  0.75787284  0.35478529  1
  S2-  S183  1  0.58830127  0.75533885  0.82644510  1
  S2-  S184  1  0.83800139  -0.04042574  0.35372206  1
  S2-  S185  1  0.78957127  0.00782551  0.85993709  1
  S2-  S186  1  0.88896594  0.34994375  0.35063515  1
  S2-  S187  1  0.87845170  0.22291449  0.83685981  1
  S2-  S188  1  0.87093277  0.58911138  0.34234230  1
  S2-  S189  1  0.88767677  0.43782588  0.86893956  1
  S2-  S190  1  1.02631657  0.74558697  0.34967453  1
  S2-  S191  1  0.79613793  0.77405833  0.86130156  1
  S2-  S192  1  0.00859924  0.09712761  0.45005041  1
  S2-  S193  1  0.00509966  0.15496757  0.94683386  1
  S2-  S194  1  0.01204405  0.34402475  0.45186102  1
  S2-  S195  1  0.00581577  0.40710555  0.97673907  1
  S2-  S196  1  0.01343552  0.59406257  0.44184937  1
  S2-  S197  1  0.00290280  0.65411237  0.96907125  1
  S2-  S198  1  0.00989571  0.85010385  0.45661291  1
  S2-  S199  1  0.00155031  0.90281671  0.96688312  1
  S2-  S200  1  0.25939617  0.09371708  0.45721897  1
  S2-  S201  1  0.25103769  0.15427178  0.95888969  1
  S2-  S202  1  0.26366898  0.34055183  0.45508308  1
  S2-  S203  1  0.25494081  0.40748643  0.97100082  1
  S2-  S204  1  0.26090030  0.59664172  0.45012919  1
  S2-  S205  1  0.25383047  0.65359760  0.94377429  1
  S2-  S206  1  0.26303560  0.85237311  0.45536121  1
  S2-  S207  1  0.25685576  0.90447729  0.94387069  1
  S2-  S208  1  0.51575941  0.09501662  0.46108163  1
  S2-  S209  1  0.50692608  0.15518331  0.95868984  1
  S2-  S210  1  0.51532217  0.34334218  0.45603090  1
  S2-  S211  1  0.50742791  0.40842879  0.96325861  1
  S2-  S212  1  0.50941048  0.59045247  0.44586810  1
  S2-  S213  1  0.50982963  0.64859282  0.94674653  1
  S2-  S214  1  0.51058510  0.84800975  0.46131391  1
  S2-  S215  1  0.50863465  0.90339731  0.93703353  1
  S2-  S216  1  0.75955113  0.09646400  0.45425869  1
  S2-  S217  1  0.76036433  0.15963654  0.95426382  1
  S2-  S218  1  0.75846975  0.34230705  0.45777353  1
  S2-  S219  1  0.75722789  0.40988489  0.96761268  1
  S2-  S220  1  0.75515860  0.59796944  0.44948530  1
  S2-  S221  1  0.75880583  0.64478448  0.95515859  1
  S2-  S222  1  0.76023407  0.84759979  0.46321505  1
  S2-  S223  1  0.75965891  0.90059287  0.96449592  1
  S2-  S224  1  0.13275196  0.02835527  0.04805195  1
  S2-  S225  1  0.12691179  -0.03225909  0.54410122  1
  S2-  S226  1  0.13248029  0.27647717  0.04595188  1
  S2-  S227  1  0.13315959  0.21903219  0.54116291  1
  S2-  S228  1  0.12956114  0.53308475  0.06582400  1
  S2-  S229  1  0.13641393  0.47219163  0.52918002  1
  S2-  S230  1  0.13729056  0.77326428  0.04759203  1
  S2-  S231  1  0.13174878  0.72289269  0.53329304  1
  S2-  S232  1  0.38096747  0.02360922  0.03208860  1
  S2-  S233  1  0.38989195  -0.03347561  0.54618387  1
  S2-  S234  1  0.38193608  0.27889647  0.04551632  1
  S2-  S235  1  0.38862130  0.21698741  0.54236970  1
  S2-  S236  1  0.37943218  0.53322669  0.04914325  1
  S2-  S237  1  0.38317119  0.47075456  0.54150246  1
  S2-  S238  1  0.38270175  0.77673511  0.03615621  1
  S2-  S239  1  0.38206414  0.71966645  0.53561028  1
  S2-  S240  1  0.63159990  0.02760399  0.03131362  1
  S2-  S241  1  0.63324155  -0.02984988  0.54995747  1
  S2-  S242  1  0.63233468  0.28367294  0.04466646  1
  S2-  S243  1  0.63522289  0.22124364  0.55237582  1
  S2-  S244  1  0.63162555  0.53058071  0.04528545  1
  S2-  S245  1  0.63374213  0.47337508  0.55350290  1
  S2-  S246  1  0.62959588  0.77267327  0.03233103  1
  S2-  S247  1  0.63093974  0.71744226  0.53783487  1
  S2-  S248  1  0.88016148  0.03164511  0.04848330  1
  S2-  S249  1  0.88394467  -0.02808970  0.55200242  1
  S2-  S250  1  0.87674263  0.27627520  0.04262957  1
  S2-  S251  1  0.88436153  0.21881667  0.53742711  1
  S2-  S252  1  0.87848908  0.53059931  0.05681555  1
  S2-  S253  1  0.88508049  0.47369813  0.53267634  1
  S2-  S254  1  0.87853473  0.77575569  0.04916882  1
  S2-  S255  1  0.88751929  0.71690434  0.53108610  1
