# generated using pymatgen
data_La9Ce10Pr6Nd4Sm3(BiS2)32
_symmetry_space_group_name_H-M   'P 1'
_cell_length_a   16.14167420
_cell_length_b   16.17422130
_cell_length_c   27.09730430
_cell_angle_alpha   90.01277339
_cell_angle_beta   89.97904689
_cell_angle_gamma   89.98228612
_symmetry_Int_Tables_number   1
_chemical_formula_structural   La9Ce10Pr6Nd4Sm3(BiS2)32
_chemical_formula_sum   'La18 Ce20 Pr12 Nd8 Sm6 Bi64 S128'
_cell_volume   7074.53641353
_cell_formula_units_Z   2
loop_
 _symmetry_equiv_pos_site_id
 _symmetry_equiv_pos_as_xyz
  1  'x, y, z'
loop_
 _atom_type_symbol
 _atom_type_oxidation_number
  La3+  3.0
  Ce3+  3.0
  Pr3+  3.0
  Nd3+  3.0
  Sm3+  3.0
  Bi2+  2.0
  S2-  -2.0
loop_
 _atom_site_type_symbol
 _atom_site_label
 _atom_site_symmetry_multiplicity
 _atom_site_fract_x
 _atom_site_fract_y
 _atom_site_fract_z
 _atom_site_occupancy
  La3+  La0  1  -0.00465700  0.12336993  0.07561887  1
  La3+  La1  1  0.50147093  0.37235669  0.05684651  1
  La3+  La2  1  0.62807584  -0.00531095  0.91414684  1
  La3+  La3  1  0.62792757  0.49591611  0.92199449  1
  La3+  La4  1  0.11598002  0.49138284  0.92120606  1
  La3+  La5  1  0.35717809  -0.00147888  0.90245731  1
  La3+  La6  1  0.87546326  0.24636634  0.93695098  1
  La3+  La7  1  0.88736901  0.74515559  0.42757344  1
  La3+  La8  1  0.74878934  0.61274081  0.11003283  1
  La3+  La9  1  0.74910110  0.37753039  0.58379138  1
  La3+  La10  1  0.01150341  0.62715983  0.57789007  1
  La3+  La11  1  0.62274622  0.24375051  0.92493198  1
  La3+  La12  1  0.00711663  0.36295137  0.60847750  1
  La3+  La13  1  0.12842450  0.23962343  0.93916239  1
  La3+  La14  1  0.26146213  0.11531647  0.08475544  1
  La3+  La15  1  0.88704161  0.49251419  0.45182449  1
  La3+  La16  1  0.63238875  0.75757522  0.41126284  1
  La3+  La17  1  0.75126457  0.86639164  0.07217463  1
  Ce3+  Ce18  1  0.13476749  0.00429479  0.44219285  1
  Ce3+  Ce19  1  0.39337310  0.23608588  0.41239099  1
  Ce3+  Ce20  1  0.63365068  0.49829571  0.44630365  1
  Ce3+  Ce21  1  0.50285572  0.62325575  0.06119109  1
  Ce3+  Ce22  1  0.75609516  0.86830751  0.55815976  1
  Ce3+  Ce23  1  0.12720582  -0.00516838  0.95568081  1
  Ce3+  Ce24  1  0.87235849  -0.00671261  0.93749188  1
  Ce3+  Ce25  1  0.63139542  -0.00399064  0.44311168  1
  Ce3+  Ce26  1  0.62281631  0.74903987  0.93465006  1
  Ce3+  Ce27  1  0.88324724  0.00018799  0.44368095  1
  Ce3+  Ce28  1  0.37466724  0.74943875  0.93996800  1
  Ce3+  Ce29  1  0.74861450  0.37410155  0.05756567  1
  Ce3+  Ce30  1  0.24770173  0.61865878  0.05724731  1
  Ce3+  Ce31  1  0.13182718  0.74668631  0.43907414  1
  Ce3+  Ce32  1  0.38359167  0.74767673  0.44600026  1
  Ce3+  Ce33  1  0.24754813  0.37213547  0.05370153  1
  Ce3+  Ce34  1  0.00802822  0.12928154  0.55683965  1
  Ce3+  Ce35  1  0.25267436  0.61781545  0.56106540  1
  Ce3+  Ce36  1  0.75763422  0.12625287  0.55784311  1
  Ce3+  Ce37  1  -0.00672748  0.86500913  0.05972317  1
  Pr3+  Pr38  1  0.50827715  0.86536398  0.57286629  1
  Pr3+  Pr39  1  0.37402131  0.25157836  0.93153403  1
  Pr3+  Pr40  1  0.76293533  0.62836545  0.57540151  1
  Pr3+  Pr41  1  0.87274138  0.74381648  0.93907227  1
  Pr3+  Pr42  1  0.00055366  0.36965545  0.06760795  1
  Pr3+  Pr43  1  0.25680336  0.37042529  0.55732511  1
  Pr3+  Pr44  1  0.37462094  0.49949164  0.93044779  1
  Pr3+  Pr45  1  0.00660450  0.87559285  0.56223335  1
  Pr3+  Pr46  1  0.38541240  -0.00307811  0.44110888  1
  Pr3+  Pr47  1  0.13373832  0.49272585  0.43722980  1
  Pr3+  Pr48  1  0.00352641  0.61325496  0.07504112  1
  Pr3+  Pr49  1  0.74686102  0.12003515  0.06383660  1
  Nd3+  Nd50  1  0.25834837  0.12801464  0.56364552  1
  Nd3+  Nd51  1  0.25922807  0.87617982  0.55979727  1
  Nd3+  Nd52  1  0.25158660  0.86864430  0.07063193  1
  Nd3+  Nd53  1  0.50640958  0.37030605  0.56403052  1
  Nd3+  Nd54  1  0.64001361  0.25501060  0.43482336  1
  Nd3+  Nd55  1  0.38474011  0.49406923  0.44055981  1
  Nd3+  Nd56  1  0.12443064  0.74585489  0.94192813  1
  Nd3+  Nd57  1  0.13987342  0.24171339  0.40853891  1
  Sm3+  Sm58  1  0.49821506  0.11607492  0.04827936  1
  Sm3+  Sm59  1  0.50913699  0.62704173  0.55725793  1
  Sm3+  Sm60  1  0.50978768  0.12123707  0.56474249  1
  Sm3+  Sm61  1  0.87014554  0.49943081  0.93953337  1
  Sm3+  Sm62  1  0.49944138  0.87182640  0.05164467  1
  Sm3+  Sm63  1  0.88442090  0.24981341  0.44488409  1
  Bi2+  Bi64  1  0.01611341  0.09710575  0.28602180  1
  Bi2+  Bi65  1  0.00839358  0.10001975  0.78349732  1
  Bi2+  Bi66  1  -0.07052627  0.37009252  0.30052218  1
  Bi2+  Bi67  1  -0.01672411  0.34203918  0.79617114  1
  Bi2+  Bi68  1  0.03733267  0.60007216  0.29897147  1
  Bi2+  Bi69  1  0.01735076  0.60944145  0.79962185  1
  Bi2+  Bi70  1  0.03327607  0.86769792  0.28370842  1
  Bi2+  Bi71  1  -0.03424269  0.90850537  0.79691563  1
  Bi2+  Bi72  1  0.26963389  0.13482988  0.28347770  1
  Bi2+  Bi73  1  0.21248406  0.08130122  0.77636408  1
  Bi2+  Bi74  1  0.32563136  0.42916086  0.23246580  1
  Bi2+  Bi75  1  0.28829803  0.32017139  0.77732450  1
  Bi2+  Bi76  1  0.23529803  0.67934094  0.28484722  1
  Bi2+  Bi77  1  0.32461972  0.58849647  0.79176836  1
  Bi2+  Bi78  1  0.23582108  0.87882492  0.29395936  1
  Bi2+  Bi79  1  0.20472086  0.85413134  0.79546264  1
  Bi2+  Bi80  1  0.57311750  0.11245223  0.27408529  1
  Bi2+  Bi81  1  0.46668183  0.17350982  0.79300536  1
  Bi2+  Bi82  1  0.47502376  0.36282332  0.30219838  1
  Bi2+  Bi83  1  0.50256904  0.44224706  0.77738988  1
  Bi2+  Bi84  1  0.42938812  0.62897521  0.29775160  1
  Bi2+  Bi85  1  0.50014163  0.62684450  0.84301877  1
  Bi2+  Bi86  1  0.43577303  0.93184188  0.30537011  1
  Bi2+  Bi87  1  0.48767808  0.80611781  0.78984713  1
  Bi2+  Bi88  1  0.81576233  0.12260139  0.30239376  1
  Bi2+  Bi89  1  0.71300853  0.07072197  0.76842081  1
  Bi2+  Bi90  1  0.69206024  0.36204336  0.26574088  1
  Bi2+  Bi91  1  0.73727681  0.36072830  0.78321881  1
  Bi2+  Bi92  1  0.73770352  0.58686632  0.32566532  1
  Bi2+  Bi93  1  0.69029930  0.62759716  0.81003903  1
  Bi2+  Bi94  1  0.70777819  0.95902112  0.27157898  1
  Bi2+  Bi95  1  0.78197411  0.83058053  0.81475046  1
  Bi2+  Bi96  1  0.13213368  -0.01410361  0.20988601  1
  Bi2+  Bi97  1  0.09272385  -0.04034750  0.70914243  1
  Bi2+  Bi98  1  0.11885155  0.29012159  0.21663210  1
  Bi2+  Bi99  1  0.15088362  0.22296313  0.71129658  1
  Bi2+  Bi100  1  0.14188006  0.51197980  0.21825640  1
  Bi2+  Bi101  1  0.16709570  0.48121739  0.72067628  1
  Bi2+  Bi102  1  0.12169345  0.78244454  0.19297796  1
  Bi2+  Bi103  1  0.14393476  0.73762376  0.71247125  1
  Bi2+  Bi104  1  0.43722285  -0.00917056  0.20001745  1
  Bi2+  Bi105  1  0.39910007  0.00605530  0.70162749  1
  Bi2+  Bi106  1  0.45356978  0.23622962  0.21546059  1
  Bi2+  Bi107  1  0.39924608  0.36417533  0.68798968  1
  Bi2+  Bi108  1  0.37672702  0.59907293  0.18427356  1
  Bi2+  Bi109  1  0.35900595  0.55520398  0.67696647  1
  Bi2+  Bi110  1  0.32017657  0.78429356  0.19744552  1
  Bi2+  Bi111  1  0.34220463  0.74732240  0.71970617  1
  Bi2+  Bi112  1  0.64117197  0.03478809  0.17249185  1
  Bi2+  Bi113  1  0.70434778  -0.07155661  0.69493945  1
  Bi2+  Bi114  1  0.66492182  0.22848997  0.18333543  1
  Bi2+  Bi115  1  0.59778777  0.22897591  0.71247803  1
  Bi2+  Bi116  1  0.55638200  0.48544829  0.22513531  1
  Bi2+  Bi117  1  0.55514608  0.57051938  0.69248798  1
  Bi2+  Bi118  1  0.58849408  0.75025870  0.21725208  1
  Bi2+  Bi119  1  0.64205792  0.74129471  0.72225426  1
  Bi2+  Bi120  1  0.88682170  -0.01903777  0.21579197  1
  Bi2+  Bi121  1  0.89413263  -0.01824975  0.69555320  1
  Bi2+  Bi122  1  0.85690984  0.23854695  0.21098586  1
  Bi2+  Bi123  1  0.86641999  0.18601949  0.70970120  1
  Bi2+  Bi124  1  0.88498147  0.49032495  0.21016862  1
  Bi2+  Bi125  1  0.83651264  0.49443018  0.71952273  1
  Bi2+  Bi126  1  0.84004876  0.74032162  0.23494538  1
  Bi2+  Bi127  1  0.88954832  0.75351889  0.71239577  1
  S2-  S128  1  0.00712287  0.25555412  0.15046162  1
  S2-  S129  1  0.01013204  0.19659454  0.64853164  1
  S2-  S130  1  0.01263404  0.47242486  0.15051908  1
  S2-  S131  1  0.01019030  0.44079341  0.70776063  1
  S2-  S132  1  -0.09452649  0.64770804  0.16088766  1
  S2-  S133  1  -0.10346309  0.61601424  0.65796987  1
  S2-  S134  1  -0.09961518  0.87659896  0.14184957  1
  S2-  S135  1  0.01416969  0.78072897  0.64736875  1
  S2-  S136  1  0.20169961  0.16474633  0.18348275  1
  S2-  S137  1  0.25954777  0.11075282  0.66536448  1
  S2-  S138  1  0.23325232  0.37700988  0.15278554  1
  S2-  S139  1  0.17444636  0.36155128  0.64779929  1
  S2-  S140  1  0.15062448  0.62524388  0.13992808  1
  S2-  S141  1  0.15331579  0.60985697  0.64475687  1
  S2-  S142  1  0.27490011  0.96871208  0.15287892  1
  S2-  S143  1  0.31584664  0.88090458  0.65471652  1
  S2-  S144  1  0.41989092  0.13394726  0.13826803  1
  S2-  S145  1  0.47435855  0.14707537  0.66135897  1
  S2-  S146  1  0.49409612  0.38189224  0.15861016  1
  S2-  S147  1  0.60406111  0.35085783  0.64739129  1
  S2-  S148  1  0.57972098  0.61636295  0.15070256  1
  S2-  S149  1  0.52749512  0.72320281  0.63966477  1
  S2-  S150  1  0.50755885  0.84854532  0.15269672  1
  S2-  S151  1  0.53284388  0.94976686  0.66193927  1
  S2-  S152  1  0.86114118  0.10444055  0.14438074  1
  S2-  S153  1  0.72340457  0.14502199  0.65363530  1
  S2-  S154  1  0.76132713  0.44493160  0.14659528  1
  S2-  S155  1  0.84991112  0.34277269  0.66551424  1
  S2-  S156  1  0.75265287  0.60294443  0.22855721  1
  S2-  S157  1  0.72038102  0.52459087  0.65621076  1
  S2-  S158  1  0.71987289  0.77284900  0.16024692  1
  S2-  S159  1  0.75960912  0.77216842  0.64028206  1
  S2-  S160  1  0.14788419  0.08260306  0.35391042  1
  S2-  S161  1  0.18791971  -0.00557974  0.86354337  1
  S2-  S162  1  0.05158156  0.26487941  0.31755011  1
  S2-  S163  1  0.11338836  0.31168069  0.84682134  1
  S2-  S164  1  0.13132059  0.48316573  0.33459395  1
  S2-  S165  1  0.17387346  0.53150432  0.82387918  1
  S2-  S166  1  0.02572938  0.74643520  0.35991331  1
  S2-  S167  1  0.10973301  0.73719856  0.84213552  1
  S2-  S168  1  0.38203814  0.08229580  0.35167016  1
  S2-  S169  1  0.43766467  0.01594147  0.80666418  1
  S2-  S170  1  0.27347155  0.26370662  0.34119848  1
  S2-  S171  1  0.31801281  0.17418918  0.84665150  1
  S2-  S172  1  0.36707751  0.49169848  0.34072284  1
  S2-  S173  1  0.37517072  0.38940286  0.84961297  1
  S2-  S174  1  0.42624346  0.78316164  0.35385377  1
  S2-  S175  1  0.35079301  0.83371491  0.85477967  1
  S2-  S176  1  0.62075778  -0.08684968  0.35677868  1
  S2-  S177  1  0.61567855  0.13166325  0.84481926  1
  S2-  S178  1  0.54084383  0.22836945  0.35442319  1
  S2-  S179  1  0.60739967  0.36281980  0.84601571  1
  S2-  S180  1  0.65403336  0.43551801  0.35466288  1
  S2-  S181  1  0.76590019  0.49322074  0.84976501  1
  S2-  S182  1  0.60124995  0.68126952  0.31795601  1
  S2-  S183  1  0.61834526  0.85258972  0.85116051  1
  S2-  S184  1  0.91025726  -0.01251277  0.34709977  1
  S2-  S185  1  0.78462317  -0.00333329  0.85172709  1
  S2-  S186  1  0.81320375  0.27695674  0.35588870  1
  S2-  S187  1  0.83960096  0.25754844  0.83660174  1
  S2-  S188  1  0.89928395  0.52736328  0.35103636  1
  S2-  S189  1  0.97241320  0.48014469  0.85711561  1
  S2-  S190  1  0.79248618  0.74581963  0.34064628  1
  S2-  S191  1  0.89464314  0.69426808  0.83900532  1
  S2-  S192  1  0.00707977  0.12745556  0.45022006  1
  S2-  S193  1  -0.00070662  0.11773890  0.95590313  1
  S2-  S194  1  0.01168422  0.36382486  0.44110131  1
  S2-  S195  1  -0.00160450  0.36649602  0.95983684  1
  S2-  S196  1  0.01317650  0.62008875  0.46234457  1
  S2-  S197  1  0.00041628  0.62183012  0.95753499  1
  S2-  S198  1  0.01127798  0.87946899  0.45616320  1
  S2-  S199  1  -0.00053771  0.87049189  0.95144576  1
  S2-  S200  1  0.26135116  0.12592922  0.45750158  1
  S2-  S201  1  0.25215578  0.11682487  0.96370050  1
  S2-  S202  1  0.26156015  0.36853786  0.45013274  1
  S2-  S203  1  0.24695970  0.37368422  0.94867168  1
  S2-  S204  1  0.25888688  0.62056338  0.45082914  1
  S2-  S205  1  0.24943146  0.62194079  0.94815123  1
  S2-  S206  1  0.25698124  0.87497374  0.45120464  1
  S2-  S207  1  0.24831442  0.86979364  0.96373695  1
  S2-  S208  1  0.51237850  0.12069747  0.45888869  1
  S2-  S209  1  0.49059156  0.11576638  0.94515495  1
  S2-  S210  1  0.50639113  0.37014444  0.45643741  1
  S2-  S211  1  0.50038473  0.37389588  0.95127490  1
  S2-  S212  1  0.50866668  0.62355343  0.45074028  1
  S2-  S213  1  0.49921808  0.62157546  0.95643354  1
  S2-  S214  1  0.50697559  0.87248544  0.46327718  1
  S2-  S215  1  0.49337040  0.87827794  0.94837943  1
  S2-  S216  1  0.75715298  0.12374306  0.45080786  1
  S2-  S217  1  0.74911432  0.12066237  0.95456519  1
  S2-  S218  1  0.75774250  0.37340236  0.46815081  1
  S2-  S219  1  0.75000775  0.36989566  0.95239912  1
  S2-  S220  1  0.75761619  0.62161819  0.45404923  1
  S2-  S221  1  0.74630203  0.62401764  0.94664975  1
  S2-  S222  1  0.76093017  0.87491920  0.45222736  1
  S2-  S223  1  0.75035406  0.87036680  0.95878142  1
  S2-  S224  1  0.11950480  -0.00672030  0.06049694  1
  S2-  S225  1  0.13374358  0.00131828  0.55116384  1
  S2-  S226  1  0.13020747  0.23953457  0.04859847  1
  S2-  S227  1  0.13221461  0.24673570  0.54466177  1
  S2-  S228  1  0.12644742  0.49361318  0.03644786  1
  S2-  S229  1  0.12884341  0.49030302  0.54475852  1
  S2-  S230  1  0.12381816  0.75003640  0.04717327  1
  S2-  S231  1  0.13748587  0.75254605  0.54404514  1
  S2-  S232  1  0.37817916  -0.00862581  0.04518874  1
  S2-  S233  1  0.38490612  0.00096677  0.54873455  1
  S2-  S234  1  0.37411277  0.24901471  0.04095957  1
  S2-  S235  1  0.38617049  0.24574392  0.55073193  1
  S2-  S236  1  0.37356138  0.49762532  0.04259068  1
  S2-  S237  1  0.38506503  0.49894331  0.54705750  1
  S2-  S238  1  0.37447987  0.74599740  0.04851214  1
  S2-  S239  1  0.37627460  0.74455563  0.55036023  1
  S2-  S240  1  0.62302830  -0.00613117  0.04133247  1
  S2-  S241  1  0.63398888  -0.00216104  0.54908518  1
  S2-  S242  1  0.62213562  0.24225290  0.03965674  1
  S2-  S243  1  0.62999285  0.24378801  0.54207644  1
  S2-  S244  1  0.62643245  0.49849204  0.04204968  1
  S2-  S245  1  0.62707030  0.50334790  0.54897223  1
  S2-  S246  1  0.62249118  0.74803286  0.04238955  1
  S2-  S247  1  0.63542121  0.74600182  0.53665416  1
  S2-  S248  1  0.87409656  -0.00414777  0.04103427  1
  S2-  S249  1  0.88145242  0.00047629  0.55113262  1
  S2-  S250  1  0.87063669  0.24769834  0.04576646  1
  S2-  S251  1  0.88217418  0.25139581  0.54871759  1
  S2-  S252  1  0.87365818  0.49714051  0.04462207  1
  S2-  S253  1  0.89053250  0.49058966  0.55863470  1
  S2-  S254  1  0.87158581  0.73820808  0.04623569  1
  S2-  S255  1  0.88574385  0.74955774  0.53932399  1
