# generated using pymatgen
data_La9Ce10Pr6Nd4Sm3(BiS2)32
_symmetry_space_group_name_H-M   'P 1'
_cell_length_a   16.16220239
_cell_length_b   16.21078434
_cell_length_c   27.13888595
_cell_angle_alpha   89.99100409
_cell_angle_beta   90.44686663
_cell_angle_gamma   90.03659219
_symmetry_Int_Tables_number   1
_chemical_formula_structural   La9Ce10Pr6Nd4Sm3(BiS2)32
_chemical_formula_sum   'La18 Ce20 Pr12 Nd8 Sm6 Bi64 S128'
_cell_volume   7110.22399074
_cell_formula_units_Z   2
loop_
 _symmetry_equiv_pos_site_id
 _symmetry_equiv_pos_as_xyz
  1  'x, y, z'
loop_
 _atom_type_symbol
 _atom_type_oxidation_number
  La3+  3.0
  Ce3+  3.0
  Pr3+  3.0
  Nd3+  3.0
  Sm3+  3.0
  Bi2+  2.0
  S2-  -2.0
loop_
 _atom_site_type_symbol
 _atom_site_label
 _atom_site_symmetry_multiplicity
 _atom_site_fract_x
 _atom_site_fract_y
 _atom_site_fract_z
 _atom_site_occupancy
  La3+  La0  1  0.86579945  0.48883081  0.91495774  1
  La3+  La1  1  0.50612124  0.62055209  0.06142196  1
  La3+  La2  1  0.25656428  0.61678795  0.07964539  1
  La3+  La3  1  0.10808425  0.74632797  0.41471228  1
  La3+  La4  1  0.48704308  0.85664176  0.59269534  1
  La3+  La5  1  0.36778104  0.50029383  0.42272920  1
  La3+  La6  1  0.87108880  0.48607334  0.44077948  1
  La3+  La7  1  0.75109465  0.61879855  0.59772917  1
  La3+  La8  1  0.36589848  0.49424940  0.92498707  1
  La3+  La9  1  0.37454797  0.74246595  0.93713467  1
  La3+  La10  1  0.63304436  0.75041260  0.91800575  1
  La3+  La11  1  0.74992380  0.62093536  0.06393514  1
  La3+  La12  1  0.87905676  0.75242373  0.92822506  1
  La3+  La13  1  0.62380795  0.48183173  0.43165977  1
  La3+  La14  1  0.36526389  0.23472648  0.41476095  1
  La3+  La15  1  0.50155857  0.87143694  0.06257262  1
  La3+  La16  1  0.48741923  0.12489921  0.57902850  1
  La3+  La17  1  0.74732372  0.36038152  0.57444114  1
  Ce3+  Ce18  1  0.86548761  0.72961929  0.43453128  1
  Ce3+  Ce19  1  0.62399058  0.49392793  0.93612236  1
  Ce3+  Ce20  1  -0.00318297  0.11729515  0.56189793  1
  Ce3+  Ce21  1  -0.00912985  0.61956030  0.06096278  1
  Ce3+  Ce22  1  0.36975082  0.74153156  0.43387472  1
  Ce3+  Ce23  1  0.11943644  0.23954214  0.43319339  1
  Ce3+  Ce24  1  0.74894296  0.11920563  0.05009067  1
  Ce3+  Ce25  1  0.87112268  0.24415483  0.93044359  1
  Ce3+  Ce26  1  -0.00601141  0.36905419  0.05655798  1
  Ce3+  Ce27  1  0.49323748  0.36759552  0.55075412  1
  Ce3+  Ce28  1  0.49839107  0.61538265  0.55677328  1
  Ce3+  Ce29  1  0.74482703  0.86062913  0.55718417  1
  Ce3+  Ce30  1  0.86862853  0.24198919  0.43769653  1
  Ce3+  Ce31  1  0.50189381  0.37383015  0.06618840  1
  Ce3+  Ce32  1  0.25024668  0.87146680  0.07095194  1
  Ce3+  Ce33  1  0.86580705  -0.00819960  0.44639776  1
  Ce3+  Ce34  1  -0.00656727  0.86131765  0.55647750  1
  Ce3+  Ce35  1  -0.00268115  0.11878346  0.05254104  1
  Ce3+  Ce36  1  0.24975419  0.36961309  0.06308288  1
  Ce3+  Ce37  1  0.11414667  -0.01089338  0.43993986  1
  Pr3+  Pr38  1  0.50163119  0.11890821  0.06286350  1
  Pr3+  Pr39  1  0.24843148  0.36333302  0.55281037  1
  Pr3+  Pr40  1  0.12700501  -0.00682128  0.93706441  1
  Pr3+  Pr41  1  -0.00197052  0.87408289  0.07381600  1
  Pr3+  Pr42  1  0.12216641  0.49732878  0.94765413  1
  Pr3+  Pr43  1  0.61622235  -0.01161667  0.44940916  1
  Pr3+  Pr44  1  -0.00137744  0.61289622  0.57225910  1
  Pr3+  Pr45  1  0.61908436  0.24800598  0.94079595  1
  Pr3+  Pr46  1  0.74051093  0.11313613  0.56700246  1
  Pr3+  Pr47  1  0.75800310  0.36940696  0.06593469  1
  Pr3+  Pr48  1  0.12510531  0.74527193  0.95316746  1
  Pr3+  Pr49  1  -0.00210863  0.36124169  0.57031034  1
  Nd3+  Nd50  1  0.24751171  0.61956149  0.55431630  1
  Nd3+  Nd51  1  0.37160346  -0.01204953  0.92519792  1
  Nd3+  Nd52  1  0.12453748  0.24479987  0.94278257  1
  Nd3+  Nd53  1  0.36821222  -0.01006113  0.43764234  1
  Nd3+  Nd54  1  0.25036202  0.11921778  0.06174191  1
  Nd3+  Nd55  1  0.61390466  -0.00010923  0.92612944  1
  Nd3+  Nd56  1  0.61998865  0.73684445  0.43957953  1
  Nd3+  Nd57  1  0.87157960  -0.00525047  0.93337484  1
  Sm3+  Sm58  1  0.37305188  0.24608353  0.94850127  1
  Sm3+  Sm59  1  0.75038127  0.86991830  0.05979821  1
  Sm3+  Sm60  1  0.11809876  0.49315317  0.44570546  1
  Sm3+  Sm61  1  0.61697217  0.23623272  0.44062711  1
  Sm3+  Sm62  1  0.24550179  0.86278324  0.55432705  1
  Sm3+  Sm63  1  0.24812084  0.11202810  0.55600667  1
  Bi2+  Bi64  1  0.03244809  0.14340157  0.32001350  1
  Bi2+  Bi65  1  0.01484150  0.12040636  0.79707474  1
  Bi2+  Bi66  1  -0.01832072  0.33284543  0.28227289  1
  Bi2+  Bi67  1  0.03558778  0.31729073  0.77566083  1
  Bi2+  Bi68  1  -0.01767207  0.60608025  0.29868619  1
  Bi2+  Bi69  1  0.02128739  0.67047158  0.78288171  1
  Bi2+  Bi70  1  0.00563538  0.94818088  0.28359629  1
  Bi2+  Bi71  1  0.03391437  0.92800906  0.78244640  1
  Bi2+  Bi72  1  0.23002066  0.10663896  0.30342379  1
  Bi2+  Bi73  1  0.24106103  0.13282857  0.78644469  1
  Bi2+  Bi74  1  0.18395066  0.34035560  0.25321158  1
  Bi2+  Bi75  1  0.30413811  0.38536928  0.79260510  1
  Bi2+  Bi76  1  0.22891353  0.56250387  0.29901394  1
  Bi2+  Bi77  1  0.22586705  0.62128957  0.80052207  1
  Bi2+  Bi78  1  0.27709157  0.90595119  0.29688007  1
  Bi2+  Bi79  1  0.23860051  0.86532193  0.79556757  1
  Bi2+  Bi80  1  0.52809662  0.12019815  0.29493299  1
  Bi2+  Bi81  1  0.51978583  0.14061413  0.77136506  1
  Bi2+  Bi82  1  0.52077222  0.40508960  0.29344394  1
  Bi2+  Bi83  1  0.49168571  0.41197106  0.81921658  1
  Bi2+  Bi84  1  0.48318555  0.71833734  0.27839822  1
  Bi2+  Bi85  1  0.46688199  0.59409345  0.77504283  1
  Bi2+  Bi86  1  0.46907659  0.90856566  0.27011034  1
  Bi2+  Bi87  1  0.49827150  0.89551475  0.79318084  1
  Bi2+  Bi88  1  0.82786850  0.14271924  0.31699660  1
  Bi2+  Bi89  1  0.82019553  0.12377644  0.80064829  1
  Bi2+  Bi90  1  0.75853179  0.44288809  0.30516744  1
  Bi2+  Bi91  1  0.73474354  0.31297986  0.80100603  1
  Bi2+  Bi92  1  0.71881978  0.66320965  0.28856296  1
  Bi2+  Bi93  1  0.71141693  0.60777516  0.78654055  1
  Bi2+  Bi94  1  0.73206523  0.94421325  0.28390134  1
  Bi2+  Bi95  1  0.78595421  0.87407859  0.78885685  1
  Bi2+  Bi96  1  0.16289164  -0.00181299  0.21312263  1
  Bi2+  Bi97  1  0.12594756  0.03825817  0.69419874  1
  Bi2+  Bi98  1  0.07122125  0.20091590  0.20754924  1
  Bi2+  Bi99  1  0.15391608  0.23442386  0.69008929  1
  Bi2+  Bi100  1  0.02366963  0.48414214  0.21427930  1
  Bi2+  Bi101  1  0.10602279  0.48902548  0.73853564  1
  Bi2+  Bi102  1  0.11367685  0.74555524  0.21876011  1
  Bi2+  Bi103  1  0.13462594  0.77814423  0.70911629  1
  Bi2+  Bi104  1  0.37219151  0.03171055  0.19360283  1
  Bi2+  Bi105  1  0.31449751  -0.00615399  0.71787803  1
  Bi2+  Bi106  1  0.36721775  0.29589556  0.22167271  1
  Bi2+  Bi107  1  0.35189710  0.23797691  0.71089908  1
  Bi2+  Bi108  1  0.34506867  0.51519940  0.21638819  1
  Bi2+  Bi109  1  0.32637263  0.50705213  0.70060021  1
  Bi2+  Bi110  1  0.32451771  0.77284341  0.21843811  1
  Bi2+  Bi111  1  0.34626183  0.73033219  0.70248375  1
  Bi2+  Bi112  1  0.61556082  0.00875539  0.19813637  1
  Bi2+  Bi113  1  0.72616753  0.05676688  0.70833860  1
  Bi2+  Bi114  1  0.67905677  0.24240239  0.27077751  1
  Bi2+  Bi115  1  0.61706053  0.26972897  0.70856918  1
  Bi2+  Bi116  1  0.57852944  0.52177360  0.19629743  1
  Bi2+  Bi117  1  0.51656115  0.43768515  0.70450337  1
  Bi2+  Bi118  1  0.73013655  0.77965619  0.19986414  1
  Bi2+  Bi119  1  0.61187291  0.75840129  0.70994502  1
  Bi2+  Bi120  1  0.85799861  0.04391324  0.21424307  1
  Bi2+  Bi121  1  0.91475283  0.02216681  0.70525365  1
  Bi2+  Bi122  1  0.84105449  0.24590874  0.20893742  1
  Bi2+  Bi123  1  0.87604940  0.29781334  0.70488350  1
  Bi2+  Bi124  1  0.83100905  0.50998515  0.20640693  1
  Bi2+  Bi125  1  0.89982821  0.50286509  0.72384379  1
  Bi2+  Bi126  1  0.91924662  0.78900650  0.23019276  1
  Bi2+  Bi127  1  0.87506737  0.76126963  0.71718126  1
  S2-  S128  1  -0.00603614  0.08218982  0.14803867  1
  S2-  S129  1  -0.00319370  0.22682606  0.63980579  1
  S2-  S130  1  -0.10323000  0.35729547  0.13664537  1
  S2-  S131  1  0.02212882  0.47170582  0.65098015  1
  S2-  S132  1  -0.11873326  0.61761589  0.13642103  1
  S2-  S133  1  -0.10269329  0.63209190  0.65505696  1
  S2-  S134  1  0.12939878  0.87704689  0.14651664  1
  S2-  S135  1  -0.00118451  0.82000120  0.65189305  1
  S2-  S136  1  0.25548553  0.13932589  0.16138246  1
  S2-  S137  1  0.34413807  0.10947831  0.64034823  1
  S2-  S138  1  0.24999118  0.39100410  0.16128203  1
  S2-  S139  1  0.25199859  0.37125126  0.65423900  1
  S2-  S140  1  0.17432933  0.62076123  0.17161835  1
  S2-  S141  1  0.21525940  0.64855418  0.65166202  1
  S2-  S142  1  0.37686933  0.87234819  0.14224186  1
  S2-  S143  1  0.32685674  0.86291912  0.64360498  1
  S2-  S144  1  0.49827774  0.13045938  0.16443666  1
  S2-  S145  1  0.57611805  0.10649027  0.66921423  1
  S2-  S146  1  0.47868017  0.37404117  0.16729362  1
  S2-  S147  1  0.47643891  0.29306149  0.63822857  1
  S2-  S148  1  0.40344693  0.60893263  0.14734444  1
  S2-  S149  1  0.48972568  0.69582442  0.64488818  1
  S2-  S150  1  0.62863148  0.87641107  0.13483243  1
  S2-  S151  1  0.53969882  0.89804272  0.68816266  1
  S2-  S152  1  0.73407339  0.10546715  0.14815488  1
  S2-  S153  1  0.75487189  0.22349256  0.64594626  1
  S2-  S154  1  0.69243545  0.43200949  0.15640395  1
  S2-  S155  1  0.78794634  0.43533771  0.66471813  1
  S2-  S156  1  0.62758754  0.64480518  0.14207070  1
  S2-  S157  1  0.67598264  0.60020868  0.69196953  1
  S2-  S158  1  0.86282169  0.86306881  0.14258758  1
  S2-  S159  1  0.74452807  0.79210120  0.64709550  1
  S2-  S160  1  0.12309469  -0.09444949  0.35394581  1
  S2-  S161  1  0.23436329  0.00359591  0.85785148  1
  S2-  S162  1  0.21803035  0.25644081  0.35177784  1
  S2-  S163  1  0.14957441  0.25338687  0.84449958  1
  S2-  S164  1  0.09511070  0.49212929  0.34810567  1
  S2-  S165  1  0.21084823  0.48646122  0.86142177  1
  S2-  S166  1  0.16320750  0.70252314  0.31956783  1
  S2-  S167  1  0.13426665  0.75084370  0.85237583  1
  S2-  S168  1  0.38035563  0.08444703  0.35407538  1
  S2-  S169  1  0.48224951  0.03137451  0.84842917  1
  S2-  S170  1  0.44108201  0.26923625  0.31925173  1
  S2-  S171  1  0.39282109  0.27487652  0.85164307  1
  S2-  S172  1  0.36852208  0.45539348  0.32376871  1
  S2-  S173  1  0.36097999  0.63077721  0.85688888  1
  S2-  S174  1  0.38171341  0.65632954  0.34938528  1
  S2-  S175  1  0.38121512  0.84838674  0.85371300  1
  S2-  S176  1  0.62704111  0.03520726  0.35111282  1
  S2-  S177  1  0.64665375  -0.09493863  0.84413755  1
  S2-  S178  1  0.64306178  0.33793397  0.36060896  1
  S2-  S179  1  0.61854245  0.19829411  0.84218564  1
  S2-  S180  1  0.61166707  0.54449710  0.33362027  1
  S2-  S181  1  0.70931956  0.47450134  0.84974466  1
  S2-  S182  1  0.62630343  0.76871843  0.33957724  1
  S2-  S183  1  0.57372157  0.69256308  0.82517939  1
  S2-  S184  1  0.86269554  -0.04076096  0.34954661  1
  S2-  S185  1  0.91453447  -0.10844308  0.85700239  1
  S2-  S186  1  0.87377585  0.36049643  0.36420020  1
  S2-  S187  1  0.88150360  0.34066071  0.85001250  1
  S2-  S188  1  0.83934949  0.58177644  0.35354853  1
  S2-  S189  1  0.93456837  0.55222214  0.82638714  1
  S2-  S190  1  0.96004084  0.74421187  0.35321526  1
  S2-  S191  1  0.77844843  0.73164991  0.84576493  1
  S2-  S192  1  -0.00754117  0.11508059  0.45524371  1
  S2-  S193  1  -0.00013591  0.11887586  0.94446817  1
  S2-  S194  1  0.00311507  0.36330648  0.46173931  1
  S2-  S195  1  0.00151894  0.36881882  0.95042035  1
  S2-  S196  1  -0.00342721  0.61413773  0.45895850  1
  S2-  S197  1  -0.00258536  0.62084326  0.95183667  1
  S2-  S198  1  -0.01283110  0.86619078  0.45387910  1
  S2-  S199  1  0.00458770  0.87444155  0.96436381  1
  S2-  S200  1  0.23903895  0.10978063  0.45225794  1
  S2-  S201  1  0.25094936  0.12455514  0.95555986  1
  S2-  S202  1  0.24479550  0.37358817  0.44718967  1
  S2-  S203  1  0.24884648  0.36654663  0.95835416  1
  S2-  S204  1  0.23836185  0.62026023  0.44795552  1
  S2-  S205  1  0.24674861  0.61891000  0.96688221  1
  S2-  S206  1  0.24501524  0.86389304  0.45073174  1
  S2-  S207  1  0.24831366  0.86993327  0.96256036  1
  S2-  S208  1  0.49589774  0.11639067  0.45897831  1
  S2-  S209  1  0.49378923  0.12470898  0.95643471  1
  S2-  S210  1  0.48802550  0.36388213  0.44593953  1
  S2-  S211  1  0.49561651  0.37149344  0.95798587  1
  S2-  S212  1  0.49879792  0.61272092  0.45124067  1
  S2-  S213  1  0.50263857  0.61573244  0.95174012  1
  S2-  S214  1  0.49267192  0.86515992  0.44019124  1
  S2-  S215  1  0.50227964  0.87044428  0.95297144  1
  S2-  S216  1  0.74149467  0.11700191  0.45841088  1
  S2-  S217  1  0.74626863  0.11884572  0.94395149  1
  S2-  S218  1  0.74384870  0.35959478  0.46562113  1
  S2-  S219  1  0.74739107  0.36364692  0.95676174  1
  S2-  S220  1  0.73837249  0.61164802  0.45659457  1
  S2-  S221  1  0.74939032  0.61735746  0.95058807  1
  S2-  S222  1  0.74407822  0.86283901  0.45088025  1
  S2-  S223  1  0.74929413  0.87708599  0.95348099  1
  S2-  S224  1  0.12508471  -0.00038512  0.04429821  1
  S2-  S225  1  0.12259901  -0.01221751  0.54852097  1
  S2-  S226  1  0.12309351  0.24464630  0.05061614  1
  S2-  S227  1  0.12671633  0.23529489  0.54093977  1
  S2-  S228  1  0.11982918  0.49368171  0.05470944  1
  S2-  S229  1  0.12671616  0.49246638  0.54909664  1
  S2-  S230  1  0.12035662  0.73929695  0.05742132  1
  S2-  S231  1  0.12080800  0.74203763  0.54187824  1
  S2-  S232  1  0.37412127  -0.00024794  0.04085555  1
  S2-  S233  1  0.37214660  -0.01527310  0.54253489  1
  S2-  S234  1  0.37573136  0.24599791  0.05432936  1
  S2-  S235  1  0.36509766  0.23770284  0.53248900  1
  S2-  S236  1  0.37390134  0.48981637  0.04343030  1
  S2-  S237  1  0.37016785  0.49392029  0.54036538  1
  S2-  S238  1  0.37501620  0.74352028  0.04562368  1
  S2-  S239  1  0.37174866  0.74158367  0.53908347  1
  S2-  S240  1  0.62484311  -0.00082935  0.03536396  1
  S2-  S241  1  0.61481031  -0.01481426  0.55639367  1
  S2-  S242  1  0.62536626  0.24744631  0.05024862  1
  S2-  S243  1  0.61628827  0.23964479  0.54432085  1
  S2-  S244  1  0.62750834  0.49060285  0.04197633  1
  S2-  S245  1  0.62199971  0.49101325  0.55310899  1
  S2-  S246  1  0.62925848  0.74779167  0.03246284  1
  S2-  S247  1  0.61781262  0.74184968  0.54623271  1
  S2-  S248  1  0.87199066  -0.00397824  0.03976444  1
  S2-  S249  1  0.86919373  -0.00953302  0.55426738  1
  S2-  S250  1  0.87452075  0.23930999  0.03686949  1
  S2-  S251  1  0.87051858  0.23541028  0.54193143  1
  S2-  S252  1  0.87564636  0.49271899  0.03270870  1
  S2-  S253  1  0.87189181  0.49079991  0.54945395  1
  S2-  S254  1  0.87392376  0.74889826  0.03710704  1
  S2-  S255  1  0.86864783  0.73722373  0.54323410  1
