# generated using pymatgen
data_La9Ce10Pr6Nd4Sm3(BiS2)32
_symmetry_space_group_name_H-M   'P 1'
_cell_length_a   16.18944594
_cell_length_b   16.19174263
_cell_length_c   27.08957323
_cell_angle_alpha   89.90619959
_cell_angle_beta   90.13940922
_cell_angle_gamma   89.89713483
_symmetry_Int_Tables_number   1
_chemical_formula_structural   La9Ce10Pr6Nd4Sm3(BiS2)32
_chemical_formula_sum   'La18 Ce20 Pr12 Nd8 Sm6 Bi64 S128'
_cell_volume   7101.09251246
_cell_formula_units_Z   2
loop_
 _symmetry_equiv_pos_site_id
 _symmetry_equiv_pos_as_xyz
  1  'x, y, z'
loop_
 _atom_type_symbol
 _atom_type_oxidation_number
  La3+  3.0
  Ce3+  3.0
  Pr3+  3.0
  Nd3+  3.0
  Sm3+  3.0
  Bi2+  2.0
  S2-  -2.0
loop_
 _atom_site_type_symbol
 _atom_site_label
 _atom_site_symmetry_multiplicity
 _atom_site_fract_x
 _atom_site_fract_y
 _atom_site_fract_z
 _atom_site_occupancy
  La3+  La0  1  0.75605597  0.61896651  0.57621828  1
  La3+  La1  1  0.63168084  0.49958609  0.42574764  1
  La3+  La2  1  0.86037021  0.48984803  0.92061914  1
  La3+  La3  1  -0.00841127  0.10745667  0.07234913  1
  La3+  La4  1  -0.01142991  0.36959174  0.06659397  1
  La3+  La5  1  0.50688447  0.62291860  0.57563842  1
  La3+  La6  1  0.48547025  0.61347485  0.08991147  1
  La3+  La7  1  0.61688891  0.24016124  0.42382812  1
  La3+  La8  1  0.12392167  0.49646768  0.42959422  1
  La3+  La9  1  0.74113471  0.61115112  0.08522198  1
  La3+  La10  1  0.73922294  0.36125655  0.06467024  1
  La3+  La11  1  0.12209759  0.74238768  0.43247585  1
  La3+  La12  1  0.11341973  0.24118779  0.40246571  1
  La3+  La13  1  0.86011035  0.24105164  0.92921343  1
  La3+  La14  1  0.36807072  0.24399698  0.42723799  1
  La3+  La15  1  0.38166859  0.50811192  0.41021188  1
  La3+  La16  1  0.11532329  0.72888887  0.92236552  1
  La3+  La17  1  0.74535129  0.12911984  0.57835516  1
  Ce3+  Ce18  1  0.36725379  0.24356741  0.93844584  1
  Ce3+  Ce19  1  0.11416883  0.24172741  0.94418568  1
  Ce3+  Ce20  1  0.73975995  0.11601146  0.06232258  1
  Ce3+  Ce21  1  0.87353706  0.24690725  0.44317322  1
  Ce3+  Ce22  1  0.36848068  0.73767839  0.94473453  1
  Ce3+  Ce23  1  0.74220155  0.86728779  0.05258549  1
  Ce3+  Ce24  1  0.24082196  0.11649365  0.05389535  1
  Ce3+  Ce25  1  0.36992999  -0.00434483  0.44208800  1
  Ce3+  Ce26  1  0.48997345  0.12013316  0.07161875  1
  Ce3+  Ce27  1  0.37570922  0.74471882  0.44585940  1
  Ce3+  Ce28  1  0.74685332  0.37460326  0.56225587  1
  Ce3+  Ce29  1  -0.00859187  0.86524673  0.05375355  1
  Ce3+  Ce30  1  0.75107206  0.87421878  0.55427893  1
  Ce3+  Ce31  1  0.24559636  0.62000392  0.56509951  1
  Ce3+  Ce32  1  -0.00941094  0.61899438  0.05625781  1
  Ce3+  Ce33  1  0.11295764  -0.00827798  0.93362448  1
  Ce3+  Ce34  1  0.12226121  -0.00080080  0.44241407  1
  Ce3+  Ce35  1  0.00225613  0.37393495  0.55870044  1
  Ce3+  Ce36  1  0.62401685  0.00084623  0.44148385  1
  Ce3+  Ce37  1  0.24103628  0.61665000  0.06544498  1
  Pr3+  Pr38  1  0.61416696  0.49058284  0.94027349  1
  Pr3+  Pr39  1  0.87500939  0.00194770  0.43844578  1
  Pr3+  Pr40  1  0.23880549  0.86400869  0.05491851  1
  Pr3+  Pr41  1  0.37090111  0.49861802  0.93171025  1
  Pr3+  Pr42  1  0.87470465  0.49875636  0.43665110  1
  Pr3+  Pr43  1  0.87148002  -0.00834878  0.92601272  1
  Pr3+  Pr44  1  0.49301664  0.86709679  0.06781270  1
  Pr3+  Pr45  1  0.61545899  0.73792158  0.94443984  1
  Pr3+  Pr46  1  0.24697521  0.87048626  0.55855007  1
  Pr3+  Pr47  1  -0.00057076  0.87233256  0.56183713  1
  Pr3+  Pr48  1  0.25205061  0.37357204  0.55076272  1
  Pr3+  Pr49  1  0.49917152  0.87327560  0.55721191  1
  Nd3+  Nd50  1  0.60794511  0.23334161  0.92984481  1
  Nd3+  Nd51  1  0.36509699  -0.01036168  0.94697569  1
  Nd3+  Nd52  1  0.62502812  0.74574557  0.44240746  1
  Nd3+  Nd53  1  0.86152331  0.73858486  0.94038905  1
  Nd3+  Nd54  1  0.49558103  0.12538810  0.56845533  1
  Nd3+  Nd55  1  -0.00198480  0.12502426  0.56956754  1
  Nd3+  Nd56  1  0.48933044  0.36414530  0.06639939  1
  Nd3+  Nd57  1  0.50021522  0.37428059  0.54966663  1
  Sm3+  Sm58  1  0.11690344  0.49011968  0.94657387  1
  Sm3+  Sm59  1  0.25137171  0.12418335  0.56282268  1
  Sm3+  Sm60  1  0.87462062  0.74530753  0.44479317  1
  Sm3+  Sm61  1  0.61153526  -0.00513290  0.94251110  1
  Sm3+  Sm62  1  0.00386824  0.61217981  0.57754780  1
  Sm3+  Sm63  1  0.24188435  0.36640163  0.05926968  1
  Bi2+  Bi64  1  -0.00607551  0.11532597  0.28690681  1
  Bi2+  Bi65  1  -0.02058366  0.11412572  0.78901210  1
  Bi2+  Bi66  1  -0.01602628  0.38742788  0.28305693  1
  Bi2+  Bi67  1  0.01286818  0.33489469  0.78012610  1
  Bi2+  Bi68  1  -0.02366178  0.58314251  0.30992508  1
  Bi2+  Bi69  1  0.03628550  0.63886850  0.78117462  1
  Bi2+  Bi70  1  0.13028967  0.85382010  0.31556584  1
  Bi2+  Bi71  1  0.04389252  0.88925610  0.76626940  1
  Bi2+  Bi72  1  0.24007379  0.09451167  0.28004613  1
  Bi2+  Bi73  1  0.21803539  0.14943107  0.77676346  1
  Bi2+  Bi74  1  0.23209144  0.34381150  0.26913589  1
  Bi2+  Bi75  1  0.28894178  0.32115705  0.81785390  1
  Bi2+  Bi76  1  0.21287939  0.68710894  0.27274497  1
  Bi2+  Bi77  1  0.26883030  0.51708568  0.81043383  1
  Bi2+  Bi78  1  0.32953326  0.87134574  0.31647215  1
  Bi2+  Bi79  1  0.28088392  0.96058355  0.78594479  1
  Bi2+  Bi80  1  0.50748841  0.10442851  0.28583497  1
  Bi2+  Bi81  1  0.48738444  0.13759464  0.79087666  1
  Bi2+  Bi82  1  0.52344525  0.36234872  0.28497909  1
  Bi2+  Bi83  1  0.44689786  0.40987072  0.77026706  1
  Bi2+  Bi84  1  0.49389745  0.64679396  0.28927860  1
  Bi2+  Bi85  1  0.48872028  0.62154871  0.79681688  1
  Bi2+  Bi86  1  0.51938321  0.86740373  0.28522029  1
  Bi2+  Bi87  1  0.49028430  0.87531282  0.79573161  1
  Bi2+  Bi88  1  0.77391255  0.08907634  0.29066133  1
  Bi2+  Bi89  1  0.72544442  0.14410480  0.78688058  1
  Bi2+  Bi90  1  0.78702206  0.38826310  0.28146027  1
  Bi2+  Bi91  1  0.76616408  0.38381761  0.78161087  1
  Bi2+  Bi92  1  0.76728075  0.65430858  0.29523534  1
  Bi2+  Bi93  1  0.76028355  0.63967076  0.80460730  1
  Bi2+  Bi94  1  0.71050454  0.90038221  0.28502184  1
  Bi2+  Bi95  1  0.76228681  0.89347176  0.79555268  1
  Bi2+  Bi96  1  0.14815002  -0.04817848  0.21768647  1
  Bi2+  Bi97  1  0.15099912  0.00996870  0.69871167  1
  Bi2+  Bi98  1  0.11675563  0.25626118  0.18978878  1
  Bi2+  Bi99  1  0.07669329  0.19022726  0.69179325  1
  Bi2+  Bi100  1  0.11377279  0.53562274  0.22721927  1
  Bi2+  Bi101  1  0.14911018  0.43312073  0.73031181  1
  Bi2+  Bi102  1  0.11214375  0.70357372  0.16891515  1
  Bi2+  Bi103  1  0.19178578  0.70566695  0.72946469  1
  Bi2+  Bi104  1  0.47270474  -0.00964013  0.18761150  1
  Bi2+  Bi105  1  0.42390467  0.01528865  0.70672214  1
  Bi2+  Bi106  1  0.36840603  0.15245145  0.19894502  1
  Bi2+  Bi107  1  0.35674715  0.26725690  0.71174036  1
  Bi2+  Bi108  1  0.35606598  0.49521071  0.21313620  1
  Bi2+  Bi109  1  0.30461752  0.53704213  0.69515234  1
  Bi2+  Bi110  1  0.36275453  0.77299168  0.21592703  1
  Bi2+  Bi111  1  0.36325861  0.80099099  0.72138464  1
  Bi2+  Bi112  1  0.65730385  0.05440101  0.19307756  1
  Bi2+  Bi113  1  0.61741818  -0.01150174  0.73329038  1
  Bi2+  Bi114  1  0.62113053  0.24369963  0.21381811  1
  Bi2+  Bi115  1  0.60290220  0.25049079  0.70250354  1
  Bi2+  Bi116  1  0.62523439  0.47776953  0.21460583  1
  Bi2+  Bi117  1  0.60474829  0.51275186  0.69945605  1
  Bi2+  Bi118  1  0.65468425  0.77276898  0.19984421  1
  Bi2+  Bi119  1  0.62487708  0.78859971  0.71816834  1
  Bi2+  Bi120  1  0.86221406  -0.04618100  0.21328055  1
  Bi2+  Bi121  1  0.86729840  -0.01746791  0.71579957  1
  Bi2+  Bi122  1  0.86414726  0.24444626  0.21550715  1
  Bi2+  Bi123  1  0.87867394  0.25177580  0.70960140  1
  Bi2+  Bi124  1  0.85999409  0.55929188  0.21336386  1
  Bi2+  Bi125  1  0.88334865  0.50448202  0.70788730  1
  Bi2+  Bi126  1  0.99596782  0.81728445  0.22860330  1
  Bi2+  Bi127  1  0.87731682  0.78163557  0.71164266  1
  S2-  S128  1  -0.01141858  0.14917018  0.17355256  1
  S2-  S129  1  -0.11755781  0.10608544  0.64692419  1
  S2-  S130  1  -0.01895543  0.35025510  0.16806505  1
  S2-  S131  1  -0.00159041  0.45874406  0.64487267  1
  S2-  S132  1  0.00111893  0.56122460  0.14907577  1
  S2-  S133  1  -0.11358218  0.64161789  0.65212417  1
  S2-  S134  1  -0.01583562  0.95069653  0.13885265  1
  S2-  S135  1  0.00856051  0.84330797  0.66233546  1
  S2-  S136  1  0.21088153  0.12118331  0.15060789  1
  S2-  S137  1  0.36339048  0.13378770  0.64173535  1
  S2-  S138  1  0.24543155  0.37411887  0.15957242  1
  S2-  S139  1  0.25535081  0.37392534  0.65431769  1
  S2-  S140  1  0.33299359  0.61463635  0.15007975  1
  S2-  S141  1  0.13864125  0.63321780  0.64371900  1
  S2-  S142  1  0.25237497  0.87100769  0.15695058  1
  S2-  S143  1  0.24981106  0.88002399  0.65906139  1
  S2-  S144  1  0.49110614  0.24184145  0.14349699  1
  S2-  S145  1  0.60806449  0.11276437  0.64793857  1
  S2-  S146  1  0.47992940  0.46013568  0.15374010  1
  S2-  S147  1  0.52741115  0.37667516  0.65049549  1
  S2-  S148  1  0.61472364  0.61578979  0.16195112  1
  S2-  S149  1  0.45264122  0.59528484  0.67434343  1
  S2-  S150  1  0.49387658  0.77158393  0.15224981  1
  S2-  S151  1  0.50413037  0.83236226  0.65595903  1
  S2-  S152  1  0.74734819  0.23077123  0.13959181  1
  S2-  S153  1  0.74217424  0.27107904  0.64473562  1
  S2-  S154  1  0.75558686  0.46215343  0.14902485  1
  S2-  S155  1  0.74535752  0.47806519  0.64575432  1
  S2-  S156  1  0.80487971  0.70006488  0.16959311  1
  S2-  S157  1  0.64075173  0.65400097  0.65294921  1
  S2-  S158  1  0.73062486  0.90727616  0.14766353  1
  S2-  S159  1  0.76237042  0.87697864  0.65181830  1
  S2-  S160  1  0.11493083  0.07998343  0.35407077  1
  S2-  S161  1  0.01162046  -0.01897418  0.85328778  1
  S2-  S162  1  0.25884215  0.23035553  0.34309833  1
  S2-  S163  1  0.08922573  0.21564091  0.84835745  1
  S2-  S164  1  0.11332296  0.38935570  0.34415054  1
  S2-  S165  1  0.12150572  0.57389266  0.86046881  1
  S2-  S166  1  0.12976653  0.62253598  0.35722491  1
  S2-  S167  1  0.12968954  0.78267543  0.82384688  1
  S2-  S168  1  0.36787502  0.03424310  0.34565432  1
  S2-  S169  1  0.40827830  0.00490461  0.85065397  1
  S2-  S170  1  0.47956082  0.23962483  0.34839638  1
  S2-  S171  1  0.47174413  0.24948365  0.86088622  1
  S2-  S172  1  0.32365052  0.45116555  0.31601203  1
  S2-  S173  1  0.50004528  0.48909899  0.85798700  1
  S2-  S174  1  0.37974604  0.66783758  0.35746857  1
  S2-  S175  1  0.35871205  0.65570865  0.85868999  1
  S2-  S176  1  0.63431616  0.09061627  0.35757321  1
  S2-  S177  1  0.61480063  0.08776959  0.85960076  1
  S2-  S178  1  0.66839767  0.32413422  0.33884903  1
  S2-  S179  1  0.69870593  0.27765039  0.84467305  1
  S2-  S180  1  0.52471978  0.50543137  0.34349843  1
  S2-  S181  1  0.71711887  0.50296311  0.85221657  1
  S2-  S182  1  0.62932394  0.68646469  0.34841534  1
  S2-  S183  1  0.60928860  0.69756259  0.84424118  1
  S2-  S184  1  0.90549824  -0.00106337  0.33794377  1
  S2-  S185  1  0.85203602  0.11852696  0.85432792  1
  S2-  S186  1  0.94826961  0.23428802  0.35322840  1
  S2-  S187  1  0.89118729  0.35703418  0.85140962  1
  S2-  S188  1  0.76721383  0.51499975  0.35570681  1
  S2-  S189  1  0.91087445  0.57072789  0.82674830  1
  S2-  S190  1  0.89608205  0.72918672  0.34652842  1
  S2-  S191  1  0.85709469  0.77347521  0.84105574  1
  S2-  S192  1  0.00012943  0.12405118  0.46230441  1
  S2-  S193  1  -0.00602227  0.11560752  0.95869912  1
  S2-  S194  1  -0.00105092  0.37011533  0.45262833  1
  S2-  S195  1  -0.00485981  0.36934870  0.95691509  1
  S2-  S196  1  -0.00476988  0.62226714  0.46143385  1
  S2-  S197  1  -0.01421744  0.61349942  0.95192071  1
  S2-  S198  1  -0.00241652  0.87199573  0.45252936  1
  S2-  S199  1  -0.00855333  0.85835756  0.94887072  1
  S2-  S200  1  0.24438864  0.12129695  0.45888328  1
  S2-  S201  1  0.24125291  0.11535680  0.94543876  1
  S2-  S202  1  0.25397391  0.37779435  0.44520739  1
  S2-  S203  1  0.23979488  0.36906629  0.95309991  1
  S2-  S204  1  0.25340307  0.62047691  0.45852190  1
  S2-  S205  1  0.24200595  0.61455330  0.96076175  1
  S2-  S206  1  0.24637642  0.87036049  0.45175067  1
  S2-  S207  1  0.24002312  0.86339201  0.94508031  1
  S2-  S208  1  0.49372054  0.11535418  0.45917641  1
  S2-  S209  1  0.48477139  0.11244256  0.96369654  1
  S2-  S210  1  0.49593368  0.37730369  0.44543058  1
  S2-  S211  1  0.48704881  0.36690590  0.96108681  1
  S2-  S212  1  0.50220630  0.62449313  0.46147454  1
  S2-  S213  1  0.49141164  0.61864539  0.96488910  1
  S2-  S214  1  0.49987090  0.87246141  0.44868809  1
  S2-  S215  1  0.49180947  0.86706310  0.95697897  1
  S2-  S216  1  0.75198069  0.12286230  0.46045327  1
  S2-  S217  1  0.73883470  0.11210538  0.95826469  1
  S2-  S218  1  0.75207280  0.36976005  0.45476443  1
  S2-  S219  1  0.73799347  0.36388584  0.95736165  1
  S2-  S220  1  0.75271673  0.62766498  0.46182027  1
  S2-  S221  1  0.74123902  0.61689077  0.95915673  1
  S2-  S222  1  0.75113797  0.87238219  0.44582629  1
  S2-  S223  1  0.73758333  0.87094543  0.94597068  1
  S2-  S224  1  0.11824391  -0.01019800  0.04044291  1
  S2-  S225  1  0.12503655  0.00116779  0.55133496  1
  S2-  S226  1  0.11591288  0.24250631  0.05043112  1
  S2-  S227  1  0.12721715  0.24575447  0.55635021  1
  S2-  S228  1  0.11962668  0.49073689  0.05059374  1
  S2-  S229  1  0.12559677  0.49655211  0.54054928  1
  S2-  S230  1  0.11534552  0.74063625  0.03660995  1
  S2-  S231  1  0.12108554  0.74785288  0.54237568  1
  S2-  S232  1  0.36473883  -0.00930078  0.05298844  1
  S2-  S233  1  0.37145310  -0.00441231  0.54831089  1
  S2-  S234  1  0.35996879  0.24184871  0.04530752  1
  S2-  S235  1  0.37452193  0.24851791  0.53891918  1
  S2-  S236  1  0.36080722  0.48850570  0.04394731  1
  S2-  S237  1  0.37600216  0.49975960  0.55112264  1
  S2-  S238  1  0.36563513  0.74310344  0.04846672  1
  S2-  S239  1  0.37364231  0.74593617  0.55364470  1
  S2-  S240  1  0.61421647  -0.00734339  0.04698388  1
  S2-  S241  1  0.62402148  -0.00358824  0.54668816  1
  S2-  S242  1  0.61313789  0.23550550  0.03981535  1
  S2-  S243  1  0.61860474  0.24671337  0.53769130  1
  S2-  S244  1  0.61272815  0.48964298  0.04882781  1
  S2-  S245  1  0.62371731  0.49794900  0.53969902  1
  S2-  S246  1  0.62051366  0.74293869  0.05028561  1
  S2-  S247  1  0.62716425  0.75261034  0.54686219  1
  S2-  S248  1  0.86431033  -0.00956759  0.03727448  1
  S2-  S249  1  0.87513530  -0.00300857  0.54537023  1
  S2-  S250  1  0.87290371  0.23681807  0.04314765  1
  S2-  S251  1  0.87908657  0.25092163  0.54784979  1
  S2-  S252  1  0.86771794  0.49359215  0.04359748  1
  S2-  S253  1  0.87888642  0.49591529  0.54280760  1
  S2-  S254  1  0.86663592  0.74319573  0.04737838  1
  S2-  S255  1  0.87697060  0.74982522  0.54860056  1
