# generated using pymatgen
data_La9Ce10Pr6Nd4Sm3(BiS2)32
_symmetry_space_group_name_H-M   'P 1'
_cell_length_a   16.20981540
_cell_length_b   16.20572296
_cell_length_c   27.17217750
_cell_angle_alpha   89.92502609
_cell_angle_beta   89.78289719
_cell_angle_gamma   90.01831184
_symmetry_Int_Tables_number   1
_chemical_formula_structural   La9Ce10Pr6Nd4Sm3(BiS2)32
_chemical_formula_sum   'La18 Ce20 Pr12 Nd8 Sm6 Bi64 S128'
_cell_volume   7137.84987786
_cell_formula_units_Z   2
loop_
 _symmetry_equiv_pos_site_id
 _symmetry_equiv_pos_as_xyz
  1  'x, y, z'
loop_
 _atom_type_symbol
 _atom_type_oxidation_number
  La3+  3.0
  Ce3+  3.0
  Pr3+  3.0
  Nd3+  3.0
  Sm3+  3.0
  Bi2+  2.0
  S2-  -2.0
loop_
 _atom_site_type_symbol
 _atom_site_label
 _atom_site_symmetry_multiplicity
 _atom_site_fract_x
 _atom_site_fract_y
 _atom_site_fract_z
 _atom_site_occupancy
  La3+  La0  1  0.89413535  0.49846730  0.92550526  1
  La3+  La1  1  0.62612450  0.24010062  0.43710577  1
  La3+  La2  1  0.50491297  0.35456998  0.09895772  1
  La3+  La3  1  0.50731476  0.86713102  0.06357826  1
  La3+  La4  1  0.38904011  0.49672063  0.93586588  1
  La3+  La5  1  0.88857134  0.23841397  0.91798236  1
  La3+  La6  1  0.49813042  0.12087523  0.57649182  1
  La3+  La7  1  0.38813003  0.74712237  0.92217022  1
  La3+  La8  1  0.74604651  0.62038949  0.59487655  1
  La3+  La9  1  0.49673614  0.37268624  0.58793905  1
  La3+  La10  1  0.88065365  0.24562632  0.40044971  1
  La3+  La11  1  0.00781080  0.87221886  0.57282713  1
  La3+  La12  1  0.13194910  0.24234083  0.93610797  1
  La3+  La13  1  0.75804701  0.12504394  0.57563198  1
  La3+  La14  1  -0.00097468  0.62120643  0.56952495  1
  La3+  La15  1  0.38193783  0.75458532  0.41100557  1
  La3+  La16  1  0.87795383  0.74522134  0.43827030  1
  La3+  La17  1  0.49751821  0.62249147  0.08491773  1
  Ce3+  Ce18  1  0.00075475  0.37171725  0.56290733  1
  Ce3+  Ce19  1  0.00832214  0.11507990  0.06411227  1
  Ce3+  Ce20  1  0.88605701  0.74318543  0.94238255  1
  Ce3+  Ce21  1  0.88479872  -0.00523438  0.93878823  1
  Ce3+  Ce22  1  0.12563160  0.24523046  0.43955202  1
  Ce3+  Ce23  1  0.26198783  0.11928630  0.05157134  1
  Ce3+  Ce24  1  0.12801191  0.49557427  0.44584397  1
  Ce3+  Ce25  1  0.13050823  0.49588585  0.94889766  1
  Ce3+  Ce26  1  0.26082614  0.61589049  0.05878500  1
  Ce3+  Ce27  1  0.50852598  0.12185743  0.04950617  1
  Ce3+  Ce28  1  0.63293644  0.00390086  0.44257281  1
  Ce3+  Ce29  1  0.63596149  -0.00535354  0.94366716  1
  Ce3+  Ce30  1  0.63299155  0.74097247  0.93839664  1
  Ce3+  Ce31  1  0.75624950  0.86730494  0.05336378  1
  Ce3+  Ce32  1  0.12654101  -0.00399416  0.44687387  1
  Ce3+  Ce33  1  0.00604483  0.62004709  0.07269585  1
  Ce3+  Ce34  1  0.25775020  0.86779403  0.55814389  1
  Ce3+  Ce35  1  0.87680217  0.48935345  0.44568154  1
  Ce3+  Ce36  1  0.75839837  0.12377818  0.05736939  1
  Ce3+  Ce37  1  0.37928175  0.24541329  0.44490264  1
  Pr3+  Pr38  1  0.62960110  0.74197566  0.43420546  1
  Pr3+  Pr39  1  0.38083238  0.49402283  0.43536671  1
  Pr3+  Pr40  1  0.50011501  0.62275162  0.55961479  1
  Pr3+  Pr41  1  0.75138497  0.87370280  0.56708345  1
  Pr3+  Pr42  1  0.38581219  0.24411015  0.92824312  1
  Pr3+  Pr43  1  0.87942718  -0.00737390  0.43831342  1
  Pr3+  Pr44  1  0.76655389  0.37016827  0.05942540  1
  Pr3+  Pr45  1  0.13378547  -0.01099336  0.94095716  1
  Pr3+  Pr46  1  0.00514503  0.86668481  0.07013020  1
  Pr3+  Pr47  1  0.62919250  0.48685140  0.43517527  1
  Pr3+  Pr48  1  0.75031802  0.36903802  0.56918548  1
  Pr3+  Pr49  1  0.75307270  0.61383778  0.05720294  1
  Nd3+  Nd50  1  0.63213706  0.49106092  0.94856180  1
  Nd3+  Nd51  1  0.25936836  0.62294865  0.55476760  1
  Nd3+  Nd52  1  0.00268670  0.12630604  0.56289486  1
  Nd3+  Nd53  1  0.50364362  0.86908778  0.55127571  1
  Nd3+  Nd54  1  0.00610728  0.36045280  0.06813479  1
  Nd3+  Nd55  1  0.38706743  -0.00807580  0.93376885  1
  Nd3+  Nd56  1  0.25140353  0.12316485  0.56413005  1
  Nd3+  Nd57  1  0.12918943  0.74560381  0.44169670  1
  Sm3+  Sm58  1  0.26086632  0.86780912  0.06024422  1
  Sm3+  Sm59  1  0.26361571  0.36754726  0.05444386  1
  Sm3+  Sm60  1  0.37717989  -0.00123146  0.44000672  1
  Sm3+  Sm61  1  0.25353849  0.37241686  0.55853815  1
  Sm3+  Sm62  1  0.13375068  0.74340736  0.95089792  1
  Sm3+  Sm63  1  0.63529752  0.24876049  0.93772905  1
  Bi2+  Bi64  1  0.03440054  0.14375151  0.27119238  1
  Bi2+  Bi65  1  0.01832530  0.12028599  0.79164191  1
  Bi2+  Bi66  1  0.02799215  0.39067341  0.28463149  1
  Bi2+  Bi67  1  -0.02430237  0.39368433  0.79745579  1
  Bi2+  Bi68  1  -0.06310338  0.65939769  0.30249413  1
  Bi2+  Bi69  1  0.03541951  0.65065601  0.79869072  1
  Bi2+  Bi70  1  0.00858474  0.91963059  0.31816156  1
  Bi2+  Bi71  1  0.03042505  0.91146908  0.76158355  1
  Bi2+  Bi72  1  0.23675937  0.13751573  0.28762116  1
  Bi2+  Bi73  1  0.21626699  0.16037337  0.78898306  1
  Bi2+  Bi74  1  0.24135221  0.32912927  0.29731312  1
  Bi2+  Bi75  1  0.20431682  0.33156512  0.72297274  1
  Bi2+  Bi76  1  0.20118911  0.59787758  0.28350552  1
  Bi2+  Bi77  1  0.23615627  0.54623392  0.77943679  1
  Bi2+  Bi78  1  0.24568055  0.89485191  0.29423320  1
  Bi2+  Bi79  1  0.24845970  0.81137520  0.79076518  1
  Bi2+  Bi80  1  0.49471677  0.07004514  0.25818006  1
  Bi2+  Bi81  1  0.39840297  0.09149489  0.80924524  1
  Bi2+  Bi82  1  0.48157152  0.33912115  0.30261816  1
  Bi2+  Bi83  1  0.49490866  0.39952815  0.79366752  1
  Bi2+  Bi84  1  0.49999400  0.60887388  0.29272970  1
  Bi2+  Bi85  1  0.46144521  0.66860799  0.77108801  1
  Bi2+  Bi86  1  0.52157804  0.88050084  0.28734832  1
  Bi2+  Bi87  1  0.50933741  0.92322117  0.79717508  1
  Bi2+  Bi88  1  0.75452499  0.06886215  0.29896539  1
  Bi2+  Bi89  1  0.75083099  0.07751495  0.78206396  1
  Bi2+  Bi90  1  0.75281802  0.39875877  0.29527674  1
  Bi2+  Bi91  1  0.71632810  0.38768064  0.80375349  1
  Bi2+  Bi92  1  0.74727367  0.66289177  0.28667865  1
  Bi2+  Bi93  1  0.68971069  0.71493001  0.80556076  1
  Bi2+  Bi94  1  0.72188048  0.86121233  0.29878964  1
  Bi2+  Bi95  1  0.78566983  0.88408289  0.79469084  1
  Bi2+  Bi96  1  0.10880882  -0.02088669  0.22339442  1
  Bi2+  Bi97  1  0.18514418  0.00223744  0.71614003  1
  Bi2+  Bi98  1  0.12601174  0.28387625  0.20741620  1
  Bi2+  Bi99  1  0.11260153  0.17179347  0.68289725  1
  Bi2+  Bi100  1  0.10222282  0.54594325  0.18561111  1
  Bi2+  Bi101  1  0.09459209  0.48885179  0.70095039  1
  Bi2+  Bi102  1  0.08166478  0.72773493  0.23286605  1
  Bi2+  Bi103  1  0.15429534  0.67266196  0.70155708  1
  Bi2+  Bi104  1  0.34592452  -0.01612112  0.20546588  1
  Bi2+  Bi105  1  0.40170955  -0.01215848  0.70909803  1
  Bi2+  Bi106  1  0.35822313  0.20432763  0.20352474  1
  Bi2+  Bi107  1  0.37589183  0.23928631  0.71274950  1
  Bi2+  Bi108  1  0.27215233  0.45769128  0.21354225  1
  Bi2+  Bi109  1  0.38638438  0.52074644  0.70915180  1
  Bi2+  Bi110  1  0.36123289  0.73591262  0.21054983  1
  Bi2+  Bi111  1  0.32576783  0.77456174  0.68878824  1
  Bi2+  Bi112  1  0.63353030  -0.03782215  0.20848880  1
  Bi2+  Bi113  1  0.60065086  0.02753370  0.70380870  1
  Bi2+  Bi114  1  0.62820080  0.22310433  0.20915840  1
  Bi2+  Bi115  1  0.62299710  0.20900504  0.73345995  1
  Bi2+  Bi116  1  0.66477762  0.48251949  0.20746140  1
  Bi2+  Bi117  1  0.64000316  0.55371685  0.72514749  1
  Bi2+  Bi118  1  0.64083389  0.72148668  0.19319186  1
  Bi2+  Bi119  1  0.59570215  0.78554125  0.71333050  1
  Bi2+  Bi120  1  0.90705301  -0.00250636  0.22416238  1
  Bi2+  Bi121  1  0.88016445  -0.01487399  0.70515235  1
  Bi2+  Bi122  1  0.85696832  0.26511758  0.19295278  1
  Bi2+  Bi123  1  0.86286043  0.24753075  0.71079900  1
  Bi2+  Bi124  1  0.92000071  0.51438472  0.22387142  1
  Bi2+  Bi125  1  0.87762661  0.49915399  0.71739936  1
  Bi2+  Bi126  1  0.87699091  0.80178806  0.21991893  1
  Bi2+  Bi127  1  0.84865389  0.74397247  0.72417996  1
  S2-  S128  1  0.00048355  0.22607719  0.13992369  1
  S2-  S129  1  -0.09397870  0.12432418  0.64725751  1
  S2-  S130  1  -0.10807554  0.40135147  0.14208752  1
  S2-  S131  1  -0.04962903  0.36649247  0.65801149  1
  S2-  S132  1  -0.00976527  0.74588347  0.14649729  1
  S2-  S133  1  -0.10057619  0.62343794  0.65406686  1
  S2-  S134  1  0.00586028  0.99624856  0.13927183  1
  S2-  S135  1  -0.03047623  0.83919304  0.66940046  1
  S2-  S136  1  0.25584519  0.10635539  0.14945347  1
  S2-  S137  1  0.35287212  0.11266637  0.64528631  1
  S2-  S138  1  0.34168015  0.35324098  0.14183856  1
  S2-  S139  1  0.33199332  0.37569794  0.64684948  1
  S2-  S140  1  0.34129692  0.61874089  0.14514201  1
  S2-  S141  1  0.36878833  0.63320333  0.63224204  1
  S2-  S142  1  0.26904953  0.84359784  0.15897701  1
  S2-  S143  1  0.19184428  0.87879738  0.64821376  1
  S2-  S144  1  0.50598089  0.18604156  0.13980161  1
  S2-  S145  1  0.51614547  0.23672965  0.65546836  1
  S2-  S146  1  0.53349329  0.37033034  0.20290355  1
  S2-  S147  1  0.53463114  0.43862908  0.68707149  1
  S2-  S148  1  0.54017944  0.58088473  0.18484127  1
  S2-  S149  1  0.59106882  0.63778129  0.64819620  1
  S2-  S150  1  0.49598244  0.77531500  0.14902197  1
  S2-  S151  1  0.47197264  0.85215920  0.64938207  1
  S2-  S152  1  0.75682796  0.13552217  0.15671625  1
  S2-  S153  1  0.73773194  0.25184035  0.65173612  1
  S2-  S154  1  0.70637395  0.33600903  0.15411838  1
  S2-  S155  1  0.74635850  0.47501627  0.65711014  1
  S2-  S156  1  0.75922194  0.60774241  0.15813183  1
  S2-  S157  1  0.74261551  0.77337698  0.65246286  1
  S2-  S158  1  0.74239846  0.85531893  0.15090844  1
  S2-  S159  1  0.73715527  0.99095452  0.64583318  1
  S2-  S160  1  0.16169245  0.02596429  0.35216732  1
  S2-  S161  1  0.10017287  -0.00724798  0.84189096  1
  S2-  S162  1  0.04085991  0.25126766  0.35298632  1
  S2-  S163  1  0.03494468  0.26223869  0.85406757  1
  S2-  S164  1  0.11174194  0.50177883  0.34811982  1
  S2-  S165  1  0.05146416  0.50398271  0.86219347  1
  S2-  S166  1  0.12347852  0.79331057  0.34574629  1
  S2-  S167  1  0.12147049  0.76466951  0.85319113  1
  S2-  S168  1  0.37227453  -0.09003503  0.35396532  1
  S2-  S169  1  0.35974923  -0.11166752  0.85494622  1
  S2-  S170  1  0.42733216  0.21407126  0.35342597  1
  S2-  S171  1  0.40651134  0.26384229  0.82771292  1
  S2-  S172  1  0.41400141  0.48057892  0.33603150  1
  S2-  S173  1  0.36592704  0.46682303  0.83651981  1
  S2-  S174  1  0.34690373  0.68729175  0.31469855  1
  S2-  S175  1  0.32567332  0.67624799  0.83449041  1
  S2-  S176  1  0.63433512  0.10522460  0.36319603  1
  S2-  S177  1  0.63163814  0.00456703  0.84597647  1
  S2-  S178  1  0.62014425  0.35697428  0.35942191  1
  S2-  S179  1  0.62720201  0.25440960  0.83857276  1
  S2-  S180  1  0.64024138  0.56428841  0.33856015  1
  S2-  S181  1  0.59626412  0.49646134  0.84963143  1
  S2-  S182  1  0.53019578  0.74486105  0.35055036  1
  S2-  S183  1  0.53712178  0.73185700  0.85671258  1
  S2-  S184  1  0.89623336  0.08778999  0.35342817  1
  S2-  S185  1  0.88451301  0.08518386  0.85537160  1
  S2-  S186  1  0.79984943  0.24381627  0.29879875  1
  S2-  S187  1  0.83976821  0.28734671  0.81830873  1
  S2-  S188  1  0.87998651  0.41315155  0.35709220  1
  S2-  S189  1  0.84136059  0.49609949  0.82691613  1
  S2-  S190  1  0.87283478  0.86280021  0.36232375  1
  S2-  S191  1  0.90820478  0.70403019  0.84792541  1
  S2-  S192  1  0.00579524  0.12251173  0.45798768  1
  S2-  S193  1  0.01180859  0.11451430  0.95672738  1
  S2-  S194  1  0.00626821  0.37091746  0.45769635  1
  S2-  S195  1  0.00904697  0.36876662  0.96089402  1
  S2-  S196  1  0.00398891  0.62031772  0.45745005  1
  S2-  S197  1  0.01155189  0.62404418  0.96514624  1
  S2-  S198  1  0.00782310  0.86808459  0.46283343  1
  S2-  S199  1  0.00824709  0.86735998  0.95968477  1
  S2-  S200  1  0.25394018  0.12152277  0.45729157  1
  S2-  S201  1  0.26046005  0.11516223  0.94362731  1
  S2-  S202  1  0.25214967  0.37001942  0.45279398  1
  S2-  S203  1  0.25721795  0.36901922  0.94716434  1
  S2-  S204  1  0.25519835  0.62189929  0.44723816  1
  S2-  S205  1  0.25578607  0.61873512  0.95264295  1
  S2-  S206  1  0.25122260  0.87211730  0.45336258  1
  S2-  S207  1  0.25711883  0.86624527  0.95684311  1
  S2-  S208  1  0.49717073  0.11652495  0.46433749  1
  S2-  S209  1  0.51086928  0.12013931  0.94418835  1
  S2-  S210  1  0.49850304  0.36861350  0.45996269  1
  S2-  S211  1  0.50935297  0.36566011  0.94730476  1
  S2-  S212  1  0.50362505  0.61727508  0.45086751  1
  S2-  S213  1  0.51030456  0.61850591  0.96114776  1
  S2-  S214  1  0.50775220  0.87913777  0.44763810  1
  S2-  S215  1  0.51198183  0.87225353  0.95546181  1
  S2-  S216  1  0.76191760  0.12262812  0.46061675  1
  S2-  S217  1  0.75566783  0.12240444  0.95046931  1
  S2-  S218  1  0.75697248  0.36371448  0.45814636  1
  S2-  S219  1  0.76208824  0.36983154  0.94895820  1
  S2-  S220  1  0.75581939  0.61749090  0.44626986  1
  S2-  S221  1  0.75834312  0.61629704  0.94896029  1
  S2-  S222  1  0.74695074  0.87138317  0.45867327  1
  S2-  S223  1  0.75930688  0.86746006  0.94674840  1
  S2-  S224  1  0.14025752  -0.00942224  0.04691107  1
  S2-  S225  1  0.12865248  0.00032541  0.55229984  1
  S2-  S226  1  0.14013096  0.24423599  0.04400746  1
  S2-  S227  1  0.13032975  0.25021549  0.54842398  1
  S2-  S228  1  0.13446574  0.48802041  0.05417691  1
  S2-  S229  1  0.13179837  0.49866182  0.55369255  1
  S2-  S230  1  0.13790103  0.74353124  0.05539227  1
  S2-  S231  1  0.12982406  0.74181279  0.54916640  1
  S2-  S232  1  0.38390787  -0.00735869  0.04313368  1
  S2-  S233  1  0.37596563  -0.00715711  0.54430438  1
  S2-  S234  1  0.38419862  0.24430073  0.03581552  1
  S2-  S235  1  0.37462639  0.24879199  0.54858576  1
  S2-  S236  1  0.38715320  0.48845193  0.04517754  1
  S2-  S237  1  0.37630731  0.49151548  0.54210990  1
  S2-  S238  1  0.37980055  0.74567399  0.03900613  1
  S2-  S239  1  0.37867390  0.74964178  0.52863758  1
  S2-  S240  1  0.63284582  -0.00394371  0.05057129  1
  S2-  S241  1  0.62223341  -0.00111876  0.54733122  1
  S2-  S242  1  0.63192670  0.24783814  0.04260679  1
  S2-  S243  1  0.62231270  0.24616169  0.54705042  1
  S2-  S244  1  0.62534528  0.48640751  0.05647508  1
  S2-  S245  1  0.62275443  0.49307107  0.54746133  1
  S2-  S246  1  0.63133014  0.74089388  0.04553259  1
  S2-  S247  1  0.62779211  0.74586662  0.54084301  1
  S2-  S248  1  0.87692132  -0.00693033  0.04424462  1
  S2-  S249  1  0.88436258  -0.00626917  0.54660422  1
  S2-  S250  1  0.88285695  0.24052344  0.03552485  1
  S2-  S251  1  0.88225884  0.25108121  0.54810234  1
  S2-  S252  1  0.88659065  0.49962734  0.03877199  1
  S2-  S253  1  0.87571415  0.49677142  0.54990752  1
  S2-  S254  1  0.87692930  0.74134534  0.04716849  1
  S2-  S255  1  0.87807344  0.74709346  0.54674940  1
