# generated using pymatgen
data_La9Ce10Pr6Nd4Sm3(BiS2)32
_symmetry_space_group_name_H-M   'P 1'
_cell_length_a   16.20669931
_cell_length_b   16.22013708
_cell_length_c   27.12255222
_cell_angle_alpha   90.01782098
_cell_angle_beta   89.89824878
_cell_angle_gamma   90.02449563
_symmetry_Int_Tables_number   1
_chemical_formula_structural   La9Ce10Pr6Nd4Sm3(BiS2)32
_chemical_formula_sum   'La18 Ce20 Pr12 Nd8 Sm6 Bi64 S128'
_cell_volume   7129.82554065
_cell_formula_units_Z   2
loop_
 _symmetry_equiv_pos_site_id
 _symmetry_equiv_pos_as_xyz
  1  'x, y, z'
loop_
 _atom_type_symbol
 _atom_type_oxidation_number
  La3+  3.0
  Ce3+  3.0
  Pr3+  3.0
  Nd3+  3.0
  Sm3+  3.0
  Bi2+  2.0
  S2-  -2.0
loop_
 _atom_site_type_symbol
 _atom_site_label
 _atom_site_symmetry_multiplicity
 _atom_site_fract_x
 _atom_site_fract_y
 _atom_site_fract_z
 _atom_site_occupancy
  La3+  La0  1  0.63984176  0.76063913  0.91268416  1
  La3+  La1  1  0.01418386  0.88139434  0.10483060  1
  La3+  La2  1  0.73409337  0.62972785  0.57696783  1
  La3+  La3  1  0.73601077  0.13808191  0.56980446  1
  La3+  La4  1  0.75177068  0.86545302  0.07592223  1
  La3+  La5  1  0.11331961  0.00869396  0.43558056  1
  La3+  La6  1  0.75099343  0.88362738  0.57481996  1
  La3+  La7  1  0.38579211  0.50918433  0.92089662  1
  La3+  La8  1  0.61366052  0.01507378  0.42112401  1
  La3+  La9  1  0.50053188  0.88843567  0.57387783  1
  La3+  La10  1  -0.01233845  0.13728354  0.59502864  1
  La3+  La11  1  0.76114051  0.11894398  0.07869670  1
  La3+  La12  1  0.50181498  0.13372704  0.07963034  1
  La3+  La13  1  0.38886153  0.25037055  0.92538674  1
  La3+  La14  1  0.12931528  0.75389516  0.92726496  1
  La3+  La15  1  0.62157421  0.50940149  0.42654068  1
  La3+  La16  1  0.86884740  0.25661031  0.43733827  1
  La3+  La17  1  0.13541314  0.24234646  0.92024107  1
  Ce3+  Ce18  1  0.88234608  0.00276874  0.94791532  1
  Ce3+  Ce19  1  0.11832696  0.50886748  0.44406801  1
  Ce3+  Ce20  1  0.24254777  0.38196527  0.56154392  1
  Ce3+  Ce21  1  0.24108859  0.88550173  0.55289782  1
  Ce3+  Ce22  1  0.37313740  0.00684801  0.44135157  1
  Ce3+  Ce23  1  0.88377382  0.24731352  0.94058835  1
  Ce3+  Ce24  1  0.01243979  0.13152055  0.06757729  1
  Ce3+  Ce25  1  0.75801478  0.37701002  0.05082071  1
  Ce3+  Ce26  1  0.88233893  0.50278691  0.94142999  1
  Ce3+  Ce27  1  0.24372485  0.13302953  0.55489449  1
  Ce3+  Ce28  1  0.13071081  0.49818937  0.94049784  1
  Ce3+  Ce29  1  0.49500606  0.13499375  0.55871587  1
  Ce3+  Ce30  1  0.86149179  0.00835616  0.44050225  1
  Ce3+  Ce31  1  0.50744846  0.62658093  0.05351883  1
  Ce3+  Ce32  1  0.74184519  0.38259069  0.56018105  1
  Ce3+  Ce33  1  0.25600426  0.87351286  0.06219699  1
  Ce3+  Ce34  1  0.25634850  0.62865294  0.05089087  1
  Ce3+  Ce35  1  0.63037349  0.24796681  0.94364976  1
  Ce3+  Ce36  1  0.00933450  0.63305642  0.05598813  1
  Ce3+  Ce37  1  0.00738206  0.37214196  0.05842728  1
  Pr3+  Pr38  1  0.13235780  0.00039750  0.94170791  1
  Pr3+  Pr39  1  0.11122636  0.75737770  0.42719716  1
  Pr3+  Pr40  1  0.11851614  0.25941678  0.44534549  1
  Pr3+  Pr41  1  0.63500850  0.00178182  0.94466407  1
  Pr3+  Pr42  1  0.85765405  0.75993580  0.43426919  1
  Pr3+  Pr43  1  0.61537794  0.75911955  0.44463448  1
  Pr3+  Pr44  1  0.86548221  0.50841726  0.44445283  1
  Pr3+  Pr45  1  0.25959581  0.37685651  0.05256365  1
  Pr3+  Pr46  1  0.23979704  0.63638531  0.56731774  1
  Pr3+  Pr47  1  0.50845291  0.38439987  0.06489090  1
  Pr3+  Pr48  1  -0.00766330  0.88354423  0.56073336  1
  Pr3+  Pr49  1  0.63610405  0.50404808  0.93671024  1
  Nd3+  Nd50  1  0.48063790  0.64045141  0.58103973  1
  Nd3+  Nd51  1  -0.00827862  0.63623908  0.55310733  1
  Nd3+  Nd52  1  0.38622883  0.00029742  0.94730302  1
  Nd3+  Nd53  1  -0.00742159  0.38325797  0.56854272  1
  Nd3+  Nd54  1  0.36836024  0.26232317  0.44129512  1
  Nd3+  Nd55  1  0.61477723  0.26186348  0.43049656  1
  Nd3+  Nd56  1  0.38193398  0.75285549  0.93256440  1
  Nd3+  Nd57  1  0.49380942  0.38690414  0.56096510  1
  Sm3+  Sm58  1  0.88670310  0.75869958  0.93434770  1
  Sm3+  Sm59  1  0.76073263  0.63218260  0.05614109  1
  Sm3+  Sm60  1  0.25713167  0.12764481  0.05372675  1
  Sm3+  Sm61  1  0.36758759  0.51430961  0.44649190  1
  Sm3+  Sm62  1  0.36932005  0.75786220  0.44412822  1
  Sm3+  Sm63  1  0.50817868  0.87503262  0.05769872  1
  Bi2+  Bi64  1  0.00112887  0.13098426  0.30340241  1
  Bi2+  Bi65  1  0.01143986  0.13863584  0.78816833  1
  Bi2+  Bi66  1  0.01081361  0.41514802  0.31140116  1
  Bi2+  Bi67  1  -0.05534566  0.42538517  0.76699942  1
  Bi2+  Bi68  1  -0.00732389  0.57405592  0.24655965  1
  Bi2+  Bi69  1  -0.01858766  0.61090936  0.78997063  1
  Bi2+  Bi70  1  0.03614464  0.88684244  0.29685895  1
  Bi2+  Bi71  1  0.01908541  0.86514593  0.78107687  1
  Bi2+  Bi72  1  0.29216993  0.13893908  0.28153085  1
  Bi2+  Bi73  1  0.26307183  0.10434109  0.78892346  1
  Bi2+  Bi74  1  0.20800811  0.34632220  0.28789452  1
  Bi2+  Bi75  1  0.18759195  0.36565041  0.79463620  1
  Bi2+  Bi76  1  0.24768167  0.54413307  0.28302743  1
  Bi2+  Bi77  1  0.19142941  0.64657797  0.77209753  1
  Bi2+  Bi78  1  0.29691738  0.84663194  0.28766421  1
  Bi2+  Bi79  1  0.25856383  0.81710756  0.82371028  1
  Bi2+  Bi80  1  0.48717024  0.11442065  0.28410489  1
  Bi2+  Bi81  1  0.53442256  0.09902813  0.78641576  1
  Bi2+  Bi82  1  0.47679664  0.37741982  0.29092811  1
  Bi2+  Bi83  1  0.51125102  0.36486311  0.79258814  1
  Bi2+  Bi84  1  0.52309266  0.59209057  0.31170301  1
  Bi2+  Bi85  1  0.48594881  0.59758646  0.78186087  1
  Bi2+  Bi86  1  0.50300794  0.85116744  0.29820171  1
  Bi2+  Bi87  1  0.42663320  0.90114313  0.79296655  1
  Bi2+  Bi88  1  0.74228615  0.13774065  0.28266421  1
  Bi2+  Bi89  1  0.72497866  0.14168433  0.80513854  1
  Bi2+  Bi90  1  0.74549311  0.40046724  0.28802227  1
  Bi2+  Bi91  1  0.70784100  0.33261584  0.77689687  1
  Bi2+  Bi92  1  0.71156626  0.63432370  0.28831251  1
  Bi2+  Bi93  1  0.73273517  0.62100051  0.79666725  1
  Bi2+  Bi94  1  0.80750912  0.86847464  0.30381018  1
  Bi2+  Bi95  1  0.75651562  0.89509993  0.79768424  1
  Bi2+  Bi96  1  0.19123896  0.02709634  0.20342158  1
  Bi2+  Bi97  1  0.18358481  -0.05867214  0.74267355  1
  Bi2+  Bi98  1  0.12926504  0.21118223  0.21556992  1
  Bi2+  Bi99  1  0.15259997  0.26756095  0.70348833  1
  Bi2+  Bi100  1  0.13565017  0.45826962  0.20163063  1
  Bi2+  Bi101  1  0.08415341  0.52099704  0.70618535  1
  Bi2+  Bi102  1  0.15652367  0.73152571  0.20964925  1
  Bi2+  Bi103  1  0.12357703  0.76432842  0.68623898  1
  Bi2+  Bi104  1  0.40021557  -0.06583835  0.20548150  1
  Bi2+  Bi105  1  0.41332329  0.02485385  0.70610081  1
  Bi2+  Bi106  1  0.35262810  0.27830838  0.20389444  1
  Bi2+  Bi107  1  0.37651006  0.21363312  0.71862342  1
  Bi2+  Bi108  1  0.41244939  0.52725731  0.22211249  1
  Bi2+  Bi109  1  0.34387059  0.48204365  0.71708172  1
  Bi2+  Bi110  1  0.38397078  0.73884061  0.20374676  1
  Bi2+  Bi111  1  0.34409738  0.75257399  0.71701852  1
  Bi2+  Bi112  1  0.62984449  -0.04116346  0.21585248  1
  Bi2+  Bi113  1  0.68276567  0.03434924  0.71357066  1
  Bi2+  Bi114  1  0.61388468  0.31661849  0.21783451  1
  Bi2+  Bi115  1  0.56640387  0.26467638  0.68776687  1
  Bi2+  Bi116  1  0.62742262  0.52070556  0.20703353  1
  Bi2+  Bi117  1  0.61990754  0.47113863  0.70311415  1
  Bi2+  Bi118  1  0.58417715  0.73012234  0.21971442  1
  Bi2+  Bi119  1  0.61336957  0.76346083  0.70506076  1
  Bi2+  Bi120  1  0.88101479  0.05703444  0.20752103  1
  Bi2+  Bi121  1  0.91084879  0.00346312  0.72418058  1
  Bi2+  Bi122  1  0.94044253  0.30359704  0.22673999  1
  Bi2+  Bi123  1  0.85057834  0.25852341  0.70937812  1
  Bi2+  Bi124  1  0.85126260  0.46927566  0.19684522  1
  Bi2+  Bi125  1  0.80910883  0.46103022  0.68791968  1
  Bi2+  Bi126  1  0.88501501  0.72478447  0.21207989  1
  Bi2+  Bi127  1  0.90124815  0.76045847  0.71241743  1
  S2-  S128  1  0.03226699  0.04233916  0.15213299  1
  S2-  S129  1  0.04584213  0.06886160  0.68463232  1
  S2-  S130  1  0.02043204  0.26691277  0.13756435  1
  S2-  S131  1  0.00024340  0.28674902  0.65276519  1
  S2-  S132  1  0.02078248  0.71268301  0.14347455  1
  S2-  S133  1  -0.00219653  0.64638415  0.65261594  1
  S2-  S134  1  -0.05707583  0.87985273  0.20587554  1
  S2-  S135  1  -0.10698166  0.88871692  0.64404441  1
  S2-  S136  1  0.29766823  0.13498617  0.14890408  1
  S2-  S137  1  0.24817614  0.15871413  0.65251681  1
  S2-  S138  1  0.28168478  0.40120634  0.15204565  1
  S2-  S139  1  0.21634457  0.41566435  0.65771445  1
  S2-  S140  1  0.25177873  0.65115622  0.14950859  1
  S2-  S141  1  0.34210948  0.61701871  0.64991873  1
  S2-  S142  1  0.17473668  0.87366795  0.15098024  1
  S2-  S143  1  0.24504933  0.87783590  0.65134852  1
  S2-  S144  1  0.52442089  0.06242681  0.17698573  1
  S2-  S145  1  0.59293985  0.11906641  0.63972889  1
  S2-  S146  1  0.49894766  0.27557273  0.14486692  1
  S2-  S147  1  0.44442157  0.40505487  0.65876885  1
  S2-  S148  1  0.49829889  0.52150952  0.13350000  1
  S2-  S149  1  0.59900683  0.61172478  0.65289060  1
  S2-  S150  1  0.59689648  0.85298155  0.14160673  1
  S2-  S151  1  0.46866208  0.77967226  0.65325883  1
  S2-  S152  1  0.78037719  0.17487215  0.17777743  1
  S2-  S153  1  0.83641714  0.11033970  0.65465914  1
  S2-  S154  1  0.72289691  0.38545700  0.14563573  1
  S2-  S155  1  0.72442050  0.28499181  0.63993415  1
  S2-  S156  1  0.77350506  0.72127310  0.14174261  1
  S2-  S157  1  0.76186821  0.73046661  0.66021715  1
  S2-  S158  1  0.76480533  0.98226012  0.15227395  1
  S2-  S159  1  0.63545195  0.90405289  0.65090697  1
  S2-  S160  1  0.12687906  0.02099695  0.33444936  1
  S2-  S161  1  0.11783476  0.07809808  0.85057393  1
  S2-  S162  1  0.08132588  0.25916578  0.34716019  1
  S2-  S163  1  0.05281675  0.28930913  0.83329458  1
  S2-  S164  1  0.11409045  0.54803019  0.34958895  1
  S2-  S165  1  0.15026033  0.51415152  0.84368004  1
  S2-  S166  1  0.15796899  0.77946403  0.32962252  1
  S2-  S167  1  0.00484734  0.74492871  0.85301055  1
  S2-  S168  1  0.46599747  0.00015010  0.35746898  1
  S2-  S169  1  0.39744604  0.04425160  0.85094141  1
  S2-  S170  1  0.39590186  0.23655731  0.34303987  1
  S2-  S171  1  0.26981058  0.24344991  0.84893901  1
  S2-  S172  1  0.37867130  0.49030979  0.34935277  1
  S2-  S173  1  0.37856051  0.43509808  0.82689846  1
  S2-  S174  1  0.41299185  0.73315773  0.35001585  1
  S2-  S175  1  0.38914437  0.64936922  0.85092375  1
  S2-  S176  1  0.70619229  -0.01800620  0.33170159  1
  S2-  S177  1  0.62996288  -0.08494848  0.85653200  1
  S2-  S178  1  0.61404252  0.16035955  0.34627347  1
  S2-  S179  1  0.52899265  0.23995382  0.86224946  1
  S2-  S180  1  0.61125968  0.38044187  0.35566986  1
  S2-  S181  1  0.60976607  0.51417166  0.83745860  1
  S2-  S182  1  0.72365114  0.76226716  0.36355351  1
  S2-  S183  1  0.59036295  0.71863023  0.80857572  1
  S2-  S184  1  0.91659967  -0.01020675  0.34533763  1
  S2-  S185  1  0.87361860  -0.03972719  0.85205013  1
  S2-  S186  1  0.84829873  0.21501806  0.33824500  1
  S2-  S187  1  0.87312278  0.18000854  0.85011968  1
  S2-  S188  1  0.77897441  0.52246080  0.35725112  1
  S2-  S189  1  0.85218026  0.51837656  0.84447096  1
  S2-  S190  1  0.94593418  0.77021817  0.34322717  1
  S2-  S191  1  0.78500106  0.74633496  0.85070709  1
  S2-  S192  1  -0.00661512  0.13405895  0.45102878  1
  S2-  S193  1  0.00706835  0.12673882  0.95893857  1
  S2-  S194  1  -0.00689062  0.38538273  0.45921178  1
  S2-  S195  1  0.00494882  0.37578442  0.95172637  1
  S2-  S196  1  -0.01122779  0.63315740  0.44791034  1
  S2-  S197  1  0.00617838  0.62384831  0.95152366  1
  S2-  S198  1  -0.00891490  0.88226632  0.45418026  1
  S2-  S199  1  0.00819833  0.88034576  0.94899241  1
  S2-  S200  1  0.24546900  0.13395223  0.44683844  1
  S2-  S201  1  0.26207002  0.12187048  0.95165600  1
  S2-  S202  1  0.24451821  0.38668342  0.45223373  1
  S2-  S203  1  0.25864498  0.37939643  0.94608381  1
  S2-  S204  1  0.24246027  0.63738477  0.45528255  1
  S2-  S205  1  0.25296827  0.62790196  0.94633953  1
  S2-  S206  1  0.24429799  0.88218280  0.44562700  1
  S2-  S207  1  0.26016928  0.87766892  0.95435093  1
  S2-  S208  1  0.48946922  0.13861618  0.45480375  1
  S2-  S209  1  0.50881075  0.12261569  0.96501078  1
  S2-  S210  1  0.48711777  0.38884421  0.45514809  1
  S2-  S211  1  0.51010038  0.38230919  0.95539964  1
  S2-  S212  1  0.49095110  0.63334019  0.46198395  1
  S2-  S213  1  0.51480127  0.63348624  0.94808805  1
  S2-  S214  1  0.49127803  0.88070047  0.46090075  1
  S2-  S215  1  0.50634351  0.87336580  0.95355417  1
  S2-  S216  1  0.74062851  0.13602246  0.45412432  1
  S2-  S217  1  0.75640554  0.12629466  0.96294672  1
  S2-  S218  1  0.74422920  0.38078156  0.45498679  1
  S2-  S219  1  0.75775742  0.37373253  0.94351880  1
  S2-  S220  1  0.73899333  0.63114351  0.46504258  1
  S2-  S221  1  0.76047440  0.62943408  0.95231468  1
  S2-  S222  1  0.73902757  0.88839082  0.46135262  1
  S2-  S223  1  0.75920378  0.87721201  0.96259730  1
  S2-  S224  1  0.13716332  0.00173864  0.04686571  1
  S2-  S225  1  0.11505659  0.01130374  0.54824633  1
  S2-  S226  1  0.13855916  0.25164963  0.03574320  1
  S2-  S227  1  0.11726697  0.25589151  0.55036521  1
  S2-  S228  1  0.13029319  0.50139440  0.04852463  1
  S2-  S229  1  0.11667546  0.50988970  0.55108142  1
  S2-  S230  1  0.13350511  0.75372468  0.03709983  1
  S2-  S231  1  0.11674885  0.75912241  0.53921143  1
  S2-  S232  1  0.38279593  -0.00165366  0.05360097  1
  S2-  S233  1  0.36922448  0.00888862  0.54873611  1
  S2-  S234  1  0.38047768  0.25181310  0.03825860  1
  S2-  S235  1  0.36859513  0.26029411  0.54886131  1
  S2-  S236  1  0.37896293  0.50598957  0.03313932  1
  S2-  S237  1  0.36446683  0.50926562  0.54866862  1
  S2-  S238  1  0.38452773  0.75194248  0.04223535  1
  S2-  S239  1  0.36247254  0.76239247  0.54732252  1
  S2-  S240  1  0.62576212  0.00374581  0.05109859  1
  S2-  S241  1  0.61795828  0.01095055  0.53735623  1
  S2-  S242  1  0.63589731  0.25089215  0.04887918  1
  S2-  S243  1  0.61125991  0.26288931  0.53741198  1
  S2-  S244  1  0.64000741  0.50718300  0.04264528  1
  S2-  S245  1  0.61672400  0.50455016  0.54299514  1
  S2-  S246  1  0.63023563  0.74558991  0.03757786  1
  S2-  S247  1  0.61549068  0.75676132  0.55045560  1
  S2-  S248  1  0.89137006  -0.00363101  0.05408866  1
  S2-  S249  1  0.87282394  0.01565145  0.54555251  1
  S2-  S250  1  0.87856813  0.25142052  0.04761053  1
  S2-  S251  1  0.87144078  0.26059126  0.54636449  1
  S2-  S252  1  0.88325148  0.50499064  0.04911972  1
  S2-  S253  1  0.87027905  0.50899532  0.55194772  1
  S2-  S254  1  0.88800313  0.75375227  0.04055477  1
  S2-  S255  1  0.86738428  0.75467527  0.54304384  1
