# generated using pymatgen
data_La9Ce10Pr6Nd4Sm3(BiS2)32
_symmetry_space_group_name_H-M   'P 1'
_cell_length_a   16.15213438
_cell_length_b   16.10505464
_cell_length_c   27.25483507
_cell_angle_alpha   89.48624475
_cell_angle_beta   90.31365545
_cell_angle_gamma   90.08582904
_symmetry_Int_Tables_number   1
_chemical_formula_structural   La9Ce10Pr6Nd4Sm3(BiS2)32
_chemical_formula_sum   'La18 Ce20 Pr12 Nd8 Sm6 Bi64 S128'
_cell_volume   7089.42899641
_cell_formula_units_Z   2
loop_
 _symmetry_equiv_pos_site_id
 _symmetry_equiv_pos_as_xyz
  1  'x, y, z'
loop_
 _atom_type_symbol
 _atom_type_oxidation_number
  La3+  3.0
  Ce3+  3.0
  Pr3+  3.0
  Nd3+  3.0
  Sm3+  3.0
  Bi2+  2.0
  S2-  -2.0
loop_
 _atom_site_type_symbol
 _atom_site_label
 _atom_site_symmetry_multiplicity
 _atom_site_fract_x
 _atom_site_fract_y
 _atom_site_fract_z
 _atom_site_occupancy
  La3+  La0  1  0.24328405  0.63116834  0.09588568  1
  La3+  La1  1  0.85657431  0.75077305  0.88149674  1
  La3+  La2  1  0.24708882  0.10328274  0.59323265  1
  La3+  La3  1  0.62128072  -0.02182429  0.42761748  1
  La3+  La4  1  0.74017501  0.63515016  0.06310240  1
  La3+  La5  1  0.62374832  0.23484578  0.42478769  1
  La3+  La6  1  0.36938814  0.51779533  0.93364862  1
  La3+  La7  1  0.73732262  0.13361648  0.08358494  1
  La3+  La8  1  0.36063868  0.27092878  0.90801529  1
  La3+  La9  1  0.00239036  0.60576939  0.57055623  1
  La3+  La10  1  0.62508044  0.25484133  0.92216845  1
  La3+  La11  1  -0.00605489  0.63268067  0.08114263  1
  La3+  La12  1  0.50551963  0.88124477  0.07998068  1
  La3+  La13  1  0.49257997  0.59973896  0.57789400  1
  La3+  La14  1  0.50349502  0.85159906  0.57248707  1
  La3+  La15  1  0.12341917  0.22779002  0.43002551  1
  La3+  La16  1  0.49607085  0.61929577  0.09191476  1
  La3+  La17  1  0.60439752  0.76211050  0.92450280  1
  Ce3+  Ce18  1  0.86795889  0.00163950  0.93688549  1
  Ce3+  Ce19  1  0.86870285  -0.01325591  0.43050136  1
  Ce3+  Ce20  1  0.86589152  0.25498794  0.93659540  1
  Ce3+  Ce21  1  -0.00223633  0.85514525  0.56215552  1
  Ce3+  Ce22  1  0.87938645  0.48282341  0.44106026  1
  Ce3+  Ce23  1  0.49352464  0.38278715  0.04940259  1
  Ce3+  Ce24  1  0.74888887  0.84925528  0.55758379  1
  Ce3+  Ce25  1  0.87488638  0.73276895  0.44077701  1
  Ce3+  Ce26  1  0.24937835  0.86163551  0.55854547  1
  Ce3+  Ce27  1  0.11592819  0.25886155  0.93146150  1
  Ce3+  Ce28  1  0.36931208  0.75889630  0.95583253  1
  Ce3+  Ce29  1  0.49713506  0.13474742  0.05197825  1
  Ce3+  Ce30  1  0.62226867  0.72717722  0.43467317  1
  Ce3+  Ce31  1  0.87661452  0.23163559  0.42134702  1
  Ce3+  Ce32  1  0.37718079  -0.01474940  0.44435180  1
  Ce3+  Ce33  1  0.74242036  0.88239621  0.04686657  1
  Ce3+  Ce34  1  0.12312258  -0.01525420  0.44339203  1
  Ce3+  Ce35  1  0.11122378  0.75851563  0.95049663  1
  Ce3+  Ce36  1  0.24650066  0.13568050  0.05660855  1
  Ce3+  Ce37  1  0.74246938  0.37636923  0.05893976  1
  Pr3+  Pr38  1  0.25325043  0.88540633  0.07738316  1
  Pr3+  Pr39  1  0.50471069  0.10654227  0.56544882  1
  Pr3+  Pr40  1  -0.00701846  0.88310568  0.06725884  1
  Pr3+  Pr41  1  0.74876451  0.10269766  0.56079980  1
  Pr3+  Pr42  1  0.62109540  0.51446884  0.93765159  1
  Pr3+  Pr43  1  0.62159974  0.48534477  0.43758070  1
  Pr3+  Pr44  1  0.86976966  0.51543740  0.94896313  1
  Pr3+  Pr45  1  0.24391750  0.38235148  0.05753102  1
  Pr3+  Pr46  1  0.74844193  0.60536711  0.56616842  1
  Pr3+  Pr47  1  0.11800509  0.49227624  0.42076419  1
  Pr3+  Pr48  1  0.24737301  0.35376157  0.55546954  1
  Pr3+  Pr49  1  -0.00548218  0.37795114  0.05830208  1
  Nd3+  Nd50  1  0.74950834  0.35867562  0.56285381  1
  Nd3+  Nd51  1  0.37157193  0.23093383  0.43711524  1
  Nd3+  Nd52  1  -0.00542891  0.10038017  0.56770763  1
  Nd3+  Nd53  1  0.00092651  0.35458865  0.56275308  1
  Nd3+  Nd54  1  0.12017483  0.00708172  0.94804610  1
  Nd3+  Nd55  1  0.37622883  0.73287027  0.44397132  1
  Nd3+  Nd56  1  0.24768658  0.60333693  0.55941760  1
  Nd3+  Nd57  1  0.36918334  0.00722502  0.94089434  1
  Sm3+  Sm58  1  0.12331514  0.73641418  0.44110617  1
  Sm3+  Sm59  1  0.61697228  0.00926203  0.93418925  1
  Sm3+  Sm60  1  0.36999740  0.48494807  0.43481849  1
  Sm3+  Sm61  1  0.11602045  0.51317051  0.94591822  1
  Sm3+  Sm62  1  -0.00691661  0.13088034  0.05435205  1
  Sm3+  Sm63  1  0.49867839  0.35554902  0.55628105  1
  Bi2+  Bi64  1  0.03212075  0.13713018  0.28584912  1
  Bi2+  Bi65  1  0.00474951  0.18980779  0.80616158  1
  Bi2+  Bi66  1  -0.01190605  0.38333044  0.27408286  1
  Bi2+  Bi67  1  -0.02322594  0.38499334  0.79089716  1
  Bi2+  Bi68  1  -0.00653067  0.62474415  0.29043354  1
  Bi2+  Bi69  1  0.00630336  0.61489051  0.79420201  1
  Bi2+  Bi70  1  0.09329354  0.86984614  0.31727078  1
  Bi2+  Bi71  1  0.04931518  0.87827008  0.78966080  1
  Bi2+  Bi72  1  0.29070119  0.07439942  0.32050437  1
  Bi2+  Bi73  1  0.24341604  0.09960461  0.81924175  1
  Bi2+  Bi74  1  0.23827720  0.28354764  0.26589785  1
  Bi2+  Bi75  1  0.17298856  0.39406712  0.77422748  1
  Bi2+  Bi76  1  0.26245557  0.59585186  0.30119390  1
  Bi2+  Bi77  1  0.25797273  0.64180544  0.79282336  1
  Bi2+  Bi78  1  0.28420737  0.87638006  0.30025596  1
  Bi2+  Bi79  1  0.24573475  0.84012637  0.77774587  1
  Bi2+  Bi80  1  0.55682697  0.10674798  0.29933020  1
  Bi2+  Bi81  1  0.49453558  0.04134508  0.80985347  1
  Bi2+  Bi82  1  0.55088549  0.36047678  0.29694023  1
  Bi2+  Bi83  1  0.56768075  0.33110188  0.78752031  1
  Bi2+  Bi84  1  0.50595376  0.65534910  0.30641871  1
  Bi2+  Bi85  1  0.43549381  0.55409620  0.79851246  1
  Bi2+  Bi86  1  0.53073123  0.91228958  0.27454071  1
  Bi2+  Bi87  1  0.46625389  0.82671531  0.79330683  1
  Bi2+  Bi88  1  0.76960640  0.11157369  0.29691341  1
  Bi2+  Bi89  1  0.81868724  0.14265417  0.81076633  1
  Bi2+  Bi90  1  0.79982176  0.43050200  0.25863796  1
  Bi2+  Bi91  1  0.75833775  0.33392099  0.75269771  1
  Bi2+  Bi92  1  0.75966747  0.61479846  0.28833670  1
  Bi2+  Bi93  1  0.73749917  0.60828735  0.78713508  1
  Bi2+  Bi94  1  0.80121959  0.83368391  0.26898128  1
  Bi2+  Bi95  1  0.77115074  0.96046246  0.77734998  1
  Bi2+  Bi96  1  0.19725830  0.01169691  0.22797988  1
  Bi2+  Bi97  1  0.02372681  0.04116012  0.72527241  1
  Bi2+  Bi98  1  0.13153082  0.26823806  0.17479693  1
  Bi2+  Bi99  1  0.05790914  0.27577539  0.70361828  1
  Bi2+  Bi100  1  0.14296230  0.48813160  0.23164705  1
  Bi2+  Bi101  1  0.16981972  0.53262269  0.69129717  1
  Bi2+  Bi102  1  0.10541515  0.74735885  0.22608283  1
  Bi2+  Bi103  1  0.12724201  0.72111004  0.71147581  1
  Bi2+  Bi104  1  0.38990879  0.05571435  0.21800053  1
  Bi2+  Bi105  1  0.36386792  -0.01620795  0.70523278  1
  Bi2+  Bi106  1  0.41500084  0.26438237  0.22081385  1
  Bi2+  Bi107  1  0.37593182  0.23519684  0.72072057  1
  Bi2+  Bi108  1  0.39151453  0.46716845  0.21540064  1
  Bi2+  Bi109  1  0.35149483  0.45461483  0.70989236  1
  Bi2+  Bi110  1  0.37183075  0.77615196  0.20965985  1
  Bi2+  Bi111  1  0.37618180  0.72489606  0.71175018  1
  Bi2+  Bi112  1  0.65265453  0.00756414  0.20759603  1
  Bi2+  Bi113  1  0.61858459  0.04801025  0.72639225  1
  Bi2+  Bi114  1  0.61083271  0.24752624  0.21132665  1
  Bi2+  Bi115  1  0.59185311  0.27956256  0.68295713  1
  Bi2+  Bi116  1  0.61900634  0.48426050  0.22110578  1
  Bi2+  Bi117  1  0.61314365  0.47421614  0.71239972  1
  Bi2+  Bi118  1  0.66065558  0.75209431  0.20704020  1
  Bi2+  Bi119  1  0.63942653  0.81495303  0.69480032  1
  Bi2+  Bi120  1  0.95185261  -0.04652815  0.25461342  1
  Bi2+  Bi121  1  0.83492538  0.08997331  0.69536440  1
  Bi2+  Bi122  1  0.88488739  0.22932655  0.19259010  1
  Bi2+  Bi123  1  0.87124301  0.27188854  0.66052178  1
  Bi2+  Bi124  1  0.87585664  0.58568569  0.19621966  1
  Bi2+  Bi125  1  0.88601119  0.47354766  0.70295897  1
  Bi2+  Bi126  1  0.92117827  0.77647252  0.18185993  1
  Bi2+  Bi127  1  0.87574548  0.82694965  0.69282799  1
  S2-  S128  1  0.01265591  0.15043968  0.15197429  1
  S2-  S129  1  0.09776393  0.13537374  0.64756840  1
  S2-  S130  1  -0.01056186  0.36777563  0.15957823  1
  S2-  S131  1  0.02187270  0.47420870  0.64122059  1
  S2-  S132  1  0.10513546  0.60285018  0.16064514  1
  S2-  S133  1  -0.00570285  0.73493950  0.64226317  1
  S2-  S134  1  0.02031767  0.92001978  0.16492547  1
  S2-  S135  1  -0.02324250  0.95594979  0.64169755  1
  S2-  S136  1  0.24088582  0.13555307  0.15453966  1
  S2-  S137  1  0.25492124  0.11300071  0.72542212  1
  S2-  S138  1  0.24520589  0.41494531  0.15700331  1
  S2-  S139  1  0.28211634  0.32137066  0.65481726  1
  S2-  S140  1  0.36780188  0.61111753  0.16936659  1
  S2-  S141  1  0.33914977  0.59687847  0.64534021  1
  S2-  S142  1  0.22784780  0.77829934  0.15866084  1
  S2-  S143  1  0.24344541  0.93908099  0.64620830  1
  S2-  S144  1  0.57875725  0.12334424  0.13905778  1
  S2-  S145  1  0.39924342  0.12205166  0.64712761  1
  S2-  S146  1  0.50141396  0.44555066  0.14180294  1
  S2-  S147  1  0.49456589  0.45054169  0.64074072  1
  S2-  S148  1  0.50927533  0.75848978  0.15763940  1
  S2-  S149  1  0.52579480  0.71956666  0.65145392  1
  S2-  S150  1  0.38162925  0.92370021  0.15239332  1
  S2-  S151  1  0.51906916  0.93494289  0.66379182  1
  S2-  S152  1  0.80798945  0.08904184  0.17692606  1
  S2-  S153  1  0.63403904  0.12856943  0.63760648  1
  S2-  S154  1  0.74124658  0.28931901  0.14368450  1
  S2-  S155  1  0.74446589  0.47977293  0.64080005  1
  S2-  S156  1  0.65240123  0.61246621  0.15051838  1
  S2-  S157  1  0.75176260  0.72371758  0.64470409  1
  S2-  S158  1  0.67494615  0.88783492  0.13740623  1
  S2-  S159  1  0.74738054  0.92831069  0.64485641  1
  S2-  S160  1  0.12277645  0.07396610  0.35870629  1
  S2-  S161  1  0.10702284  0.00029204  0.84832039  1
  S2-  S162  1  0.00990825  0.26972446  0.34906061  1
  S2-  S163  1  0.20536262  0.26379905  0.84777646  1
  S2-  S164  1  0.20279403  0.45490290  0.33215474  1
  S2-  S165  1  0.12315324  0.51775781  0.84645570  1
  S2-  S166  1  0.12859379  0.64873136  0.35669256  1
  S2-  S167  1  0.03427186  0.74231990  0.86111456  1
  S2-  S168  1  0.47883530  -0.01458155  0.36263866  1
  S2-  S169  1  0.33886933  -0.04308513  0.84570635  1
  S2-  S170  1  0.25893750  0.23683888  0.35825249  1
  S2-  S171  1  0.39792995  0.18792712  0.82200003  1
  S2-  S172  1  0.41679130  0.51557281  0.34026398  1
  S2-  S173  1  0.37030940  0.42582970  0.84715655  1
  S2-  S174  1  0.36118086  0.73070535  0.34343090  1
  S2-  S175  1  0.44250568  0.72162224  0.86751184  1
  S2-  S176  1  0.74567060  -0.02408927  0.35435064  1
  S2-  S177  1  0.57710404  -0.09447963  0.85614544  1
  S2-  S178  1  0.48678134  0.23292635  0.35699022  1
  S2-  S179  1  0.62330978  0.11974140  0.85367242  1
  S2-  S180  1  0.63095088  0.59816247  0.35956484  1
  S2-  S181  1  0.61315080  0.52998456  0.83629247  1
  S2-  S182  1  0.58589062  0.79679248  0.34371880  1
  S2-  S183  1  0.69763792  0.73239895  0.83789909  1
  S2-  S184  1  0.90739227  0.09745371  0.35357261  1
  S2-  S185  1  0.88511479  -0.07951703  0.84869902  1
  S2-  S186  1  0.74926031  0.24768773  0.35087668  1
  S2-  S187  1  0.76699410  0.28864458  0.85700278  1
  S2-  S188  1  0.96989379  0.49132232  0.35691217  1
  S2-  S189  1  0.86904180  0.57051639  0.85299391  1
  S2-  S190  1  0.87323997  0.72540401  0.34173990  1
  S2-  S191  1  0.87256781  0.72393877  0.76907335  1
  S2-  S192  1  -0.00307177  0.10627042  0.46153147  1
  S2-  S193  1  -0.00727578  0.13051393  0.94930381  1
  S2-  S194  1  -0.00000759  0.35839573  0.45810379  1
  S2-  S195  1  -0.00761918  0.38493814  0.94974335  1
  S2-  S196  1  0.00013234  0.61326207  0.46054567  1
  S2-  S197  1  -0.00405396  0.63095875  0.97017835  1
  S2-  S198  1  -0.00158762  0.85871077  0.45186928  1
  S2-  S199  1  -0.00538157  0.88681014  0.96109370  1
  S2-  S200  1  0.25146573  0.10311036  0.46256115  1
  S2-  S201  1  0.24574345  0.13612126  0.95060803  1
  S2-  S202  1  0.24686902  0.36398276  0.45016039  1
  S2-  S203  1  0.23940850  0.38810964  0.95185526  1
  S2-  S204  1  0.25002822  0.60967400  0.45452797  1
  S2-  S205  1  0.23929427  0.63663789  0.95116684  1
  S2-  S206  1  0.24976894  0.85781697  0.45117345  1
  S2-  S207  1  0.24279579  0.88264728  0.96361272  1
  S2-  S208  1  0.49992238  0.11079357  0.45916508  1
  S2-  S209  1  0.48599713  0.13909207  0.94777939  1
  S2-  S210  1  0.49449551  0.36442091  0.45237228  1
  S2-  S211  1  0.49760562  0.38216869  0.94442730  1
  S2-  S212  1  0.49322840  0.60515448  0.46146220  1
  S2-  S213  1  0.49585378  0.62912973  0.96627321  1
  S2-  S214  1  0.49851926  0.85327765  0.46151935  1
  S2-  S215  1  0.48872842  0.88685208  0.96590569  1
  S2-  S216  1  0.74733608  0.11062881  0.45463762  1
  S2-  S217  1  0.74768027  0.12804607  0.95590632  1
  S2-  S218  1  0.75058837  0.36426630  0.45404561  1
  S2-  S219  1  0.74517794  0.38840071  0.95542359  1
  S2-  S220  1  0.75461673  0.60544940  0.45778532  1
  S2-  S221  1  0.74570231  0.64034095  0.95454696  1
  S2-  S222  1  0.74860257  0.85086610  0.45137100  1
  S2-  S223  1  0.74213578  0.88042377  0.94397775  1
  S2-  S224  1  0.12222623  0.00918868  0.05394190  1
  S2-  S225  1  0.12271670  -0.01764798  0.54665407  1
  S2-  S226  1  0.11753546  0.25480540  0.03909704  1
  S2-  S227  1  0.12305869  0.23078777  0.54339972  1
  S2-  S228  1  0.11876699  0.50687238  0.05054761  1
  S2-  S229  1  0.12662687  0.48151559  0.53696507  1
  S2-  S230  1  0.11989919  0.75878491  0.05539969  1
  S2-  S231  1  0.12976834  0.73302483  0.54542992  1
  S2-  S232  1  0.37123732  0.01372789  0.04609912  1
  S2-  S233  1  0.37801357  -0.01963954  0.54815025  1
  S2-  S234  1  0.37104234  0.25891612  0.05043654  1
  S2-  S235  1  0.37669497  0.23445849  0.54355325  1
  S2-  S236  1  0.36517637  0.50876286  0.04478931  1
  S2-  S237  1  0.37104508  0.47819184  0.53957172  1
  S2-  S238  1  0.36934656  0.75226465  0.05797997  1
  S2-  S239  1  0.36959102  0.73317217  0.54902622  1
  S2-  S240  1  0.62095890  0.01105740  0.03772273  1
  S2-  S241  1  0.62532057  -0.02191289  0.53882175  1
  S2-  S242  1  0.61849618  0.25859597  0.03506512  1
  S2-  S243  1  0.62554285  0.24054105  0.53637868  1
  S2-  S244  1  0.62295329  0.50167939  0.04382679  1
  S2-  S245  1  0.62207254  0.47983498  0.54195461  1
  S2-  S246  1  0.61857208  0.75759950  0.04093946  1
  S2-  S247  1  0.62204335  0.72452718  0.54098827  1
  S2-  S248  1  0.86796314  0.01017095  0.04867795  1
  S2-  S249  1  0.86989263  -0.02126036  0.53756778  1
  S2-  S250  1  0.86989851  0.25243304  0.04314309  1
  S2-  S251  1  0.87354212  0.23186343  0.54180053  1
  S2-  S252  1  0.86797135  0.50443048  0.05609953  1
  S2-  S253  1  0.87698167  0.48091555  0.54413767  1
  S2-  S254  1  0.86719062  0.75846743  0.05938608  1
  S2-  S255  1  0.87533941  0.72915476  0.54317809  1
