# generated using pymatgen
data_La9Ce10Pr6Nd4Sm3(BiS2)32
_symmetry_space_group_name_H-M   'P 1'
_cell_length_a   16.22798573
_cell_length_b   16.21612485
_cell_length_c   27.06273025
_cell_angle_alpha   90.07168137
_cell_angle_beta   89.87068324
_cell_angle_gamma   90.08447923
_symmetry_Int_Tables_number   1
_chemical_formula_structural   La9Ce10Pr6Nd4Sm3(BiS2)32
_chemical_formula_sum   'La18 Ce20 Pr12 Nd8 Sm6 Bi64 S128'
_cell_volume   7121.66250940
_cell_formula_units_Z   2
loop_
 _symmetry_equiv_pos_site_id
 _symmetry_equiv_pos_as_xyz
  1  'x, y, z'
loop_
 _atom_type_symbol
 _atom_type_oxidation_number
  La3+  3.0
  Ce3+  3.0
  Pr3+  3.0
  Nd3+  3.0
  Sm3+  3.0
  Bi2+  2.0
  S2-  -2.0
loop_
 _atom_site_type_symbol
 _atom_site_label
 _atom_site_symmetry_multiplicity
 _atom_site_fract_x
 _atom_site_fract_y
 _atom_site_fract_z
 _atom_site_occupancy
  La3+  La0  1  0.36929091  -0.00029045  0.43177698  1
  La3+  La1  1  0.73725006  0.12304971  0.56464045  1
  La3+  La2  1  0.24130636  0.87064426  0.56380153  1
  La3+  La3  1  0.74308887  0.61954722  0.56161063  1
  La3+  La4  1  0.12912652  0.48653914  0.41325719  1
  La3+  La5  1  0.12284380  0.24779606  0.94030348  1
  La3+  La6  1  0.23854599  0.37785318  0.59433107  1
  La3+  La7  1  0.25974371  0.36441035  0.07730118  1
  La3+  La8  1  0.62205621  0.74263568  0.93449988  1
  La3+  La9  1  0.62821416  -0.00623430  0.93433179  1
  La3+  La10  1  0.50570575  0.36423356  0.60611829  1
  La3+  La11  1  0.74474408  0.11397429  0.08734504  1
  La3+  La12  1  -0.01196452  0.36327996  0.08315154  1
  La3+  La13  1  0.63066216  -0.00754397  0.39862244  1
  La3+  La14  1  0.62716909  0.23870602  0.92702273  1
  La3+  La15  1  0.86094718  0.49304060  0.42673608  1
  La3+  La16  1  0.88024544  0.73647447  0.91875962  1
  La3+  La17  1  0.11918630  -0.00328691  0.42450875  1
  Ce3+  Ce18  1  0.24678397  0.86660048  0.05710022  1
  Ce3+  Ce19  1  0.86473777  -0.00409829  0.44951669  1
  Ce3+  Ce20  1  0.49583358  0.87126645  0.55663434  1
  Ce3+  Ce21  1  0.74933993  0.61966384  0.06205983  1
  Ce3+  Ce22  1  0.49238301  0.61423232  0.55817752  1
  Ce3+  Ce23  1  0.61451082  0.24429561  0.44076334  1
  Ce3+  Ce24  1  0.24548491  0.61664136  0.55750345  1
  Ce3+  Ce25  1  0.61832757  0.74839738  0.43584504  1
  Ce3+  Ce26  1  -0.00264300  0.11845605  0.05323042  1
  Ce3+  Ce27  1  0.61534682  0.49428708  0.43544935  1
  Ce3+  Ce28  1  -0.00416640  0.86772850  0.05941602  1
  Ce3+  Ce29  1  -0.00430163  0.12055245  0.55537901  1
  Ce3+  Ce30  1  0.36631497  0.74030088  0.94054640  1
  Ce3+  Ce31  1  0.74124593  0.37105382  0.55617126  1
  Ce3+  Ce32  1  0.25094770  0.11775771  0.05933885  1
  Ce3+  Ce33  1  -0.01033389  0.87050695  0.55628948  1
  Ce3+  Ce34  1  0.49732295  0.86888524  0.05622489  1
  Ce3+  Ce35  1  0.12132773  0.24931247  0.44398090  1
  Ce3+  Ce36  1  0.49815997  0.61704891  0.05284933  1
  Ce3+  Ce37  1  0.48919001  0.12324030  0.56117352  1
  Pr3+  Pr38  1  0.87262132  0.24369929  0.93853165  1
  Pr3+  Pr39  1  0.36538873  0.23173804  0.92020668  1
  Pr3+  Pr40  1  0.24457903  0.61843893  0.06675077  1
  Pr3+  Pr41  1  0.49012890  0.11236604  0.07191185  1
  Pr3+  Pr42  1  0.36814007  0.49283677  0.44110312  1
  Pr3+  Pr43  1  -0.00468067  0.37233706  0.55975663  1
  Pr3+  Pr44  1  0.74270032  0.36622810  0.06044204  1
  Pr3+  Pr45  1  0.86708669  0.74706611  0.43927120  1
  Pr3+  Pr46  1  0.62398891  0.49323390  0.93412398  1
  Pr3+  Pr47  1  -0.00515967  0.61806260  0.55616887  1
  Pr3+  Pr48  1  0.23915998  0.11564171  0.56988484  1
  Pr3+  Pr49  1  0.73259636  0.87123094  0.56961288  1
  Nd3+  Nd50  1  0.37189646  -0.01025326  0.93215795  1
  Nd3+  Nd51  1  0.11652820  0.74391661  0.43938875  1
  Nd3+  Nd52  1  0.49891728  0.36296406  0.04861349  1
  Nd3+  Nd53  1  0.12203308  0.48978444  0.95561485  1
  Nd3+  Nd54  1  0.36822741  0.74582019  0.44146892  1
  Nd3+  Nd55  1  -0.00911182  0.62100211  0.07234717  1
  Nd3+  Nd56  1  0.87724132  0.49135441  0.94210975  1
  Nd3+  Nd57  1  0.86704134  0.24417930  0.43970940  1
  Sm3+  Sm58  1  0.87290277  -0.00738816  0.94107721  1
  Sm3+  Sm59  1  0.74836042  0.86857919  0.05759521  1
  Sm3+  Sm60  1  0.12079512  -0.00917126  0.94606992  1
  Sm3+  Sm61  1  0.12310961  0.73867231  0.94249773  1
  Sm3+  Sm62  1  0.36736259  0.25121810  0.45499837  1
  Sm3+  Sm63  1  0.36945407  0.48867243  0.93681202  1
  Bi2+  Bi64  1  0.00836151  0.07829084  0.29979675  1
  Bi2+  Bi65  1  -0.01815927  0.18712796  0.79592634  1
  Bi2+  Bi66  1  -0.00498154  0.39045581  0.29658862  1
  Bi2+  Bi67  1  -0.04348454  0.37265614  0.82700571  1
  Bi2+  Bi68  1  -0.01762451  0.64937817  0.29039905  1
  Bi2+  Bi69  1  0.06101394  0.60499250  0.80731313  1
  Bi2+  Bi70  1  0.04918107  0.89311952  0.30841917  1
  Bi2+  Bi71  1  0.09278791  0.87749442  0.79240447  1
  Bi2+  Bi72  1  0.27323940  0.10557600  0.26417671  1
  Bi2+  Bi73  1  0.23594031  0.09522888  0.79721353  1
  Bi2+  Bi74  1  0.27278876  0.35096898  0.30110798  1
  Bi2+  Bi75  1  0.25026700  0.39162613  0.80359964  1
  Bi2+  Bi76  1  0.33201898  0.63802018  0.28506538  1
  Bi2+  Bi77  1  0.23880290  0.68670108  0.82591371  1
  Bi2+  Bi78  1  0.24400911  0.88350989  0.29031320  1
  Bi2+  Bi79  1  0.28949066  0.87503564  0.80884868  1
  Bi2+  Bi80  1  0.49651421  0.15303725  0.30445462  1
  Bi2+  Bi81  1  0.49595412  0.04359917  0.76440223  1
  Bi2+  Bi82  1  0.50895565  0.44232548  0.28436707  1
  Bi2+  Bi83  1  0.51699426  0.38593279  0.81138056  1
  Bi2+  Bi84  1  0.51850937  0.63473191  0.30923081  1
  Bi2+  Bi85  1  0.47606039  0.68508802  0.69733213  1
  Bi2+  Bi86  1  0.52382717  0.85107299  0.27518161  1
  Bi2+  Bi87  1  0.47965832  0.84382947  0.77365335  1
  Bi2+  Bi88  1  0.77630556  0.14987076  0.30350411  1
  Bi2+  Bi89  1  0.70549031  0.12244951  0.79793544  1
  Bi2+  Bi90  1  0.69951103  0.37574470  0.27674190  1
  Bi2+  Bi91  1  0.77116252  0.38031986  0.79124556  1
  Bi2+  Bi92  1  0.70563320  0.63493403  0.27196518  1
  Bi2+  Bi93  1  0.76715498  0.63322711  0.79501901  1
  Bi2+  Bi94  1  0.79073692  0.87212954  0.28584978  1
  Bi2+  Bi95  1  0.71014148  0.87012754  0.79222874  1
  Bi2+  Bi96  1  0.12873439  -0.00048739  0.21113031  1
  Bi2+  Bi97  1  0.07587281  -0.00077058  0.70099622  1
  Bi2+  Bi98  1  0.10897899  0.19423195  0.22706436  1
  Bi2+  Bi99  1  0.12682003  0.24394314  0.71028750  1
  Bi2+  Bi100  1  0.14169297  0.51579549  0.21033997  1
  Bi2+  Bi101  1  0.10431484  0.51768728  0.71038149  1
  Bi2+  Bi102  1  0.10976295  0.79673859  0.20034849  1
  Bi2+  Bi103  1  0.11541016  0.72527314  0.71318989  1
  Bi2+  Bi104  1  0.37809979  -0.05281369  0.21592156  1
  Bi2+  Bi105  1  0.35775264  -0.04951501  0.70412705  1
  Bi2+  Bi106  1  0.41353477  0.22122704  0.21415067  1
  Bi2+  Bi107  1  0.38169046  0.23968940  0.72163070  1
  Bi2+  Bi108  1  0.36881521  0.47371318  0.20533190  1
  Bi2+  Bi109  1  0.31661290  0.59135268  0.73781689  1
  Bi2+  Bi110  1  0.44629525  0.72840374  0.20287666  1
  Bi2+  Bi111  1  0.29621073  0.76390522  0.67859993  1
  Bi2+  Bi112  1  0.62008004  0.01093106  0.20200385  1
  Bi2+  Bi113  1  0.65900302  0.00961529  0.70313746  1
  Bi2+  Bi114  1  0.57932139  0.35307679  0.18676679  1
  Bi2+  Bi115  1  0.64812932  0.22535134  0.71028249  1
  Bi2+  Bi116  1  0.64501048  0.53985417  0.17498832  1
  Bi2+  Bi117  1  0.62781873  0.49477910  0.71128884  1
  Bi2+  Bi118  1  0.64526904  0.76834415  0.18963684  1
  Bi2+  Bi119  1  0.66250244  0.75098560  0.69521208  1
  Bi2+  Bi120  1  0.88581149  0.01336719  0.20671588  1
  Bi2+  Bi121  1  0.91857120  0.01440056  0.76544805  1
  Bi2+  Bi122  1  0.92375984  0.26302330  0.21280733  1
  Bi2+  Bi123  1  0.89865224  0.30550527  0.71579925  1
  Bi2+  Bi124  1  0.82032632  0.49078533  0.21187944  1
  Bi2+  Bi125  1  0.90784074  0.50007394  0.72609049  1
  Bi2+  Bi126  1  0.83794405  0.75694004  0.20142063  1
  Bi2+  Bi127  1  0.91690981  0.76122260  0.71516741  1
  S2-  S128  1  -0.01211166  0.13711484  0.15016531  1
  S2-  S129  1  0.02551765  0.14053452  0.65106569  1
  S2-  S130  1  0.01567446  0.41563840  0.18236892  1
  S2-  S131  1  0.08178134  0.37852886  0.64808950  1
  S2-  S132  1  0.06927335  0.65136400  0.16260277  1
  S2-  S133  1  -0.06156174  0.61938932  0.65323315  1
  S2-  S134  1  -0.03715476  0.86602360  0.15711705  1
  S2-  S135  1  0.02428566  0.84877320  0.65135063  1
  S2-  S136  1  0.34676078  0.13253664  0.13937714  1
  S2-  S137  1  0.25608871  0.17442043  0.66693072  1
  S2-  S138  1  0.22503033  0.38120959  0.18037474  1
  S2-  S139  1  0.28423949  0.35963714  0.69902204  1
  S2-  S140  1  0.26998693  0.59745108  0.16584432  1
  S2-  S141  1  0.24286910  0.54094909  0.64606239  1
  S2-  S142  1  0.26167629  0.85086295  0.15443411  1
  S2-  S143  1  0.21946409  0.97871119  0.64159740  1
  S2-  S144  1  0.60402608  0.14401891  0.14739942  1
  S2-  S145  1  0.50893140  0.19171840  0.65204493  1
  S2-  S146  1  0.41415577  0.34971338  0.13538777  1
  S2-  S147  1  0.49321536  0.37526621  0.71509605  1
  S2-  S148  1  0.48068643  0.58170867  0.14840542  1
  S2-  S149  1  0.49964619  0.53299445  0.64472169  1
  S2-  S150  1  0.49139769  0.96122660  0.13964690  1
  S2-  S151  1  0.59061617  0.87605912  0.64093161  1
  S2-  S152  1  0.79326038  0.14947455  0.19708167  1
  S2-  S153  1  0.76702419  0.12927321  0.66490491  1
  S2-  S154  1  0.83324211  0.35616024  0.14651574  1
  S2-  S155  1  0.67602031  0.36615837  0.64774439  1
  S2-  S156  1  0.85725143  0.61767136  0.14130658  1
  S2-  S157  1  0.72082900  0.59184870  0.66156792  1
  S2-  S158  1  0.75394136  0.95982352  0.14345127  1
  S2-  S159  1  0.80395437  0.83414826  0.66219494  1
  S2-  S160  1  0.24808554  0.01808100  0.35609790  1
  S2-  S161  1  0.11458421  0.02192201  0.84861908  1
  S2-  S162  1  0.12793264  0.32488003  0.35411373  1
  S2-  S163  1  0.20487177  0.24130961  0.85111683  1
  S2-  S164  1  0.09312282  0.53143912  0.31398057  1
  S2-  S165  1  0.11455759  0.44228358  0.85919183  1
  S2-  S166  1  0.10244834  0.73480769  0.33942538  1
  S2-  S167  1  0.03230669  0.74864029  0.85948501  1
  S2-  S168  1  0.47358860  0.00712974  0.34963714  1
  S2-  S169  1  0.37205862  0.08890241  0.84973009  1
  S2-  S170  1  0.36378569  0.24392660  0.35424452  1
  S2-  S171  1  0.38433636  0.29890385  0.82464624  1
  S2-  S172  1  0.28700782  0.48935832  0.35057155  1
  S2-  S173  1  0.37526600  0.50032497  0.83760492  1
  S2-  S174  1  0.34959584  0.77302485  0.34333732  1
  S2-  S175  1  0.40876441  0.74402598  0.84574254  1
  S2-  S176  1  0.64389844  0.05630240  0.29625043  1
  S2-  S177  1  0.57394240  -0.03976084  0.84012371  1
  S2-  S178  1  0.64231374  0.24241578  0.34266119  1
  S2-  S179  1  0.57430457  0.22618564  0.82771133  1
  S2-  S180  1  0.70305885  0.49271357  0.35118630  1
  S2-  S181  1  0.65189409  0.49878065  0.83335485  1
  S2-  S182  1  0.64045507  0.83604980  0.35017192  1
  S2-  S183  1  0.64290702  0.72623389  0.83442783  1
  S2-  S184  1  0.80618766  0.00164671  0.35718920  1
  S2-  S185  1  0.81608100  0.00232886  0.84705132  1
  S2-  S186  1  0.88091059  0.28138470  0.34153838  1
  S2-  S187  1  0.76807142  0.24420457  0.85650251  1
  S2-  S188  1  0.90275396  0.51722552  0.32917719  1
  S2-  S189  1  0.87760085  0.58728941  0.85840057  1
  S2-  S190  1  0.86186097  0.74906928  0.33774424  1
  S2-  S191  1  0.84017877  0.78616675  0.81785513  1
  S2-  S192  1  -0.00702450  0.12252469  0.44771729  1
  S2-  S193  1  -0.00275575  0.11688226  0.94712452  1
  S2-  S194  1  -0.00845070  0.37180478  0.45203069  1
  S2-  S195  1  -0.00410858  0.36589832  0.96869155  1
  S2-  S196  1  -0.00706998  0.61729968  0.44741528  1
  S2-  S197  1  0.00206396  0.61569907  0.96420042  1
  S2-  S198  1  -0.00800583  0.87182646  0.44852715  1
  S2-  S199  1  -0.00264715  0.87089488  0.95312952  1
  S2-  S200  1  0.24364566  0.12680534  0.46107341  1
  S2-  S201  1  0.24222892  0.11242819  0.95534638  1
  S2-  S202  1  0.24450307  0.36994986  0.46146643  1
  S2-  S203  1  0.25025314  0.36875728  0.96149331  1
  S2-  S204  1  0.24204895  0.62227858  0.44992575  1
  S2-  S205  1  0.24535556  0.61367475  0.95766754  1
  S2-  S206  1  0.24127160  0.86807393  0.45394725  1
  S2-  S207  1  0.24207192  0.86712346  0.94971846  1
  S2-  S208  1  0.49078746  0.12596548  0.45639098  1
  S2-  S209  1  0.49852396  0.11321097  0.95081988  1
  S2-  S210  1  0.49242920  0.37026605  0.44149824  1
  S2-  S211  1  0.49642002  0.36769522  0.94254191  1
  S2-  S212  1  0.49189794  0.62083020  0.45003192  1
  S2-  S213  1  0.49413429  0.61441137  0.94527513  1
  S2-  S214  1  0.49429673  0.86984958  0.45105463  1
  S2-  S215  1  0.49468593  0.86653265  0.94974442  1
  S2-  S216  1  0.73990313  0.12063866  0.45508748  1
  S2-  S217  1  0.75167326  0.11436059  0.95705238  1
  S2-  S218  1  0.74167119  0.36630659  0.45134329  1
  S2-  S219  1  0.74907049  0.37245946  0.95347675  1
  S2-  S220  1  0.74142169  0.62333864  0.45131462  1
  S2-  S221  1  0.74746468  0.61774088  0.95449650  1
  S2-  S222  1  0.74168832  0.87166373  0.46059199  1
  S2-  S223  1  0.75256891  0.86539180  0.95052299  1
  S2-  S224  1  0.12258009  -0.00704041  0.05193479  1
  S2-  S225  1  0.11239675  -0.00520822  0.53529004  1
  S2-  S226  1  0.12485506  0.24461664  0.05399129  1
  S2-  S227  1  0.12070900  0.24650878  0.54892885  1
  S2-  S228  1  0.12214610  0.48859094  0.06167585  1
  S2-  S229  1  0.11920674  0.49644478  0.54041492  1
  S2-  S230  1  0.12120430  0.74371706  0.04755270  1
  S2-  S231  1  0.11834343  0.74328021  0.54677900  1
  S2-  S232  1  0.36784824  -0.01128105  0.03867692  1
  S2-  S233  1  0.37038475  -0.00435807  0.54540798  1
  S2-  S234  1  0.37429698  0.23832185  0.03157473  1
  S2-  S235  1  0.36823150  0.25563854  0.55987525  1
  S2-  S236  1  0.37254877  0.49445535  0.04285709  1
  S2-  S237  1  0.36916661  0.48985112  0.54766318  1
  S2-  S238  1  0.37246432  0.74172046  0.04844056  1
  S2-  S239  1  0.37117180  0.74418441  0.54767904  1
  S2-  S240  1  0.62457672  -0.01015833  0.04171172  1
  S2-  S241  1  0.61295998  0.00268117  0.54759281  1
  S2-  S242  1  0.62236695  0.24113185  0.03885870  1
  S2-  S243  1  0.61332479  0.24995964  0.54614756  1
  S2-  S244  1  0.62133074  0.49208550  0.04152575  1
  S2-  S245  1  0.61713874  0.49184541  0.54166756  1
  S2-  S246  1  0.62376621  0.74449680  0.04457184  1
  S2-  S247  1  0.61478965  0.74025403  0.54340662  1
  S2-  S248  1  0.87330612  -0.00601741  0.04528915  1
  S2-  S249  1  0.86567555  -0.00363134  0.55626848  1
  S2-  S250  1  0.86720518  0.23593538  0.04641140  1
  S2-  S251  1  0.86866367  0.24679333  0.54889277  1
  S2-  S252  1  0.87169002  0.49076700  0.04714190  1
  S2-  S253  1  0.86722597  0.49331927  0.54254319  1
  S2-  S254  1  0.87114306  0.74764276  0.04024696  1
  S2-  S255  1  0.86742125  0.74484310  0.54591869  1
