# generated using pymatgen
data_La9Ce10Pr6Nd4Sm3(BiS2)32
_symmetry_space_group_name_H-M   'P 1'
_cell_length_a   16.18531214
_cell_length_b   16.13590795
_cell_length_c   27.14439535
_cell_angle_alpha   90.16843950
_cell_angle_beta   89.48565842
_cell_angle_gamma   90.33363613
_symmetry_Int_Tables_number   1
_chemical_formula_structural   La9Ce10Pr6Nd4Sm3(BiS2)32
_chemical_formula_sum   'La18 Ce20 Pr12 Nd8 Sm6 Bi64 S128'
_cell_volume   7088.72267688
_cell_formula_units_Z   2
loop_
 _symmetry_equiv_pos_site_id
 _symmetry_equiv_pos_as_xyz
  1  'x, y, z'
loop_
 _atom_type_symbol
 _atom_type_oxidation_number
  La3+  3.0
  Ce3+  3.0
  Pr3+  3.0
  Nd3+  3.0
  Sm3+  3.0
  Bi2+  2.0
  S2-  -2.0
loop_
 _atom_site_type_symbol
 _atom_site_label
 _atom_site_symmetry_multiplicity
 _atom_site_fract_x
 _atom_site_fract_y
 _atom_site_fract_z
 _atom_site_occupancy
  La3+  La0  1  0.64418602  0.25121261  0.91032045  1
  La3+  La1  1  0.76201750  0.38664697  0.05441174  1
  La3+  La2  1  0.65067218  0.51552871  0.91288397  1
  La3+  La3  1  0.00732540  0.89138044  0.08543368  1
  La3+  La4  1  0.90328336  0.76827174  0.93653297  1
  La3+  La5  1  0.13660929  -0.00518998  0.91918623  1
  La3+  La6  1  -0.00384054  0.37423444  0.58115128  1
  La3+  La7  1  0.51687310  0.14342637  0.06560089  1
  La3+  La8  1  0.89404265  0.25823127  0.92799686  1
  La3+  La9  1  0.39251951  0.51239796  0.92747420  1
  La3+  La10  1  0.01377654  0.38656956  0.06561985  1
  La3+  La11  1  0.73042787  0.37708188  0.59740289  1
  La3+  La12  1  0.26409503  0.89208571  0.08550619  1
  La3+  La13  1  0.10536799  0.24071866  0.43564566  1
  La3+  La14  1  0.24449903  0.61069817  0.56300825  1
  La3+  La15  1  0.51722692  0.39171202  0.05474362  1
  La3+  La16  1  0.26290196  0.61982309  0.08918650  1
  La3+  La17  1  0.13378155  0.74337432  0.40180090  1
  Ce3+  Ce18  1  0.49632101  0.11542907  0.55975252  1
  Ce3+  Ce19  1  0.86888187  0.24072161  0.46388500  1
  Ce3+  Ce20  1  0.26195842  0.13126224  0.05429985  1
  Ce3+  Ce21  1  0.62352558  -0.00965767  0.43793185  1
  Ce3+  Ce22  1  0.36359866  -0.00919598  0.43426740  1
  Ce3+  Ce23  1  0.13675359  0.51377286  0.93509037  1
  Ce3+  Ce24  1  0.37059479  0.23559390  0.43135901  1
  Ce3+  Ce25  1  0.39161713  0.25757308  0.93918857  1
  Ce3+  Ce26  1  0.49131382  0.36100990  0.56187250  1
  Ce3+  Ce27  1  0.89133113  0.00777450  0.94589653  1
  Ce3+  Ce28  1  0.74294194  0.86391381  0.55950934  1
  Ce3+  Ce29  1  0.38230511  0.76385841  0.94808207  1
  Ce3+  Ce30  1  0.50997273  0.88411638  0.06941051  1
  Ce3+  Ce31  1  0.62226301  0.23716953  0.44060841  1
  Ce3+  Ce32  1  -0.00486370  0.61442498  0.55003565  1
  Ce3+  Ce33  1  0.74267911  0.61494382  0.55752217  1
  Ce3+  Ce34  1  0.75880039  0.88956670  0.06769885  1
  Ce3+  Ce35  1  0.37218497  0.72982168  0.42935673  1
  Ce3+  Ce36  1  0.26300111  0.38589935  0.04765960  1
  Ce3+  Ce37  1  0.62228568  0.48479360  0.43829525  1
  Pr3+  Pr38  1  0.63998273  0.76455304  0.93351190  1
  Pr3+  Pr39  1  0.25273102  0.85595581  0.57052613  1
  Pr3+  Pr40  1  0.37022024  0.48215959  0.43281766  1
  Pr3+  Pr41  1  0.87263651  0.48729723  0.44174857  1
  Pr3+  Pr42  1  0.86763161  -0.00926683  0.43257776  1
  Pr3+  Pr43  1  0.13763421  0.25901105  0.93220621  1
  Pr3+  Pr44  1  0.01544412  0.64072737  0.06917972  1
  Pr3+  Pr45  1  0.76146618  0.14162954  0.06098666  1
  Pr3+  Pr46  1  0.38761121  0.00888038  0.93631193  1
  Pr3+  Pr47  1  0.63957946  0.00674349  0.93840664  1
  Pr3+  Pr48  1  0.24538764  0.36125724  0.56628893  1
  Pr3+  Pr49  1  -0.01487104  0.10631843  0.58187116  1
  Nd3+  Nd50  1  0.61835380  0.73809255  0.44525637  1
  Nd3+  Nd51  1  0.73608364  0.11549377  0.57380613  1
  Nd3+  Nd52  1  0.14973560  0.76136975  0.95064119  1
  Nd3+  Nd53  1  0.89591238  0.51413664  0.93255071  1
  Nd3+  Nd54  1  -0.00544341  0.86294495  0.56600515  1
  Nd3+  Nd55  1  0.87399587  0.74227668  0.43463412  1
  Nd3+  Nd56  1  0.23870919  0.11191772  0.55656040  1
  Nd3+  Nd57  1  0.12380558  0.48754548  0.43053427  1
  Sm3+  Sm58  1  0.49386406  0.61065710  0.55778298  1
  Sm3+  Sm59  1  0.51508119  0.63352940  0.05527533  1
  Sm3+  Sm60  1  0.01518241  0.13144838  0.05767119  1
  Sm3+  Sm61  1  0.11062095  -0.01410308  0.44214424  1
  Sm3+  Sm62  1  0.49015229  0.86387767  0.55179585  1
  Sm3+  Sm63  1  0.76108026  0.63389343  0.05640232  1
  Bi2+  Bi64  1  -0.02395137  0.14800773  0.28568982  1
  Bi2+  Bi65  1  -0.05440430  0.12997091  0.80342266  1
  Bi2+  Bi66  1  -0.01583538  0.37519483  0.30934074  1
  Bi2+  Bi67  1  0.01160790  0.39081895  0.78328225  1
  Bi2+  Bi68  1  -0.08967371  0.61156492  0.29057564  1
  Bi2+  Bi69  1  0.03137458  0.64569545  0.78982153  1
  Bi2+  Bi70  1  0.00270149  0.90315311  0.29985910  1
  Bi2+  Bi71  1  -0.03293437  0.88037600  0.80362169  1
  Bi2+  Bi72  1  0.24120590  0.14580670  0.29576171  1
  Bi2+  Bi73  1  0.27094773  0.19156753  0.77175955  1
  Bi2+  Bi74  1  0.25815712  0.38389432  0.28498459  1
  Bi2+  Bi75  1  0.20641717  0.37407731  0.79165552  1
  Bi2+  Bi76  1  0.27111250  0.62546994  0.28497089  1
  Bi2+  Bi77  1  0.23273461  0.63144630  0.80368726  1
  Bi2+  Bi78  1  0.25726793  0.88295699  0.27419024  1
  Bi2+  Bi79  1  0.29703377  0.87999031  0.78866838  1
  Bi2+  Bi80  1  0.59611317  0.05787654  0.30665294  1
  Bi2+  Bi81  1  0.48535128  0.06541413  0.80241921  1
  Bi2+  Bi82  1  0.51942967  0.35303178  0.28730132  1
  Bi2+  Bi83  1  0.45758156  0.37466753  0.80347125  1
  Bi2+  Bi84  1  0.52749677  0.61775176  0.29016503  1
  Bi2+  Bi85  1  0.50959824  0.70336902  0.78796731  1
  Bi2+  Bi86  1  0.43990022  0.93921518  0.30984138  1
  Bi2+  Bi87  1  0.47805013  0.87473910  0.84206306  1
  Bi2+  Bi88  1  0.77823678  0.18254255  0.28275471  1
  Bi2+  Bi89  1  0.68787825  0.04201353  0.75641306  1
  Bi2+  Bi90  1  0.78366939  0.37678963  0.25853788  1
  Bi2+  Bi91  1  0.73236051  0.37743595  0.79031012  1
  Bi2+  Bi92  1  0.69806277  0.62661823  0.23743309  1
  Bi2+  Bi93  1  0.76890748  0.64195748  0.78497727  1
  Bi2+  Bi94  1  0.74003910  0.81599211  0.29563238  1
  Bi2+  Bi95  1  0.66979642  0.87869813  0.81574434  1
  Bi2+  Bi96  1  0.12750129  0.06631112  0.21568633  1
  Bi2+  Bi97  1  0.11364095  0.01751088  0.71461049  1
  Bi2+  Bi98  1  0.18363631  0.26132141  0.20577488  1
  Bi2+  Bi99  1  0.15784081  0.27731079  0.69079566  1
  Bi2+  Bi100  1  0.04979332  0.49900977  0.22842726  1
  Bi2+  Bi101  1  0.14081995  0.53198470  0.71723072  1
  Bi2+  Bi102  1  0.10494495  0.72491975  0.21842576  1
  Bi2+  Bi103  1  0.14617062  0.76853821  0.71973694  1
  Bi2+  Bi104  1  0.38744770  0.02890662  0.21121807  1
  Bi2+  Bi105  1  0.36374731  0.03284066  0.71709390  1
  Bi2+  Bi106  1  0.37642639  0.24936508  0.23235966  1
  Bi2+  Bi107  1  0.36066868  0.29696924  0.67628616  1
  Bi2+  Bi108  1  0.38848647  0.49400688  0.20398100  1
  Bi2+  Bi109  1  0.34794328  0.47650485  0.72367547  1
  Bi2+  Bi110  1  0.46074499  0.76853255  0.21811910  1
  Bi2+  Bi111  1  0.38520234  0.73909789  0.70706601  1
  Bi2+  Bi112  1  0.60710124  -0.09667452  0.23279860  1
  Bi2+  Bi113  1  0.54218562  -0.06010349  0.70815861  1
  Bi2+  Bi114  1  0.64602015  0.18155685  0.19174620  1
  Bi2+  Bi115  1  0.53321783  0.23134937  0.70879013  1
  Bi2+  Bi116  1  0.61528456  0.41981172  0.19133895  1
  Bi2+  Bi117  1  0.59416851  0.51969473  0.70866032  1
  Bi2+  Bi118  1  0.62933778  0.75148796  0.15393058  1
  Bi2+  Bi119  1  0.64908880  0.77176895  0.71647187  1
  Bi2+  Bi120  1  0.85735854  0.02573139  0.21315936  1
  Bi2+  Bi121  1  0.85688503  -0.05027796  0.71632355  1
  Bi2+  Bi122  1  0.90316648  0.25486450  0.19724610  1
  Bi2+  Bi123  1  0.88248285  0.22017969  0.71514120  1
  Bi2+  Bi124  1  0.87140137  0.51873735  0.18948336  1
  Bi2+  Bi125  1  0.89253349  0.57257537  0.71043247  1
  Bi2+  Bi126  1  0.84737486  0.74630075  0.20786895  1
  Bi2+  Bi127  1  0.95707884  0.75230639  0.69530017  1
  S2-  S128  1  0.01005331  0.04593375  0.14696619  1
  S2-  S129  1  0.03749045  0.15543368  0.67660264  1
  S2-  S130  1  0.04547830  0.34843125  0.16279437  1
  S2-  S131  1  -0.00328162  0.34580287  0.68344088  1
  S2-  S132  1  0.11823520  0.59335815  0.15133328  1
  S2-  S133  1  0.00618327  0.53799554  0.63781377  1
  S2-  S134  1  -0.00366667  0.75343570  0.15178881  1
  S2-  S135  1  -0.01317289  0.96547783  0.64923502  1
  S2-  S136  1  0.25918212  0.05605053  0.14304513  1
  S2-  S137  1  0.24450411  0.09712369  0.65738313  1
  S2-  S138  1  0.28042251  0.45045520  0.13725288  1
  S2-  S139  1  0.24361440  0.48745642  0.64068218  1
  S2-  S140  1  0.33348083  0.65585017  0.18383891  1
  S2-  S141  1  0.26116149  0.71369110  0.64548358  1
  S2-  S142  1  0.18140706  0.85319052  0.18030538  1
  S2-  S143  1  0.18348222  0.90277578  0.66235664  1
  S2-  S144  1  0.52180405  0.07087190  0.15930203  1
  S2-  S145  1  0.59459611  0.13032986  0.64186869  1
  S2-  S146  1  0.54230790  0.28872834  0.13813656  1
  S2-  S147  1  0.57063999  0.37865351  0.65029787  1
  S2-  S148  1  0.51339362  0.51914234  0.13325032  1
  S2-  S149  1  0.48517284  0.60687105  0.65736539  1
  S2-  S150  1  0.40471962  0.88448455  0.14968136  1
  S2-  S151  1  0.41853993  0.86908571  0.64175877  1
  S2-  S152  1  0.73778841  0.04995294  0.15002944  1
  S2-  S153  1  0.81208315  0.08947115  0.66293290  1
  S2-  S154  1  0.76672545  0.27100744  0.13434620  1
  S2-  S155  1  0.76700018  0.32520350  0.69312928  1
  S2-  S156  1  0.73566705  0.50974032  0.12908089  1
  S2-  S157  1  0.72852202  0.54430980  0.64787856  1
  S2-  S158  1  0.85420467  0.88992326  0.15022393  1
  S2-  S159  1  0.77241839  0.83196297  0.65475840  1
  S2-  S160  1  0.15236063  -0.08857272  0.35178547  1
  S2-  S161  1  0.08131831  0.04687121  0.82005164  1
  S2-  S162  1  0.12866676  0.35873752  0.35854021  1
  S2-  S163  1  0.02560246  0.26529294  0.85270902  1
  S2-  S164  1  0.15641636  0.58379553  0.34593965  1
  S2-  S165  1  0.02335053  0.51048556  0.85882041  1
  S2-  S166  1  0.02887640  0.74109819  0.31740759  1
  S2-  S167  1  0.06742456  0.83795660  0.87290616  1
  S2-  S168  1  0.36753742  0.11054234  0.36007052  1
  S2-  S169  1  0.27837041  -0.00492956  0.85558970  1
  S2-  S170  1  0.37207728  0.35725309  0.35708405  1
  S2-  S171  1  0.38751753  0.22156189  0.84268226  1
  S2-  S172  1  0.38968498  0.59523707  0.35298311  1
  S2-  S173  1  0.37130270  0.53462697  0.82750131  1
  S2-  S174  1  0.28739766  0.76452407  0.34483250  1
  S2-  S175  1  0.27503978  0.76025091  0.86719295  1
  S2-  S176  1  0.73057117  0.01736397  0.36175844  1
  S2-  S177  1  0.63351206  0.09527200  0.85050529  1
  S2-  S178  1  0.58082337  0.22748188  0.34382069  1
  S2-  S179  1  0.59142036  0.27993178  0.80645861  1
  S2-  S180  1  0.59379666  0.48265683  0.34097367  1
  S2-  S181  1  0.58843870  0.47608121  0.81325613  1
  S2-  S182  1  0.60920806  0.74485040  0.34575311  1
  S2-  S183  1  0.63755535  0.66205049  0.85138778  1
  S2-  S184  1  0.99814705  0.03048639  0.36503133  1
  S2-  S185  1  0.86092030  0.00498857  0.84815878  1
  S2-  S186  1  0.94708521  0.24570632  0.37505926  1
  S2-  S187  1  0.79009229  0.25766472  0.84436262  1
  S2-  S188  1  0.84387419  0.47711235  0.34187045  1
  S2-  S189  1  0.79895580  0.50866852  0.84786041  1
  S2-  S190  1  0.87267782  0.85723670  0.35870320  1
  S2-  S191  1  0.85405213  0.76010102  0.83831056  1
  S2-  S192  1  -0.00984781  0.11392642  0.47393253  1
  S2-  S193  1  0.02041751  0.12776531  0.95287067  1
  S2-  S194  1  -0.00684416  0.36893358  0.47004375  1
  S2-  S195  1  0.01730091  0.38574277  0.95755503  1
  S2-  S196  1  -0.00211074  0.61691111  0.44379275  1
  S2-  S197  1  0.02025200  0.64066291  0.95946724  1
  S2-  S198  1  0.00024832  0.85662861  0.45878729  1
  S2-  S199  1  0.01365562  0.89153362  0.97563942  1
  S2-  S200  1  0.23148386  0.11430235  0.45190894  1
  S2-  S201  1  0.25989293  0.13575041  0.94916893  1
  S2-  S202  1  0.24388217  0.35857385  0.46043035  1
  S2-  S203  1  0.26331586  0.38438314  0.94047733  1
  S2-  S204  1  0.24586583  0.61350325  0.45479115  1
  S2-  S205  1  0.26430226  0.62862783  0.95991342  1
  S2-  S206  1  0.24652477  0.86226901  0.45987857  1
  S2-  S207  1  0.26553243  0.88971939  0.96931494  1
  S2-  S208  1  0.49815150  0.11117076  0.45562791  1
  S2-  S209  1  0.51247942  0.13429614  0.95326372  1
  S2-  S210  1  0.49878062  0.36039317  0.45593856  1
  S2-  S211  1  0.51723224  0.38410203  0.93967257  1
  S2-  S212  1  0.50006119  0.60900913  0.45413027  1
  S2-  S213  1  0.50941238  0.64161633  0.94999528  1
  S2-  S214  1  0.49358481  0.86491246  0.44743269  1
  S2-  S215  1  0.51227129  0.88396964  0.96175876  1
  S2-  S216  1  0.74455060  0.11801331  0.46617983  1
  S2-  S217  1  0.76655653  0.13131756  0.95320569  1
  S2-  S218  1  0.74660451  0.36174820  0.44695422  1
  S2-  S219  1  0.77012919  0.38627915  0.94775643  1
  S2-  S220  1  0.74621611  0.61636034  0.44882382  1
  S2-  S221  1  0.77271205  0.64197698  0.95274515  1
  S2-  S222  1  0.74147910  0.86114415  0.45571170  1
  S2-  S223  1  0.76512492  0.88477170  0.95728777  1
  S2-  S224  1  0.13773724  0.01099666  0.04524330  1
  S2-  S225  1  0.11871831  -0.01386785  0.54732431  1
  S2-  S226  1  0.13838372  0.25749641  0.04352197  1
  S2-  S227  1  0.11525566  0.23864471  0.55277310  1
  S2-  S228  1  0.13791615  0.50853630  0.04060053  1
  S2-  S229  1  0.12028210  0.48768926  0.53821960  1
  S2-  S230  1  0.14706034  0.75955866  0.05594238  1
  S2-  S231  1  0.11494716  0.73828258  0.55477340  1
  S2-  S232  1  0.39302308  0.01495774  0.04424251  1
  S2-  S233  1  0.36920473  -0.00780111  0.54273413  1
  S2-  S234  1  0.38478255  0.26208232  0.04583326  1
  S2-  S235  1  0.36862777  0.23330910  0.54249427  1
  S2-  S236  1  0.38849772  0.51077926  0.03506972  1
  S2-  S237  1  0.37462563  0.48583518  0.54276310  1
  S2-  S238  1  0.38852063  0.75055981  0.05377293  1
  S2-  S239  1  0.37681874  0.73393390  0.53723547  1
  S2-  S240  1  0.63382963  0.00859265  0.04521077  1
  S2-  S241  1  0.61611331  -0.01513526  0.54675152  1
  S2-  S242  1  0.63909572  0.26308018  0.02742190  1
  S2-  S243  1  0.62335102  0.24783381  0.54569602  1
  S2-  S244  1  0.63762628  0.51663600  0.02396747  1
  S2-  S245  1  0.61760761  0.49020402  0.54332160  1
  S2-  S246  1  0.63870035  0.75832037  0.04054143  1
  S2-  S247  1  0.61402007  0.73913223  0.55270723  1
  S2-  S248  1  0.88399456  0.01575182  0.04810549  1
  S2-  S249  1  0.86292743  -0.01393621  0.54583098  1
  S2-  S250  1  0.89781013  0.25780244  0.03878828  1
  S2-  S251  1  0.86243597  0.24680550  0.56875621  1
  S2-  S252  1  0.89263596  0.51477469  0.04167662  1
  S2-  S253  1  0.86145309  0.48734654  0.54858977  1
  S2-  S254  1  0.88008733  0.75912636  0.04613688  1
  S2-  S255  1  0.86870580  0.73788578  0.54233124  1
