# generated using pymatgen
data_La9Ce10Pr6Nd4Sm3(BiS2)32
_symmetry_space_group_name_H-M   'P 1'
_cell_length_a   16.25424880
_cell_length_b   16.25620862
_cell_length_c   27.03759015
_cell_angle_alpha   89.94788919
_cell_angle_beta   90.13292395
_cell_angle_gamma   89.98419733
_symmetry_Int_Tables_number   1
_chemical_formula_structural   La9Ce10Pr6Nd4Sm3(BiS2)32
_chemical_formula_sum   'La18 Ce20 Pr12 Nd8 Sm6 Bi64 S128'
_cell_volume   7144.18648659
_cell_formula_units_Z   2
loop_
 _symmetry_equiv_pos_site_id
 _symmetry_equiv_pos_as_xyz
  1  'x, y, z'
loop_
 _atom_type_symbol
 _atom_type_oxidation_number
  La3+  3.0
  Ce3+  3.0
  Pr3+  3.0
  Nd3+  3.0
  Sm3+  3.0
  Bi2+  2.0
  S2-  -2.0
loop_
 _atom_site_type_symbol
 _atom_site_label
 _atom_site_symmetry_multiplicity
 _atom_site_fract_x
 _atom_site_fract_y
 _atom_site_fract_z
 _atom_site_occupancy
  La3+  La0  1  0.74693925  0.89470713  0.59493637  1
  La3+  La1  1  0.73183391  0.12528854  0.08013857  1
  La3+  La2  1  0.11074647  0.00162579  0.93099908  1
  La3+  La3  1  -0.00011416  0.14521097  0.57243214  1
  La3+  La4  1  0.36761633  0.75148547  0.92758529  1
  La3+  La5  1  0.87071342  0.01227110  0.43887713  1
  La3+  La6  1  0.50480376  0.38524706  0.57168546  1
  La3+  La7  1  0.25165469  0.39066755  0.59195160  1
  La3+  La8  1  0.10228279  0.50458058  0.92702272  1
  La3+  La9  1  -0.00629333  0.39416670  0.56690258  1
  La3+  La10  1  0.86962588  0.51534967  0.42172050  1
  La3+  La11  1  0.87660634  0.26136758  0.42699543  1
  La3+  La12  1  0.12189269  0.01619276  0.43915933  1
  La3+  La13  1  0.13129331  0.51919642  0.43185755  1
  La3+  La14  1  0.73504323  0.62999616  0.07046140  1
  La3+  La15  1  0.85606278  0.75303287  0.92354809  1
  La3+  La16  1  0.61864959  0.01392395  0.41347415  1
  La3+  La17  1  0.12703504  0.27409662  0.42917042  1
  Ce3+  Ce18  1  0.48973099  0.62976341  0.06580722  1
  Ce3+  Ce19  1  0.00080426  0.12692364  0.07614976  1
  Ce3+  Ce20  1  0.74140710  0.37511367  0.06384447  1
  Ce3+  Ce21  1  0.86278848  0.00840474  0.94708097  1
  Ce3+  Ce22  1  0.25077030  0.14201330  0.55627687  1
  Ce3+  Ce23  1  0.12531321  0.75865873  0.43904517  1
  Ce3+  Ce24  1  0.37605391  0.01267866  0.43487731  1
  Ce3+  Ce25  1  0.48992179  0.87795073  0.05679125  1
  Ce3+  Ce26  1  0.24009759  0.87663198  0.05335572  1
  Ce3+  Ce27  1  -0.01174216  0.87833228  0.05298057  1
  Ce3+  Ce28  1  0.86926400  0.76524809  0.44507475  1
  Ce3+  Ce29  1  0.23505655  0.37997886  0.05295414  1
  Ce3+  Ce30  1  0.25038071  0.63735090  0.56625245  1
  Ce3+  Ce31  1  0.62215051  0.26344215  0.43199208  1
  Ce3+  Ce32  1  0.25174409  0.89087472  0.55832211  1
  Ce3+  Ce33  1  0.73984741  0.87824368  0.05816878  1
  Ce3+  Ce34  1  0.75221241  0.38584204  0.55606935  1
  Ce3+  Ce35  1  0.61752209  0.25356967  0.94004792  1
  Ce3+  Ce36  1  0.11097745  0.75205928  0.94319061  1
  Ce3+  Ce37  1  0.86512859  0.50191773  0.94915471  1
  Pr3+  Pr38  1  0.00067725  0.38322500  0.08539610  1
  Pr3+  Pr39  1  0.61270028  0.75191123  0.93114413  1
  Pr3+  Pr40  1  0.10071049  0.25445794  0.93046582  1
  Pr3+  Pr41  1  0.61705049  0.00647003  0.93495159  1
  Pr3+  Pr42  1  0.36345179  0.50211072  0.93955207  1
  Pr3+  Pr43  1  0.23739655  0.12877331  0.05239459  1
  Pr3+  Pr44  1  0.50418707  0.64122832  0.55959586  1
  Pr3+  Pr45  1  0.36378305  0.00437381  0.94012970  1
  Pr3+  Pr46  1  0.37585285  0.76436316  0.44612474  1
  Pr3+  Pr47  1  0.86554708  0.25255950  0.95254775  1
  Pr3+  Pr48  1  0.36186362  0.25543329  0.93525969  1
  Pr3+  Pr49  1  0.00117688  0.89048951  0.56202194  1
  Nd3+  Nd50  1  -0.01146990  0.62846784  0.06639219  1
  Nd3+  Nd51  1  0.48748720  0.37723950  0.05812401  1
  Nd3+  Nd52  1  0.62336391  0.51169777  0.43724942  1
  Nd3+  Nd53  1  0.75099418  0.63844226  0.56007890  1
  Nd3+  Nd54  1  -0.00199109  0.64192582  0.55725901  1
  Nd3+  Nd55  1  0.37155893  0.27053675  0.43897772  1
  Nd3+  Nd56  1  0.50336140  0.89161241  0.56267341  1
  Nd3+  Nd57  1  0.50194960  0.13584667  0.55309462  1
  Sm3+  Sm58  1  0.62535703  0.76527725  0.43951391  1
  Sm3+  Sm59  1  0.37680142  0.51357512  0.44779442  1
  Sm3+  Sm60  1  0.24002463  0.62864180  0.05089654  1
  Sm3+  Sm61  1  0.74680281  0.13729287  0.55862030  1
  Sm3+  Sm62  1  0.61466893  0.50280922  0.94721971  1
  Sm3+  Sm63  1  0.49085236  0.12786719  0.05662619  1
  Bi2+  Bi64  1  0.00422622  0.11481812  0.28384919  1
  Bi2+  Bi65  1  -0.05626109  0.11310211  0.79656734  1
  Bi2+  Bi66  1  0.00972259  0.36927995  0.28757126  1
  Bi2+  Bi67  1  0.03200816  0.36864078  0.80576076  1
  Bi2+  Bi68  1  0.03860946  0.65021320  0.27432987  1
  Bi2+  Bi69  1  -0.02050256  0.62499610  0.79433601  1
  Bi2+  Bi70  1  0.03614894  0.85075723  0.26559911  1
  Bi2+  Bi71  1  0.04221992  0.85648676  0.80519284  1
  Bi2+  Bi72  1  0.24547016  0.11230745  0.29368247  1
  Bi2+  Bi73  1  0.32716925  0.08407224  0.75446249  1
  Bi2+  Bi74  1  0.26201389  0.38234651  0.29214227  1
  Bi2+  Bi75  1  0.26742649  0.37381836  0.79157980  1
  Bi2+  Bi76  1  0.28060017  0.65403865  0.29192883  1
  Bi2+  Bi77  1  0.29904597  0.65623362  0.79354897  1
  Bi2+  Bi78  1  0.26167649  0.85276264  0.28911870  1
  Bi2+  Bi79  1  0.29599266  0.84894801  0.81286540  1
  Bi2+  Bi80  1  0.43860996  0.13533815  0.28184323  1
  Bi2+  Bi81  1  0.58263601  0.13177478  0.79863422  1
  Bi2+  Bi82  1  0.49013083  0.31525150  0.32941599  1
  Bi2+  Bi83  1  0.53104358  0.31916181  0.78377445  1
  Bi2+  Bi84  1  0.49374293  0.50729216  0.32111063  1
  Bi2+  Bi85  1  0.50430673  0.60009839  0.79345742  1
  Bi2+  Bi86  1  0.45436930  0.87673496  0.27780898  1
  Bi2+  Bi87  1  0.48090356  0.84820511  0.76903439  1
  Bi2+  Bi88  1  0.75639478  0.12285183  0.30052743  1
  Bi2+  Bi89  1  0.74976929  0.12457695  0.73549242  1
  Bi2+  Bi90  1  0.66224861  0.38677891  0.29543871  1
  Bi2+  Bi91  1  0.74661270  0.36912638  0.78592320  1
  Bi2+  Bi92  1  0.78695704  0.63527231  0.29902032  1
  Bi2+  Bi93  1  0.72337273  0.56836093  0.76932625  1
  Bi2+  Bi94  1  0.75421455  0.83389607  0.28399063  1
  Bi2+  Bi95  1  0.74467501  0.88793736  0.79618621  1
  Bi2+  Bi96  1  0.10810508  -0.00802605  0.19070676  1
  Bi2+  Bi97  1  0.16770729  -0.03359998  0.75361716  1
  Bi2+  Bi98  1  0.18677488  0.24991778  0.21738386  1
  Bi2+  Bi99  1  0.12656344  0.21132681  0.70868977  1
  Bi2+  Bi100  1  0.14392525  0.50558024  0.20921159  1
  Bi2+  Bi101  1  0.11670962  0.57502138  0.72152995  1
  Bi2+  Bi102  1  0.17010014  0.75127226  0.20429307  1
  Bi2+  Bi103  1  0.15907388  0.76121732  0.71824417  1
  Bi2+  Bi104  1  0.34019177  0.00098732  0.21578461  1
  Bi2+  Bi105  1  0.38987095  -0.05022877  0.67601912  1
  Bi2+  Bi106  1  0.37476108  0.27311665  0.19584723  1
  Bi2+  Bi107  1  0.40054828  0.24035306  0.70908793  1
  Bi2+  Bi108  1  0.39768231  0.47123845  0.20706189  1
  Bi2+  Bi109  1  0.37392313  0.52216506  0.71430594  1
  Bi2+  Bi110  1  0.42050214  0.66107767  0.19522872  1
  Bi2+  Bi111  1  0.35203739  0.75707492  0.69670383  1
  Bi2+  Bi112  1  0.60624202  -0.00834551  0.20248364  1
  Bi2+  Bi113  1  0.56447893  0.02050726  0.70301070  1
  Bi2+  Bi114  1  0.56914556  0.25412241  0.22546994  1
  Bi2+  Bi115  1  0.68403635  0.27828667  0.67034160  1
  Bi2+  Bi116  1  0.58723273  0.53908327  0.22114684  1
  Bi2+  Bi117  1  0.60926186  0.44234604  0.70489005  1
  Bi2+  Bi118  1  0.57931212  0.73574101  0.24531463  1
  Bi2+  Bi119  1  0.59626306  0.72223532  0.70944335  1
  Bi2+  Bi120  1  0.85877773  -0.02354428  0.19977692  1
  Bi2+  Bi121  1  0.92101637  -0.02695627  0.70413016  1
  Bi2+  Bi122  1  0.81989733  0.27166622  0.22418203  1
  Bi2+  Bi123  1  0.87438733  0.27451517  0.70465418  1
  Bi2+  Bi124  1  0.87490513  0.48775107  0.20844033  1
  Bi2+  Bi125  1  0.88338179  0.47673494  0.72992158  1
  Bi2+  Bi126  1  0.89789076  0.74128857  0.21254763  1
  Bi2+  Bi127  1  0.88873525  0.71516369  0.69158376  1
  S2-  S128  1  -0.03070051  0.09267327  0.17571529  1
  S2-  S129  1  0.02632145  0.07279976  0.66618103  1
  S2-  S130  1  -0.04287410  0.32406988  0.18520621  1
  S2-  S131  1  0.01590936  0.27890368  0.64488102  1
  S2-  S132  1  0.00601993  0.52797494  0.14802967  1
  S2-  S133  1  -0.00678909  0.58181928  0.65204589  1
  S2-  S134  1  -0.01609639  0.87679388  0.15150592  1
  S2-  S135  1  -0.00569612  0.83602317  0.65913021  1
  S2-  S136  1  0.15085657  0.13270451  0.13957912  1
  S2-  S137  1  0.25788297  0.16171704  0.65479262  1
  S2-  S138  1  0.15924628  0.37760733  0.14114490  1
  S2-  S139  1  0.19537270  0.35144129  0.69558351  1
  S2-  S140  1  0.21952174  0.60952993  0.14892286  1
  S2-  S141  1  0.24203929  0.54206439  0.64905481  1
  S2-  S142  1  0.24485529  0.89473720  0.15094881  1
  S2-  S143  1  0.21965460  0.92405782  0.65205903  1
  S2-  S144  1  0.57602373  0.12051335  0.14317022  1
  S2-  S145  1  0.51866126  0.16286681  0.65252731  1
  S2-  S146  1  0.52326958  0.37709060  0.15640245  1
  S2-  S147  1  0.39905437  0.38253694  0.65216862  1
  S2-  S148  1  0.59914222  0.65297171  0.14220106  1
  S2-  S149  1  0.49170517  0.62077278  0.66005957  1
  S2-  S150  1  0.49642305  0.90592690  0.15513363  1
  S2-  S151  1  0.59597374  0.87052504  0.64785900  1
  S2-  S152  1  0.77254214  0.11106744  0.18168157  1
  S2-  S153  1  0.76561633  0.04933862  0.64510178  1
  S2-  S154  1  0.75258995  0.38819153  0.16291607  1
  S2-  S155  1  0.85118088  0.41141045  0.63536323  1
  S2-  S156  1  0.81381467  0.61697896  0.16347724  1
  S2-  S157  1  0.73921327  0.64801583  0.66040108  1
  S2-  S158  1  0.72366764  0.88958218  0.15711817  1
  S2-  S159  1  0.79506651  0.84773325  0.69511043  1
  S2-  S160  1  0.11880494  0.02390162  0.33752038  1
  S2-  S161  1  0.08025346  0.05173329  0.83529701  1
  S2-  S162  1  0.00664827  0.23686412  0.35330678  1
  S2-  S163  1  0.16005619  0.26637215  0.83156170  1
  S2-  S164  1  0.12147891  0.41153624  0.35176257  1
  S2-  S165  1  0.15435612  0.47728250  0.82898728  1
  S2-  S166  1  0.13567548  0.65623537  0.35904022  1
  S2-  S167  1  0.10245815  0.70946600  0.84935266  1
  S2-  S168  1  0.46924185  -0.00104891  0.35286814  1
  S2-  S169  1  0.36746844  0.00594178  0.83919195  1
  S2-  S170  1  0.26225130  0.25771586  0.35872255  1
  S2-  S171  1  0.38965736  0.26701565  0.83547357  1
  S2-  S172  1  0.31645092  0.51780765  0.35480858  1
  S2-  S173  1  0.37571907  0.49974195  0.83831234  1
  S2-  S174  1  0.38534810  0.75485485  0.34535069  1
  S2-  S175  1  0.49211586  0.74517227  0.85480454  1
  S2-  S176  1  0.68237717  -0.03184568  0.31545764  1
  S2-  S177  1  0.62010992  -0.03528218  0.83586029  1
  S2-  S178  1  0.62930212  0.15899666  0.35319877  1
  S2-  S179  1  0.69408215  0.23749504  0.85255660  1
  S2-  S180  1  0.72700928  0.51579440  0.35491305  1
  S2-  S181  1  0.62134824  0.52182820  0.84888822  1
  S2-  S182  1  0.64207011  0.72978756  0.34165953  1
  S2-  S183  1  0.71999292  0.75793331  0.85124263  1
  S2-  S184  1  0.89591791  0.03765782  0.33837107  1
  S2-  S185  1  0.84293389  0.00363713  0.84814999  1
  S2-  S186  1  0.79711143  0.28533004  0.33284269  1
  S2-  S187  1  0.95093107  0.25035524  0.86341379  1
  S2-  S188  1  0.93235189  0.50503636  0.32198377  1
  S2-  S189  1  0.95051065  0.49217601  0.86429177  1
  S2-  S190  1  0.87872862  0.75704597  0.34743506  1
  S2-  S191  1  0.90567204  0.77191142  0.82276194  1
  S2-  S192  1  -0.00114625  0.13662032  0.46045248  1
  S2-  S193  1  -0.01031267  0.12450088  0.96451297  1
  S2-  S194  1  -0.00513057  0.39386391  0.45439904  1
  S2-  S195  1  -0.01346562  0.37892449  0.96983932  1
  S2-  S196  1  -0.00511574  0.64132230  0.45105523  1
  S2-  S197  1  -0.01720816  0.63363889  0.95883093  1
  S2-  S198  1  0.00016024  0.88557689  0.45166354  1
  S2-  S199  1  -0.01570887  0.87747458  0.94641159  1
  S2-  S200  1  0.25207521  0.13531247  0.45194638  1
  S2-  S201  1  0.23619682  0.13002545  0.94393189  1
  S2-  S202  1  0.25505380  0.39499115  0.46324082  1
  S2-  S203  1  0.23561573  0.37846803  0.94687731  1
  S2-  S204  1  0.25603063  0.64020443  0.46148830  1
  S2-  S205  1  0.23952936  0.62828627  0.94558807  1
  S2-  S206  1  0.24894414  0.88745462  0.44851091  1
  S2-  S207  1  0.23875037  0.87650814  0.94697684  1
  S2-  S208  1  0.49296562  0.14100902  0.44907936  1
  S2-  S209  1  0.48918044  0.13021008  0.95048834  1
  S2-  S210  1  0.49969401  0.39087895  0.46101654  1
  S2-  S211  1  0.49117350  0.37848031  0.95030256  1
  S2-  S212  1  0.50259633  0.63955707  0.45190852  1
  S2-  S213  1  0.49003808  0.62271844  0.95780906  1
  S2-  S214  1  0.50265804  0.88584766  0.45516197  1
  S2-  S215  1  0.48920785  0.88360998  0.94960364  1
  S2-  S216  1  0.74837312  0.13667302  0.45309174  1
  S2-  S217  1  0.73844430  0.12922317  0.96456852  1
  S2-  S218  1  0.74698742  0.38584070  0.45164221  1
  S2-  S219  1  0.73975425  0.37971814  0.95579654  1
  S2-  S220  1  0.74531986  0.64197624  0.45376304  1
  S2-  S221  1  0.73846533  0.62461544  0.95766723  1
  S2-  S222  1  0.74390713  0.88836217  0.44337245  1
  S2-  S223  1  0.74018012  0.88195862  0.95335188  1
  S2-  S224  1  0.11580558  -0.00227435  0.04020082  1
  S2-  S225  1  0.12585446  0.01450800  0.54732599  1
  S2-  S226  1  0.11470845  0.25471055  0.03959544  1
  S2-  S227  1  0.13068692  0.26846663  0.54446516  1
  S2-  S228  1  0.11674567  0.50995355  0.03746094  1
  S2-  S229  1  0.12135165  0.51763965  0.54588309  1
  S2-  S230  1  0.11473382  0.75114246  0.04999288  1
  S2-  S231  1  0.12597069  0.76322722  0.54821500  1
  S2-  S232  1  0.36543810  0.00687291  0.04800980  1
  S2-  S233  1  0.37669536  0.01383007  0.54297913  1
  S2-  S234  1  0.36530592  0.25127099  0.04470145  1
  S2-  S235  1  0.37704872  0.26231230  0.54680225  1
  S2-  S236  1  0.36278142  0.50316420  0.04850305  1
  S2-  S237  1  0.37989845  0.51572224  0.55123005  1
  S2-  S238  1  0.36430832  0.75192222  0.04196562  1
  S2-  S239  1  0.37736161  0.76532469  0.55334194  1
  S2-  S240  1  0.61257761  0.00195771  0.04239853  1
  S2-  S241  1  0.62599133  0.01309860  0.54191735  1
  S2-  S242  1  0.61223450  0.25457750  0.04750185  1
  S2-  S243  1  0.62533891  0.26081892  0.54024077  1
  S2-  S244  1  0.61353533  0.49904533  0.05149786  1
  S2-  S245  1  0.62694624  0.51380380  0.54803576  1
  S2-  S246  1  0.61323417  0.75821875  0.03942556  1
  S2-  S247  1  0.63014446  0.76530669  0.54478102  1
  S2-  S248  1  0.86481137  0.00520265  0.05419764  1
  S2-  S249  1  0.87456742  0.01021585  0.54670861  1
  S2-  S250  1  0.86626430  0.24873819  0.06121936  1
  S2-  S251  1  0.86949685  0.25856866  0.54166142  1
  S2-  S252  1  0.86361569  0.50160640  0.05294517  1
  S2-  S253  1  0.87324911  0.52157705  0.53433839  1
  S2-  S254  1  0.86424026  0.75278129  0.04649619  1
  S2-  S255  1  0.86896586  0.76934550  0.55172159  1
