# generated using pymatgen
data_La9Ce10Pr6Nd4Sm3(BiS2)32
_symmetry_space_group_name_H-M   'P 1'
_cell_length_a   16.24276552
_cell_length_b   16.26241717
_cell_length_c   27.13801468
_cell_angle_alpha   90.06370833
_cell_angle_beta   90.01941998
_cell_angle_gamma   90.06622608
_symmetry_Int_Tables_number   1
_chemical_formula_structural   La9Ce10Pr6Nd4Sm3(BiS2)32
_chemical_formula_sum   'La18 Ce20 Pr12 Nd8 Sm6 Bi64 S128'
_cell_volume   7168.40545722
_cell_formula_units_Z   2
loop_
 _symmetry_equiv_pos_site_id
 _symmetry_equiv_pos_as_xyz
  1  'x, y, z'
loop_
 _atom_type_symbol
 _atom_type_oxidation_number
  La3+  3.0
  Ce3+  3.0
  Pr3+  3.0
  Nd3+  3.0
  Sm3+  3.0
  Bi2+  2.0
  S2-  -2.0
loop_
 _atom_site_type_symbol
 _atom_site_label
 _atom_site_symmetry_multiplicity
 _atom_site_fract_x
 _atom_site_fract_y
 _atom_site_fract_z
 _atom_site_occupancy
  La3+  La0  1  0.75508782  0.11923982  0.07778457  1
  La3+  La1  1  0.48676321  0.12255014  0.11476999  1
  La3+  La2  1  0.63278485  0.74898688  0.42778751  1
  La3+  La3  1  0.24768085  0.88517317  0.60319135  1
  La3+  La4  1  -0.00195029  0.38284011  0.59990141  1
  La3+  La5  1  0.11346198  0.50273270  0.43364125  1
  La3+  La6  1  0.24441016  0.62778676  0.56530228  1
  La3+  La7  1  0.01049046  0.86992192  0.05990878  1
  La3+  La8  1  0.36887260  0.50201939  0.43560476  1
  La3+  La9  1  0.50736952  0.86901031  0.06721297  1
  La3+  La10  1  0.87252726  0.48953642  0.44003931  1
  La3+  La11  1  0.76065477  0.86699068  0.07257456  1
  La3+  La12  1  0.26167141  0.87175626  0.05749320  1
  La3+  La13  1  0.01236606  0.35836167  0.09267387  1
  La3+  La14  1  0.12448594  0.25088942  0.43814036  1
  La3+  La15  1  0.88166997  0.75400051  0.43570092  1
  La3+  La16  1  0.13662985  0.25395114  0.91621644  1
  La3+  La17  1  0.62394995  0.25576670  0.42510327  1
  Ce3+  Ce18  1  0.50661511  0.62448549  0.05756364  1
  Ce3+  Ce19  1  0.87980112  -0.00292095  0.94527958  1
  Ce3+  Ce20  1  0.49771433  0.63178933  0.55602532  1
  Ce3+  Ce21  1  0.25596023  0.12608176  0.05230496  1
  Ce3+  Ce22  1  0.12061948  0.75577704  0.44559949  1
  Ce3+  Ce23  1  -0.00260577  0.62679328  0.56791176  1
  Ce3+  Ce24  1  0.75000659  0.62751506  0.55646726  1
  Ce3+  Ce25  1  0.49846605  0.12295277  0.55203781  1
  Ce3+  Ce26  1  0.63348829  0.24249507  0.94310788  1
  Ce3+  Ce27  1  0.88307253  0.49297927  0.94528930  1
  Ce3+  Ce28  1  0.12489889  0.00030893  0.44660508  1
  Ce3+  Ce29  1  0.50227059  0.87773745  0.56416037  1
  Ce3+  Ce30  1  0.37562427  0.74521972  0.92449050  1
  Ce3+  Ce31  1  0.00085479  0.12918326  0.56013674  1
  Ce3+  Ce32  1  0.62598819  -0.00449763  0.42750027  1
  Ce3+  Ce33  1  0.74397826  0.87803073  0.56491156  1
  Ce3+  Ce34  1  0.87301919  0.00102612  0.44685996  1
  Ce3+  Ce35  1  0.49433783  0.37778889  0.55612017  1
  Ce3+  Ce36  1  0.13173152  0.74384070  0.93039761  1
  Ce3+  Ce37  1  0.88171926  0.74360837  0.94244927  1
  Pr3+  Pr38  1  0.73521426  0.37573419  0.57254458  1
  Pr3+  Pr39  1  0.01874420  0.61770349  0.06222419  1
  Pr3+  Pr40  1  0.13008974  -0.00299359  0.93779553  1
  Pr3+  Pr41  1  0.37544863  -0.00229636  0.43676774  1
  Pr3+  Pr42  1  0.63532541  0.74516872  0.93696726  1
  Pr3+  Pr43  1  0.37281189  0.75458728  0.44390692  1
  Pr3+  Pr44  1  0.75488046  0.36979474  0.05974430  1
  Pr3+  Pr45  1  0.38339958  0.49582237  0.93210995  1
  Pr3+  Pr46  1  0.74697506  0.12972379  0.54892390  1
  Pr3+  Pr47  1  0.75982243  0.61888776  0.07048633  1
  Pr3+  Pr48  1  0.38495944  -0.00443070  0.94009287  1
  Pr3+  Pr49  1  0.63199316  -0.00377388  0.94760654  1
  Nd3+  Nd50  1  0.25799370  0.36837596  0.06018071  1
  Nd3+  Nd51  1  0.12986943  0.49305617  0.93378556  1
  Nd3+  Nd52  1  0.62188655  0.50305352  0.44400068  1
  Nd3+  Nd53  1  0.50688699  0.37040151  0.05863561  1
  Nd3+  Nd54  1  0.87485300  0.25372123  0.44967654  1
  Nd3+  Nd55  1  -0.00310111  0.87846088  0.56892637  1
  Nd3+  Nd56  1  0.37285167  0.25035545  0.44386344  1
  Nd3+  Nd57  1  0.63410650  0.49519267  0.93638208  1
  Sm3+  Sm58  1  0.38325439  0.24593777  0.93756812  1
  Sm3+  Sm59  1  0.24523024  0.37665213  0.56036321  1
  Sm3+  Sm60  1  0.01010595  0.12624388  0.05170071  1
  Sm3+  Sm61  1  0.88143692  0.24614003  0.94350263  1
  Sm3+  Sm62  1  0.25069184  0.12442757  0.56033292  1
  Sm3+  Sm63  1  0.25822583  0.61686577  0.05239353  1
  Bi2+  Bi64  1  0.02726276  0.14094232  0.25657794  1
  Bi2+  Bi65  1  -0.01850655  0.07804755  0.78738665  1
  Bi2+  Bi66  1  0.01995010  0.37978811  0.30199384  1
  Bi2+  Bi67  1  -0.02946463  0.34187997  0.81212718  1
  Bi2+  Bi68  1  0.00263825  0.62755361  0.28427512  1
  Bi2+  Bi69  1  0.06314340  0.66419533  0.80716976  1
  Bi2+  Bi70  1  0.04609587  0.87522675  0.29367548  1
  Bi2+  Bi71  1  0.00661691  0.83561503  0.75507042  1
  Bi2+  Bi72  1  0.22613495  0.10768737  0.29323398  1
  Bi2+  Bi73  1  0.27445745  0.11405786  0.79154455  1
  Bi2+  Bi74  1  0.27860315  0.39954861  0.28968608  1
  Bi2+  Bi75  1  0.27732828  0.39793482  0.79326734  1
  Bi2+  Bi76  1  0.27740953  0.62605272  0.23369458  1
  Bi2+  Bi77  1  0.24375151  0.60460820  0.77209318  1
  Bi2+  Bi78  1  0.24369447  0.78678245  0.29562127  1
  Bi2+  Bi79  1  0.24902702  0.87762200  0.79125598  1
  Bi2+  Bi80  1  0.47324736  0.16190759  0.31330201  1
  Bi2+  Bi81  1  0.53450274  0.14454268  0.75396564  1
  Bi2+  Bi82  1  0.51245109  0.47414068  0.25951861  1
  Bi2+  Bi83  1  0.45247404  0.31461588  0.78393800  1
  Bi2+  Bi84  1  0.47754283  0.66183279  0.29123431  1
  Bi2+  Bi85  1  0.45909927  0.57727642  0.74424575  1
  Bi2+  Bi86  1  0.50101639  0.92091786  0.30106953  1
  Bi2+  Bi87  1  0.51409661  0.89557900  0.80516492  1
  Bi2+  Bi88  1  0.83641057  0.09156917  0.28060536  1
  Bi2+  Bi89  1  0.72010824  0.13645950  0.80351661  1
  Bi2+  Bi90  1  0.76056247  0.36428176  0.29238132  1
  Bi2+  Bi91  1  0.72350542  0.39789607  0.79785228  1
  Bi2+  Bi92  1  0.66652800  0.62172271  0.31273264  1
  Bi2+  Bi93  1  0.70775207  0.63723514  0.79810326  1
  Bi2+  Bi94  1  0.76769203  0.86353864  0.29041085  1
  Bi2+  Bi95  1  0.76355076  0.88261507  0.80784770  1
  Bi2+  Bi96  1  0.13671204  -0.00814624  0.21614825  1
  Bi2+  Bi97  1  0.12042373  0.02091796  0.71700442  1
  Bi2+  Bi98  1  0.21165369  0.24063109  0.21015994  1
  Bi2+  Bi99  1  0.12015161  0.24939681  0.71645235  1
  Bi2+  Bi100  1  0.08443087  0.51070932  0.19911264  1
  Bi2+  Bi101  1  0.09705127  0.48416029  0.71741734  1
  Bi2+  Bi102  1  0.11580535  0.75251495  0.20698122  1
  Bi2+  Bi103  1  0.10285090  0.70184019  0.69213910  1
  Bi2+  Bi104  1  0.36607961  -0.01105131  0.20373297  1
  Bi2+  Bi105  1  0.39238563  0.02560822  0.70977539  1
  Bi2+  Bi106  1  0.35476188  0.36267898  0.18611188  1
  Bi2+  Bi107  1  0.31628228  0.24186821  0.70550576  1
  Bi2+  Bi108  1  0.41121461  0.54229419  0.16241504  1
  Bi2+  Bi109  1  0.39855861  0.41818263  0.68976606  1
  Bi2+  Bi110  1  0.36649798  0.79310908  0.20278112  1
  Bi2+  Bi111  1  0.40994799  0.76266735  0.72161920  1
  Bi2+  Bi112  1  0.66021841  0.01258450  0.22150960  1
  Bi2+  Bi113  1  0.66278938  0.00122937  0.70831114  1
  Bi2+  Bi114  1  0.63261735  0.28144592  0.21680364  1
  Bi2+  Bi115  1  0.67951636  0.28084488  0.70608947  1
  Bi2+  Bi116  1  0.61008678  0.52697893  0.16452687  1
  Bi2+  Bi117  1  0.66147935  0.48612822  0.70377460  1
  Bi2+  Bi118  1  0.61545169  0.70757352  0.21159748  1
  Bi2+  Bi119  1  0.65374360  0.74945707  0.70665281  1
  Bi2+  Bi120  1  0.92205117  -0.03765740  0.21170678  1
  Bi2+  Bi121  1  0.85545026  -0.05602073  0.69697674  1
  Bi2+  Bi122  1  0.88264165  0.23102934  0.20278454  1
  Bi2+  Bi123  1  0.84951122  0.14160217  0.71630040  1
  Bi2+  Bi124  1  0.82045483  0.54077810  0.25972840  1
  Bi2+  Bi125  1  0.88992418  0.59499440  0.77158256  1
  Bi2+  Bi126  1  0.87077729  0.70781126  0.21388227  1
  Bi2+  Bi127  1  0.85492067  0.74866517  0.69981517  1
  S2-  S128  1  0.01505134  0.19290659  0.14165641  1
  S2-  S129  1  0.03268278  0.13795643  0.65608150  1
  S2-  S130  1  -0.02573251  0.38638511  0.19638471  1
  S2-  S131  1  -0.01198377  0.34412137  0.70731249  1
  S2-  S132  1  -0.04806113  0.58971112  0.15392186  1
  S2-  S133  1  -0.01061309  0.53688384  0.65186294  1
  S2-  S134  1  -0.01944504  0.82616614  0.15557356  1
  S2-  S135  1  0.08309609  0.88952089  0.65554197  1
  S2-  S136  1  0.29963774  0.12660842  0.14654930  1
  S2-  S137  1  0.25093398  0.04312276  0.64849311  1
  S2-  S138  1  0.16426041  0.37682793  0.14530696  1
  S2-  S139  1  0.15736768  0.37322408  0.64557024  1
  S2-  S140  1  0.16950031  0.62584873  0.13690322  1
  S2-  S141  1  0.22329428  0.58754017  0.66400696  1
  S2-  S142  1  0.22519318  0.87335539  0.15571250  1
  S2-  S143  1  0.25607190  0.79524076  0.69472268  1
  S2-  S144  1  0.45834915  0.12273673  0.22260438  1
  S2-  S145  1  0.48876885  0.12125295  0.64959521  1
  S2-  S146  1  0.50413498  0.29248748  0.14829206  1
  S2-  S147  1  0.57324539  0.36965209  0.64204845  1
  S2-  S148  1  0.49524060  0.73750227  0.13576903  1
  S2-  S149  1  0.49140936  0.64778671  0.65388606  1
  S2-  S150  1  0.51391216  0.95852068  0.15724798  1
  S2-  S151  1  0.41226469  0.88780770  0.64931827  1
  S2-  S152  1  0.64969689  0.13729455  0.15999851  1
  S2-  S153  1  0.71911368  0.13116192  0.64812487  1
  S2-  S154  1  0.75719806  0.32891575  0.15842830  1
  S2-  S155  1  0.79367644  0.39335620  0.66730737  1
  S2-  S156  1  0.75048077  0.74194694  0.14520910  1
  S2-  S157  1  0.73208569  0.62494902  0.65443956  1
  S2-  S158  1  0.77290088  0.97713296  0.15327732  1
  S2-  S159  1  0.62652237  0.87559933  0.63850814  1
  S2-  S160  1  0.12233678  0.01012447  0.34871132  1
  S2-  S161  1  0.14234791  -0.02479634  0.83727860  1
  S2-  S162  1  0.10400578  0.26047848  0.33781443  1
  S2-  S163  1  0.07042008  0.20618495  0.82383059  1
  S2-  S164  1  0.17062435  0.48037986  0.33691419  1
  S2-  S165  1  0.12589220  0.40716229  0.84653823  1
  S2-  S166  1  0.02109936  0.74938171  0.36367149  1
  S2-  S167  1  0.23725551  0.75502017  0.85300712  1
  S2-  S168  1  0.36984268  0.02118930  0.33573766  1
  S2-  S169  1  0.37703197  -0.01246252  0.83833426  1
  S2-  S170  1  0.35521519  0.26479063  0.34530841  1
  S2-  S171  1  0.28719825  0.23992427  0.85400534  1
  S2-  S172  1  0.39985901  0.50099475  0.33621754  1
  S2-  S173  1  0.36167062  0.54277775  0.83502817  1
  S2-  S174  1  0.40343067  0.79353875  0.34649509  1
  S2-  S175  1  0.43495254  0.76327668  0.83056310  1
  S2-  S176  1  0.60499695  0.04825429  0.33033367  1
  S2-  S177  1  0.63978336  -0.00355379  0.84602803  1
  S2-  S178  1  0.62527880  0.25336799  0.32317763  1
  S2-  S179  1  0.63710917  0.27492509  0.84657591  1
  S2-  S180  1  0.65542342  0.45689542  0.35134510  1
  S2-  S181  1  0.61208984  0.51346038  0.83755888  1
  S2-  S182  1  0.62479720  0.86491715  0.35328394  1
  S2-  S183  1  0.62841945  0.78200539  0.83804624  1
  S2-  S184  1  0.86132575  -0.04045582  0.35229072  1
  S2-  S185  1  0.88027563  -0.02408539  0.84803270  1
  S2-  S186  1  0.88106083  0.32637412  0.35834244  1
  S2-  S187  1  0.85841722  0.23858184  0.84476287  1
  S2-  S188  1  0.97376143  0.51771481  0.36009040  1
  S2-  S189  1  0.87186282  0.47601735  0.84567746  1
  S2-  S190  1  0.78400091  0.74014297  0.35246325  1
  S2-  S191  1  0.83381647  0.73934257  0.84876829  1
  S2-  S192  1  -0.00325887  0.12686817  0.45219217  1
  S2-  S193  1  0.00599424  0.12390267  0.94707080  1
  S2-  S194  1  0.00164778  0.37153188  0.46260621  1
  S2-  S195  1  0.00392219  0.36685335  0.94980031  1
  S2-  S196  1  -0.00319088  0.62698454  0.46499858  1
  S2-  S197  1  0.00761620  0.61777520  0.95105508  1
  S2-  S198  1  -0.00053012  0.88200427  0.46256364  1
  S2-  S199  1  0.00699545  0.86966558  0.95027766  1
  S2-  S200  1  0.25149068  0.12460582  0.45432460  1
  S2-  S201  1  0.25730867  0.11913933  0.94852198  1
  S2-  S202  1  0.24820100  0.37608668  0.45486979  1
  S2-  S203  1  0.26118131  0.37304501  0.95271398  1
  S2-  S204  1  0.24504272  0.62928825  0.45192773  1
  S2-  S205  1  0.25356815  0.61529346  0.94788336  1
  S2-  S206  1  0.24665547  0.87610817  0.44677325  1
  S2-  S207  1  0.25573903  0.87483016  0.95143101  1
  S2-  S208  1  0.49931329  0.12697054  0.44545565  1
  S2-  S209  1  0.50500785  0.12321630  0.93893338  1
  S2-  S210  1  0.49642504  0.37741965  0.44832732  1
  S2-  S211  1  0.50642206  0.37021809  0.94905828  1
  S2-  S212  1  0.49810911  0.62766874  0.44774087  1
  S2-  S213  1  0.50820533  0.62097105  0.94666801  1
  S2-  S214  1  0.50006405  0.87534903  0.45671091  1
  S2-  S215  1  0.50731696  0.86892923  0.95484080  1
  S2-  S216  1  0.74987957  0.12871383  0.44139684  1
  S2-  S217  1  0.75889768  0.12167383  0.96070886  1
  S2-  S218  1  0.74405397  0.37266527  0.46273590  1
  S2-  S219  1  0.75714143  0.36972388  0.95257700  1
  S2-  S220  1  0.75295401  0.62003381  0.45249938  1
  S2-  S221  1  0.75770705  0.61721999  0.95770315  1
  S2-  S222  1  0.75289108  0.87656732  0.45947644  1
  S2-  S223  1  0.75866078  0.87088729  0.96041247  1
  S2-  S224  1  0.13116610  0.00006695  0.04671301  1
  S2-  S225  1  0.12453428  0.00291720  0.55004978  1
  S2-  S226  1  0.13313342  0.24806989  0.03582749  1
  S2-  S227  1  0.12974580  0.24680657  0.54714906  1
  S2-  S228  1  0.13331178  0.48964056  0.03941239  1
  S2-  S229  1  0.12337191  0.50031938  0.54534570  1
  S2-  S230  1  0.13609576  0.74656027  0.03821562  1
  S2-  S231  1  0.12415987  0.75682815  0.55279761  1
  S2-  S232  1  0.38544116  0.00169655  0.04766711  1
  S2-  S233  1  0.37112013  0.00071510  0.54340912  1
  S2-  S234  1  0.38387741  0.24568170  0.04159283  1
  S2-  S235  1  0.37000111  0.25234675  0.55104585  1
  S2-  S236  1  0.38088872  0.49441604  0.03945278  1
  S2-  S237  1  0.37011407  0.50293442  0.54625816  1
  S2-  S238  1  0.37585532  0.74147104  0.03515913  1
  S2-  S239  1  0.36751221  0.75420934  0.55088550  1
  S2-  S240  1  0.63451120  -0.00706591  0.05200187  1
  S2-  S241  1  0.62513476  0.00473928  0.53674935  1
  S2-  S242  1  0.63056933  0.24618375  0.04705738  1
  S2-  S243  1  0.61812244  0.24963721  0.53744938  1
  S2-  S244  1  0.63189514  0.49620070  0.04242756  1
  S2-  S245  1  0.61912120  0.50638754  0.54883254  1
  S2-  S246  1  0.63529980  0.74163881  0.04266370  1
  S2-  S247  1  0.62551966  0.74786839  0.53869723  1
  S2-  S248  1  0.88945989  0.00107408  0.05097491  1
  S2-  S249  1  0.87329707  0.00456454  0.55426895  1
  S2-  S250  1  0.88190938  0.24660072  0.04826923  1
  S2-  S251  1  0.87494410  0.25590092  0.55743678  1
  S2-  S252  1  0.88537421  0.48900939  0.05181534  1
  S2-  S253  1  0.86970998  0.49796986  0.55007450  1
  S2-  S254  1  0.88769595  0.73964435  0.04679182  1
  S2-  S255  1  0.87425044  0.75434243  0.55088999  1
