# generated using pymatgen
data_La9Ce10Pr6Nd4Sm3(BiS2)32
_symmetry_space_group_name_H-M   'P 1'
_cell_length_a   16.15163368
_cell_length_b   16.16519592
_cell_length_c   27.39900792
_cell_angle_alpha   90.14475032
_cell_angle_beta   90.45486532
_cell_angle_gamma   89.80287096
_symmetry_Int_Tables_number   1
_chemical_formula_structural   La9Ce10Pr6Nd4Sm3(BiS2)32
_chemical_formula_sum   'La18 Ce20 Pr12 Nd8 Sm6 Bi64 S128'
_cell_volume   7153.43530499
_cell_formula_units_Z   2
loop_
 _symmetry_equiv_pos_site_id
 _symmetry_equiv_pos_as_xyz
  1  'x, y, z'
loop_
 _atom_type_symbol
 _atom_type_oxidation_number
  La3+  3.0
  Ce3+  3.0
  Pr3+  3.0
  Nd3+  3.0
  Sm3+  3.0
  Bi2+  2.0
  S2-  -2.0
loop_
 _atom_site_type_symbol
 _atom_site_label
 _atom_site_symmetry_multiplicity
 _atom_site_fract_x
 _atom_site_fract_y
 _atom_site_fract_z
 _atom_site_occupancy
  La3+  La0  1  0.51755785  0.61851221  0.10082053  1
  La3+  La1  1  0.75557306  0.62292175  0.57650177  1
  La3+  La2  1  0.76017291  0.12024493  0.57377250  1
  La3+  La3  1  0.27006070  0.36717536  0.56323010  1
  La3+  La4  1  0.76691547  0.87902334  0.08209537  1
  La3+  La5  1  0.76305682  0.37365528  0.57687995  1
  La3+  La6  1  0.88583393  0.24649764  0.43275642  1
  La3+  La7  1  0.26872584  0.62182958  0.55802402  1
  La3+  La8  1  0.39370508  0.49474917  0.41838466  1
  La3+  La9  1  0.48670646  0.15072276  0.61539495  1
  La3+  La10  1  0.38839001  -0.00520273  0.43999811  1
  La3+  La11  1  0.25481891  0.36304855  0.07744591  1
  La3+  La12  1  0.63990376  0.49965082  0.43325367  1
  La3+  La13  1  0.36968546  -0.01409489  0.91719762  1
  La3+  La14  1  0.13040113  0.73335280  0.92508464  1
  La3+  La15  1  0.36790829  0.74829280  0.38975978  1
  La3+  La16  1  0.63211650  0.75281670  0.43154166  1
  La3+  La17  1  0.63435465  -0.01195241  0.92183423  1
  Ce3+  Ce18  1  0.13083924  0.24837730  0.43211931  1
  Ce3+  Ce19  1  0.51256879  0.62410965  0.55322407  1
  Ce3+  Ce20  1  0.26636210  0.87429501  0.56466457  1
  Ce3+  Ce21  1  0.75243211  0.37110368  0.05837065  1
  Ce3+  Ce22  1  0.50808497  0.87337818  0.06311506  1
  Ce3+  Ce23  1  0.88273910  0.49771057  0.44457527  1
  Ce3+  Ce24  1  0.63079861  0.74393590  0.95015603  1
  Ce3+  Ce25  1  0.00905401  0.61969290  0.05815564  1
  Ce3+  Ce26  1  0.01406198  0.62119059  0.55857414  1
  Ce3+  Ce27  1  0.62975913  0.24385003  0.93837519  1
  Ce3+  Ce28  1  0.88091175  0.24698273  0.94079494  1
  Ce3+  Ce29  1  0.00660545  0.86528512  0.05132606  1
  Ce3+  Ce30  1  0.13768343  0.74448461  0.44543831  1
  Ce3+  Ce31  1  0.51624074  0.37176750  0.55715104  1
  Ce3+  Ce32  1  0.00811199  0.12502100  0.56188151  1
  Ce3+  Ce33  1  0.01549627  0.37379517  0.56424088  1
  Ce3+  Ce34  1  0.25923085  0.11117301  0.07034173  1
  Ce3+  Ce35  1  0.50734757  0.10707932  0.05079220  1
  Ce3+  Ce36  1  0.87652945  0.74143632  0.94395054  1
  Ce3+  Ce37  1  0.13547646  0.49442701  0.94272549  1
  Pr3+  Pr38  1  0.37987897  0.24597623  0.42688984  1
  Pr3+  Pr39  1  0.63789663  -0.00420603  0.44646969  1
  Pr3+  Pr40  1  0.88462674  -0.00583223  0.43575028  1
  Pr3+  Pr41  1  0.13668902  -0.00952668  0.44569841  1
  Pr3+  Pr42  1  0.25815657  0.86301331  0.06493100  1
  Pr3+  Pr43  1  0.75737939  0.11952376  0.05295176  1
  Pr3+  Pr44  1  0.13645260  0.24521578  0.93902546  1
  Pr3+  Pr45  1  0.88325086  -0.00695242  0.92694137  1
  Pr3+  Pr46  1  0.01049594  0.87099701  0.55875261  1
  Pr3+  Pr47  1  0.51660218  0.88145825  0.56998547  1
  Pr3+  Pr48  1  0.88224310  0.74211705  0.43764140  1
  Pr3+  Pr49  1  0.63920269  0.24602757  0.44008995  1
  Nd3+  Nd50  1  0.38016897  0.24234602  0.94770841  1
  Nd3+  Nd51  1  0.26086794  0.12303777  0.55538142  1
  Nd3+  Nd52  1  0.13067776  -0.00866700  0.94428670  1
  Nd3+  Nd53  1  0.76755824  0.87222531  0.57027842  1
  Nd3+  Nd54  1  0.00790008  0.37027972  0.05661177  1
  Nd3+  Nd55  1  0.00572684  0.11780893  0.05444700  1
  Nd3+  Nd56  1  0.62876134  0.49623073  0.93676677  1
  Nd3+  Nd57  1  0.38024342  0.49644810  0.94696118  1
  Sm3+  Sm58  1  0.26178735  0.61351244  0.07394827  1
  Sm3+  Sm59  1  0.87820304  0.49340133  0.94578373  1
  Sm3+  Sm60  1  0.38208594  0.74498724  0.94635236  1
  Sm3+  Sm61  1  0.50794951  0.37094418  0.05780481  1
  Sm3+  Sm62  1  0.14063789  0.49710496  0.43885785  1
  Sm3+  Sm63  1  0.75553322  0.61917559  0.06243233  1
  Bi2+  Bi64  1  0.02650752  0.10723300  0.28969016  1
  Bi2+  Bi65  1  -0.00824942  0.06199780  0.79642210  1
  Bi2+  Bi66  1  -0.05680382  0.34491690  0.28060986  1
  Bi2+  Bi67  1  0.04312041  0.35380777  0.76483180  1
  Bi2+  Bi68  1  -0.05619007  0.65621001  0.31718250  1
  Bi2+  Bi69  1  -0.03206563  0.68642959  0.72332901  1
  Bi2+  Bi70  1  -0.02214648  0.84141251  0.27563735  1
  Bi2+  Bi71  1  -0.01462268  0.86478950  0.79809612  1
  Bi2+  Bi72  1  0.27367991  0.14103883  0.27571827  1
  Bi2+  Bi73  1  0.24045684  0.15413117  0.80305801  1
  Bi2+  Bi74  1  0.25786826  0.39396636  0.30400356  1
  Bi2+  Bi75  1  0.20547192  0.42929232  0.82024249  1
  Bi2+  Bi76  1  0.12744252  0.59848391  0.30001718  1
  Bi2+  Bi77  1  0.26912893  0.61418165  0.79714608  1
  Bi2+  Bi78  1  0.23520376  0.90040384  0.29866521  1
  Bi2+  Bi79  1  0.25136330  0.88656453  0.78986707  1
  Bi2+  Bi80  1  0.46473292  0.13021365  0.31885656  1
  Bi2+  Bi81  1  0.48976615  0.16425959  0.81611673  1
  Bi2+  Bi82  1  0.55244103  0.30430215  0.30120625  1
  Bi2+  Bi83  1  0.40867110  0.40975524  0.72890828  1
  Bi2+  Bi84  1  0.48448841  0.61708686  0.28585738  1
  Bi2+  Bi85  1  0.55132709  0.63096135  0.78281403  1
  Bi2+  Bi86  1  0.51319230  0.94964009  0.28286356  1
  Bi2+  Bi87  1  0.51975188  0.84401604  0.80102609  1
  Bi2+  Bi88  1  0.74382090  0.12255229  0.28728568  1
  Bi2+  Bi89  1  0.80584317  0.12745870  0.79522785  1
  Bi2+  Bi90  1  0.75038368  0.38139453  0.29770424  1
  Bi2+  Bi91  1  0.74877309  0.39367761  0.81665435  1
  Bi2+  Bi92  1  0.73620056  0.63153380  0.28902365  1
  Bi2+  Bi93  1  0.77562099  0.64389602  0.80471741  1
  Bi2+  Bi94  1  0.78144554  0.89200567  0.30381091  1
  Bi2+  Bi95  1  0.78414015  0.85621905  0.78446364  1
  Bi2+  Bi96  1  0.12490571  -0.06378925  0.21148966  1
  Bi2+  Bi97  1  0.13861130  0.02316866  0.71498990  1
  Bi2+  Bi98  1  0.11991951  0.22257317  0.21137215  1
  Bi2+  Bi99  1  0.03457513  0.18489878  0.70134630  1
  Bi2+  Bi100  1  0.09578887  0.49236108  0.20225971  1
  Bi2+  Bi101  1  0.17949132  0.49649305  0.71240883  1
  Bi2+  Bi102  1  0.11521771  0.74018069  0.21614748  1
  Bi2+  Bi103  1  0.05717639  0.85039225  0.68973585  1
  Bi2+  Bi104  1  0.38856001  0.03396657  0.20484804  1
  Bi2+  Bi105  1  0.35563923  -0.00071858  0.71218829  1
  Bi2+  Bi106  1  0.41981023  0.24265572  0.21896343  1
  Bi2+  Bi107  1  0.26747503  0.29902501  0.69950206  1
  Bi2+  Bi108  1  0.39389159  0.45336307  0.20588495  1
  Bi2+  Bi109  1  0.37250680  0.56612717  0.67277672  1
  Bi2+  Bi110  1  0.36483618  0.78485470  0.19614742  1
  Bi2+  Bi111  1  0.39257168  0.72919664  0.73475310  1
  Bi2+  Bi112  1  0.63632878  0.02807441  0.20802875  1
  Bi2+  Bi113  1  0.61935758  0.01913542  0.72245176  1
  Bi2+  Bi114  1  0.61985228  0.22336973  0.20430317  1
  Bi2+  Bi115  1  0.63785140  0.26912315  0.72514660  1
  Bi2+  Bi116  1  0.66474349  0.49022874  0.21430481  1
  Bi2+  Bi117  1  0.62877625  0.50386172  0.70723140  1
  Bi2+  Bi118  1  0.61560440  0.76283061  0.23253083  1
  Bi2+  Bi119  1  0.58079698  0.76851484  0.70070594  1
  Bi2+  Bi120  1  0.90989639  0.00737559  0.19961430  1
  Bi2+  Bi121  1  0.86491960  -0.00582385  0.70889309  1
  Bi2+  Bi122  1  0.82264929  0.24614150  0.21106862  1
  Bi2+  Bi123  1  0.85498889  0.27556315  0.72628863  1
  Bi2+  Bi124  1  0.90637118  0.51914950  0.22983618  1
  Bi2+  Bi125  1  0.90258131  0.47852180  0.71683536  1
  Bi2+  Bi126  1  0.86037942  0.71343340  0.21143585  1
  Bi2+  Bi127  1  0.77948846  0.72488033  0.70024858  1
  S2-  S128  1  0.01054182  0.11948547  0.15388247  1
  S2-  S129  1  -0.09608813  0.11742792  0.64072910  1
  S2-  S130  1  0.04801982  0.35558765  0.15295875  1
  S2-  S131  1  -0.09187868  0.35691087  0.64152301  1
  S2-  S132  1  0.00922957  0.63741534  0.15536281  1
  S2-  S133  1  -0.00311718  0.57447992  0.65194166  1
  S2-  S134  1  -0.06902210  0.88722795  0.13667695  1
  S2-  S135  1  -0.09296695  0.87152790  0.63993816  1
  S2-  S136  1  0.24373895  0.22751595  0.14470235  1
  S2-  S137  1  0.31617020  0.13734781  0.64960162  1
  S2-  S138  1  0.24716036  0.48437150  0.15068412  1
  S2-  S139  1  0.15010318  0.36728393  0.63892171  1
  S2-  S140  1  0.23065677  0.73959945  0.13823214  1
  S2-  S141  1  0.21614116  0.63113407  0.65476836  1
  S2-  S142  1  0.26284809  0.98210207  0.14259519  1
  S2-  S143  1  0.27710221  0.88145643  0.66258061  1
  S2-  S144  1  0.51091223  0.00793290  0.13155006  1
  S2-  S145  1  0.49177421  0.19183449  0.72095294  1
  S2-  S146  1  0.52339642  0.44193008  0.14813531  1
  S2-  S147  1  0.40680522  0.34066255  0.63388748  1
  S2-  S148  1  0.39674055  0.61553155  0.17369716  1
  S2-  S149  1  0.59847337  0.62309230  0.63973100  1
  S2-  S150  1  0.51786599  0.78479419  0.15006554  1
  S2-  S151  1  0.49686512  0.98429187  0.65531264  1
  S2-  S152  1  0.76702459  0.03330202  0.13926236  1
  S2-  S153  1  0.65621763  0.14814905  0.65681542  1
  S2-  S154  1  0.76453078  0.38152394  0.15487414  1
  S2-  S155  1  0.62141966  0.36849454  0.64296435  1
  S2-  S156  1  0.67561077  0.60958736  0.14945318  1
  S2-  S157  1  0.77236241  0.50793476  0.65557087  1
  S2-  S158  1  0.73457851  0.82475559  0.18163972  1
  S2-  S159  1  0.71650386  0.94902706  0.66060681  1
  S2-  S160  1  0.12027207  0.01101672  0.34569610  1
  S2-  S161  1  0.20216580  0.00963864  0.85652342  1
  S2-  S162  1  0.23704933  0.23882867  0.35468715  1
  S2-  S163  1  0.11811600  0.25816836  0.83929729  1
  S2-  S164  1  0.10814336  0.44721509  0.34548506  1
  S2-  S165  1  0.12946346  0.58292029  0.85841034  1
  S2-  S166  1  0.19093298  0.76654821  0.35523375  1
  S2-  S167  1  0.14171258  0.79776174  0.83102513  1
  S2-  S168  1  0.37806071  -0.08635387  0.35074973  1
  S2-  S169  1  0.37651562  0.04648604  0.81670406  1
  S2-  S170  1  0.40389449  0.35560456  0.34833891  1
  S2-  S171  1  0.35077975  0.25364082  0.85009931  1
  S2-  S172  1  0.30831130  0.54009546  0.33033835  1
  S2-  S173  1  0.36146299  0.49993367  0.84726923  1
  S2-  S174  1  0.35117653  0.73126129  0.28284817  1
  S2-  S175  1  0.37886323  0.83292686  0.85915794  1
  S2-  S176  1  0.64709041  -0.06881481  0.35157609  1
  S2-  S177  1  0.57204800  0.00934698  0.82559118  1
  S2-  S178  1  0.75360214  0.23901438  0.36115335  1
  S2-  S179  1  0.63083426  0.26279346  0.84043930  1
  S2-  S180  1  0.53951227  0.51341885  0.34939885  1
  S2-  S181  1  0.62000277  0.49029232  0.83721737  1
  S2-  S182  1  0.52808654  0.73571333  0.34622760  1
  S2-  S183  1  0.64903793  0.74970849  0.85203960  1
  S2-  S184  1  0.87731108  0.03415041  0.33738555  1
  S2-  S185  1  0.77002435  -0.02063311  0.85067389  1
  S2-  S186  1  1.00491167  0.23942762  0.35625737  1
  S2-  S187  1  0.86959957  0.26844406  0.84508100  1
  S2-  S188  1  0.77794737  0.50584307  0.36496300  1
  S2-  S189  1  0.85892609  0.50609500  0.84800642  1
  S2-  S190  1  0.76422511  0.75284474  0.36002036  1
  S2-  S191  1  0.90663454  0.72631942  0.84845921  1
  S2-  S192  1  0.01195304  0.11510877  0.45655142  1
  S2-  S193  1  0.00787708  0.12055002  0.94726982  1
  S2-  S194  1  0.01128354  0.37865848  0.45641989  1
  S2-  S195  1  0.00655737  0.37236376  0.94951337  1
  S2-  S196  1  0.01366189  0.61939368  0.45215787  1
  S2-  S197  1  0.00060996  0.61428406  0.95424568  1
  S2-  S198  1  0.00838998  0.86715834  0.45023810  1
  S2-  S199  1  0.00655034  0.86707594  0.94604527  1
  S2-  S200  1  0.25772823  0.11673590  0.45092400  1
  S2-  S201  1  0.25678509  0.11880930  0.95999196  1
  S2-  S202  1  0.26025284  0.37504005  0.45451644  1
  S2-  S203  1  0.25871694  0.36952053  0.96369782  1
  S2-  S204  1  0.26430340  0.62214442  0.44939513  1
  S2-  S205  1  0.26062185  0.62060890  0.96214887  1
  S2-  S206  1  0.26474997  0.86596670  0.45932138  1
  S2-  S207  1  0.25075361  0.86291097  0.95759612  1
  S2-  S208  1  0.51293724  0.12160596  0.43884333  1
  S2-  S209  1  0.50400071  0.11496033  0.94560995  1
  S2-  S210  1  0.51580936  0.36947611  0.45285729  1
  S2-  S211  1  0.50478523  0.36967770  0.95257971  1
  S2-  S212  1  0.50320695  0.63001455  0.45185227  1
  S2-  S213  1  0.50358043  0.62087809  0.94391608  1
  S2-  S214  1  0.51095095  0.87321733  0.46088655  1
  S2-  S215  1  0.50699584  0.86901112  0.95486632  1
  S2-  S216  1  0.76324035  0.11722498  0.46002768  1
  S2-  S217  1  0.75678021  0.12200914  0.94724535  1
  S2-  S218  1  0.76306461  0.37222594  0.46399402  1
  S2-  S219  1  0.75363581  0.37061863  0.95361808  1
  S2-  S220  1  0.75928811  0.62481439  0.46523526  1
  S2-  S221  1  0.75443214  0.61518077  0.95803833  1
  S2-  S222  1  0.76573524  0.87179050  0.46344630  1
  S2-  S223  1  0.75908721  0.86646331  0.95550982  1
  S2-  S224  1  0.12795609  -0.00804255  0.04784279  1
  S2-  S225  1  0.13529602  -0.00336359  0.55337418  1
  S2-  S226  1  0.12811848  0.24161161  0.04369490  1
  S2-  S227  1  0.13485894  0.24352976  0.54072606  1
  S2-  S228  1  0.13243077  0.49519776  0.04717337  1
  S2-  S229  1  0.13959347  0.49970546  0.54278313  1
  S2-  S230  1  0.12744532  0.74019217  0.03668319  1
  S2-  S231  1  0.13885781  0.74897405  0.55070955  1
  S2-  S232  1  0.37924880  -0.00990746  0.03270634  1
  S2-  S233  1  0.38664980  0.00173202  0.54742137  1
  S2-  S234  1  0.39043827  0.24150609  0.05287697  1
  S2-  S235  1  0.39051556  0.23592824  0.53486858  1
  S2-  S236  1  0.38713357  0.49457572  0.05104239  1
  S2-  S237  1  0.39186900  0.49650061  0.53681792  1
  S2-  S238  1  0.38792475  0.73697587  0.04841885  1
  S2-  S239  1  0.39201926  0.75133026  0.56439108  1
  S2-  S240  1  0.63850405  -0.00772558  0.03340014  1
  S2-  S241  1  0.64177212  -0.00335553  0.54911860  1
  S2-  S242  1  0.62832607  0.24266012  0.04641892  1
  S2-  S243  1  0.63162750  0.24021094  0.54480749  1
  S2-  S244  1  0.62922693  0.49699147  0.04265787  1
  S2-  S245  1  0.63659229  0.49820207  0.54107967  1
  S2-  S246  1  0.64013438  0.74923303  0.05259745  1
  S2-  S247  1  0.63868912  0.75527608  0.54621703  1
  S2-  S248  1  0.88426803  -0.00389269  0.03254030  1
  S2-  S249  1  0.88834364  -0.00312469  0.54138359  1
  S2-  S250  1  0.88249133  0.24630214  0.04840470  1
  S2-  S251  1  0.88751201  0.24668337  0.54031097  1
  S2-  S252  1  0.88022466  0.49479623  0.05165179  1
  S2-  S253  1  0.88760031  0.50084349  0.54670650  1
  S2-  S254  1  0.87840274  0.74089383  0.04967444  1
  S2-  S255  1  0.88764484  0.74073837  0.54548046  1
