# generated using pymatgen
data_La9Ce10Pr6Nd4Sm3(BiS2)32
_symmetry_space_group_name_H-M   'P 1'
_cell_length_a   16.05763534
_cell_length_b   16.17381717
_cell_length_c   27.36735497
_cell_angle_alpha   89.52328051
_cell_angle_beta   89.81058799
_cell_angle_gamma   89.92901927
_symmetry_Int_Tables_number   1
_chemical_formula_structural   La9Ce10Pr6Nd4Sm3(BiS2)32
_chemical_formula_sum   'La18 Ce20 Pr12 Nd8 Sm6 Bi64 S128'
_cell_volume   7107.37485027
_cell_formula_units_Z   2
loop_
 _symmetry_equiv_pos_site_id
 _symmetry_equiv_pos_as_xyz
  1  'x, y, z'
loop_
 _atom_type_symbol
 _atom_type_oxidation_number
  La3+  3.0
  Ce3+  3.0
  Pr3+  3.0
  Nd3+  3.0
  Sm3+  3.0
  Bi2+  2.0
  S2-  -2.0
loop_
 _atom_site_type_symbol
 _atom_site_label
 _atom_site_symmetry_multiplicity
 _atom_site_fract_x
 _atom_site_fract_y
 _atom_site_fract_z
 _atom_site_occupancy
  La3+  La0  1  0.49976308  0.36745943  0.56219925  1
  La3+  La1  1  0.37016456  -0.01054521  0.42795079  1
  La3+  La2  1  0.74565180  0.36459795  0.57695091  1
  La3+  La3  1  0.75095592  0.61822121  0.06901542  1
  La3+  La4  1  0.74107099  0.11803829  0.57304219  1
  La3+  La5  1  0.88993436  -0.00455561  0.88164086  1
  La3+  La6  1  0.36318210  0.74238573  0.93136231  1
  La3+  La7  1  0.63549346  0.24585753  0.42760992  1
  La3+  La8  1  0.75082460  0.87025945  0.59023244  1
  La3+  La9  1  0.38155255  0.24448553  0.42404458  1
  La3+  La10  1  0.63282027  0.49868602  0.41509256  1
  La3+  La11  1  0.24598844  0.11580378  0.55652605  1
  La3+  La12  1  0.12618092  0.49562626  0.93201590  1
  La3+  La13  1  0.75025385  0.36354762  0.10235831  1
  La3+  La14  1  0.48860595  0.36607957  0.08890716  1
  La3+  La15  1  0.74485938  0.61457745  0.56257391  1
  La3+  La16  1  0.62242389  -0.00343323  0.92902690  1
  La3+  La17  1  0.00216725  0.36336151  0.59984344  1
  Ce3+  Ce18  1  0.49489069  0.87104785  0.05699433  1
  Ce3+  Ce19  1  0.37682605  0.49340525  0.43906364  1
  Ce3+  Ce20  1  0.11870081  -0.00852524  0.42348718  1
  Ce3+  Ce21  1  0.11783380  0.24267282  0.94689015  1
  Ce3+  Ce22  1  0.50345993  0.86617259  0.56198782  1
  Ce3+  Ce23  1  0.11982126  -0.00468185  0.94306995  1
  Ce3+  Ce24  1  -0.00579367  0.36970443  0.05974601  1
  Ce3+  Ce25  1  -0.00610202  0.61585070  0.06874346  1
  Ce3+  Ce26  1  0.74440829  0.87281190  0.05123132  1
  Ce3+  Ce27  1  0.87725331  0.49335204  0.93537229  1
  Ce3+  Ce28  1  -0.00408842  0.86989170  0.55849845  1
  Ce3+  Ce29  1  0.24947547  0.86279943  0.06429507  1
  Ce3+  Ce30  1  0.87241856  0.74666748  0.93932324  1
  Ce3+  Ce31  1  0.11932666  0.74618197  0.94759822  1
  Ce3+  Ce32  1  0.87310452  0.74424396  0.44224394  1
  Ce3+  Ce33  1  0.61914477  0.74101615  0.94071253  1
  Ce3+  Ce34  1  0.24714998  0.11641837  0.05557813  1
  Ce3+  Ce35  1  0.24480512  0.36770374  0.06475063  1
  Ce3+  Ce36  1  0.62426844  -0.00721128  0.43374075  1
  Ce3+  Ce37  1  0.12196545  0.24451488  0.43802359  1
  Pr3+  Pr38  1  0.74249196  0.12340565  0.05790618  1
  Pr3+  Pr39  1  0.62282605  0.49309575  0.95001932  1
  Pr3+  Pr40  1  0.12142229  0.73976736  0.44443382  1
  Pr3+  Pr41  1  0.37343602  -0.00449293  0.93011279  1
  Pr3+  Pr42  1  -0.00455769  0.11711606  0.55778544  1
  Pr3+  Pr43  1  0.49529348  0.11445872  0.55479559  1
  Pr3+  Pr44  1  -0.00886929  0.12025589  0.05901071  1
  Pr3+  Pr45  1  0.86987822  -0.00393000  0.43132280  1
  Pr3+  Pr46  1  0.62371522  0.74524335  0.43176741  1
  Pr3+  Pr47  1  0.37282852  0.24628851  0.93470273  1
  Pr3+  Pr48  1  0.61676334  0.24960050  0.94224729  1
  Pr3+  Pr49  1  0.86267498  0.24671488  0.92627264  1
  Nd3+  Nd50  1  -0.01080905  0.61651292  0.57267289  1
  Nd3+  Nd51  1  0.87342397  0.49216127  0.44430217  1
  Nd3+  Nd52  1  0.24607994  0.61448526  0.56106395  1
  Nd3+  Nd53  1  -0.00705852  0.87150712  0.06055086  1
  Nd3+  Nd54  1  0.24569967  0.61606686  0.07001115  1
  Nd3+  Nd55  1  0.48670843  0.11385904  0.07041969  1
  Nd3+  Nd56  1  0.12206111  0.49076673  0.44189722  1
  Nd3+  Nd57  1  0.25138137  0.36704545  0.56309592  1
  Sm3+  Sm58  1  0.50316735  0.61689438  0.07010665  1
  Sm3+  Sm59  1  0.50407232  0.61702252  0.55793782  1
  Sm3+  Sm60  1  0.24633982  0.86547156  0.55699022  1
  Sm3+  Sm61  1  0.36986386  0.49583485  0.94401879  1
  Sm3+  Sm62  1  0.87214144  0.24624505  0.44582721  1
  Sm3+  Sm63  1  0.37336418  0.74087955  0.45018644  1
  Bi2+  Bi64  1  0.01224431  0.13562195  0.30882418  1
  Bi2+  Bi65  1  0.11831974  0.12672928  0.78372387  1
  Bi2+  Bi66  1  0.01742582  0.41732298  0.29690049  1
  Bi2+  Bi67  1  -0.00596091  0.38241708  0.79445475  1
  Bi2+  Bi68  1  0.02065501  0.66378716  0.29529497  1
  Bi2+  Bi69  1  -0.03016747  0.67909182  0.81946700  1
  Bi2+  Bi70  1  -0.00026416  0.92378878  0.25297272  1
  Bi2+  Bi71  1  0.11605076  0.89519276  0.76888305  1
  Bi2+  Bi72  1  0.20237873  0.10540562  0.27881218  1
  Bi2+  Bi73  1  0.30795023  0.13314891  0.81696799  1
  Bi2+  Bi74  1  0.20458773  0.43857419  0.25784661  1
  Bi2+  Bi75  1  0.29906203  0.34412137  0.81814181  1
  Bi2+  Bi76  1  0.22471508  0.67214764  0.29502795  1
  Bi2+  Bi77  1  0.28171890  0.64483455  0.79891406  1
  Bi2+  Bi78  1  0.20048488  0.90854881  0.25905816  1
  Bi2+  Bi79  1  0.29885481  0.92711030  0.80911262  1
  Bi2+  Bi80  1  0.44698103  0.11641235  0.29591353  1
  Bi2+  Bi81  1  0.49862277  0.12518428  0.78631283  1
  Bi2+  Bi82  1  0.46113064  0.36778615  0.30019642  1
  Bi2+  Bi83  1  0.48648941  0.38739143  0.79532165  1
  Bi2+  Bi84  1  0.46926564  0.64886692  0.29154732  1
  Bi2+  Bi85  1  0.47101799  0.64004578  0.69742808  1
  Bi2+  Bi86  1  0.47530524  0.84727865  0.29478815  1
  Bi2+  Bi87  1  0.47360265  0.83486096  0.80426199  1
  Bi2+  Bi88  1  0.81518292  0.12761841  0.29169674  1
  Bi2+  Bi89  1  0.76397502  0.14011594  0.78421035  1
  Bi2+  Bi90  1  0.77152438  0.38801029  0.28941849  1
  Bi2+  Bi91  1  0.72041633  0.39315565  0.79868364  1
  Bi2+  Bi92  1  0.75022488  0.68050059  0.28796564  1
  Bi2+  Bi93  1  0.78889575  0.59226427  0.80574568  1
  Bi2+  Bi94  1  0.68240268  0.86560564  0.30763111  1
  Bi2+  Bi95  1  0.75392981  0.87143985  0.78297147  1
  Bi2+  Bi96  1  0.10681726  0.05339011  0.18453638  1
  Bi2+  Bi97  1  0.16937063  0.02423317  0.68884438  1
  Bi2+  Bi98  1  0.15313232  0.28361589  0.19658192  1
  Bi2+  Bi99  1  0.15532410  0.30791247  0.73989219  1
  Bi2+  Bi100  1  0.11189034  0.47637534  0.15532702  1
  Bi2+  Bi101  1  0.15177785  0.52808468  0.72667162  1
  Bi2+  Bi102  1  0.10632710  0.66261563  0.19194757  1
  Bi2+  Bi103  1  0.09265775  0.71389286  0.72940641  1
  Bi2+  Bi104  1  0.36824418  -0.01213298  0.20609153  1
  Bi2+  Bi105  1  0.37911146  -0.00468664  0.70690810  1
  Bi2+  Bi106  1  0.36585997  0.23890331  0.21009184  1
  Bi2+  Bi107  1  0.38363721  0.25555115  0.72292802  1
  Bi2+  Bi108  1  0.33557361  0.57401863  0.21750429  1
  Bi2+  Bi109  1  0.37220965  0.47525564  0.71055389  1
  Bi2+  Bi110  1  0.45030698  0.81513395  0.18308009  1
  Bi2+  Bi111  1  0.35703836  0.80285512  0.71049483  1
  Bi2+  Bi112  1  0.63153244  0.03038936  0.24799839  1
  Bi2+  Bi113  1  0.60277726  -0.01073468  0.70431475  1
  Bi2+  Bi114  1  0.63027172  0.22436262  0.22094656  1
  Bi2+  Bi115  1  0.61306489  0.25791848  0.70484539  1
  Bi2+  Bi116  1  0.60287607  0.51349140  0.21343139  1
  Bi2+  Bi117  1  0.62844261  0.51708092  0.71918302  1
  Bi2+  Bi118  1  0.63528121  0.77028905  0.20871443  1
  Bi2+  Bi119  1  0.65837127  0.70589870  0.75218201  1
  Bi2+  Bi120  1  0.79831915  0.03624994  0.19187801  1
  Bi2+  Bi121  1  0.92478478  0.02776921  0.68515790  1
  Bi2+  Bi122  1  0.96276254  0.26794802  0.22708547  1
  Bi2+  Bi123  1  0.88590485  0.25689580  0.72132680  1
  Bi2+  Bi124  1  0.93248470  0.52884693  0.21311280  1
  Bi2+  Bi125  1  0.89493153  0.52149412  0.71822203  1
  Bi2+  Bi126  1  0.86065146  0.79942640  0.21521874  1
  Bi2+  Bi127  1  0.89378381  0.74200390  0.71857951  1
  S2-  S128  1  -0.04760988  0.10369773  0.15772185  1
  S2-  S129  1  -0.01520537  0.18874718  0.65206998  1
  S2-  S130  1  -0.08556411  0.35066020  0.14547936  1
  S2-  S131  1  -0.14276261  0.39153588  0.65918508  1
  S2-  S132  1  -0.11931406  0.63560021  0.14415478  1
  S2-  S133  1  0.03058031  0.51929874  0.65398127  1
  S2-  S134  1  -0.00763476  0.84929466  0.16042264  1
  S2-  S135  1  -0.08559220  0.86980289  0.64566061  1
  S2-  S136  1  0.32405075  0.11627714  0.14146291  1
  S2-  S137  1  0.30606544  0.12002923  0.65090709  1
  S2-  S138  1  0.33678788  0.35847599  0.14735230  1
  S2-  S139  1  0.15688591  0.34461780  0.64643954  1
  S2-  S140  1  0.26325619  0.70214338  0.15596288  1
  S2-  S141  1  0.26186350  0.58706655  0.65863930  1
  S2-  S142  1  0.22373184  0.92005962  0.15514272  1
  S2-  S143  1  0.21881347  0.86480311  0.65319321  1
  S2-  S144  1  0.50568391  0.20745400  0.15489510  1
  S2-  S145  1  0.56177038  0.12196452  0.64762061  1
  S2-  S146  1  0.60539545  0.37223825  0.16641169  1
  S2-  S147  1  0.37768546  0.35515575  0.63877342  1
  S2-  S148  1  0.46228119  0.53045058  0.15363513  1
  S2-  S149  1  0.61418784  0.61868829  0.63568721  1
  S2-  S150  1  0.50104131  0.97116806  0.13785994  1
  S2-  S151  1  0.59795165  0.85924753  0.64511651  1
  S2-  S152  1  0.74149394  0.20239370  0.15093831  1
  S2-  S153  1  0.74964932  0.22767512  0.65429101  1
  S2-  S154  1  0.76822147  0.46691982  0.19546312  1
  S2-  S155  1  0.60673080  0.38902681  0.64492072  1
  S2-  S156  1  0.63396934  0.63354448  0.14550920  1
  S2-  S157  1  0.85254557  0.63586341  0.64405557  1
  S2-  S158  1  0.74744742  0.87868576  0.15010050  1
  S2-  S159  1  0.75599313  1.00862873  0.65559490  1
  S2-  S160  1  0.24390072  -0.01222324  0.35109080  1
  S2-  S161  1  0.06536293  -0.00574213  0.84954148  1
  S2-  S162  1  0.09826068  0.27926358  0.34340585  1
  S2-  S163  1  0.09777292  0.26902150  0.85116689  1
  S2-  S164  1  0.13371367  0.53120185  0.34438182  1
  S2-  S165  1  0.01467863  0.51733895  0.85556823  1
  S2-  S166  1  0.11985032  0.77518226  0.34557359  1
  S2-  S167  1  0.20658840  0.73433780  0.86314224  1
  S2-  S168  1  0.49872324  -0.01253041  0.35841776  1
  S2-  S169  1  0.49659007  -0.00614651  0.85367843  1
  S2-  S170  1  0.33430531  0.24509653  0.32665079  1
  S2-  S171  1  0.49822498  0.24817373  0.86127949  1
  S2-  S172  1  0.39492719  0.49924542  0.34134916  1
  S2-  S173  1  0.26503006  0.50128998  0.86201822  1
  S2-  S174  1  0.35945478  0.74790346  0.35235305  1
  S2-  S175  1  0.42826331  0.68045087  0.84435033  1
  S2-  S176  1  0.74100686  0.01849920  0.35866441  1
  S2-  S177  1  0.72175694  0.00350046  0.84325816  1
  S2-  S178  1  0.54329278  0.22518147  0.34113024  1
  S2-  S179  1  0.70529996  0.24574007  0.84950403  1
  S2-  S180  1  0.60951964  0.42790735  0.31982129  1
  S2-  S181  1  0.59720327  0.48495807  0.84896411  1
  S2-  S182  1  0.60827771  0.64117855  0.34989103  1
  S2-  S183  1  0.62970482  0.78553051  0.84529197  1
  S2-  S184  1  0.98866535  -0.02265302  0.35513376  1
  S2-  S185  1  0.88741114  -0.02013005  0.77054356  1
  S2-  S186  1  0.78347857  0.25784404  0.35932868  1
  S2-  S187  1  0.89508732  0.15653806  0.83903601  1
  S2-  S188  1  0.80072877  0.49924424  0.35292052  1
  S2-  S189  1  0.86204604  0.38398657  0.85735739  1
  S2-  S190  1  0.88227854  0.73482033  0.34413300  1
  S2-  S191  1  0.88006772  0.82247428  0.85045295  1
  S2-  S192  1  -0.00358548  0.12144112  0.45228583  1
  S2-  S193  1  -0.00657931  0.11798853  0.95210884  1
  S2-  S194  1  -0.00385724  0.36845446  0.44730130  1
  S2-  S195  1  -0.00113987  0.36867508  0.95616399  1
  S2-  S196  1  -0.00237303  0.61591610  0.45896568  1
  S2-  S197  1  -0.00298582  0.62324254  0.96196488  1
  S2-  S198  1  -0.00166401  0.86656503  0.45533896  1
  S2-  S199  1  -0.00452046  0.87222042  0.95435188  1
  S2-  S200  1  0.24699085  0.12016072  0.44824541  1
  S2-  S201  1  0.24494366  0.11926341  0.94956567  1
  S2-  S202  1  0.25023916  0.36875957  0.44969373  1
  S2-  S203  1  0.24588759  0.36598423  0.95926454  1
  S2-  S204  1  0.24913605  0.61687872  0.45472710  1
  S2-  S205  1  0.24545052  0.62035475  0.96531335  1
  S2-  S206  1  0.24698353  0.86271048  0.45431875  1
  S2-  S207  1  0.24454919  0.87293862  0.95692451  1
  S2-  S208  1  0.49942539  0.11870395  0.45085747  1
  S2-  S209  1  0.49239699  0.11818436  0.96103882  1
  S2-  S210  1  0.50383961  0.37150636  0.44724394  1
  S2-  S211  1  0.48963257  0.37632146  0.96011497  1
  S2-  S212  1  0.49716679  0.61982638  0.45460855  1
  S2-  S213  1  0.49362368  0.61688775  0.96168351  1
  S2-  S214  1  0.49590358  0.86231848  0.45635422  1
  S2-  S215  1  0.49318568  0.86416117  0.95283214  1
  S2-  S216  1  0.75033073  0.12178424  0.46303849  1
  S2-  S217  1  0.74415922  0.12138210  0.95324400  1
  S2-  S218  1  0.75033237  0.37140171  0.46124307  1
  S2-  S219  1  0.74535081  0.37255926  0.95751031  1
  S2-  S220  1  0.75005959  0.62078048  0.45459734  1
  S2-  S221  1  0.74882606  0.62008370  0.95560281  1
  S2-  S222  1  0.74893589  0.86630002  0.44895840  1
  S2-  S223  1  0.74430561  0.86609229  0.94877654  1
  S2-  S224  1  0.12010800  -0.00714565  0.04766081  1
  S2-  S225  1  0.12258179  -0.01047371  0.54032836  1
  S2-  S226  1  0.12071312  0.24255544  0.05316820  1
  S2-  S227  1  0.12123612  0.24295309  0.54332980  1
  S2-  S228  1  0.12180951  0.49484375  0.04217957  1
  S2-  S229  1  0.12370272  0.49071169  0.54614558  1
  S2-  S230  1  0.11867633  0.74422176  0.05235328  1
  S2-  S231  1  0.12039017  0.73955074  0.55292281  1
  S2-  S232  1  0.36662009  -0.01080050  0.03824694  1
  S2-  S233  1  0.37124290  -0.01402250  0.54252457  1
  S2-  S234  1  0.36790293  0.24311428  0.04160601  1
  S2-  S235  1  0.37232742  0.24042884  0.53449165  1
  S2-  S236  1  0.36868117  0.49614201  0.04677102  1
  S2-  S237  1  0.37571692  0.49848049  0.54476383  1
  S2-  S238  1  0.37484677  0.74019657  0.04569488  1
  S2-  S239  1  0.37333747  0.74057680  0.55486692  1
  S2-  S240  1  0.62041775  -0.00389501  0.03940333  1
  S2-  S241  1  0.62392064  -0.01104576  0.54159532  1
  S2-  S242  1  0.61483951  0.24713514  0.04874895  1
  S2-  S243  1  0.61995763  0.24148916  0.53972250  1
  S2-  S244  1  0.62408676  0.48849806  0.05523910  1
  S2-  S245  1  0.62126320  0.49426148  0.53429872  1
  S2-  S246  1  0.62013302  0.74659752  0.04518055  1
  S2-  S247  1  0.62622000  0.74664795  0.53883089  1
  S2-  S248  1  0.86877525  -0.00533401  0.05068975  1
  S2-  S249  1  0.87074950  -0.00796146  0.54154459  1
  S2-  S250  1  0.86936953  0.24589671  0.04126818  1
  S2-  S251  1  0.87626268  0.24622503  0.54751368  1
  S2-  S252  1  0.87139831  0.49168804  0.04615602  1
  S2-  S253  1  0.87703311  0.48762173  0.54854666  1
  S2-  S254  1  0.87111852  0.74938057  0.04389400  1
  S2-  S255  1  0.87009478  0.74842024  0.54527264  1
