# generated using pymatgen
data_La9Ce10Pr6Nd4Sm3(BiS2)32
_symmetry_space_group_name_H-M   'P 1'
_cell_length_a   16.16927977
_cell_length_b   16.23011336
_cell_length_c   27.12169010
_cell_angle_alpha   90.02836325
_cell_angle_beta   90.12581544
_cell_angle_gamma   89.98589049
_symmetry_Int_Tables_number   1
_chemical_formula_structural   La9Ce10Pr6Nd4Sm3(BiS2)32
_chemical_formula_sum   'La18 Ce20 Pr12 Nd8 Sm6 Bi64 S128'
_cell_volume   7117.50637471
_cell_formula_units_Z   2
loop_
 _symmetry_equiv_pos_site_id
 _symmetry_equiv_pos_as_xyz
  1  'x, y, z'
loop_
 _atom_type_symbol
 _atom_type_oxidation_number
  La3+  3.0
  Ce3+  3.0
  Pr3+  3.0
  Nd3+  3.0
  Sm3+  3.0
  Bi2+  2.0
  S2-  -2.0
loop_
 _atom_site_type_symbol
 _atom_site_label
 _atom_site_symmetry_multiplicity
 _atom_site_fract_x
 _atom_site_fract_y
 _atom_site_fract_z
 _atom_site_occupancy
  La3+  La0  1  0.77356280  0.36335296  0.57930027  1
  La3+  La1  1  0.64499810  0.23572145  0.44863094  1
  La3+  La2  1  0.39824753  0.73608589  0.41513192  1
  La3+  La3  1  0.38978123  -0.01027673  0.40582528  1
  La3+  La4  1  0.51511305  0.60946886  0.56571327  1
  La3+  La5  1  0.26440626  0.35939853  0.56926183  1
  La3+  La6  1  0.63184424  0.50497012  0.92945930  1
  La3+  La7  1  0.75824806  0.62266893  0.07187996  1
  La3+  La8  1  0.38902637  0.23702994  0.43639537  1
  La3+  La9  1  0.62829297  -0.00692682  0.91671587  1
  La3+  La10  1  0.51895502  0.36033108  0.56976867  1
  La3+  La11  1  0.26276215  0.36876312  0.07141389  1
  La3+  La12  1  0.12673665  0.25117423  0.92507230  1
  La3+  La13  1  0.62853332  0.25263148  0.89680221  1
  La3+  La14  1  0.88925885  0.50773555  0.38460592  1
  La3+  La15  1  0.76987984  0.10235454  0.58177620  1
  La3+  La16  1  0.89104873  0.23925386  0.43726682  1
  La3+  La17  1  0.01402163  0.60912184  0.56198700  1
  Ce3+  Ce18  1  0.87841493  0.24599567  0.92926533  1
  Ce3+  Ce19  1  0.62928950  0.74551463  0.94409374  1
  Ce3+  Ce20  1  0.89397090  -0.00799789  0.42873930  1
  Ce3+  Ce21  1  0.89025305  0.73930611  0.44325867  1
  Ce3+  Ce22  1  0.14143950  0.23377623  0.44338221  1
  Ce3+  Ce23  1  0.25884546  0.86932494  0.05804588  1
  Ce3+  Ce24  1  0.63822906  -0.01418529  0.43740753  1
  Ce3+  Ce25  1  0.26064819  0.62094779  0.05746536  1
  Ce3+  Ce26  1  0.13542091  0.48508136  0.44276013  1
  Ce3+  Ce27  1  0.38921887  0.48880455  0.43641035  1
  Ce3+  Ce28  1  0.75584597  0.36763872  0.05287480  1
  Ce3+  Ce29  1  0.76683579  0.60999407  0.55786495  1
  Ce3+  Ce30  1  0.00847312  0.87504791  0.06555137  1
  Ce3+  Ce31  1  0.64020234  0.73613316  0.44136002  1
  Ce3+  Ce32  1  0.88079966  0.74688587  0.94625049  1
  Ce3+  Ce33  1  0.51549924  0.10886686  0.56144308  1
  Ce3+  Ce34  1  0.25692667  0.11934285  0.05648356  1
  Ce3+  Ce35  1  0.50897861  0.11525706  0.05058723  1
  Ce3+  Ce36  1  0.75493382  0.87583654  0.05501287  1
  Ce3+  Ce37  1  0.51110720  0.36838142  0.05129595  1
  Pr3+  Pr38  1  0.76541958  0.86443869  0.55731087  1
  Pr3+  Pr39  1  0.12849681  0.74376680  0.94563429  1
  Pr3+  Pr40  1  0.37773500  -0.00332861  0.93040977  1
  Pr3+  Pr41  1  0.26828168  0.85856071  0.56126065  1
  Pr3+  Pr42  1  0.12783262  0.49370823  0.94474712  1
  Pr3+  Pr43  1  0.14340295  -0.01629076  0.43442563  1
  Pr3+  Pr44  1  0.51096135  0.86126855  0.56096971  1
  Pr3+  Pr45  1  0.26721638  0.11371370  0.57226897  1
  Pr3+  Pr46  1  0.64456350  0.48424530  0.43939138  1
  Pr3+  Pr47  1  0.00649046  0.35978385  0.07081643  1
  Pr3+  Pr48  1  0.01806725  0.86317242  0.55846772  1
  Pr3+  Pr49  1  0.00544310  0.11736683  0.06125800  1
  Nd3+  Nd50  1  0.88666157  -0.00386336  0.92986286  1
  Nd3+  Nd51  1  0.51390191  0.62146558  0.07063184  1
  Nd3+  Nd52  1  0.87994321  0.49620010  0.94059849  1
  Nd3+  Nd53  1  0.38229895  0.74376678  0.93974582  1
  Nd3+  Nd54  1  0.12887948  -0.00421996  0.93427830  1
  Nd3+  Nd55  1  0.38123299  0.49092213  0.93691823  1
  Nd3+  Nd56  1  0.14496710  0.73454192  0.44199942  1
  Nd3+  Nd57  1  0.00456981  0.62005700  0.07111207  1
  Sm3+  Sm58  1  0.50739339  0.87840223  0.06724420  1
  Sm3+  Sm59  1  0.37943887  0.24680886  0.93917726  1
  Sm3+  Sm60  1  0.75445385  0.11987075  0.04720708  1
  Sm3+  Sm61  1  0.01143820  0.35711072  0.56317239  1
  Sm3+  Sm62  1  0.26632683  0.60390922  0.56861650  1
  Sm3+  Sm63  1  0.01464278  0.10834546  0.56285820  1
  Bi2+  Bi64  1  -0.00222219  0.12036226  0.29540930  1
  Bi2+  Bi65  1  0.05252925  0.11902779  0.78704885  1
  Bi2+  Bi66  1  0.00684144  0.37554534  0.28730627  1
  Bi2+  Bi67  1  -0.01183333  0.39587978  0.79848241  1
  Bi2+  Bi68  1  0.05042381  0.70945273  0.29764456  1
  Bi2+  Bi69  1  0.06685739  0.57490070  0.81394763  1
  Bi2+  Bi70  1  -0.11123922  0.89752808  0.30073552  1
  Bi2+  Bi71  1  0.02046493  0.85335041  0.79026488  1
  Bi2+  Bi72  1  0.25194003  0.16603586  0.30172824  1
  Bi2+  Bi73  1  0.23147965  0.10964301  0.83947747  1
  Bi2+  Bi74  1  0.21324093  0.43344889  0.26399574  1
  Bi2+  Bi75  1  0.18766598  0.35919375  0.76553070  1
  Bi2+  Bi76  1  0.24594147  0.62177438  0.28408547  1
  Bi2+  Bi77  1  0.20061792  0.67267879  0.75491732  1
  Bi2+  Bi78  1  0.24558589  0.89675365  0.27666444  1
  Bi2+  Bi79  1  0.27478349  0.93493699  0.79842828  1
  Bi2+  Bi80  1  0.55587610  0.14890437  0.25293243  1
  Bi2+  Bi81  1  0.47449458  0.07486937  0.78146641  1
  Bi2+  Bi82  1  0.36991424  0.34999350  0.31813508  1
  Bi2+  Bi83  1  0.46748383  0.40437221  0.78911924  1
  Bi2+  Bi84  1  0.49974408  0.61775417  0.28646026  1
  Bi2+  Bi85  1  0.48654793  0.65693693  0.79853101  1
  Bi2+  Bi86  1  0.49698197  0.90873452  0.26650316  1
  Bi2+  Bi87  1  0.60324689  0.84607900  0.80735882  1
  Bi2+  Bi88  1  0.74738684  0.13960792  0.28453264  1
  Bi2+  Bi89  1  0.74831351  0.12698064  0.77625541  1
  Bi2+  Bi90  1  0.73319447  0.34558855  0.30182121  1
  Bi2+  Bi91  1  0.73974287  0.38022903  0.77706036  1
  Bi2+  Bi92  1  0.74893064  0.74262112  0.30193824  1
  Bi2+  Bi93  1  0.76401143  0.61938582  0.79504814  1
  Bi2+  Bi94  1  0.69270406  0.93409129  0.30258003  1
  Bi2+  Bi95  1  0.80514941  0.85852921  0.80284261  1
  Bi2+  Bi96  1  0.08280422  -0.02393030  0.23044492  1
  Bi2+  Bi97  1  0.13248432  0.07283035  0.68362935  1
  Bi2+  Bi98  1  0.15347104  0.22522885  0.20796794  1
  Bi2+  Bi99  1  0.11475741  0.26780536  0.67439466  1
  Bi2+  Bi100  1  0.09966861  0.59486304  0.20786079  1
  Bi2+  Bi101  1  0.10150921  0.50360762  0.70533479  1
  Bi2+  Bi102  1  0.06839508  0.79181727  0.19172018  1
  Bi2+  Bi103  1  0.15402944  0.88191193  0.70865540  1
  Bi2+  Bi104  1  0.39733451  0.05013678  0.20905392  1
  Bi2+  Bi105  1  0.32907442  0.04124497  0.70003360  1
  Bi2+  Bi106  1  0.39846355  0.24809563  0.21278320  1
  Bi2+  Bi107  1  0.33157724  0.21284704  0.76296883  1
  Bi2+  Bi108  1  0.38919616  0.48708963  0.22375640  1
  Bi2+  Bi109  1  0.34809458  0.57184998  0.70915137  1
  Bi2+  Bi110  1  0.36109694  0.74388578  0.19253987  1
  Bi2+  Bi111  1  0.41566667  0.83075448  0.74031816  1
  Bi2+  Bi112  1  0.67400331  -0.01168689  0.18768956  1
  Bi2+  Bi113  1  0.62779618  -0.03590133  0.71246534  1
  Bi2+  Bi114  1  0.59297438  0.32398414  0.21070129  1
  Bi2+  Bi115  1  0.57102045  0.24400930  0.69673585  1
  Bi2+  Bi116  1  0.54875926  0.43486057  0.31249303  1
  Bi2+  Bi117  1  0.60248939  0.50612483  0.69441658  1
  Bi2+  Bi118  1  0.63509528  0.72621327  0.20845183  1
  Bi2+  Bi119  1  0.70387969  0.75829016  0.72024977  1
  Bi2+  Bi120  1  0.87673322  0.02012054  0.20896370  1
  Bi2+  Bi121  1  0.89136364  -0.00881094  0.71019782  1
  Bi2+  Bi122  1  0.87367217  0.26537372  0.18883214  1
  Bi2+  Bi123  1  0.93631560  0.25156971  0.72053446  1
  Bi2+  Bi124  1  0.80821694  0.50289961  0.19953676  1
  Bi2+  Bi125  1  0.89214412  0.55076641  0.71611567  1
  Bi2+  Bi126  1  0.87765529  0.76287091  0.21377156  1
  Bi2+  Bi127  1  0.90812717  0.74653086  0.71599525  1
  S2-  S128  1  0.01086005  0.21968872  0.14503541  1
  S2-  S129  1  -0.08523649  0.11119072  0.64650531  1
  S2-  S130  1  -0.05538037  0.40688885  0.16453174  1
  S2-  S131  1  -0.08579284  0.35826559  0.64844689  1
  S2-  S132  1  -0.11501021  0.62415382  0.14632486  1
  S2-  S133  1  0.01983517  0.63985419  0.66179081  1
  S2-  S134  1  0.00133278  0.99558733  0.13745713  1
  S2-  S135  1  -0.02896419  0.87846227  0.65561043  1
  S2-  S136  1  0.25299429  0.11698778  0.15532147  1
  S2-  S137  1  0.27839594  0.24194411  0.64530351  1
  S2-  S138  1  0.19271556  0.36688414  0.16377059  1
  S2-  S139  1  0.26396043  0.48221308  0.64477954  1
  S2-  S140  1  0.23756350  0.63498919  0.15412271  1
  S2-  S141  1  0.26007380  0.68452282  0.65801484  1
  S2-  S142  1  0.28370786  0.87573378  0.15582596  1
  S2-  S143  1  0.31229403  0.87927131  0.66021944  1
  S2-  S144  1  0.51640026  0.01822869  0.13317936  1
  S2-  S145  1  0.47944963  0.11446218  0.65796711  1
  S2-  S146  1  0.45613773  0.37201851  0.14531658  1
  S2-  S147  1  0.48025493  0.39323699  0.66854106  1
  S2-  S148  1  0.44224389  0.60291614  0.16069750  1
  S2-  S149  1  0.50475761  0.62699687  0.66713657  1
  S2-  S150  1  0.50575689  0.80678905  0.16057823  1
  S2-  S151  1  0.52974295  0.86303295  0.66392438  1
  S2-  S152  1  0.77267257  0.12512278  0.14740950  1
  S2-  S153  1  0.69470851  0.14429295  0.67652932  1
  S2-  S154  1  0.73482743  0.35965261  0.15262483  1
  S2-  S155  1  0.69346254  0.36012402  0.67275693  1
  S2-  S156  1  0.65665862  0.59321604  0.15384803  1
  S2-  S157  1  0.75638436  0.56386194  0.65274612  1
  S2-  S158  1  0.74589141  0.84189548  0.15288713  1
  S2-  S159  1  0.75996720  0.95051047  0.64586437  1
  S2-  S160  1  0.02212001  -0.01183140  0.35556838  1
  S2-  S161  1  0.01967687  -0.01554106  0.85506927  1
  S2-  S162  1  0.10351334  0.23850253  0.34600258  1
  S2-  S163  1  -0.00620730  0.23718499  0.85468222  1
  S2-  S164  1  0.06198591  0.48092421  0.35381052  1
  S2-  S165  1  0.14426240  0.39459753  0.86116370  1
  S2-  S166  1  0.16535842  0.79597165  0.34848260  1
  S2-  S167  1  0.12010078  0.73623601  0.84494710  1
  S2-  S168  1  0.23961999  0.00837832  0.34800927  1
  S2-  S169  1  0.48308051  -0.03870834  0.85202397  1
  S2-  S170  1  0.39296229  0.14502328  0.35068664  1
  S2-  S171  1  0.36363294  0.31289844  0.84808706  1
  S2-  S172  1  0.36710753  0.59511114  0.35556311  1
  S2-  S173  1  0.38867170  0.53825554  0.84012351  1
  S2-  S174  1  0.38136031  0.85038254  0.33353399  1
  S2-  S175  1  0.37796639  0.75690055  0.83849736  1
  S2-  S176  1  0.54432980  -0.01675191  0.35269738  1
  S2-  S177  1  0.62025469  0.10443820  0.83724526  1
  S2-  S178  1  0.63202022  0.21859023  0.34749766  1
  S2-  S179  1  0.55609081  0.27146444  0.79836220  1
  S2-  S180  1  0.71969488  0.49395190  0.34747515  1
  S2-  S181  1  0.62180614  0.43818973  0.83360064  1
  S2-  S182  1  0.55659205  0.72263894  0.35546034  1
  S2-  S183  1  0.62983629  0.64744007  0.86230144  1
  S2-  S184  1  0.86271888  0.12061382  0.36001989  1
  S2-  S185  1  0.80666465  0.01644582  0.83987191  1
  S2-  S186  1  0.88572821  0.33897778  0.35097820  1
  S2-  S187  1  0.77854933  0.25893535  0.84186452  1
  S2-  S188  1  0.90108490  0.50701161  0.27498099  1
  S2-  S189  1  0.84388100  0.47429044  0.84231833  1
  S2-  S190  1  0.89446045  0.67667647  0.35168320  1
  S2-  S191  1  0.87405515  0.70948847  0.85072861  1
  S2-  S192  1  0.01949249  0.11084420  0.45911205  1
  S2-  S193  1  0.00739169  0.11946148  0.95544149  1
  S2-  S194  1  0.01995119  0.35794485  0.46020839  1
  S2-  S195  1  0.00073514  0.37222455  0.96005500  1
  S2-  S196  1  0.01515816  0.61391318  0.45366340  1
  S2-  S197  1  0.00403876  0.61912184  0.96234236  1
  S2-  S198  1  0.01792308  0.85726440  0.45262061  1
  S2-  S199  1  0.00631595  0.86906799  0.95817381  1
  S2-  S200  1  0.26486001  0.11172630  0.46180146  1
  S2-  S201  1  0.25470250  0.12417177  0.95191534  1
  S2-  S202  1  0.26267244  0.36335842  0.45526301  1
  S2-  S203  1  0.25942249  0.37046907  0.96231411  1
  S2-  S204  1  0.26182765  0.60836663  0.46147119  1
  S2-  S205  1  0.25561799  0.61827487  0.94940166  1
  S2-  S206  1  0.27237429  0.85875475  0.45417686  1
  S2-  S207  1  0.25508669  0.86883281  0.94879192  1
  S2-  S208  1  0.51544008  0.11067069  0.45646898  1
  S2-  S209  1  0.50168174  0.12582861  0.94446937  1
  S2-  S210  1  0.51552088  0.36225598  0.45679415  1
  S2-  S211  1  0.50686466  0.36784351  0.94536179  1
  S2-  S212  1  0.51644496  0.60740603  0.45715211  1
  S2-  S213  1  0.50101280  0.62022006  0.96084339  1
  S2-  S214  1  0.51407336  0.85966091  0.45509184  1
  S2-  S215  1  0.50360276  0.86682795  0.95914730  1
  S2-  S216  1  0.76159083  0.10564160  0.46479066  1
  S2-  S217  1  0.75091069  0.12293766  0.94486901  1
  S2-  S218  1  0.76441566  0.36066863  0.46230805  1
  S2-  S219  1  0.75090756  0.37289224  0.94836636  1
  S2-  S220  1  0.76717814  0.61354535  0.45244086  1
  S2-  S221  1  0.75996065  0.62279717  0.96244480  1
  S2-  S222  1  0.76511471  0.86354043  0.44909596  1
  S2-  S223  1  0.75533275  0.87020966  0.94753939  1
  S2-  S224  1  0.13731670  -0.00656683  0.04074927  1
  S2-  S225  1  0.14285355  -0.01354516  0.54780800  1
  S2-  S226  1  0.13568539  0.24495645  0.04083899  1
  S2-  S227  1  0.13484773  0.23338803  0.54810735  1
  S2-  S228  1  0.12953462  0.49587392  0.05327859  1
  S2-  S229  1  0.13423955  0.48170633  0.54861214  1
  S2-  S230  1  0.13007733  0.74462832  0.05219934  1
  S2-  S231  1  0.14175051  0.73548766  0.55022444  1
  S2-  S232  1  0.37891113  -0.00510820  0.03820413  1
  S2-  S233  1  0.38935937  -0.01195636  0.55214041  1
  S2-  S234  1  0.38436076  0.24126017  0.04544450  1
  S2-  S235  1  0.39515090  0.23704631  0.54536207  1
  S2-  S236  1  0.38395680  0.49598949  0.04548225  1
  S2-  S237  1  0.39235456  0.48406104  0.54496762  1
  S2-  S238  1  0.38462115  0.74637401  0.04758599  1
  S2-  S239  1  0.38915518  0.73127891  0.54994608  1
  S2-  S240  1  0.63297896  -0.00469738  0.03117747  1
  S2-  S241  1  0.63579331  -0.01531058  0.54554072  1
  S2-  S242  1  0.63051081  0.24090928  0.04757585  1
  S2-  S243  1  0.64383211  0.23442990  0.55693325  1
  S2-  S244  1  0.63062600  0.49382735  0.04126090  1
  S2-  S245  1  0.64251898  0.48509846  0.54863781  1
  S2-  S246  1  0.62956824  0.75135728  0.04936536  1
  S2-  S247  1  0.64122874  0.73757194  0.55070416  1
  S2-  S248  1  0.87690865  -0.00393100  0.03761225  1
  S2-  S249  1  0.89462868  -0.01588342  0.53885470  1
  S2-  S250  1  0.87753560  0.24250232  0.03903781  1
  S2-  S251  1  0.89172033  0.23216582  0.54616950  1
  S2-  S252  1  0.88313299  0.49163135  0.04690479  1
  S2-  S253  1  0.89238225  0.48768117  0.55150459  1
  S2-  S254  1  0.88503294  0.75351554  0.05120380  1
  S2-  S255  1  0.88937912  0.73885389  0.55126532  1
