# generated using pymatgen
data_La9Ce10Pr6Nd4Sm3(BiS2)32
_symmetry_space_group_name_H-M   'P 1'
_cell_length_a   16.16356206
_cell_length_b   16.18827783
_cell_length_c   27.25416315
_cell_angle_alpha   90.02630341
_cell_angle_beta   90.10016968
_cell_angle_gamma   89.90281241
_symmetry_Int_Tables_number   1
_chemical_formula_structural   La9Ce10Pr6Nd4Sm3(BiS2)32
_chemical_formula_sum   'La18 Ce20 Pr12 Nd8 Sm6 Bi64 S128'
_cell_volume   7131.30878825
_cell_formula_units_Z   2
loop_
 _symmetry_equiv_pos_site_id
 _symmetry_equiv_pos_as_xyz
  1  'x, y, z'
loop_
 _atom_type_symbol
 _atom_type_oxidation_number
  La3+  3.0
  Ce3+  3.0
  Pr3+  3.0
  Nd3+  3.0
  Sm3+  3.0
  Bi2+  2.0
  S2-  -2.0
loop_
 _atom_site_type_symbol
 _atom_site_label
 _atom_site_symmetry_multiplicity
 _atom_site_fract_x
 _atom_site_fract_y
 _atom_site_fract_z
 _atom_site_occupancy
  La3+  La0  1  0.12760019  0.00872822  0.44198590  1
  La3+  La1  1  0.63228546  0.01194842  0.42332149  1
  La3+  La2  1  0.36727854  0.00260328  0.93534531  1
  La3+  La3  1  0.12884844  0.51211334  0.43236552  1
  La3+  La4  1  0.61775558  0.76483246  0.91277025  1
  La3+  La5  1  0.73506657  0.14200909  0.09163304  1
  La3+  La6  1  0.87264260  0.51090367  0.93597915  1
  La3+  La7  1  0.61783872  0.75225015  0.42596260  1
  La3+  La8  1  0.61460443  0.25848447  0.93402407  1
  La3+  La9  1  0.48847460  0.37455223  0.59893313  1
  La3+  La10  1  0.11606601  0.25464836  0.93073106  1
  La3+  La11  1  0.75744360  0.88472863  0.56161960  1
  La3+  La12  1  0.00274974  0.63106631  0.56819903  1
  La3+  La13  1  0.24558803  0.63767814  0.07574610  1
  La3+  La14  1  0.74141005  0.63182312  0.06055675  1
  La3+  La15  1  0.86601930  0.25641797  0.93587010  1
  La3+  La16  1  -0.00193200  0.13734305  0.59797223  1
  La3+  La17  1  0.62611574  0.51669905  0.88851901  1
  Ce3+  Ce18  1  0.11609984  0.75217511  0.94332886  1
  Ce3+  Ce19  1  0.37233285  0.50898473  0.93489355  1
  Ce3+  Ce20  1  0.75807876  0.63488216  0.56409360  1
  Ce3+  Ce21  1  0.87700432  0.00866754  0.43752852  1
  Ce3+  Ce22  1  0.49390874  0.13139242  0.05914303  1
  Ce3+  Ce23  1  0.24046334  0.88308656  0.05272615  1
  Ce3+  Ce24  1  0.11823806  0.51245518  0.94125549  1
  Ce3+  Ce25  1  0.25588421  0.63323609  0.55832641  1
  Ce3+  Ce26  1  0.00373668  0.37805432  0.55860627  1
  Ce3+  Ce27  1  0.25551855  0.13752882  0.56568268  1
  Ce3+  Ce28  1  0.37956537  0.50766604  0.44961169  1
  Ce3+  Ce29  1  0.51196872  0.88155106  0.57187526  1
  Ce3+  Ce30  1  0.24139571  0.38276993  0.05208936  1
  Ce3+  Ce31  1  0.36858655  0.74936549  0.93862772  1
  Ce3+  Ce32  1  0.74248225  0.38001636  0.05558899  1
  Ce3+  Ce33  1  0.87898231  0.25819547  0.43809078  1
  Ce3+  Ce34  1  0.50376345  0.13255446  0.55730372  1
  Ce3+  Ce35  1  0.37816506  0.00538950  0.45056179  1
  Ce3+  Ce36  1  0.75119029  0.13554979  0.55589704  1
  Ce3+  Ce37  1  -0.00562251  0.37751599  0.06622844  1
  Pr3+  Pr38  1  0.86929145  0.75724536  0.42798858  1
  Pr3+  Pr39  1  0.61814004  0.25995995  0.43223478  1
  Pr3+  Pr40  1  -0.00637072  0.88234121  0.07464605  1
  Pr3+  Pr41  1  0.73943781  0.88840586  0.08369709  1
  Pr3+  Pr42  1  0.61858244  0.00534486  0.93991923  1
  Pr3+  Pr43  1  0.10172177  -0.00574977  0.92033659  1
  Pr3+  Pr44  1  0.49561992  0.88243495  0.06325014  1
  Pr3+  Pr45  1  -0.00346952  0.62816474  0.08156161  1
  Pr3+  Pr46  1  0.75106252  0.38111507  0.55941228  1
  Pr3+  Pr47  1  0.00388214  0.88635894  0.56670191  1
  Pr3+  Pr48  1  0.49287601  0.38239202  0.05794419  1
  Pr3+  Pr49  1  0.24764647  0.38126513  0.56330632  1
  Nd3+  Nd50  1  -0.00528476  0.13139248  0.06498444  1
  Nd3+  Nd51  1  0.86473391  0.00289864  0.94703758  1
  Nd3+  Nd52  1  0.37160031  0.25367582  0.43134430  1
  Nd3+  Nd53  1  0.24782614  0.88660604  0.57181910  1
  Nd3+  Nd54  1  0.51283305  0.63729716  0.57640734  1
  Nd3+  Nd55  1  0.87641538  0.50816771  0.44256715  1
  Nd3+  Nd56  1  0.62325652  0.50855259  0.44639226  1
  Nd3+  Nd57  1  0.49711712  0.63081099  0.05224816  1
  Sm3+  Sm58  1  0.36677302  0.25727948  0.94113934  1
  Sm3+  Sm59  1  0.24068839  0.12956010  0.04869696  1
  Sm3+  Sm60  1  0.13036226  0.25790734  0.43819516  1
  Sm3+  Sm61  1  0.37990060  0.76099439  0.44893019  1
  Sm3+  Sm62  1  0.12464351  0.76025489  0.44455911  1
  Sm3+  Sm63  1  0.86455241  0.75757180  0.95225979  1
  Bi2+  Bi64  1  0.01219438  0.16511101  0.29729869  1
  Bi2+  Bi65  1  0.02398813  0.12235441  0.80083110  1
  Bi2+  Bi66  1  0.10906570  0.33448750  0.30263818  1
  Bi2+  Bi67  1  0.03313153  0.42025021  0.77585741  1
  Bi2+  Bi68  1  0.00855905  0.66281400  0.30675378  1
  Bi2+  Bi69  1  0.04429948  0.66217172  0.81996587  1
  Bi2+  Bi70  1  0.00574138  0.88147746  0.22575935  1
  Bi2+  Bi71  1  0.03443740  0.82661975  0.75680007  1
  Bi2+  Bi72  1  0.22636342  0.11136051  0.30614206  1
  Bi2+  Bi73  1  0.27732691  0.16591205  0.80768482  1
  Bi2+  Bi74  1  0.31460548  0.37949931  0.22912808  1
  Bi2+  Bi75  1  0.22639657  0.46021181  0.78813447  1
  Bi2+  Bi76  1  0.25254968  0.55290327  0.28127275  1
  Bi2+  Bi77  1  0.24053491  0.62732964  0.85228429  1
  Bi2+  Bi78  1  0.23957354  0.86597169  0.30268743  1
  Bi2+  Bi79  1  0.21931052  0.80083601  0.79722550  1
  Bi2+  Bi80  1  0.49927956  0.12000858  0.30293657  1
  Bi2+  Bi81  1  0.56431757  0.12374858  0.78981592  1
  Bi2+  Bi82  1  0.48473178  0.39859500  0.28978103  1
  Bi2+  Bi83  1  0.49925961  0.36368202  0.77844206  1
  Bi2+  Bi84  1  0.49488435  0.59239726  0.28518030  1
  Bi2+  Bi85  1  0.42099406  0.63951052  0.79596414  1
  Bi2+  Bi86  1  0.48456347  0.85566960  0.28232060  1
  Bi2+  Bi87  1  0.48208513  0.91697711  0.79000264  1
  Bi2+  Bi88  1  0.76835410  0.13466186  0.28696087  1
  Bi2+  Bi89  1  0.75461422  0.08211052  0.79661143  1
  Bi2+  Bi90  1  0.68466667  0.40217228  0.28950200  1
  Bi2+  Bi91  1  0.76257854  0.35445064  0.79151623  1
  Bi2+  Bi92  1  0.74240839  0.61639997  0.29472663  1
  Bi2+  Bi93  1  0.79254200  0.64837571  0.79517666  1
  Bi2+  Bi94  1  0.80559394  0.85963469  0.28257032  1
  Bi2+  Bi95  1  0.75150370  0.88512708  0.78339114  1
  Bi2+  Bi96  1  0.17506341  -0.03358871  0.18939802  1
  Bi2+  Bi97  1  0.17028743  0.00919304  0.70606335  1
  Bi2+  Bi98  1  0.12729543  0.23777315  0.20363060  1
  Bi2+  Bi99  1  0.19005438  0.33034621  0.70080159  1
  Bi2+  Bi100  1  0.09210572  0.48444294  0.20752892  1
  Bi2+  Bi101  1  0.08086233  0.48542153  0.66298724  1
  Bi2+  Bi102  1  0.14903530  0.74766770  0.21900893  1
  Bi2+  Bi103  1  0.10963539  0.66143730  0.71067726  1
  Bi2+  Bi104  1  0.35781284  -0.01292984  0.23045385  1
  Bi2+  Bi105  1  0.35352989  -0.04452306  0.68307143  1
  Bi2+  Bi106  1  0.34516469  0.18318508  0.22075334  1
  Bi2+  Bi107  1  0.38775296  0.14321906  0.71804654  1
  Bi2+  Bi108  1  0.36107816  0.55685992  0.18379042  1
  Bi2+  Bi109  1  0.34914997  0.52602995  0.71084741  1
  Bi2+  Bi110  1  0.35301274  0.72165399  0.24511403  1
  Bi2+  Bi111  1  0.35429222  0.76998586  0.71852418  1
  Bi2+  Bi112  1  0.62096069  -0.00370554  0.21066229  1
  Bi2+  Bi113  1  0.55094324  0.00879167  0.69014978  1
  Bi2+  Bi114  1  0.62467166  0.26258074  0.21096625  1
  Bi2+  Bi115  1  0.68348795  0.15422799  0.69714132  1
  Bi2+  Bi116  1  0.61890654  0.47943720  0.18909412  1
  Bi2+  Bi117  1  0.65295002  0.49219051  0.68939283  1
  Bi2+  Bi118  1  0.63705508  0.72860305  0.19640841  1
  Bi2+  Bi119  1  0.61323010  0.76511716  0.71196109  1
  Bi2+  Bi120  1  0.91045171  0.05275195  0.22267474  1
  Bi2+  Bi121  1  0.85857100  0.00272609  0.71324009  1
  Bi2+  Bi122  1  0.88920946  0.26286013  0.22391472  1
  Bi2+  Bi123  1  0.90564998  0.29411816  0.72876143  1
  Bi2+  Bi124  1  0.86831118  0.45056315  0.25619268  1
  Bi2+  Bi125  1  0.89888234  0.51236608  0.70967597  1
  Bi2+  Bi126  1  0.88905996  0.64027623  0.21761314  1
  Bi2+  Bi127  1  0.86355333  0.76599165  0.71498666  1
  S2-  S128  1  0.01548601  0.01564904  0.14152037  1
  S2-  S129  1  0.02138003  0.07458896  0.69495039  1
  S2-  S130  1  -0.00597521  0.25372058  0.14029292  1
  S2-  S131  1  0.00210392  0.29144711  0.64596500  1
  S2-  S132  1  -0.02983121  0.48439536  0.14434078  1
  S2-  S133  1  -0.11941841  0.64139054  0.64150361  1
  S2-  S134  1  -0.02026334  0.76256879  0.15334192  1
  S2-  S135  1  -0.12072898  0.88812290  0.63932090  1
  S2-  S136  1  0.22707446  0.12574918  0.14666077  1
  S2-  S137  1  0.20743097  0.16674157  0.65904851  1
  S2-  S138  1  0.19838492  0.38021270  0.14714599  1
  S2-  S139  1  0.33002412  0.37759957  0.65361719  1
  S2-  S140  1  0.13462907  0.61526721  0.15282052  1
  S2-  S141  1  0.26267765  0.65511021  0.65567487  1
  S2-  S142  1  0.24488418  0.82175861  0.14387600  1
  S2-  S143  1  0.12707985  0.88604814  0.64567088  1
  S2-  S144  1  0.57194825  0.12825283  0.14763393  1
  S2-  S145  1  0.46299025  0.20598274  0.64154321  1
  S2-  S146  1  0.51228303  0.36681863  0.15872005  1
  S2-  S147  1  0.57894413  0.35000717  0.68800742  1
  S2-  S148  1  0.51843550  0.62252217  0.15225761  1
  S2-  S149  1  0.49237871  0.52944481  0.65557380  1
  S2-  S150  1  0.55394224  0.87366174  0.15967096  1
  S2-  S151  1  0.48760017  0.76192882  0.64903717  1
  S2-  S152  1  0.75693053  0.01565765  0.15953417  1
  S2-  S153  1  0.83073051  0.13472441  0.64331602  1
  S2-  S154  1  0.74394440  0.29585789  0.14428528  1
  S2-  S155  1  0.79230667  0.39970762  0.65829803  1
  S2-  S156  1  0.74665551  0.60121706  0.16136810  1
  S2-  S157  1  0.66819134  0.65717133  0.64840584  1
  S2-  S158  1  0.76337256  0.81845741  0.18099524  1
  S2-  S159  1  0.64816309  0.88914115  0.64265055  1
  S2-  S160  1  0.12973111  -0.02015909  0.34179839  1
  S2-  S161  1  0.15737507  0.03923326  0.82522923  1
  S2-  S162  1  0.23898349  0.26459680  0.35948509  1
  S2-  S163  1  0.13149575  0.25267864  0.83004817  1
  S2-  S164  1  0.10524315  0.50689022  0.33255737  1
  S2-  S165  1  0.00775897  0.50980953  0.86395129  1
  S2-  S166  1  0.15095171  0.73556872  0.34840644  1
  S2-  S167  1  0.08389038  0.84200895  0.86092341  1
  S2-  S168  1  0.36719912  0.06652307  0.35914946  1
  S2-  S169  1  0.38059040  0.02116363  0.83537082  1
  S2-  S170  1  0.48313767  0.26745918  0.35421177  1
  S2-  S171  1  0.38663653  0.27176747  0.84338525  1
  S2-  S172  1  0.37957645  0.51119127  0.35081860  1
  S2-  S173  1  0.46029754  0.49061149  0.84923846  1
  S2-  S174  1  0.46849627  0.76280649  0.36490373  1
  S2-  S175  1  0.45219994  0.77758854  0.85397621  1
  S2-  S176  1  0.57582524  -0.03745551  0.32906936  1
  S2-  S177  1  0.62500728  -0.08856707  0.85456976  1
  S2-  S178  1  0.64543801  0.15188737  0.35253277  1
  S2-  S179  1  0.62220712  0.28021295  0.83411018  1
  S2-  S180  1  0.61291689  0.59731990  0.35945437  1
  S2-  S181  1  0.62697304  0.46683590  0.78421477  1
  S2-  S182  1  0.73888398  0.76583144  0.35003772  1
  S2-  S183  1  0.64018883  0.66433067  0.83107512  1
  S2-  S184  1  0.80451339  -0.00492082  0.34755037  1
  S2-  S185  1  0.95212958  0.01999380  0.85989318  1
  S2-  S186  1  0.86745989  0.25231973  0.34041481  1
  S2-  S187  1  0.89362694  0.26213828  0.83613859  1
  S2-  S188  1  0.88356722  0.54112182  0.34491753  1
  S2-  S189  1  0.79114071  0.49521479  0.84638138  1
  S2-  S190  1  0.94211215  0.80152333  0.33743291  1
  S2-  S191  1  0.83937817  0.77758822  0.85452105  1
  S2-  S192  1  0.00447498  0.13589422  0.44040459  1
  S2-  S193  1  -0.00746543  0.13195687  0.95761870  1
  S2-  S194  1  0.00489386  0.38288152  0.44820792  1
  S2-  S195  1  -0.00555503  0.37788593  0.95735223  1
  S2-  S196  1  0.00213480  0.63505153  0.45469500  1
  S2-  S197  1  -0.00901591  0.63787800  0.96752409  1
  S2-  S198  1  0.00262946  0.88289954  0.45585745  1
  S2-  S199  1  -0.01452998  0.87828465  0.96704517  1
  S2-  S200  1  0.25087212  0.13153778  0.46042477  1
  S2-  S201  1  0.24390953  0.13033102  0.94459735  1
  S2-  S202  1  0.25030587  0.38657072  0.45575590  1
  S2-  S203  1  0.24451854  0.38292225  0.94503831  1
  S2-  S204  1  0.25450579  0.63885488  0.45143273  1
  S2-  S205  1  0.24480432  0.63074960  0.96617697  1
  S2-  S206  1  0.25146542  0.88046054  0.46099807  1
  S2-  S207  1  0.24396652  0.87714787  0.94735820  1
  S2-  S208  1  0.50085870  0.13056034  0.45453973  1
  S2-  S209  1  0.49002741  0.13091748  0.95055190  1
  S2-  S210  1  0.50005372  0.38597839  0.45490066  1
  S2-  S211  1  0.48881086  0.37904153  0.95247271  1
  S2-  S212  1  0.49718210  0.63218990  0.46777004  1
  S2-  S213  1  0.50074005  0.62997569  0.94775652  1
  S2-  S214  1  0.50347101  0.88706473  0.46179341  1
  S2-  S215  1  0.49294288  0.88151865  0.95816513  1
  S2-  S216  1  0.75509101  0.13764464  0.45288038  1
  S2-  S217  1  0.74186116  0.12996199  0.94192900  1
  S2-  S218  1  0.74936400  0.38361116  0.44941160  1
  S2-  S219  1  0.73784624  0.38513418  0.94862345  1
  S2-  S220  1  0.75263403  0.62878267  0.45718543  1
  S2-  S221  1  0.73910014  0.63506510  0.95180519  1
  S2-  S222  1  0.75152881  0.88643378  0.45368418  1
  S2-  S223  1  0.74206330  0.88039765  0.96337323  1
  S2-  S224  1  0.12148789  0.00676117  0.03435068  1
  S2-  S225  1  0.12375064  0.01865254  0.55031514  1
  S2-  S226  1  0.12251147  0.25408047  0.03904896  1
  S2-  S227  1  0.12487694  0.25412051  0.54261292  1
  S2-  S228  1  0.11976561  0.50641616  0.04503694  1
  S2-  S229  1  0.12862309  0.50938415  0.54067517  1
  S2-  S230  1  0.11753914  0.75818681  0.04844369  1
  S2-  S231  1  0.12753525  0.75564845  0.54867256  1
  S2-  S232  1  0.36774020  0.00761122  0.04730319  1
  S2-  S233  1  0.37732327  0.00694144  0.55529499  1
  S2-  S234  1  0.36574943  0.25374903  0.04774687  1
  S2-  S235  1  0.37346837  0.26029230  0.53895756  1
  S2-  S236  1  0.36816320  0.50780642  0.04497020  1
  S2-  S237  1  0.37550799  0.50689878  0.55263887  1
  S2-  S238  1  0.37327100  0.75714130  0.04708592  1
  S2-  S239  1  0.37208170  0.76432789  0.55115715  1
  S2-  S240  1  0.61990384  0.01002386  0.04629506  1
  S2-  S241  1  0.62964664  0.01366468  0.54017304  1
  S2-  S242  1  0.61566535  0.25568804  0.04142653  1
  S2-  S243  1  0.62407820  0.26064692  0.54621420  1
  S2-  S244  1  0.61814813  0.50348695  0.04927436  1
  S2-  S245  1  0.62783318  0.50470686  0.55112323  1
  S2-  S246  1  0.61918207  0.75873229  0.05166634  1
  S2-  S247  1  0.63132063  0.75761504  0.53829811  1
  S2-  S248  1  0.86145457  0.01302405  0.05113353  1
  S2-  S249  1  0.88499061  0.01892594  0.54168441  1
  S2-  S250  1  0.86265268  0.25115755  0.04279009  1
  S2-  S251  1  0.87854687  0.25773055  0.54285308  1
  S2-  S252  1  0.86461716  0.50386220  0.04389681  1
  S2-  S253  1  0.88039034  0.50175425  0.54613854  1
  S2-  S254  1  0.86189318  0.76064368  0.05584912  1
  S2-  S255  1  0.88218544  0.75867977  0.53725896  1
