# generated using pymatgen
data_La9Ce10Pr6Nd4Sm3(BiS2)32
_symmetry_space_group_name_H-M   'P 1'
_cell_length_a   16.18251612
_cell_length_b   16.22085038
_cell_length_c   27.21452769
_cell_angle_alpha   89.81896284
_cell_angle_beta   90.00717194
_cell_angle_gamma   90.05016918
_symmetry_Int_Tables_number   1
_chemical_formula_structural   La9Ce10Pr6Nd4Sm3(BiS2)32
_chemical_formula_sum   'La18 Ce20 Pr12 Nd8 Sm6 Bi64 S128'
_cell_volume   7143.61648267
_cell_formula_units_Z   2
loop_
 _symmetry_equiv_pos_site_id
 _symmetry_equiv_pos_as_xyz
  1  'x, y, z'
loop_
 _atom_type_symbol
 _atom_type_oxidation_number
  La3+  3.0
  Ce3+  3.0
  Pr3+  3.0
  Nd3+  3.0
  Sm3+  3.0
  Bi2+  2.0
  S2-  -2.0
loop_
 _atom_site_type_symbol
 _atom_site_label
 _atom_site_symmetry_multiplicity
 _atom_site_fract_x
 _atom_site_fract_y
 _atom_site_fract_z
 _atom_site_occupancy
  La3+  La0  1  0.74184531  0.38101246  0.57122856  1
  La3+  La1  1  0.75978977  0.12092196  0.08231073  1
  La3+  La2  1  0.61588780  0.50477756  0.42411210  1
  La3+  La3  1  0.38251022  0.25326782  0.42259848  1
  La3+  La4  1  0.13555128  0.24179437  0.91584544  1
  La3+  La5  1  0.38499452  0.00286151  0.93090007  1
  La3+  La6  1  0.13858406  0.49883254  0.92457665  1
  La3+  La7  1  0.12285661  0.74708013  0.42960235  1
  La3+  La8  1  0.37030840  0.75306907  0.92354781  1
  La3+  La9  1  0.86894880  0.75251444  0.92978247  1
  La3+  La10  1  -0.00761233  0.36281159  0.60391250  1
  La3+  La11  1  0.88392276  0.49303859  0.91868489  1
  La3+  La12  1  0.87639730  0.00768964  0.93275059  1
  La3+  La13  1  0.74574738  0.12643356  0.56758079  1
  La3+  La14  1  0.50156213  0.62942214  0.06897947  1
  La3+  La15  1  0.50498098  0.88979515  0.61657797  1
  La3+  La16  1  0.24501563  0.87649447  0.56970561  1
  La3+  La17  1  0.49291932  0.12542706  0.08329857  1
  Ce3+  Ce18  1  0.24907740  0.12676409  0.55213397  1
  Ce3+  Ce19  1  0.86943899  0.25070337  0.43714148  1
  Ce3+  Ce20  1  0.87307280  0.49747852  0.44630045  1
  Ce3+  Ce21  1  0.75323003  0.87237778  0.05463703  1
  Ce3+  Ce22  1  0.76811778  0.38148635  0.07178939  1
  Ce3+  Ce23  1  0.62778736  0.25342911  0.96360063  1
  Ce3+  Ce24  1  0.00285510  0.87292654  0.05255320  1
  Ce3+  Ce25  1  0.37367882  0.50219033  0.44461140  1
  Ce3+  Ce26  1  0.74430807  0.87419784  0.55728568  1
  Ce3+  Ce27  1  0.49539755  0.12314006  0.55442433  1
  Ce3+  Ce28  1  0.37565587  0.49895071  0.94535312  1
  Ce3+  Ce29  1  0.87390885  0.00013154  0.44714705  1
  Ce3+  Ce30  1  0.00343003  0.37350208  0.05107144  1
  Ce3+  Ce31  1  0.00104133  0.87415930  0.56108458  1
  Ce3+  Ce32  1  0.37975676  0.25197764  0.94892490  1
  Ce3+  Ce33  1  0.87230115  0.74736596  0.44420916  1
  Ce3+  Ce34  1  0.25139327  0.12304340  0.06405244  1
  Ce3+  Ce35  1  0.12807625  0.00313087  0.94434866  1
  Ce3+  Ce36  1  0.87395182  0.25134365  0.94474828  1
  Ce3+  Ce37  1  0.24827853  0.37386364  0.06458741  1
  Pr3+  Pr38  1  0.12703928  0.75254325  0.92973331  1
  Pr3+  Pr39  1  0.74484342  0.62529171  0.56264015  1
  Pr3+  Pr40  1  0.12140088  0.00206660  0.43417788  1
  Pr3+  Pr41  1  0.12166612  0.49650587  0.44265954  1
  Pr3+  Pr42  1  0.50249904  0.87076532  0.06284256  1
  Pr3+  Pr43  1  0.61836533  0.74120543  0.92992813  1
  Pr3+  Pr44  1  0.61940903  0.74969178  0.44466656  1
  Pr3+  Pr45  1  0.62294526  -0.00026780  0.43480708  1
  Pr3+  Pr46  1  0.62599577  0.00745019  0.94727344  1
  Pr3+  Pr47  1  0.24064553  0.62226339  0.56777964  1
  Pr3+  Pr48  1  0.50862658  0.38468295  0.08000528  1
  Pr3+  Pr49  1  0.48809787  0.62702653  0.57390565  1
  Nd3+  Nd50  1  0.24206783  0.61392625  0.06652871  1
  Nd3+  Nd51  1  0.25293788  0.86378478  0.06394387  1
  Nd3+  Nd52  1  0.24575227  0.37020111  0.56046140  1
  Nd3+  Nd53  1  0.62977974  0.24861311  0.43349504  1
  Nd3+  Nd54  1  0.37184199  -0.00194693  0.43687425  1
  Nd3+  Nd55  1  0.00010780  0.62146167  0.56418310  1
  Nd3+  Nd56  1  -0.00098471  0.12645183  0.56028395  1
  Nd3+  Nd57  1  0.49638637  0.37404443  0.56157832  1
  Sm3+  Sm58  1  0.12186698  0.25078740  0.43925902  1
  Sm3+  Sm59  1  0.37270336  0.75233211  0.44802535  1
  Sm3+  Sm60  1  0.62624105  0.49623224  0.94800928  1
  Sm3+  Sm61  1  0.00317282  0.62410082  0.04725768  1
  Sm3+  Sm62  1  0.00503392  0.12420115  0.06129282  1
  Sm3+  Sm63  1  0.75612687  0.62522278  0.05255188  1
  Bi2+  Bi64  1  -0.04051789  0.14858744  0.29947278  1
  Bi2+  Bi65  1  -0.03684644  0.05766611  0.79791705  1
  Bi2+  Bi66  1  0.04413424  0.36326105  0.28421153  1
  Bi2+  Bi67  1  -0.02337546  0.39218335  0.78849267  1
  Bi2+  Bi68  1  0.01059541  0.64217914  0.29780786  1
  Bi2+  Bi69  1  0.00402787  0.67787175  0.76491203  1
  Bi2+  Bi70  1  0.04217520  0.90500301  0.29629563  1
  Bi2+  Bi71  1  0.04294744  0.86930428  0.80183952  1
  Bi2+  Bi72  1  0.19581615  0.12553326  0.27152735  1
  Bi2+  Bi73  1  0.25835284  0.10682241  0.79835560  1
  Bi2+  Bi74  1  0.24236932  0.37112071  0.27169471  1
  Bi2+  Bi75  1  0.28333732  0.33520073  0.76890413  1
  Bi2+  Bi76  1  0.26451370  0.56282890  0.28959981  1
  Bi2+  Bi77  1  0.20339377  0.59883677  0.79431429  1
  Bi2+  Bi78  1  0.27247211  0.85034549  0.29725153  1
  Bi2+  Bi79  1  0.23431237  0.91064099  0.78277674  1
  Bi2+  Bi80  1  0.47899654  0.13044049  0.29668066  1
  Bi2+  Bi81  1  0.47587397  0.14960823  0.79705437  1
  Bi2+  Bi82  1  0.43526509  0.37247713  0.29453341  1
  Bi2+  Bi83  1  0.46717710  0.35045025  0.80906113  1
  Bi2+  Bi84  1  0.50681817  0.64128899  0.30001010  1
  Bi2+  Bi85  1  0.47999204  0.56853669  0.79570458  1
  Bi2+  Bi86  1  0.49886113  0.87241928  0.22069383  1
  Bi2+  Bi87  1  0.53226964  0.87274341  0.81939018  1
  Bi2+  Bi88  1  0.75329608  0.12273282  0.29369764  1
  Bi2+  Bi89  1  0.75026961  0.19757045  0.80454177  1
  Bi2+  Bi90  1  0.84647539  0.33631202  0.28424125  1
  Bi2+  Bi91  1  0.65354244  0.36787913  0.77810750  1
  Bi2+  Bi92  1  0.76015079  0.63149142  0.31403626  1
  Bi2+  Bi93  1  0.73896524  0.63629255  0.80698614  1
  Bi2+  Bi94  1  0.74928977  0.88423845  0.26379127  1
  Bi2+  Bi95  1  0.76911328  0.86647581  0.75803204  1
  Bi2+  Bi96  1  0.10518890  0.00263084  0.20035101  1
  Bi2+  Bi97  1  0.10519254  0.01545999  0.71586913  1
  Bi2+  Bi98  1  0.12550213  0.19563410  0.16482191  1
  Bi2+  Bi99  1  0.13514004  0.23617047  0.71905524  1
  Bi2+  Bi100  1  0.07466975  0.46660428  0.18509228  1
  Bi2+  Bi101  1  0.14243889  0.50479323  0.70480877  1
  Bi2+  Bi102  1  0.13181753  0.75964269  0.18578170  1
  Bi2+  Bi103  1  0.15147345  0.76805978  0.71412980  1
  Bi2+  Bi104  1  0.34900500  -0.01016862  0.23141104  1
  Bi2+  Bi105  1  0.36609639  0.11231697  0.70193097  1
  Bi2+  Bi106  1  0.30472763  0.24967460  0.18644617  1
  Bi2+  Bi107  1  0.37479732  0.30047862  0.66438672  1
  Bi2+  Bi108  1  0.38055870  0.49840252  0.20713495  1
  Bi2+  Bi109  1  0.38052054  0.48442101  0.70882060  1
  Bi2+  Bi110  1  0.36175234  0.70914118  0.23622903  1
  Bi2+  Bi111  1  0.38964190  0.75384609  0.71512400  1
  Bi2+  Bi112  1  0.64130520  0.00988148  0.20332552  1
  Bi2+  Bi113  1  0.64765905  0.00897301  0.71427602  1
  Bi2+  Bi114  1  0.61363651  0.26988689  0.21480138  1
  Bi2+  Bi115  1  0.55345201  0.24489444  0.70803626  1
  Bi2+  Bi116  1  0.65290086  0.51824091  0.21592537  1
  Bi2+  Bi117  1  0.57602868  0.50866277  0.69810922  1
  Bi2+  Bi118  1  0.66122801  0.74969008  0.19775232  1
  Bi2+  Bi119  1  0.67362354  0.67901381  0.70492708  1
  Bi2+  Bi120  1  0.91119570  -0.01189270  0.22069979  1
  Bi2+  Bi121  1  0.92792664  -0.07669606  0.70194743  1
  Bi2+  Bi122  1  0.94507271  0.25087453  0.19790516  1
  Bi2+  Bi123  1  0.88090296  0.19725510  0.72117774  1
  Bi2+  Bi124  1  0.90484729  0.50943433  0.24218932  1
  Bi2+  Bi125  1  0.81379983  0.45078054  0.72062361  1
  Bi2+  Bi126  1  0.90967427  0.78096481  0.23985956  1
  Bi2+  Bi127  1  0.86172262  0.73317771  0.69075507  1
  S2-  S128  1  -0.09161496  0.09782274  0.14305843  1
  S2-  S129  1  0.00550765  0.20067632  0.65136979  1
  S2-  S130  1  -0.08535307  0.39418497  0.13492123  1
  S2-  S131  1  -0.01817580  0.47309269  0.68498242  1
  S2-  S132  1  0.05895721  0.61959917  0.14148757  1
  S2-  S133  1  0.11295393  0.63512409  0.64100455  1
  S2-  S134  1  -0.01268114  0.83405573  0.14718459  1
  S2-  S135  1  0.10815101  0.87316444  0.63886314  1
  S2-  S136  1  0.34621327  0.09661809  0.14516791  1
  S2-  S137  1  0.21589058  0.10707747  0.64852988  1
  S2-  S138  1  0.23452642  0.48105942  0.14199464  1
  S2-  S139  1  0.15651052  0.36303096  0.64847734  1
  S2-  S140  1  0.27031023  0.71779938  0.14296874  1
  S2-  S141  1  0.34381312  0.62322975  0.65215141  1
  S2-  S142  1  0.22556793  0.90333604  0.16253633  1
  S2-  S143  1  0.34193337  0.87095426  0.65520830  1
  S2-  S144  1  0.53180122  0.12710031  0.18569741  1
  S2-  S145  1  0.51532452  0.06097848  0.64640231  1
  S2-  S146  1  0.46459694  0.31917766  0.17107444  1
  S2-  S147  1  0.60576037  0.36046994  0.63994697  1
  S2-  S148  1  0.51861148  0.52602126  0.15213836  1
  S2-  S149  1  0.52022849  0.72467586  0.65674748  1
  S2-  S150  1  0.51175717  0.75856264  0.14020042  1
  S2-  S151  1  0.50215098  0.89046968  0.72782194  1
  S2-  S152  1  0.72582257  0.16173037  0.18318311  1
  S2-  S153  1  0.75739983  0.11007872  0.66866527  1
  S2-  S154  1  0.69548963  0.38954245  0.16402575  1
  S2-  S155  1  0.83405696  0.32400246  0.65406807  1
  S2-  S156  1  0.74719905  0.62574407  0.15282385  1
  S2-  S157  1  0.74376154  0.52559216  0.64459098  1
  S2-  S158  1  0.74535530  0.88880162  0.15136482  1
  S2-  S159  1  0.67924883  0.89690950  0.64686260  1
  S2-  S160  1  0.17662985  -0.01225785  0.33907750  1
  S2-  S161  1  0.11754774  0.08809667  0.85886154  1
  S2-  S162  1  0.10321305  0.21500905  0.34306792  1
  S2-  S163  1  0.09410557  0.29360058  0.81561490  1
  S2-  S164  1  0.12282069  0.54762107  0.34606616  1
  S2-  S165  1  0.04432726  0.51038908  0.83923601  1
  S2-  S166  1  0.13193833  0.76264304  0.32898396  1
  S2-  S167  1  0.23554525  0.72589948  0.85246947  1
  S2-  S168  1  0.40614473  0.00507685  0.33754850  1
  S2-  S169  1  0.36820056  -0.10499493  0.84996280  1
  S2-  S170  1  0.33971586  0.22710514  0.32465443  1
  S2-  S171  1  0.29356681  0.24420583  0.86208001  1
  S2-  S172  1  0.46453970  0.50873440  0.36066274  1
  S2-  S173  1  0.28605844  0.49824196  0.86107786  1
  S2-  S174  1  0.37839731  0.74337262  0.34790529  1
  S2-  S175  1  0.49213929  0.71649403  0.85218818  1
  S2-  S176  1  0.62254956  0.06484529  0.33965656  1
  S2-  S177  1  0.53088014  0.03095490  0.86310377  1
  S2-  S178  1  0.53196810  0.27543640  0.35090304  1
  S2-  S179  1  0.62192436  0.24966287  0.86563291  1
  S2-  S180  1  0.66859618  0.49946731  0.32363534  1
  S2-  S181  1  0.61738816  0.53313034  0.85120863  1
  S2-  S182  1  0.62433192  0.72788831  0.34371699  1
  S2-  S183  1  0.69646731  0.80354196  0.84336213  1
  S2-  S184  1  0.86651853  0.02356075  0.35096055  1
  S2-  S185  1  0.80628342  0.03992436  0.84236809  1
  S2-  S186  1  0.75696071  0.25518277  0.35971401  1
  S2-  S187  1  0.86641519  0.29860942  0.85051326  1
  S2-  S188  1  0.88684189  0.52943096  0.34977498  1
  S2-  S189  1  0.83110827  0.50344285  0.82221201  1
  S2-  S190  1  0.88602636  0.75235304  0.34698206  1
  S2-  S191  1  0.89303934  0.70957150  0.83413706  1
  S2-  S192  1  -0.00203287  0.12714408  0.45342765  1
  S2-  S193  1  0.00026724  0.12960236  0.95674698  1
  S2-  S194  1  -0.00254586  0.37161272  0.43939660  1
  S2-  S195  1  0.00825493  0.36844177  0.94527677  1
  S2-  S196  1  -0.00186510  0.62382076  0.45717782  1
  S2-  S197  1  0.00188025  0.62822501  0.94280206  1
  S2-  S198  1  -0.00165008  0.87461617  0.45188998  1
  S2-  S199  1  0.00017027  0.87726078  0.94460703  1
  S2-  S200  1  0.24832321  0.12773606  0.44472050  1
  S2-  S201  1  0.25752426  0.12111538  0.95988083  1
  S2-  S202  1  0.24859157  0.37260137  0.44767843  1
  S2-  S203  1  0.25247655  0.37003162  0.95989520  1
  S2-  S204  1  0.24856063  0.62500709  0.45510929  1
  S2-  S205  1  0.25259545  0.62544048  0.96042802  1
  S2-  S206  1  0.24673897  0.87485800  0.45376185  1
  S2-  S207  1  0.24744619  0.87944116  0.95509172  1
  S2-  S208  1  0.49808564  0.12311722  0.44904596  1
  S2-  S209  1  0.50163333  0.13047986  0.97243869  1
  S2-  S210  1  0.49999275  0.37745263  0.45713293  1
  S2-  S211  1  0.50240205  0.37750218  0.96561187  1
  S2-  S212  1  0.49327027  0.63000884  0.46222102  1
  S2-  S213  1  0.50127534  0.61675108  0.96078192  1
  S2-  S214  1  0.49601255  0.87471843  0.44254022  1
  S2-  S215  1  0.50678332  0.87427063  0.95669974  1
  S2-  S216  1  0.74931797  0.12109476  0.45892407  1
  S2-  S217  1  0.75074683  0.12850407  0.96731678  1
  S2-  S218  1  0.74353730  0.38204875  0.45785171  1
  S2-  S219  1  0.75288131  0.37845271  0.95956751  1
  S2-  S220  1  0.74656326  0.62396985  0.45562613  1
  S2-  S221  1  0.75184305  0.61986877  0.94737758  1
  S2-  S222  1  0.74786340  0.87414329  0.44921290  1
  S2-  S223  1  0.74974647  0.88126123  0.95086218  1
  S2-  S224  1  0.12669385  -0.00220079  0.04990279  1
  S2-  S225  1  0.12125533  0.00450768  0.54079928  1
  S2-  S226  1  0.12655855  0.24795383  0.04151139  1
  S2-  S227  1  0.12105025  0.25002939  0.54229852  1
  S2-  S228  1  0.12078105  0.49737108  0.03336857  1
  S2-  S229  1  0.11776278  0.49047745  0.54734919  1
  S2-  S230  1  0.12465014  0.74843055  0.03674671  1
  S2-  S231  1  0.12084389  0.74912653  0.53751326  1
  S2-  S232  1  0.37657073  -0.00979426  0.04447592  1
  S2-  S233  1  0.37190273  -0.00009002  0.54420131  1
  S2-  S234  1  0.37649037  0.25515831  0.05327980  1
  S2-  S235  1  0.37261551  0.24970462  0.53592334  1
  S2-  S236  1  0.37631927  0.49809634  0.04975250  1
  S2-  S237  1  0.36856745  0.49544088  0.54959460  1
  S2-  S238  1  0.37693118  0.74970261  0.03728142  1
  S2-  S239  1  0.36490199  0.74838648  0.54914191  1
  S2-  S240  1  0.62526445  0.00185340  0.05628839  1
  S2-  S241  1  0.62170210  -0.00129501  0.54166757  1
  S2-  S242  1  0.63002750  0.25123342  0.06732239  1
  S2-  S243  1  0.62090348  0.24527837  0.54093077  1
  S2-  S244  1  0.63729528  0.50146395  0.05030947  1
  S2-  S245  1  0.61322914  0.50719652  0.54106686  1
  S2-  S246  1  0.63404072  0.74730554  0.03842239  1
  S2-  S247  1  0.62133228  0.75101355  0.54974684  1
  S2-  S248  1  0.87888628  -0.00463183  0.04130644  1
  S2-  S249  1  0.87425946  -0.00070148  0.55438402  1
  S2-  S250  1  0.87946568  0.24635271  0.04858481  1
  S2-  S251  1  0.87447521  0.24928577  0.54345877  1
  S2-  S252  1  0.88080658  0.50667297  0.03173111  1
  S2-  S253  1  0.88078346  0.49615623  0.55194591  1
  S2-  S254  1  0.87796301  0.74731456  0.03911994  1
  S2-  S255  1  0.87461561  0.74904200  0.55081016  1
