# generated using pymatgen
data_La9Ce10Pr6Nd4Sm3(BiS2)32
_symmetry_space_group_name_H-M   'P 1'
_cell_length_a   16.25231281
_cell_length_b   16.23722049
_cell_length_c   27.07975925
_cell_angle_alpha   89.96380010
_cell_angle_beta   89.95180159
_cell_angle_gamma   90.00554055
_symmetry_Int_Tables_number   1
_chemical_formula_structural   La9Ce10Pr6Nd4Sm3(BiS2)32
_chemical_formula_sum   'La18 Ce20 Pr12 Nd8 Sm6 Bi64 S128'
_cell_volume   7146.13830749
_cell_formula_units_Z   2
loop_
 _symmetry_equiv_pos_site_id
 _symmetry_equiv_pos_as_xyz
  1  'x, y, z'
loop_
 _atom_type_symbol
 _atom_type_oxidation_number
  La3+  3.0
  Ce3+  3.0
  Pr3+  3.0
  Nd3+  3.0
  Sm3+  3.0
  Bi2+  2.0
  S2-  -2.0
loop_
 _atom_site_type_symbol
 _atom_site_label
 _atom_site_symmetry_multiplicity
 _atom_site_fract_x
 _atom_site_fract_y
 _atom_site_fract_z
 _atom_site_occupancy
  La3+  La0  1  0.24430649  0.62636109  0.07384942  1
  La3+  La1  1  0.49539633  0.63149091  0.09125951  1
  La3+  La2  1  0.76043186  0.37329912  0.06599298  1
  La3+  La3  1  0.62341181  0.24821119  0.93536982  1
  La3+  La4  1  -0.00502284  0.13360022  0.57986256  1
  La3+  La5  1  0.25139604  0.37700035  0.55942301  1
  La3+  La6  1  0.62270247  0.50442539  0.94362809  1
  La3+  La7  1  -0.01297078  0.87343631  0.57957286  1
  La3+  La8  1  0.38882949  0.73953617  0.92875827  1
  La3+  La9  1  0.62904086  0.75299115  0.41629504  1
  La3+  La10  1  0.86811578  0.24439590  0.91213717  1
  La3+  La11  1  0.74550949  0.87193190  0.56346617  1
  La3+  La12  1  -0.00550446  0.37851995  0.57166115  1
  La3+  La13  1  0.75325098  0.12425625  0.06560447  1
  La3+  La14  1  0.75145791  0.62584919  0.06638695  1
  La3+  La15  1  0.25814136  0.86231486  0.59061075  1
  La3+  La16  1  0.74068115  0.37403769  0.59629488  1
  La3+  La17  1  0.24818235  0.13230933  0.57909296  1
  Ce3+  Ce18  1  -0.00371338  0.37376494  0.04674935  1
  Ce3+  Ce19  1  0.36636375  -0.00439937  0.45005654  1
  Ce3+  Ce20  1  0.00061183  0.12773546  0.04732827  1
  Ce3+  Ce21  1  0.74545576  0.13059979  0.55924955  1
  Ce3+  Ce22  1  0.37174138  0.24631777  0.44007432  1
  Ce3+  Ce23  1  0.12173880  -0.00098569  0.46263077  1
  Ce3+  Ce24  1  0.87456209  0.00016255  0.93696040  1
  Ce3+  Ce25  1  0.12621873  0.00142250  0.93526699  1
  Ce3+  Ce26  1  0.75079018  0.87503124  0.06144815  1
  Ce3+  Ce27  1  0.00649344  0.62485382  0.05593583  1
  Ce3+  Ce28  1  0.12570786  0.50071933  0.93584738  1
  Ce3+  Ce29  1  0.24855758  0.13218229  0.04824977  1
  Ce3+  Ce30  1  0.25334339  0.62890014  0.55463375  1
  Ce3+  Ce31  1  0.36587089  0.49751899  0.42597808  1
  Ce3+  Ce32  1  0.87619574  0.75229290  0.94144945  1
  Ce3+  Ce33  1  0.74353436  0.61989035  0.55140770  1
  Ce3+  Ce34  1  0.63081973  0.25008816  0.42568584  1
  Ce3+  Ce35  1  0.37490561  0.00042421  0.94263481  1
  Ce3+  Ce36  1  0.49768372  0.87449956  0.06436444  1
  Ce3+  Ce37  1  0.50435222  0.37596110  0.54680524  1
  Pr3+  Pr38  1  0.13544757  0.74803815  0.92482184  1
  Pr3+  Pr39  1  0.00381309  0.87548943  0.05255811  1
  Pr3+  Pr40  1  0.49807676  0.62547811  0.53931821  1
  Pr3+  Pr41  1  0.87635823  0.24844279  0.43473649  1
  Pr3+  Pr42  1  -0.00557254  0.62211163  0.56375730  1
  Pr3+  Pr43  1  0.62348185  0.00117626  0.43578711  1
  Pr3+  Pr44  1  0.62302051  0.49916545  0.42579857  1
  Pr3+  Pr45  1  0.87503145  0.49815955  0.43862225  1
  Pr3+  Pr46  1  0.50225308  0.12598458  0.55608810  1
  Pr3+  Pr47  1  0.24933455  0.36732197  0.06953174  1
  Pr3+  Pr48  1  0.37549672  0.49509294  0.94471539  1
  Pr3+  Pr49  1  0.12528887  0.25932411  0.92092321  1
  Nd3+  Nd50  1  0.49968034  0.12903919  0.06284137  1
  Nd3+  Nd51  1  0.35749978  0.75967659  0.41736486  1
  Nd3+  Nd52  1  0.37584868  0.25409546  0.93442219  1
  Nd3+  Nd53  1  0.12013891  0.75488940  0.44687944  1
  Nd3+  Nd54  1  0.87057786  0.50570954  0.92972383  1
  Nd3+  Nd55  1  0.62373242  -0.00153621  0.94511180  1
  Nd3+  Nd56  1  0.49900222  0.86900758  0.55624281  1
  Nd3+  Nd57  1  0.25062365  0.87497126  0.05532088  1
  Sm3+  Sm58  1  0.87563039  0.75255450  0.43595296  1
  Sm3+  Sm59  1  0.12166680  0.50056626  0.44487320  1
  Sm3+  Sm60  1  0.50540960  0.37800467  0.06590761  1
  Sm3+  Sm61  1  0.12121480  0.24557394  0.44014480  1
  Sm3+  Sm62  1  0.62532810  0.75144645  0.94529841  1
  Sm3+  Sm63  1  0.87671350  0.00220710  0.44669455  1
  Bi2+  Bi64  1  0.00610413  0.09883367  0.30788193  1
  Bi2+  Bi65  1  0.00975473  0.08192723  0.79377566  1
  Bi2+  Bi66  1  0.00416998  0.34061237  0.27425890  1
  Bi2+  Bi67  1  0.01309988  0.39995689  0.78944703  1
  Bi2+  Bi68  1  0.00220090  0.60534175  0.29435972  1
  Bi2+  Bi69  1  0.09933890  0.61902874  0.81584054  1
  Bi2+  Bi70  1  -0.00076622  0.79275194  0.32085048  1
  Bi2+  Bi71  1  -0.06711830  0.84371194  0.80181338  1
  Bi2+  Bi72  1  0.22426503  0.16530267  0.31347194  1
  Bi2+  Bi73  1  0.32013871  0.16796438  0.77629622  1
  Bi2+  Bi74  1  0.20379263  0.35913963  0.28880089  1
  Bi2+  Bi75  1  0.24597745  0.41753111  0.76592113  1
  Bi2+  Bi76  1  0.24805691  0.62591967  0.30263707  1
  Bi2+  Bi77  1  0.29535007  0.60271356  0.79601471  1
  Bi2+  Bi78  1  0.21860636  0.90775108  0.29989626  1
  Bi2+  Bi79  1  0.26877774  0.90129180  0.79799551  1
  Bi2+  Bi80  1  0.41280191  0.11458686  0.28794277  1
  Bi2+  Bi81  1  0.48954603  0.20791440  0.82518047  1
  Bi2+  Bi82  1  0.50480235  0.31498944  0.26908930  1
  Bi2+  Bi83  1  0.50471994  0.40478514  0.79835561  1
  Bi2+  Bi84  1  0.51069958  0.61642639  0.28527798  1
  Bi2+  Bi85  1  0.56152281  0.62391384  0.80442176  1
  Bi2+  Bi86  1  0.49226353  0.93859529  0.29407461  1
  Bi2+  Bi87  1  0.56248401  0.88878349  0.78335701  1
  Bi2+  Bi88  1  0.72583532  0.12373528  0.30445420  1
  Bi2+  Bi89  1  0.68030032  0.13607516  0.78133249  1
  Bi2+  Bi90  1  0.80820065  0.37489708  0.27182070  1
  Bi2+  Bi91  1  0.76417249  0.38972788  0.79303848  1
  Bi2+  Bi92  1  0.77609548  0.63121028  0.29459019  1
  Bi2+  Bi93  1  0.71823693  0.69363918  0.73960011  1
  Bi2+  Bi94  1  0.84367072  0.86564682  0.27356266  1
  Bi2+  Bi95  1  0.74429674  0.82223274  0.82848105  1
  Bi2+  Bi96  1  0.15814014  0.02807009  0.21594159  1
  Bi2+  Bi97  1  0.09776511  -0.01573626  0.70970345  1
  Bi2+  Bi98  1  0.12163207  0.22381173  0.21141686  1
  Bi2+  Bi99  1  0.14318957  0.22273272  0.71809632  1
  Bi2+  Bi100  1  0.09218329  0.49987201  0.20917029  1
  Bi2+  Bi101  1  0.12173878  0.53867415  0.71189375  1
  Bi2+  Bi102  1  0.10295283  0.76152865  0.21087421  1
  Bi2+  Bi103  1  0.15797674  0.73381181  0.72018093  1
  Bi2+  Bi104  1  0.34468743  -0.02519177  0.21191162  1
  Bi2+  Bi105  1  0.45060171  0.03795702  0.74579286  1
  Bi2+  Bi106  1  0.34734048  0.24941385  0.21441608  1
  Bi2+  Bi107  1  0.38248637  0.31128189  0.70359704  1
  Bi2+  Bi108  1  0.36188075  0.49551257  0.21683834  1
  Bi2+  Bi109  1  0.38968529  0.50993275  0.70448062  1
  Bi2+  Bi110  1  0.35920287  0.77048536  0.21124017  1
  Bi2+  Bi111  1  0.41933671  0.73439273  0.70032239  1
  Bi2+  Bi112  1  0.61674751  -0.01723344  0.21135991  1
  Bi2+  Bi113  1  0.64610783  0.02562249  0.68646107  1
  Bi2+  Bi114  1  0.61463607  0.22935437  0.19602263  1
  Bi2+  Bi115  1  0.57313427  0.27183817  0.72351683  1
  Bi2+  Bi116  1  0.68401301  0.51027041  0.21271594  1
  Bi2+  Bi117  1  0.58884173  0.52049639  0.70221641  1
  Bi2+  Bi118  1  0.63586799  0.78460424  0.21590464  1
  Bi2+  Bi119  1  0.63206526  0.83652968  0.67853930  1
  Bi2+  Bi120  1  0.95893012  -0.00735418  0.21668446  1
  Bi2+  Bi121  1  0.80747948  -0.01791979  0.76915008  1
  Bi2+  Bi122  1  0.87577433  0.23298970  0.20391362  1
  Bi2+  Bi123  1  0.88123752  0.22020299  0.70598794  1
  Bi2+  Bi124  1  0.89590731  0.50791851  0.19182927  1
  Bi2+  Bi125  1  0.86295721  0.54398334  0.70891496  1
  Bi2+  Bi126  1  0.89858419  0.70747913  0.21210730  1
  Bi2+  Bi127  1  0.90371209  0.73347555  0.70401094  1
  S2-  S128  1  -0.02699846  0.12866039  0.14489088  1
  S2-  S129  1  -0.04155764  0.07059800  0.67432517  1
  S2-  S130  1  -0.09249141  0.36238031  0.13190422  1
  S2-  S131  1  0.01554544  0.27062337  0.65216692  1
  S2-  S132  1  0.10028353  0.63136269  0.13984362  1
  S2-  S133  1  -0.00615915  0.51304765  0.64395189  1
  S2-  S134  1  0.01388995  0.86783035  0.15359669  1
  S2-  S135  1  0.04756554  0.82803577  0.67215262  1
  S2-  S136  1  0.24070435  0.21905750  0.13278799  1
  S2-  S137  1  0.22233220  0.08990050  0.67899041  1
  S2-  S138  1  0.23951842  0.45165118  0.16041364  1
  S2-  S139  1  0.24199450  0.28451723  0.64361914  1
  S2-  S140  1  0.34998320  0.62984025  0.15445152  1
  S2-  S141  1  0.27503957  0.69704569  0.64371876  1
  S2-  S142  1  0.23564496  0.80379389  0.14651935  1
  S2-  S143  1  0.23139920  0.88594127  0.69494530  1
  S2-  S144  1  0.52353033  0.09164302  0.16038191  1
  S2-  S145  1  0.50180287  0.11613655  0.65839074  1
  S2-  S146  1  0.47114912  0.31889229  0.15678063  1
  S2-  S147  1  0.57777650  0.37745576  0.63680614  1
  S2-  S148  1  0.52410938  0.54451387  0.18322704  1
  S2-  S149  1  0.51162430  0.64114165  0.64128526  1
  S2-  S150  1  0.49933409  0.78649531  0.15084543  1
  S2-  S151  1  0.41794702  0.86329202  0.64410550  1
  S2-  S152  1  0.75292720  0.13760421  0.16720322  1
  S2-  S153  1  0.74971079  0.21161343  0.64560434  1
  S2-  S154  1  0.68328935  0.37080804  0.15738192  1
  S2-  S155  1  0.83534349  0.38423708  0.68556929  1
  S2-  S156  1  0.70013927  0.66473696  0.16135450  1
  S2-  S157  1  0.73193277  0.54465562  0.63994414  1
  S2-  S158  1  0.73906409  0.89533221  0.15920369  1
  S2-  S159  1  0.84778801  0.86012154  0.64423175  1
  S2-  S160  1  0.10927282  -0.00985038  0.36406107  1
  S2-  S161  1  0.13663683  -0.00043319  0.83616918  1
  S2-  S162  1  0.00791884  0.24574117  0.36459603  1
  S2-  S163  1  0.10417212  0.20533101  0.82106666  1
  S2-  S164  1  0.14892405  0.49878595  0.34767689  1
  S2-  S165  1  0.14717503  0.40124747  0.85598504  1
  S2-  S166  1  0.20405483  0.75619673  0.35917329  1
  S2-  S167  1  0.09051036  0.78994302  0.82788053  1
  S2-  S168  1  0.35381298  -0.08409564  0.36348354  1
  S2-  S169  1  0.38721228  -0.02200664  0.84522553  1
  S2-  S170  1  0.33115449  0.29284676  0.34938244  1
  S2-  S171  1  0.38217894  0.37570250  0.86286261  1
  S2-  S172  1  0.38325018  0.50978655  0.32580600  1
  S2-  S173  1  0.42415439  0.59172016  0.86447816  1
  S2-  S174  1  0.38049930  0.71676237  0.31479498  1
  S2-  S175  1  0.29456622  0.76297616  0.84380018  1
  S2-  S176  1  0.64391915  -0.02273551  0.33557604  1
  S2-  S177  1  0.61992579  0.01652703  0.84538262  1
  S2-  S178  1  0.57591910  0.20380342  0.33295027  1
  S2-  S179  1  0.71987025  0.26782448  0.85203765  1
  S2-  S180  1  0.64014800  0.52591328  0.32577282  1
  S2-  S181  1  0.67612079  0.50439641  0.84641452  1
  S2-  S182  1  0.57829352  0.75185538  0.31670212  1
  S2-  S183  1  0.53748087  0.76522177  0.85919733  1
  S2-  S184  1  0.86275556  0.05122779  0.35109819  1
  S2-  S185  1  0.86152430  0.08355322  0.85151405  1
  S2-  S186  1  0.76922438  0.25748097  0.35075793  1
  S2-  S187  1  0.90474498  0.28505804  0.80859278  1
  S2-  S188  1  0.87484536  0.50094571  0.33700727  1
  S2-  S189  1  0.89374833  0.48917491  0.82914516  1
  S2-  S190  1  0.77741773  0.76461913  0.35366863  1
  S2-  S191  1  0.86386732  0.69902221  0.84987551  1
  S2-  S192  1  -0.00179930  0.12272015  0.46789289  1
  S2-  S193  1  0.00352062  0.12730915  0.94222882  1
  S2-  S194  1  0.00262793  0.37836413  0.45937237  1
  S2-  S195  1  -0.00936284  0.37595673  0.94185039  1
  S2-  S196  1  -0.00106966  0.62641292  0.45353322  1
  S2-  S197  1  0.00058017  0.62632629  0.94923494  1
  S2-  S198  1  -0.00673370  0.87479179  0.46582561  1
  S2-  S199  1  0.00205339  0.87641941  0.94512227  1
  S2-  S200  1  0.24532747  0.12596738  0.46370198  1
  S2-  S201  1  0.25097682  0.13026903  0.94101318  1
  S2-  S202  1  0.24152248  0.37355156  0.45213201  1
  S2-  S203  1  0.24970966  0.37168573  0.96166706  1
  S2-  S204  1  0.24636527  0.62316797  0.45058720  1
  S2-  S205  1  0.25046447  0.62048878  0.95543378  1
  S2-  S206  1  0.24227994  0.87564544  0.47124555  1
  S2-  S207  1  0.25147427  0.87770088  0.94928723  1
  S2-  S208  1  0.49413614  0.12070167  0.44798395  1
  S2-  S209  1  0.49845358  0.12346409  0.95524523  1
  S2-  S210  1  0.49624807  0.37385148  0.43892557  1
  S2-  S211  1  0.50589649  0.37415140  0.96072032  1
  S2-  S212  1  0.49415207  0.62705551  0.43297374  1
  S2-  S213  1  0.50890526  0.62779142  0.97295989  1
  S2-  S214  1  0.50103455  0.87332973  0.44857942  1
  S2-  S215  1  0.49982313  0.87787137  0.95870857  1
  S2-  S216  1  0.74921174  0.12238770  0.45416747  1
  S2-  S217  1  0.74621478  0.12138077  0.95610233  1
  S2-  S218  1  0.74875131  0.37959826  0.44421274  1
  S2-  S219  1  0.75158261  0.37922753  0.95606912  1
  S2-  S220  1  0.75003071  0.62380552  0.44530307  1
  S2-  S221  1  0.74895595  0.63067192  0.95685101  1
  S2-  S222  1  0.75349195  0.88030824  0.45377492  1
  S2-  S223  1  0.74934149  0.87617008  0.95496194  1
  S2-  S224  1  0.12786260  0.00294015  0.04461394  1
  S2-  S225  1  0.12228700  -0.00298765  0.56899806  1
  S2-  S226  1  0.11966372  0.25162417  0.03251476  1
  S2-  S227  1  0.12256902  0.25173364  0.54386974  1
  S2-  S228  1  0.12296628  0.49384713  0.04286188  1
  S2-  S229  1  0.12824078  0.50300833  0.54963499  1
  S2-  S230  1  0.12651388  0.75234219  0.03424456  1
  S2-  S231  1  0.11972216  0.74585304  0.55381549  1
  S2-  S232  1  0.37258322  0.00439027  0.05124929  1
  S2-  S233  1  0.37212313  0.00377765  0.55552779  1
  S2-  S234  1  0.38055304  0.25171578  0.04086674  1
  S2-  S235  1  0.37923073  0.25117537  0.54659282  1
  S2-  S236  1  0.37789291  0.49369673  0.05305474  1
  S2-  S237  1  0.37515091  0.49974048  0.53801267  1
  S2-  S238  1  0.37344130  0.75330325  0.04281900  1
  S2-  S239  1  0.37544890  0.74968775  0.53175143  1
  S2-  S240  1  0.62338614  0.00038109  0.05142769  1
  S2-  S241  1  0.62160164  -0.00197434  0.54427569  1
  S2-  S242  1  0.62583644  0.24896805  0.04650117  1
  S2-  S243  1  0.62423223  0.25110057  0.53511004  1
  S2-  S244  1  0.62753751  0.49981059  0.05417389  1
  S2-  S245  1  0.62195204  0.49968280  0.53257497  1
  S2-  S246  1  0.62684626  0.75455857  0.04955821  1
  S2-  S247  1  0.62416034  0.74838197  0.53246462  1
  S2-  S248  1  0.87687954  -0.00140275  0.04556790  1
  S2-  S249  1  0.86869142  0.00572582  0.55158978  1
  S2-  S250  1  0.87505425  0.24463588  0.03064338  1
  S2-  S251  1  0.86939302  0.25494868  0.54498721  1
  S2-  S252  1  0.87843294  0.50658902  0.03866712  1
  S2-  S253  1  0.86641890  0.49613041  0.54470813  1
  S2-  S254  1  0.87814036  0.75070189  0.05103430  1
  S2-  S255  1  0.86967789  0.74117937  0.54137927  1
