# generated using pymatgen
data_La9Ce10Pr6Nd4Sm3(BiS2)32
_symmetry_space_group_name_H-M   'P 1'
_cell_length_a   16.15195032
_cell_length_b   16.14555403
_cell_length_c   27.15225864
_cell_angle_alpha   89.79268168
_cell_angle_beta   90.46183321
_cell_angle_gamma   89.88519317
_symmetry_Int_Tables_number   1
_chemical_formula_structural   La9Ce10Pr6Nd4Sm3(BiS2)32
_chemical_formula_sum   'La18 Ce20 Pr12 Nd8 Sm6 Bi64 S128'
_cell_volume   7080.53436843
_cell_formula_units_Z   2
loop_
 _symmetry_equiv_pos_site_id
 _symmetry_equiv_pos_as_xyz
  1  'x, y, z'
loop_
 _atom_type_symbol
 _atom_type_oxidation_number
  La3+  3.0
  Ce3+  3.0
  Pr3+  3.0
  Nd3+  3.0
  Sm3+  3.0
  Bi2+  2.0
  S2-  -2.0
loop_
 _atom_site_type_symbol
 _atom_site_label
 _atom_site_symmetry_multiplicity
 _atom_site_fract_x
 _atom_site_fract_y
 _atom_site_fract_z
 _atom_site_occupancy
  La3+  La0  1  0.87262688  0.22901753  0.41358191  1
  La3+  La1  1  0.88639262  0.27447909  0.93066565  1
  La3+  La2  1  0.62257656  0.23914647  0.42536802  1
  La3+  La3  1  0.87199373  0.49486958  0.43002014  1
  La3+  La4  1  0.76627033  0.14910447  0.09375630  1
  La3+  La5  1  0.01593017  0.87335873  0.58639706  1
  La3+  La6  1  0.75963232  0.86397954  0.59810108  1
  La3+  La7  1  0.75604311  0.36737024  0.55927179  1
  La3+  La8  1  0.37598574  -0.00355032  0.42550854  1
  La3+  La9  1  0.24833733  0.36137255  0.56445594  1
  La3+  La10  1  0.50096709  0.35877542  0.57818764  1
  La3+  La11  1  0.13392120  0.48902169  0.39563038  1
  La3+  La12  1  0.51269082  0.64727867  0.06358926  1
  La3+  La13  1  0.24215326  0.61004470  0.57770766  1
  La3+  La14  1  -0.00493578  0.12422998  0.57190759  1
  La3+  La15  1  0.26801431  0.39315268  0.07823146  1
  La3+  La16  1  0.87515288  0.74497349  0.44896633  1
  La3+  La17  1  0.49608874  0.62482613  0.59717010  1
  Ce3+  Ce18  1  0.87349526  -0.00780200  0.44959895  1
  Ce3+  Ce19  1  0.76368591  0.64373634  0.06320377  1
  Ce3+  Ce20  1  0.13972458  0.51966151  0.94256028  1
  Ce3+  Ce21  1  0.25154632  0.86775321  0.55732868  1
  Ce3+  Ce22  1  0.62648330  0.51738030  0.93317558  1
  Ce3+  Ce23  1  0.75645544  0.61822180  0.57124359  1
  Ce3+  Ce24  1  0.49871319  0.11317283  0.55879257  1
  Ce3+  Ce25  1  0.38468109  0.01816341  0.94367009  1
  Ce3+  Ce26  1  0.51106741  0.39637805  0.06261125  1
  Ce3+  Ce27  1  0.12192909  -0.00486155  0.43869204  1
  Ce3+  Ce28  1  0.62586307  -0.00847548  0.44794005  1
  Ce3+  Ce29  1  0.00998380  0.39637077  0.06359354  1
  Ce3+  Ce30  1  0.37399801  0.74148383  0.44529663  1
  Ce3+  Ce31  1  0.00685282  0.89750795  0.05207131  1
  Ce3+  Ce32  1  0.38050934  0.52271615  0.92985186  1
  Ce3+  Ce33  1  0.13614068  0.27187347  0.94703140  1
  Ce3+  Ce34  1  0.88387294  0.51748979  0.93227099  1
  Ce3+  Ce35  1  0.76183827  0.39329095  0.06016021  1
  Ce3+  Ce36  1  0.13373399  0.02154477  0.93862663  1
  Ce3+  Ce37  1  0.25825100  0.89242221  0.05446646  1
  Pr3+  Pr38  1  0.12329508  0.23751787  0.42687349  1
  Pr3+  Pr39  1  0.63977421  0.01969338  0.94334383  1
  Pr3+  Pr40  1  0.00820575  0.14482006  0.06410931  1
  Pr3+  Pr41  1  0.64035320  0.76654934  0.92687879  1
  Pr3+  Pr42  1  0.01058662  0.64617529  0.06555107  1
  Pr3+  Pr43  1  0.38422605  0.27204141  0.93730733  1
  Pr3+  Pr44  1  0.37456241  0.50008109  0.44541428  1
  Pr3+  Pr45  1  0.37405255  0.24712725  0.43279331  1
  Pr3+  Pr46  1  0.51370507  0.89391628  0.05501585  1
  Pr3+  Pr47  1  0.62135909  0.49524622  0.45692253  1
  Pr3+  Pr48  1  0.74753023  0.12567776  0.56902115  1
  Pr3+  Pr49  1  0.12949729  0.76733427  0.93205321  1
  Nd3+  Nd50  1  0.25980897  0.14428688  0.06381989  1
  Nd3+  Nd51  1  0.26143942  0.65181380  0.07109934  1
  Nd3+  Nd52  1  0.63635878  0.26688686  0.94595234  1
  Nd3+  Nd53  1  0.37924593  0.76730598  0.92634035  1
  Nd3+  Nd54  1  0.51133071  0.14287159  0.06003745  1
  Nd3+  Nd55  1  0.49981970  0.86825517  0.56531506  1
  Nd3+  Nd56  1  0.89266731  0.02768609  0.91196776  1
  Nd3+  Nd57  1  0.12426347  0.74252209  0.43745411  1
  Sm3+  Sm58  1  0.00459424  0.61374182  0.55698599  1
  Sm3+  Sm59  1  0.25311596  0.11713171  0.55935513  1
  Sm3+  Sm60  1  0.88322704  0.76787288  0.93200585  1
  Sm3+  Sm61  1  0.62354053  0.74256090  0.45262510  1
  Sm3+  Sm62  1  0.76358668  0.89491206  0.05332224  1
  Sm3+  Sm63  1  0.00205345  0.36203421  0.54145631  1
  Bi2+  Bi64  1  0.01534720  0.06746424  0.28258568  1
  Bi2+  Bi65  1  0.02831751  0.17518238  0.78907400  1
  Bi2+  Bi66  1  0.06617523  0.32213169  0.26123145  1
  Bi2+  Bi67  1  -0.03584706  0.40908595  0.75364437  1
  Bi2+  Bi68  1  -0.02434286  0.63669493  0.30105608  1
  Bi2+  Bi69  1  0.02875902  0.56239599  0.82791816  1
  Bi2+  Bi70  1  0.04611152  0.89061142  0.32667302  1
  Bi2+  Bi71  1  0.01121520  0.75487403  0.81637080  1
  Bi2+  Bi72  1  0.24293446  0.14616096  0.28422851  1
  Bi2+  Bi73  1  0.27635739  0.09492450  0.72962941  1
  Bi2+  Bi74  1  0.31115405  0.37162395  0.28795805  1
  Bi2+  Bi75  1  0.22912569  0.36321444  0.79225247  1
  Bi2+  Bi76  1  0.28182144  0.65311384  0.29868459  1
  Bi2+  Bi77  1  0.25200976  0.63469922  0.79692985  1
  Bi2+  Bi78  1  0.22174197  0.87143577  0.28217861  1
  Bi2+  Bi79  1  0.27077268  0.90083636  0.78427897  1
  Bi2+  Bi80  1  0.47638540  0.04818416  0.28897128  1
  Bi2+  Bi81  1  0.45107220  0.13241974  0.78260175  1
  Bi2+  Bi82  1  0.48938812  0.30611576  0.32060598  1
  Bi2+  Bi83  1  0.50430520  0.35596624  0.78637767  1
  Bi2+  Bi84  1  0.49630252  0.50444801  0.27910638  1
  Bi2+  Bi85  1  0.52199388  0.60975258  0.79461469  1
  Bi2+  Bi86  1  0.51549903  0.81895598  0.28459809  1
  Bi2+  Bi87  1  0.46555586  0.88208277  0.78587135  1
  Bi2+  Bi88  1  0.74462287  0.09952051  0.29282294  1
  Bi2+  Bi89  1  0.74350634  0.12401814  0.79478399  1
  Bi2+  Bi90  1  0.67362998  0.38349792  0.29532672  1
  Bi2+  Bi91  1  0.76095917  0.33334621  0.78885991  1
  Bi2+  Bi92  1  0.73107750  0.64799589  0.32522627  1
  Bi2+  Bi93  1  0.83851706  0.61999176  0.81340016  1
  Bi2+  Bi94  1  0.77114803  0.88227104  0.25803347  1
  Bi2+  Bi95  1  0.72142792  0.89530771  0.79378646  1
  Bi2+  Bi96  1  0.13789335  -0.06091986  0.17176640  1
  Bi2+  Bi97  1  0.10965543  -0.00642757  0.74649800  1
  Bi2+  Bi98  1  0.14001396  0.13673701  0.18457687  1
  Bi2+  Bi99  1  0.11591213  0.28237718  0.70908554  1
  Bi2+  Bi100  1  0.06385970  0.53062460  0.19436712  1
  Bi2+  Bi101  1  0.11913144  0.52774936  0.72416509  1
  Bi2+  Bi102  1  0.05879623  0.78437979  0.23206188  1
  Bi2+  Bi103  1  0.10506219  0.75397416  0.71643337  1
  Bi2+  Bi104  1  0.30804832  0.01180737  0.21407206  1
  Bi2+  Bi105  1  0.37013597  -0.00782098  0.64681434  1
  Bi2+  Bi106  1  0.40197598  0.25850168  0.21026660  1
  Bi2+  Bi107  1  0.37746401  0.26286648  0.69956789  1
  Bi2+  Bi108  1  0.33385284  0.51704927  0.20681326  1
  Bi2+  Bi109  1  0.33862471  0.49923819  0.72133608  1
  Bi2+  Bi110  1  0.37364836  0.76706146  0.20701230  1
  Bi2+  Bi111  1  0.35907971  0.79762168  0.70062981  1
  Bi2+  Bi112  1  0.60717853  -0.05040471  0.20600715  1
  Bi2+  Bi113  1  0.54054213  0.00649985  0.70711105  1
  Bi2+  Bi114  1  0.59497022  0.23718134  0.21228894  1
  Bi2+  Bi115  1  0.62792413  0.18801482  0.71554536  1
  Bi2+  Bi116  1  0.60720762  0.43710890  0.18804615  1
  Bi2+  Bi117  1  0.70239739  0.49733285  0.73697561  1
  Bi2+  Bi118  1  0.58557577  0.66200487  0.23107357  1
  Bi2+  Bi119  1  0.63645081  0.74872151  0.71787159  1
  Bi2+  Bi120  1  0.89816579  -0.00861347  0.20865641  1
  Bi2+  Bi121  1  0.91479362  -0.00700185  0.71858852  1
  Bi2+  Bi122  1  0.87987718  0.26724626  0.21696134  1
  Bi2+  Bi123  1  0.86441393  0.24933327  0.69848209  1
  Bi2+  Bi124  1  0.77696025  0.50867641  0.23229462  1
  Bi2+  Bi125  1  0.86136239  0.50933559  0.67289913  1
  Bi2+  Bi126  1  0.78676593  0.70652130  0.20563807  1
  Bi2+  Bi127  1  0.90214097  0.69265303  0.71688057  1
  S2-  S128  1  -0.08408176  0.13887065  0.15194956  1
  S2-  S129  1  0.04126912  0.02374791  0.65167970  1
  S2-  S130  1  -0.01429775  0.37857072  0.16340372  1
  S2-  S131  1  -0.00006205  0.27893576  0.63132388  1
  S2-  S132  1  -0.11492484  0.63596557  0.13886691  1
  S2-  S133  1  0.09633944  0.63205416  0.64278568  1
  S2-  S134  1  -0.02163232  0.86641656  0.14816692  1
  S2-  S135  1  -0.09653990  0.85653867  0.66612027  1
  S2-  S136  1  0.26315934  0.24115807  0.14634501  1
  S2-  S137  1  0.23604024  0.22777331  0.63756738  1
  S2-  S138  1  0.19047342  0.43815253  0.16964647  1
  S2-  S139  1  0.23443524  0.46017990  0.65026401  1
  S2-  S140  1  0.13018901  0.64924051  0.14367520  1
  S2-  S141  1  0.35111570  0.63660923  0.65875422  1
  S2-  S142  1  0.26352445  0.81042389  0.13990582  1
  S2-  S143  1  0.17059437  0.85066595  0.64439169  1
  S2-  S144  1  0.48915710  0.13380528  0.15892070  1
  S2-  S145  1  0.50836268  0.20890957  0.64005793  1
  S2-  S146  1  0.41567536  0.40153272  0.14383311  1
  S2-  S147  1  0.47054868  0.40435027  0.67854335  1
  S2-  S148  1  0.39436026  0.63570770  0.14059771  1
  S2-  S149  1  0.57843366  0.59043356  0.69200698  1
  S2-  S150  1  0.50013594  0.85758515  0.15317094  1
  S2-  S151  1  0.51069682  0.78016775  0.65306032  1
  S2-  S152  1  0.69899939  0.10659531  0.18783950  1
  S2-  S153  1  0.84483135  0.09965177  0.65393001  1
  S2-  S154  1  0.77507254  0.30687666  0.14727742  1
  S2-  S155  1  0.72582512  0.27381816  0.64223999  1
  S2-  S156  1  0.64441256  0.65849873  0.13800755  1
  S2-  S157  1  0.75308320  0.70947681  0.65514756  1
  S2-  S158  1  0.73953936  0.87841067  0.15115367  1
  S2-  S159  1  0.68810445  0.91366564  0.68898118  1
  S2-  S160  1  0.12647888  0.10139078  0.35754529  1
  S2-  S161  1  0.07079709  0.03266563  0.84844686  1
  S2-  S162  1  0.16593413  0.32778405  0.34271994  1
  S2-  S163  1  0.10533188  0.29065638  0.85064597  1
  S2-  S164  1  0.06153180  0.48456942  0.29638670  1
  S2-  S165  1  0.24294968  0.49654399  0.86193920  1
  S2-  S166  1  0.12836612  0.65477314  0.35049308  1
  S2-  S167  1  0.24109529  0.77523315  0.85436566  1
  S2-  S168  1  0.40549775  -0.08362590  0.33648658  1
  S2-  S169  1  0.37194693  0.01569537  0.84605392  1
  S2-  S170  1  0.37233013  0.13136825  0.35323710  1
  S2-  S171  1  0.36659447  0.27751460  0.83578844  1
  S2-  S172  1  0.29369408  0.50356451  0.35292875  1
  S2-  S173  1  0.49318817  0.47432995  0.85385995  1
  S2-  S174  1  0.40778824  0.68089857  0.35596346  1
  S2-  S175  1  0.39240026  0.64648619  0.85217312  1
  S2-  S176  1  0.61392500  0.06009506  0.35534683  1
  S2-  S177  1  0.63638121  0.01979709  0.84175609  1
  S2-  S178  1  0.73622517  0.24244748  0.34699437  1
  S2-  S179  1  0.61813690  0.28177081  0.84582792  1
  S2-  S180  1  0.61543163  0.52858911  0.35737254  1
  S2-  S181  1  0.67587110  0.55701336  0.83928736  1
  S2-  S182  1  0.64078723  0.77662656  0.35475146  1
  S2-  S183  1  0.55981001  0.76886914  0.83310225  1
  S2-  S184  1  0.86274258  0.06260931  0.35786278  1
  S2-  S185  1  0.86407700  -0.04408730  0.81958425  1
  S2-  S186  1  0.94791597  0.27079259  0.31780363  1
  S2-  S187  1  0.88909191  0.16825362  0.84825488  1
  S2-  S188  1  0.85826438  0.51531637  0.32932837  1
  S2-  S189  1  0.87529163  0.39966962  0.85567930  1
  S2-  S190  1  0.87450042  0.74565161  0.34762851  1
  S2-  S191  1  0.77006277  0.76672509  0.85523481  1
  S2-  S192  1  -0.00270626  0.11486352  0.45767112  1
  S2-  S193  1  0.01180082  0.14488468  0.95677950  1
  S2-  S194  1  -0.00038556  0.36964672  0.43724202  1
  S2-  S195  1  0.01426192  0.39802399  0.95680692  1
  S2-  S196  1  0.00142422  0.61435708  0.45166795  1
  S2-  S197  1  0.00587497  0.64420358  0.95533480  1
  S2-  S198  1  0.00153898  0.86979004  0.46091712  1
  S2-  S199  1  0.00378838  0.89636472  0.94505408  1
  S2-  S200  1  0.25184292  0.11916567  0.45612790  1
  S2-  S201  1  0.25995152  0.14402561  0.95414360  1
  S2-  S202  1  0.25128657  0.37019773  0.45465123  1
  S2-  S203  1  0.26094507  0.39019851  0.96409330  1
  S2-  S204  1  0.24749800  0.61971256  0.46171189  1
  S2-  S205  1  0.25589369  0.64747841  0.96108135  1
  S2-  S206  1  0.24878407  0.86820621  0.44707561  1
  S2-  S207  1  0.25686034  0.89769777  0.95013487  1
  S2-  S208  1  0.50045160  0.11856590  0.45525935  1
  S2-  S209  1  0.50938927  0.14330108  0.95170665  1
  S2-  S210  1  0.49832038  0.36982602  0.45854103  1
  S2-  S211  1  0.50995653  0.38859457  0.95921957  1
  S2-  S212  1  0.50106047  0.62208302  0.46876334  1
  S2-  S213  1  0.51257261  0.64784513  0.95402307  1
  S2-  S214  1  0.50144630  0.86659821  0.45754477  1
  S2-  S215  1  0.50995679  0.89315426  0.94729516  1
  S2-  S216  1  0.74723869  0.11488100  0.46115294  1
  S2-  S217  1  0.76236477  0.14395236  0.94847418  1
  S2-  S218  1  0.74835004  0.37029224  0.45005603  1
  S2-  S219  1  0.75344012  0.39567224  0.95492515  1
  S2-  S220  1  0.74907564  0.61918044  0.46294300  1
  S2-  S221  1  0.76125921  0.63957855  0.95483819  1
  S2-  S222  1  0.74824315  0.86761109  0.45953311  1
  S2-  S223  1  0.76960459  0.90234725  0.94857301  1
  S2-  S224  1  0.13426804  0.02103994  0.04488025  1
  S2-  S225  1  0.13198360  -0.00300780  0.54316227  1
  S2-  S226  1  0.13211336  0.27055033  0.05173616  1
  S2-  S227  1  0.12416017  0.23829698  0.53340844  1
  S2-  S228  1  0.13647937  0.51794681  0.04698731  1
  S2-  S229  1  0.11779903  0.48451423  0.54595868  1
  S2-  S230  1  0.13012415  0.77444745  0.03844878  1
  S2-  S231  1  0.12441429  0.74231647  0.54166183  1
  S2-  S232  1  0.38445354  0.01901280  0.05130802  1
  S2-  S233  1  0.37500747  -0.00807981  0.53500742  1
  S2-  S234  1  0.38875488  0.26392477  0.04399841  1
  S2-  S235  1  0.37723623  0.23871927  0.53998271  1
  S2-  S236  1  0.38653898  0.52090822  0.03902043  1
  S2-  S237  1  0.38137683  0.49026312  0.55354378  1
  S2-  S238  1  0.38641500  0.77344226  0.03518326  1
  S2-  S239  1  0.37354484  0.74477952  0.55055721  1
  S2-  S240  1  0.64092809  0.02218204  0.05133653  1
  S2-  S241  1  0.62859346  -0.00946595  0.55727762  1
  S2-  S242  1  0.63568600  0.26462087  0.05207767  1
  S2-  S243  1  0.62371826  0.24473376  0.53589696  1
  S2-  S244  1  0.63682481  0.51571373  0.04320701  1
  S2-  S245  1  0.62579562  0.49287717  0.56477005  1
  S2-  S246  1  0.64044049  0.77519028  0.03540860  1
  S2-  S247  1  0.62985960  0.74438070  0.55593964  1
  S2-  S248  1  0.87994706  0.02177386  0.04771828  1
  S2-  S249  1  0.87405634  -0.01271470  0.55338525  1
  S2-  S250  1  0.88569426  0.26994177  0.04144569  1
  S2-  S251  1  0.87262459  0.24256218  0.53139639  1
  S2-  S252  1  0.88506129  0.51396400  0.04042405  1
  S2-  S253  1  0.88124383  0.49154410  0.53993816  1
  S2-  S254  1  0.88372030  0.77219466  0.03708028  1
  S2-  S255  1  0.88467451  0.74105505  0.55585558  1
