# generated using pymatgen
data_La9Ce10Pr6Nd4Sm3(BiS2)32
_symmetry_space_group_name_H-M   'P 1'
_cell_length_a   16.17061660
_cell_length_b   16.18175932
_cell_length_c   27.20044785
_cell_angle_alpha   90.38716563
_cell_angle_beta   90.27088051
_cell_angle_gamma   90.00453629
_symmetry_Int_Tables_number   1
_chemical_formula_structural   La9Ce10Pr6Nd4Sm3(BiS2)32
_chemical_formula_sum   'La18 Ce20 Pr12 Nd8 Sm6 Bi64 S128'
_cell_volume   7117.27260548
_cell_formula_units_Z   2
loop_
 _symmetry_equiv_pos_site_id
 _symmetry_equiv_pos_as_xyz
  1  'x, y, z'
loop_
 _atom_type_symbol
 _atom_type_oxidation_number
  La3+  3.0
  Ce3+  3.0
  Pr3+  3.0
  Nd3+  3.0
  Sm3+  3.0
  Bi2+  2.0
  S2-  -2.0
loop_
 _atom_site_type_symbol
 _atom_site_label
 _atom_site_symmetry_multiplicity
 _atom_site_fract_x
 _atom_site_fract_y
 _atom_site_fract_z
 _atom_site_occupancy
  La3+  La0  1  0.02271021  0.60764525  0.55021272  1
  La3+  La1  1  0.26298092  0.36663980  0.56567158  1
  La3+  La2  1  0.47559621  0.39463617  0.07596103  1
  La3+  La3  1  0.14720439  0.23265888  0.42475473  1
  La3+  La4  1  0.75985816  0.12431638  0.60383905  1
  La3+  La5  1  0.01984628  0.11193619  0.56479770  1
  La3+  La6  1  0.14771272  -0.01888322  0.42655344  1
  La3+  La7  1  0.85558179  0.27008285  0.93129187  1
  La3+  La8  1  0.89568886  0.22438367  0.41943081  1
  La3+  La9  1  -0.01661276  0.64272658  0.06100771  1
  La3+  La10  1  0.35022369  0.01696713  0.92182964  1
  La3+  La11  1  0.23286707  0.64306919  0.06310130  1
  La3+  La12  1  0.40231885  0.47763202  0.42446469  1
  La3+  La13  1  0.48287777  0.90202569  0.07276876  1
  La3+  La14  1  0.02329100  0.85985194  0.56718725  1
  La3+  La15  1  0.64072791  0.22716757  0.41819818  1
  La3+  La16  1  0.64666354  -0.01792549  0.44442050  1
  La3+  La17  1  0.48274595  0.64493808  0.06380424  1
  Ce3+  Ce18  1  0.60733434  0.26600032  0.95200280  1
  Ce3+  Ce19  1  0.85763844  0.51008169  0.93972363  1
  Ce3+  Ce20  1  0.77116608  0.61232903  0.56484279  1
  Ce3+  Ce21  1  0.14624032  0.73828944  0.43483663  1
  Ce3+  Ce22  1  0.26718072  0.11180807  0.56145059  1
  Ce3+  Ce23  1  0.10696389  0.51500685  0.93697471  1
  Ce3+  Ce24  1  0.39334080  0.23782855  0.44407657  1
  Ce3+  Ce25  1  0.73774011  0.14854933  0.07026124  1
  Ce3+  Ce26  1  0.48352288  0.13696600  0.05396588  1
  Ce3+  Ce27  1  0.10584128  0.76472647  0.94049898  1
  Ce3+  Ce28  1  -0.01738211  0.14014649  0.05955830  1
  Ce3+  Ce29  1  0.23380463  0.13805016  0.05734802  1
  Ce3+  Ce30  1  0.52155652  0.11137109  0.55980966  1
  Ce3+  Ce31  1  0.39678650  0.73125741  0.44355244  1
  Ce3+  Ce32  1  0.52237497  0.86337733  0.56669714  1
  Ce3+  Ce33  1  0.77132225  0.35344927  0.54199485  1
  Ce3+  Ce34  1  0.61170214  0.76703988  0.94816817  1
  Ce3+  Ce35  1  0.23488790  0.39235894  0.05387155  1
  Ce3+  Ce36  1  0.10513738  0.26728660  0.94863060  1
  Ce3+  Ce37  1  0.26881127  0.86220969  0.56562353  1
  Pr3+  Pr38  1  0.73561631  0.63785580  0.06945565  1
  Pr3+  Pr39  1  0.52479353  0.35766122  0.56317565  1
  Pr3+  Pr40  1  0.89130911  -0.01696235  0.44425929  1
  Pr3+  Pr41  1  0.88994289  0.74027447  0.43631929  1
  Pr3+  Pr42  1  0.51988382  0.60351597  0.57158057  1
  Pr3+  Pr43  1  0.85693304  0.76179219  0.93607291  1
  Pr3+  Pr44  1  0.27492412  0.60752786  0.55796967  1
  Pr3+  Pr45  1  0.73453206  0.39023489  0.07225563  1
  Pr3+  Pr46  1  0.84975153  0.02202158  0.90687765  1
  Pr3+  Pr47  1  0.35957519  0.26932532  0.94065029  1
  Pr3+  Pr48  1  0.36419173  0.77353027  0.93520045  1
  Pr3+  Pr49  1  0.77943243  0.85923946  0.58953908  1
  Nd3+  Nd50  1  0.60671753  0.51252729  0.94188257  1
  Nd3+  Nd51  1  0.61167642  0.01563925  0.93580658  1
  Nd3+  Nd52  1  0.10127301  0.01717398  0.93408555  1
  Nd3+  Nd53  1  -0.01254818  0.39224761  0.07009071  1
  Nd3+  Nd54  1  0.14759657  0.48271479  0.41593507  1
  Nd3+  Nd55  1  0.73611414  0.89660345  0.05968793  1
  Nd3+  Nd56  1  0.89189694  0.48848022  0.43244061  1
  Nd3+  Nd57  1  0.01934268  0.35877630  0.54257466  1
  Sm3+  Sm58  1  0.39478709  -0.01748947  0.44994965  1
  Sm3+  Sm59  1  0.64436068  0.73967897  0.44878863  1
  Sm3+  Sm60  1  0.64461990  0.48759627  0.43754535  1
  Sm3+  Sm61  1  -0.01913535  0.89425464  0.05005542  1
  Sm3+  Sm62  1  0.23227691  0.89431695  0.05205806  1
  Sm3+  Sm63  1  0.35848841  0.52461269  0.93237532  1
  Bi2+  Bi64  1  0.02283059  0.13381860  0.28629714  1
  Bi2+  Bi65  1  0.01145040  0.12437762  0.80546847  1
  Bi2+  Bi66  1  0.02667703  0.39065403  0.28098058  1
  Bi2+  Bi67  1  -0.00497588  0.38707041  0.80552239  1
  Bi2+  Bi68  1  -0.07477376  0.69499062  0.29307194  1
  Bi2+  Bi69  1  0.01882137  0.60611700  0.78917735  1
  Bi2+  Bi70  1  0.00523562  0.88355571  0.29083753  1
  Bi2+  Bi71  1  0.08528818  0.88219760  0.78501006  1
  Bi2+  Bi72  1  0.29643996  0.12055190  0.29534768  1
  Bi2+  Bi73  1  0.29956296  0.09074046  0.78947769  1
  Bi2+  Bi74  1  0.25965266  0.44669232  0.28536434  1
  Bi2+  Bi75  1  0.26254007  0.28547697  0.75640236  1
  Bi2+  Bi76  1  0.20437893  0.67485959  0.26027466  1
  Bi2+  Bi77  1  0.26065598  0.63512916  0.76976962  1
  Bi2+  Bi78  1  0.20236427  0.88779400  0.26100298  1
  Bi2+  Bi79  1  0.27303779  0.82518391  0.79915814  1
  Bi2+  Bi80  1  0.51149576  0.13723807  0.28238698  1
  Bi2+  Bi81  1  0.49830551  0.12706665  0.78720898  1
  Bi2+  Bi82  1  0.50745410  0.36368324  0.29144631  1
  Bi2+  Bi83  1  0.50665496  0.37652494  0.80432730  1
  Bi2+  Bi84  1  0.48334276  0.63525137  0.30597338  1
  Bi2+  Bi85  1  0.47102181  0.58837330  0.79890356  1
  Bi2+  Bi86  1  0.51273899  0.95095629  0.31741949  1
  Bi2+  Bi87  1  0.51365668  0.84954842  0.78281855  1
  Bi2+  Bi88  1  0.77764858  0.07103320  0.28287250  1
  Bi2+  Bi89  1  0.69344877  0.15115316  0.80677548  1
  Bi2+  Bi90  1  0.75635698  0.47321754  0.29912900  1
  Bi2+  Bi91  1  0.71479822  0.37090766  0.72631741  1
  Bi2+  Bi92  1  0.74520395  0.64762280  0.34594296  1
  Bi2+  Bi93  1  0.83132885  0.58754372  0.81289867  1
  Bi2+  Bi94  1  0.74891356  0.86839277  0.29534090  1
  Bi2+  Bi95  1  0.71232079  0.83983037  0.78766628  1
  Bi2+  Bi96  1  0.11366030  0.01021782  0.18336165  1
  Bi2+  Bi97  1  0.11564896  0.03828518  0.71882114  1
  Bi2+  Bi98  1  0.18362530  0.23690010  0.23453154  1
  Bi2+  Bi99  1  0.08760770  0.24035201  0.71789199  1
  Bi2+  Bi100  1  0.14435619  0.47935540  0.18144433  1
  Bi2+  Bi101  1  0.08346179  0.49785103  0.68974080  1
  Bi2+  Bi102  1  0.04880808  0.74483025  0.20589801  1
  Bi2+  Bi103  1  0.14006244  0.73929577  0.70496084  1
  Bi2+  Bi104  1  0.37150209  -0.03177601  0.20189967  1
  Bi2+  Bi105  1  0.30616014  -0.04103809  0.69147418  1
  Bi2+  Bi106  1  0.37918585  0.24666917  0.22569152  1
  Bi2+  Bi107  1  0.36762756  0.15099629  0.68375079  1
  Bi2+  Bi108  1  0.38746278  0.51732815  0.19838413  1
  Bi2+  Bi109  1  0.38150424  0.47820637  0.68670409  1
  Bi2+  Bi110  1  0.37403484  0.78028107  0.24986769  1
  Bi2+  Bi111  1  0.35024103  0.76527270  0.69783713  1
  Bi2+  Bi112  1  0.60038119  -0.03489368  0.19991261  1
  Bi2+  Bi113  1  0.50478077  -0.00154189  0.69995690  1
  Bi2+  Bi114  1  0.66511616  0.21923649  0.22465346  1
  Bi2+  Bi115  1  0.54500990  0.27354085  0.71031506  1
  Bi2+  Bi116  1  0.62404467  0.51115028  0.21653822  1
  Bi2+  Bi117  1  0.71561697  0.57247192  0.71993650  1
  Bi2+  Bi118  1  0.63977151  0.71098311  0.25422091  1
  Bi2+  Bi119  1  0.55952812  0.69146578  0.71642895  1
  Bi2+  Bi120  1  0.86982356  -0.05404285  0.21345855  1
  Bi2+  Bi121  1  0.87107859  -0.01109421  0.72187991  1
  Bi2+  Bi122  1  0.88187316  0.21409338  0.22164003  1
  Bi2+  Bi123  1  0.87044852  0.24163455  0.71437476  1
  Bi2+  Bi124  1  0.87151854  0.54592143  0.21637018  1
  Bi2+  Bi125  1  0.88968925  0.47377462  0.71284467  1
  Bi2+  Bi126  1  0.81139644  0.72605659  0.19621811  1
  Bi2+  Bi127  1  0.89864254  0.74046858  0.71151984  1
  S2-  S128  1  -0.01862265  0.12786270  0.15893478  1
  S2-  S129  1  -0.08103143  0.11948586  0.65031477  1
  S2-  S130  1  0.02088177  0.37290548  0.17033324  1
  S2-  S131  1  0.06123401  0.35291181  0.64049321  1
  S2-  S132  1  0.01533442  0.58628462  0.15517991  1
  S2-  S133  1  0.01384204  0.65082525  0.64890374  1
  S2-  S134  1  -0.00709603  0.88603834  0.14837025  1
  S2-  S135  1  -0.07185428  0.86935909  0.65411032  1
  S2-  S136  1  0.21856389  0.12741329  0.15587663  1
  S2-  S137  1  0.15340216  0.12603581  0.63666253  1
  S2-  S138  1  0.29654419  0.39941038  0.14408465  1
  S2-  S139  1  0.32469115  0.32127251  0.65981329  1
  S2-  S140  1  0.26569834  0.62651702  0.16189644  1
  S2-  S141  1  0.22702873  0.50195238  0.63627527  1
  S2-  S142  1  0.23336497  0.89155736  0.15026590  1
  S2-  S143  1  0.15352319  0.86920302  0.63945131  1
  S2-  S144  1  0.46690541  0.04942377  0.13762429  1
  S2-  S145  1  0.59465672  0.14667467  0.64576472  1
  S2-  S146  1  0.53387714  0.38902600  0.17206569  1
  S2-  S147  1  0.52515346  0.46706340  0.64409262  1
  S2-  S148  1  0.50278231  0.61102535  0.16154980  1
  S2-  S149  1  0.38954702  0.62334975  0.64054749  1
  S2-  S150  1  0.47646132  0.83850338  0.16790685  1
  S2-  S151  1  0.54596296  0.83430035  0.66233944  1
  S2-  S152  1  0.68673924  0.08313148  0.15826504  1
  S2-  S153  1  0.75815411  0.11143768  0.71604534  1
  S2-  S154  1  0.76545983  0.28018606  0.15175341  1
  S2-  S155  1  0.77042640  0.29831591  0.63471452  1
  S2-  S156  1  0.74714037  0.51688058  0.14430883  1
  S2-  S157  1  0.77897485  0.70280854  0.65046107  1
  S2-  S158  1  0.72694458  0.87407818  0.15874681  1
  S2-  S159  1  0.74351938  0.90890460  0.68963175  1
  S2-  S160  1  0.14175555  0.10350860  0.35062920  1
  S2-  S161  1  0.20124075  0.01707960  0.85479209  1
  S2-  S162  1  0.15775755  0.34613964  0.34569748  1
  S2-  S163  1  0.08810244  0.26240495  0.85182863  1
  S2-  S164  1  0.13352928  0.55442513  0.31910338  1
  S2-  S165  1  0.12016526  0.49191549  0.83934713  1
  S2-  S166  1  0.14572449  0.84556774  0.35743616  1
  S2-  S167  1  0.07653674  0.74684659  0.84493369  1
  S2-  S168  1  0.36191974  -0.00770671  0.35291410  1
  S2-  S169  1  0.39978350  -0.10733107  0.85545254  1
  S2-  S170  1  0.39567461  0.32243263  0.35817320  1
  S2-  S171  1  0.34370220  0.24384635  0.84144999  1
  S2-  S172  1  0.34196292  0.55652525  0.33925313  1
  S2-  S173  1  0.37862077  0.45595918  0.84125820  1
  S2-  S174  1  0.41691722  0.77946459  0.34986335  1
  S2-  S175  1  0.34899343  0.65972324  0.85857380  1
  S2-  S176  1  0.62757783  0.07586667  0.35405890  1
  S2-  S177  1  0.70238067  -0.00663807  0.84960410  1
  S2-  S178  1  0.65611606  0.29682940  0.32243459  1
  S2-  S179  1  0.63232388  0.28801945  0.85699087  1
  S2-  S180  1  0.54458202  0.49286330  0.35646336  1
  S2-  S181  1  0.60250578  0.51046755  0.84137585  1
  S2-  S182  1  0.63578145  0.85249338  0.36979153  1
  S2-  S183  1  0.60867328  0.75135718  0.85027011  1
  S2-  S184  1  0.89853904  0.07819564  0.35274785  1
  S2-  S185  1  0.94042766  -0.02797064  0.82343397  1
  S2-  S186  1  0.92553988  0.27796834  0.31941417  1
  S2-  S187  1  0.85225390  0.16759096  0.84757236  1
  S2-  S188  1  0.92495498  0.48212853  0.33320434  1
  S2-  S189  1  0.85476639  0.40385173  0.86132704  1
  S2-  S190  1  0.88212281  0.86455569  0.36432650  1
  S2-  S191  1  0.83448208  0.76182456  0.83451085  1
  S2-  S192  1  0.02162979  0.10631488  0.45512031  1
  S2-  S193  1  -0.02047505  0.13863584  0.95268791  1
  S2-  S194  1  0.01509873  0.36192400  0.43876108  1
  S2-  S195  1  -0.01369594  0.39287213  0.96177980  1
  S2-  S196  1  0.01828302  0.61335385  0.44079539  1
  S2-  S197  1  -0.01831519  0.63797192  0.95190128  1
  S2-  S198  1  0.02071637  0.85757780  0.45959649  1
  S2-  S199  1  -0.02233139  0.89253094  0.94568708  1
  S2-  S200  1  0.27427527  0.10971519  0.45511136  1
  S2-  S201  1  0.23047475  0.14499599  0.95238211  1
  S2-  S202  1  0.26853190  0.36281877  0.45441225  1
  S2-  S203  1  0.23526215  0.39370058  0.94807558  1
  S2-  S204  1  0.26712454  0.61127500  0.44968649  1
  S2-  S205  1  0.22958114  0.64104581  0.95517599  1
  S2-  S206  1  0.27468874  0.85798586  0.45826029  1
  S2-  S207  1  0.22887756  0.88740312  0.94884071  1
  S2-  S208  1  0.51283138  0.10891771  0.45484249  1
  S2-  S209  1  0.48274304  0.13772803  0.94679251  1
  S2-  S210  1  0.52960013  0.35626916  0.45587292  1
  S2-  S211  1  0.48121211  0.39346234  0.96138196  1
  S2-  S212  1  0.52485425  0.61271549  0.46082272  1
  S2-  S213  1  0.48644209  0.64127743  0.95588727  1
  S2-  S214  1  0.51558786  0.85973906  0.46405623  1
  S2-  S215  1  0.49079941  0.89278274  0.96149563  1
  S2-  S216  1  0.76717947  0.11098475  0.44798070  1
  S2-  S217  1  0.73327774  0.14061565  0.95886365  1
  S2-  S218  1  0.76877341  0.36075906  0.43678267  1
  S2-  S219  1  0.72941768  0.39160949  0.96467460  1
  S2-  S220  1  0.76757720  0.61095658  0.45958437  1
  S2-  S221  1  0.73338266  0.63725093  0.95945521  1
  S2-  S222  1  0.76736833  0.85661365  0.47185163  1
  S2-  S223  1  0.73898525  0.89166072  0.95412963  1
  S2-  S224  1  0.10703107  0.01406915  0.04011789  1
  S2-  S225  1  0.14952879  -0.01361542  0.53689731  1
  S2-  S226  1  0.11019988  0.26619473  0.05533338  1
  S2-  S227  1  0.14563695  0.23870131  0.53362200  1
  S2-  S228  1  0.10979047  0.51508489  0.04472561  1
  S2-  S229  1  0.14056967  0.48415660  0.52579806  1
  S2-  S230  1  0.10718003  0.77042542  0.04780404  1
  S2-  S231  1  0.14984043  0.73078633  0.54143685  1
  S2-  S232  1  0.35298184  0.01561979  0.03394053  1
  S2-  S233  1  0.39452106  -0.01332532  0.55530339  1
  S2-  S234  1  0.35908287  0.26202763  0.04889478  1
  S2-  S235  1  0.39636468  0.23678622  0.54834025  1
  S2-  S236  1  0.35799535  0.51959133  0.04095509  1
  S2-  S237  1  0.39896504  0.47970455  0.53744784  1
  S2-  S238  1  0.35710304  0.77164123  0.04785249  1
  S2-  S239  1  0.39781694  0.74036028  0.54732296  1
  S2-  S240  1  0.61358543  0.01894380  0.04188175  1
  S2-  S241  1  0.64920993  -0.01206858  0.55733597  1
  S2-  S242  1  0.60324867  0.26594338  0.05738022  1
  S2-  S243  1  0.64615387  0.23279102  0.53469752  1
  S2-  S244  1  0.60524743  0.51594240  0.04983523  1
  S2-  S245  1  0.65121022  0.48409628  0.54278596  1
  S2-  S246  1  0.61302232  0.76725448  0.05598684  1
  S2-  S247  1  0.64282575  0.73380257  0.55322240  1
  S2-  S248  1  0.85978765  0.01708568  0.05456967  1
  S2-  S249  1  0.89035343  -0.01239189  0.55073110  1
  S2-  S250  1  0.86581865  0.26874531  0.04431808  1
  S2-  S251  1  0.89608169  0.23491180  0.53317284  1
  S2-  S252  1  0.86381429  0.51412237  0.04675222  1
  S2-  S253  1  0.89359851  0.48394669  0.54115069  1
  S2-  S254  1  0.85817171  0.76706571  0.04601768  1
  S2-  S255  1  0.89572924  0.73282993  0.54367043  1
