# generated using pymatgen
data_La9Ce10Pr6Nd4Sm3(BiS2)32
_symmetry_space_group_name_H-M   'P 1'
_cell_length_a   16.22571393
_cell_length_b   16.21515303
_cell_length_c   27.19716946
_cell_angle_alpha   90.06631285
_cell_angle_beta   90.11446266
_cell_angle_gamma   90.01203776
_symmetry_Int_Tables_number   1
_chemical_formula_structural   La9Ce10Pr6Nd4Sm3(BiS2)32
_chemical_formula_sum   'La18 Ce20 Pr12 Nd8 Sm6 Bi64 S128'
_cell_volume   7155.62226038
_cell_formula_units_Z   2
loop_
 _symmetry_equiv_pos_site_id
 _symmetry_equiv_pos_as_xyz
  1  'x, y, z'
loop_
 _atom_type_symbol
 _atom_type_oxidation_number
  La3+  3.0
  Ce3+  3.0
  Pr3+  3.0
  Nd3+  3.0
  Sm3+  3.0
  Bi2+  2.0
  S2-  -2.0
loop_
 _atom_site_type_symbol
 _atom_site_label
 _atom_site_symmetry_multiplicity
 _atom_site_fract_x
 _atom_site_fract_y
 _atom_site_fract_z
 _atom_site_occupancy
  La3+  La0  1  -0.01434744  0.62973028  0.07373339  1
  La3+  La1  1  0.12645932  0.24396017  0.40611923  1
  La3+  La2  1  0.73420748  0.38647480  0.06840279  1
  La3+  La3  1  0.11416728  0.50142843  0.42217203  1
  La3+  La4  1  0.85843128  0.25091255  0.42614277  1
  La3+  La5  1  -0.01621913  0.13444818  0.08137151  1
  La3+  La6  1  0.49711173  0.63895487  0.09679756  1
  La3+  La7  1  -0.00261071  0.37731887  0.54915184  1
  La3+  La8  1  0.11564157  0.75654253  0.42116321  1
  La3+  La9  1  -0.01359969  0.88342172  0.06595216  1
  La3+  La10  1  0.25540972  0.11997186  0.08761661  1
  La3+  La11  1  0.48690368  0.88634621  0.06843403  1
  La3+  La12  1  0.24265533  0.88152789  0.55789415  1
  La3+  La13  1  0.86143080  0.00825074  0.92179550  1
  La3+  La14  1  0.61462839  0.26576385  0.92515972  1
  La3+  La15  1  0.24587520  0.13955290  0.56668151  1
  La3+  La16  1  0.23772942  0.62934453  0.08067552  1
  La3+  La17  1  0.37675299  0.24585950  0.42007614  1
  Ce3+  Ce18  1  0.11433750  0.25297229  0.95218574  1
  Ce3+  Ce19  1  0.61761064  0.00921403  0.93863164  1
  Ce3+  Ce20  1  0.74902108  0.62463552  0.55854768  1
  Ce3+  Ce21  1  0.86988221  0.75478450  0.43690931  1
  Ce3+  Ce22  1  0.24716220  0.37530172  0.54588544  1
  Ce3+  Ce23  1  0.37270925  0.75774972  0.43378553  1
  Ce3+  Ce24  1  0.74697252  0.88370572  0.05836067  1
  Ce3+  Ce25  1  -0.00837766  0.88073435  0.55605703  1
  Ce3+  Ce26  1  0.11973538  0.00901001  0.43915165  1
  Ce3+  Ce27  1  0.24011582  0.38058060  0.06579652  1
  Ce3+  Ce28  1  0.49713583  0.88118684  0.56264677  1
  Ce3+  Ce29  1  0.12229924  0.75453110  0.94034055  1
  Ce3+  Ce30  1  0.23190429  0.86780778  0.07494224  1
  Ce3+  Ce31  1  0.49297195  0.13684670  0.05260283  1
  Ce3+  Ce32  1  -0.00382597  0.63027403  0.55358503  1
  Ce3+  Ce33  1  0.86833308  0.25807765  0.93508820  1
  Ce3+  Ce34  1  0.37269709  0.00600536  0.44504012  1
  Ce3+  Ce35  1  0.36371990  0.51140080  0.95103953  1
  Ce3+  Ce36  1  0.61213615  0.50814281  0.93831233  1
  Ce3+  Ce37  1  0.74777691  0.38529975  0.56363934  1
  Pr3+  Pr38  1  0.75295866  0.13738904  0.58068559  1
  Pr3+  Pr39  1  0.36917536  0.50669496  0.42785730  1
  Pr3+  Pr40  1  -0.01349567  0.38020846  0.06783598  1
  Pr3+  Pr41  1  0.73985696  0.13850060  0.06093444  1
  Pr3+  Pr42  1  0.36145433  0.00797122  0.93550852  1
  Pr3+  Pr43  1  0.87789371  0.75330070  0.92300476  1
  Pr3+  Pr44  1  0.11569084  0.00813032  0.94883810  1
  Pr3+  Pr45  1  0.24419553  0.62876415  0.55069051  1
  Pr3+  Pr46  1  0.86003860  0.00431836  0.43491567  1
  Pr3+  Pr47  1  0.86710692  0.50462818  0.93511792  1
  Pr3+  Pr48  1  0.36391732  0.75736617  0.94370495  1
  Pr3+  Pr49  1  0.49394597  0.63019661  0.55522934  1
  Nd3+  Nd50  1  0.62150825  0.50464162  0.43732144  1
  Nd3+  Nd51  1  0.73772028  0.63508350  0.05865139  1
  Nd3+  Nd52  1  0.86762417  0.50476702  0.42837383  1
  Nd3+  Nd53  1  0.49681734  0.13531478  0.56526772  1
  Nd3+  Nd54  1  0.74272363  0.87922600  0.56911890  1
  Nd3+  Nd55  1  0.61589017  0.75875024  0.94258714  1
  Nd3+  Nd56  1  0.62152082  0.75525735  0.44210601  1
  Nd3+  Nd57  1  -0.00534255  0.13098888  0.55074751  1
  Sm3+  Sm58  1  0.36068699  0.25659965  0.94583274  1
  Sm3+  Sm59  1  0.62240223  0.00465111  0.45478323  1
  Sm3+  Sm60  1  0.48800221  0.38532273  0.05718515  1
  Sm3+  Sm61  1  0.49639001  0.38019543  0.55025585  1
  Sm3+  Sm62  1  0.62057230  0.25302845  0.44575761  1
  Sm3+  Sm63  1  0.11510395  0.50599402  0.94832910  1
  Bi2+  Bi64  1  0.00939722  0.12293729  0.28400292  1
  Bi2+  Bi65  1  -0.00131356  0.18053369  0.77999522  1
  Bi2+  Bi66  1  -0.05061401  0.41686569  0.26241645  1
  Bi2+  Bi67  1  -0.00902964  0.37235082  0.79255121  1
  Bi2+  Bi68  1  0.03710659  0.64073014  0.29430767  1
  Bi2+  Bi69  1  -0.00504133  0.59744705  0.79727742  1
  Bi2+  Bi70  1  -0.05361850  0.86668094  0.27301196  1
  Bi2+  Bi71  1  -0.01002541  0.80547221  0.76868384  1
  Bi2+  Bi72  1  0.27159120  0.12233715  0.28521200  1
  Bi2+  Bi73  1  0.23093013  0.11498409  0.81380771  1
  Bi2+  Bi74  1  0.30320116  0.36006535  0.25859080  1
  Bi2+  Bi75  1  0.26905620  0.33150298  0.77195700  1
  Bi2+  Bi76  1  0.28832365  0.59053562  0.29292639  1
  Bi2+  Bi77  1  0.25021060  0.61728886  0.79388825  1
  Bi2+  Bi78  1  0.28576153  0.92411545  0.28272824  1
  Bi2+  Bi79  1  0.20160206  0.85155766  0.78963564  1
  Bi2+  Bi80  1  0.53427734  0.05232430  0.30835221  1
  Bi2+  Bi81  1  0.47290988  0.14366698  0.78728920  1
  Bi2+  Bi82  1  0.54136690  0.25426651  0.31832635  1
  Bi2+  Bi83  1  0.45397136  0.39902177  0.74983076  1
  Bi2+  Bi84  1  0.63432138  0.64152896  0.27500266  1
  Bi2+  Bi85  1  0.50268603  0.55454073  0.81415115  1
  Bi2+  Bi86  1  0.45848342  0.86134635  0.31453148  1
  Bi2+  Bi87  1  0.49808649  0.83344303  0.80559459  1
  Bi2+  Bi88  1  0.77007768  0.10337267  0.31169860  1
  Bi2+  Bi89  1  0.74605448  0.12547311  0.78408049  1
  Bi2+  Bi90  1  0.76392107  0.43937599  0.29940443  1
  Bi2+  Bi91  1  0.73839999  0.44160630  0.79432554  1
  Bi2+  Bi92  1  0.81552432  0.62841523  0.31210556  1
  Bi2+  Bi93  1  0.73391349  0.64803652  0.78229017  1
  Bi2+  Bi94  1  0.76350963  0.82019952  0.29996489  1
  Bi2+  Bi95  1  0.74804248  0.88293697  0.78788434  1
  Bi2+  Bi96  1  0.15355462  -0.00926081  0.20699263  1
  Bi2+  Bi97  1  0.14142531  -0.03122684  0.70720399  1
  Bi2+  Bi98  1  0.11905377  0.28933074  0.21266368  1
  Bi2+  Bi99  1  0.10314518  0.22424617  0.68709860  1
  Bi2+  Bi100  1  0.11401486  0.49167417  0.21579624  1
  Bi2+  Bi101  1  0.12636629  0.42646293  0.71382143  1
  Bi2+  Bi102  1  0.15289718  0.75404480  0.21799885  1
  Bi2+  Bi103  1  0.13352620  0.70314423  0.71449665  1
  Bi2+  Bi104  1  0.42895678  -0.01264747  0.20490841  1
  Bi2+  Bi105  1  0.36738888  -0.08249938  0.73524251  1
  Bi2+  Bi106  1  0.44854358  0.25611691  0.21581633  1
  Bi2+  Bi107  1  0.35715227  0.20288628  0.69927418  1
  Bi2+  Bi108  1  0.49492265  0.46641384  0.24001118  1
  Bi2+  Bi109  1  0.30380874  0.50018321  0.69991325  1
  Bi2+  Bi110  1  0.40789891  0.73978696  0.22489595  1
  Bi2+  Bi111  1  0.41636495  0.68910984  0.74593499  1
  Bi2+  Bi112  1  0.62338501  -0.00255149  0.20525321  1
  Bi2+  Bi113  1  0.54868767  -0.01380794  0.73368181  1
  Bi2+  Bi114  1  0.63979641  0.19207936  0.22494312  1
  Bi2+  Bi115  1  0.62610910  0.31807226  0.70967848  1
  Bi2+  Bi116  1  0.69086687  0.46558772  0.19604477  1
  Bi2+  Bi117  1  0.62377258  0.52110267  0.70888232  1
  Bi2+  Bi118  1  0.73822016  0.75296935  0.18996338  1
  Bi2+  Bi119  1  0.60062687  0.73570044  0.70713043  1
  Bi2+  Bi120  1  0.81906150  -0.02056399  0.21532337  1
  Bi2+  Bi121  1  0.88902048  -0.00024679  0.69137403  1
  Bi2+  Bi122  1  0.84281197  0.23671710  0.20534869  1
  Bi2+  Bi123  1  0.82294738  0.29253763  0.73852426  1
  Bi2+  Bi124  1  0.87505374  0.48945272  0.15978075  1
  Bi2+  Bi125  1  0.89295640  0.53364586  0.70018466  1
  Bi2+  Bi126  1  0.90903389  0.66913711  0.20340898  1
  Bi2+  Bi127  1  0.85421372  0.72094513  0.70188214  1
  S2-  S128  1  0.02623600  0.07346508  0.18129809  1
  S2-  S129  1  -0.03050878  0.13013480  0.65002892  1
  S2-  S130  1  -0.02086165  0.27637080  0.14974235  1
  S2-  S131  1  0.01174527  0.35555103  0.64951346  1
  S2-  S132  1  0.10452479  0.62466480  0.15217831  1
  S2-  S133  1  0.02121522  0.61131019  0.65005733  1
  S2-  S134  1  0.09518833  0.86152478  0.14794264  1
  S2-  S135  1  0.01899241  0.89222327  0.65233190  1
  S2-  S136  1  0.22324692  0.17371745  0.18498595  1
  S2-  S137  1  0.22421766  0.08905449  0.66572365  1
  S2-  S138  1  0.24479452  0.42373206  0.16246367  1
  S2-  S139  1  0.25010412  0.28878200  0.63027421  1
  S2-  S140  1  0.27471042  0.75020332  0.15440898  1
  S2-  S141  1  0.25792852  0.64353979  0.65055553  1
  S2-  S142  1  0.29510416  0.96871429  0.14432579  1
  S2-  S143  1  0.26484525  0.87590619  0.65797252  1
  S2-  S144  1  0.43091696  0.13126280  0.14417252  1
  S2-  S145  1  0.48893433  0.11488229  0.66478519  1
  S2-  S146  1  0.53085600  0.38540472  0.15308850  1
  S2-  S147  1  0.49685701  0.35617065  0.64758805  1
  S2-  S148  1  0.42297160  0.58266993  0.18560845  1
  S2-  S149  1  0.50460577  0.61770672  0.65502084  1
  S2-  S150  1  0.50131269  0.79161488  0.15472088  1
  S2-  S151  1  0.56484381  0.87322710  0.65207705  1
  S2-  S152  1  0.83923206  0.10393491  0.14351534  1
  S2-  S153  1  0.74974338  0.07526172  0.67896000  1
  S2-  S154  1  0.72261871  0.26214669  0.14016367  1
  S2-  S155  1  0.76250162  0.28189778  0.64222362  1
  S2-  S156  1  0.65258327  0.61912611  0.14731669  1
  S2-  S157  1  0.75741317  0.51429828  0.63580344  1
  S2-  S158  1  0.85358711  0.87381204  0.13721380  1
  S2-  S159  1  0.78913788  0.86684312  0.66525142  1
  S2-  S160  1  0.13573654  0.08487647  0.35128863  1
  S2-  S161  1  0.14130358  -0.00644787  0.84746033  1
  S2-  S162  1  0.06951107  0.28142740  0.30876364  1
  S2-  S163  1  0.11744771  0.22095999  0.85423926  1
  S2-  S164  1  0.18335852  0.49075534  0.32775745  1
  S2-  S165  1  0.09007328  0.48832344  0.85056045  1
  S2-  S166  1  0.17762106  0.72839488  0.32444311  1
  S2-  S167  1  0.02795807  0.73729547  0.85870129  1
  S2-  S168  1  0.38433039  0.09286494  0.35997833  1
  S2-  S169  1  0.36956690  0.02067436  0.83411135  1
  S2-  S170  1  0.27017804  0.26753787  0.33972404  1
  S2-  S171  1  0.36055114  0.24236830  0.84698215  1
  S2-  S172  1  0.39114336  0.47210604  0.32888024  1
  S2-  S173  1  0.34797650  0.51328231  0.85273853  1
  S2-  S174  1  0.39631604  0.70059430  0.34200553  1
  S2-  S175  1  0.25093377  0.74933254  0.86618728  1
  S2-  S176  1  0.68146927  -0.00300742  0.36324031  1
  S2-  S177  1  0.70389962  0.00093559  0.85134914  1
  S2-  S178  1  0.70541062  0.24413121  0.36147428  1
  S2-  S179  1  0.61691285  0.18981565  0.83110726  1
  S2-  S180  1  0.61419030  0.50562783  0.33750651  1
  S2-  S181  1  0.60738360  0.40957360  0.85730228  1
  S2-  S182  1  0.60805935  0.77331785  0.34302079  1
  S2-  S183  1  0.65196095  0.77137395  0.84434252  1
  S2-  S184  1  0.92391244  -0.00377897  0.33902816  1
  S2-  S185  1  0.87553216  0.14609011  0.85588154  1
  S2-  S186  1  0.89510773  0.21431806  0.32679436  1
  S2-  S187  1  0.86493727  0.37927217  0.86251270  1
  S2-  S188  1  0.97693854  0.50439219  0.34963869  1
  S2-  S189  1  0.85735845  0.61641324  0.85643292  1
  S2-  S190  1  0.97354972  0.76663030  0.35658016  1
  S2-  S191  1  0.87322624  0.87953039  0.84711363  1
  S2-  S192  1  -0.00975318  0.12830949  0.44542829  1
  S2-  S193  1  -0.00751489  0.13146227  0.96349876  1
  S2-  S194  1  -0.00708163  0.36985740  0.44056482  1
  S2-  S195  1  -0.00421436  0.38097822  0.96152830  1
  S2-  S196  1  -0.00675838  0.62950299  0.45008306  1
  S2-  S197  1  -0.00520617  0.62525039  0.96319770  1
  S2-  S198  1  -0.00642886  0.88610083  0.45229737  1
  S2-  S199  1  -0.00661437  0.88271391  0.95655399  1
  S2-  S200  1  0.24817318  0.12761495  0.45695261  1
  S2-  S201  1  0.24323134  0.13227876  0.96201205  1
  S2-  S202  1  0.24657962  0.37894228  0.44200858  1
  S2-  S203  1  0.23960251  0.38129036  0.95751050  1
  S2-  S204  1  0.24384129  0.63080822  0.44354349  1
  S2-  S205  1  0.23845639  0.62686028  0.96771786  1
  S2-  S206  1  0.24493514  0.88157845  0.44629231  1
  S2-  S207  1  0.24232935  0.88471649  0.96491334  1
  S2-  S208  1  0.50356097  0.12769343  0.45904307  1
  S2-  S209  1  0.48818090  0.13456251  0.94681152  1
  S2-  S210  1  0.49702457  0.37961801  0.44481868  1
  S2-  S211  1  0.48034701  0.38190572  0.95332936  1
  S2-  S212  1  0.49719533  0.62926559  0.44835584  1
  S2-  S213  1  0.48967471  0.63541342  0.94816694  1
  S2-  S214  1  0.49888252  0.88159332  0.45610753  1
  S2-  S215  1  0.49004131  0.88434660  0.95411838  1
  S2-  S216  1  0.74170013  0.12799142  0.46720310  1
  S2-  S217  1  0.73398930  0.13773976  0.95336992  1
  S2-  S218  1  0.74393504  0.38366243  0.45459551  1
  S2-  S219  1  0.73714421  0.38687131  0.95943798  1
  S2-  S220  1  0.74504702  0.62950435  0.45050570  1
  S2-  S221  1  0.73439567  0.63146104  0.95340250  1
  S2-  S222  1  0.74473596  0.87655888  0.46107420  1
  S2-  S223  1  0.73972472  0.88067125  0.95457129  1
  S2-  S224  1  0.11661319  0.01133259  0.05574799  1
  S2-  S225  1  0.11927686  0.00750581  0.54580805  1
  S2-  S226  1  0.12332431  0.25212109  0.05783098  1
  S2-  S227  1  0.11891280  0.25260690  0.53059979  1
  S2-  S228  1  0.11290480  0.50036014  0.05317205  1
  S2-  S229  1  0.12239498  0.50292100  0.53626571  1
  S2-  S230  1  0.11006260  0.74969995  0.04576759  1
  S2-  S231  1  0.11938647  0.75541747  0.53866878  1
  S2-  S232  1  0.37379870  0.01045116  0.04018573  1
  S2-  S233  1  0.37307844  0.00781533  0.55297154  1
  S2-  S234  1  0.36545620  0.26033831  0.05106761  1
  S2-  S235  1  0.37824388  0.25595732  0.53314074  1
  S2-  S236  1  0.36859963  0.51027654  0.05798869  1
  S2-  S237  1  0.37110729  0.50229151  0.53900756  1
  S2-  S238  1  0.37191538  0.75228307  0.04861793  1
  S2-  S239  1  0.37063237  0.75659885  0.54322798  1
  S2-  S240  1  0.61632181  0.00910138  0.04800577  1
  S2-  S241  1  0.62353688  0.00939599  0.55848659  1
  S2-  S242  1  0.60794912  0.26327501  0.03720288  1
  S2-  S243  1  0.62022837  0.25745697  0.54881237  1
  S2-  S244  1  0.60652807  0.51117608  0.04437866  1
  S2-  S245  1  0.61629313  0.50485810  0.54290645  1
  S2-  S246  1  0.61585270  0.76139947  0.04746840  1
  S2-  S247  1  0.62360255  0.75130129  0.54851727  1
  S2-  S248  1  0.86318328  0.00900013  0.03528234  1
  S2-  S249  1  0.86710461  0.00486719  0.54683816  1
  S2-  S250  1  0.86251831  0.26214179  0.04113064  1
  S2-  S251  1  0.87104663  0.25440523  0.53774199  1
  S2-  S252  1  0.86075115  0.50894213  0.04434699  1
  S2-  S253  1  0.87567759  0.50576330  0.53453684  1
  S2-  S254  1  0.86399593  0.75127925  0.03873560  1
  S2-  S255  1  0.86912115  0.75353640  0.54623917  1
