# generated using pymatgen
data_La9Ce10Pr6Nd4Sm3(BiS2)32
_symmetry_space_group_name_H-M   'P 1'
_cell_length_a   16.21939585
_cell_length_b   16.19534639
_cell_length_c   27.13687422
_cell_angle_alpha   89.89201256
_cell_angle_beta   90.15694160
_cell_angle_gamma   89.95004165
_symmetry_Int_Tables_number   1
_chemical_formula_structural   La9Ce10Pr6Nd4Sm3(BiS2)32
_chemical_formula_sum   'La18 Ce20 Pr12 Nd8 Sm6 Bi64 S128'
_cell_volume   7128.23762351
_cell_formula_units_Z   2
loop_
 _symmetry_equiv_pos_site_id
 _symmetry_equiv_pos_as_xyz
  1  'x, y, z'
loop_
 _atom_type_symbol
 _atom_type_oxidation_number
  La3+  3.0
  Ce3+  3.0
  Pr3+  3.0
  Nd3+  3.0
  Sm3+  3.0
  Bi2+  2.0
  S2-  -2.0
loop_
 _atom_site_type_symbol
 _atom_site_label
 _atom_site_symmetry_multiplicity
 _atom_site_fract_x
 _atom_site_fract_y
 _atom_site_fract_z
 _atom_site_occupancy
  La3+  La0  1  0.51504205  0.36854619  0.06815568  1
  La3+  La1  1  0.74432743  0.63150637  0.59215288  1
  La3+  La2  1  0.12163685  0.50571266  0.44408427  1
  La3+  La3  1  0.75859952  0.61831444  0.06440274  1
  La3+  La4  1  0.00601652  0.62596921  0.58570568  1
  La3+  La5  1  0.64023665  0.24319377  0.93417294  1
  La3+  La6  1  0.12499033  -0.00004950  0.92408454  1
  La3+  La7  1  0.01562476  0.11456486  0.07669184  1
  La3+  La8  1  0.24781691  0.86325466  0.06814339  1
  La3+  La9  1  0.74690811  0.88879525  0.57866716  1
  La3+  La10  1  0.50012959  0.88191838  0.56483452  1
  La3+  La11  1  0.49594902  0.86146204  0.07695696  1
  La3+  La12  1  0.63059883  -0.00111495  0.41715632  1
  La3+  La13  1  0.12092489  0.00463731  0.42867759  1
  La3+  La14  1  0.62490266  0.50992132  0.43974790  1
  La3+  La15  1  0.12716638  0.74705547  0.89661603  1
  La3+  La16  1  0.86960002  0.26085588  0.41977646  1
  La3+  La17  1  0.25615960  0.37448356  0.57005971  1
  Ce3+  Ce18  1  0.86554226  0.73902340  0.89540118  1
  Ce3+  Ce19  1  0.37904715  -0.00778559  0.94911566  1
  Ce3+  Ce20  1  0.37559107  0.74720482  0.93658249  1
  Ce3+  Ce21  1  0.00326911  0.37724469  0.57182735  1
  Ce3+  Ce22  1  0.38452955  0.24457180  0.94211874  1
  Ce3+  Ce23  1  0.12678100  0.49806113  0.92630167  1
  Ce3+  Ce24  1  0.00901106  0.37160267  0.05606866  1
  Ce3+  Ce25  1  0.63206111  0.74519367  0.94284391  1
  Ce3+  Ce26  1  0.87396644  0.75332303  0.46056339  1
  Ce3+  Ce27  1  0.24655739  0.88321930  0.55904650  1
  Ce3+  Ce28  1  0.50592455  0.61803826  0.05258760  1
  Ce3+  Ce29  1  0.37495309  0.50407758  0.44836074  1
  Ce3+  Ce30  1  0.76067216  0.36589103  0.06194328  1
  Ce3+  Ce31  1  0.01095057  0.86321544  0.04816143  1
  Ce3+  Ce32  1  0.25512099  0.12025222  0.05804921  1
  Ce3+  Ce33  1  0.37814159  0.25692919  0.43226193  1
  Ce3+  Ce34  1  0.88120683  -0.01508261  0.93881612  1
  Ce3+  Ce35  1  0.88311957  0.23889616  0.95035645  1
  Ce3+  Ce36  1  0.75002518  0.12841098  0.55390055  1
  Ce3+  Ce37  1  0.37501588  0.00428507  0.44335927  1
  Pr3+  Pr38  1  0.12293292  0.26064497  0.43819604  1
  Pr3+  Pr39  1  0.75992637  0.11069850  0.07174714  1
  Pr3+  Pr40  1  0.50454767  0.37395716  0.56981781  1
  Pr3+  Pr41  1  0.74771166  0.37815466  0.56497295  1
  Pr3+  Pr42  1  0.87183273  0.01003824  0.43443780  1
  Pr3+  Pr43  1  0.63268198  -0.01029358  0.94377851  1
  Pr3+  Pr44  1  0.25596727  0.36969484  0.05364407  1
  Pr3+  Pr45  1  0.01073989  0.89113667  0.59719361  1
  Pr3+  Pr46  1  0.11860478  0.75458085  0.44410850  1
  Pr3+  Pr47  1  0.62516792  0.75751668  0.44087727  1
  Pr3+  Pr48  1  0.75734304  0.86697022  0.06976341  1
  Pr3+  Pr49  1  0.12865781  0.24487451  0.93485373  1
  Nd3+  Nd50  1  0.36922869  0.75613403  0.43661727  1
  Nd3+  Nd51  1  0.63302532  0.49574181  0.93635334  1
  Nd3+  Nd52  1  0.87387035  0.51189686  0.44546660  1
  Nd3+  Nd53  1  -0.00427088  0.13143479  0.55838999  1
  Nd3+  Nd54  1  0.61973862  0.26396222  0.42351370  1
  Nd3+  Nd55  1  0.38399209  0.49126521  0.93862488  1
  Nd3+  Nd56  1  0.25161957  0.63299750  0.56483576  1
  Nd3+  Nd57  1  0.51005682  0.11923374  0.05882064  1
  Sm3+  Sm58  1  0.00729211  0.62047758  0.04607406  1
  Sm3+  Sm59  1  0.50421912  0.13075479  0.54722859  1
  Sm3+  Sm60  1  0.25288423  0.61551957  0.04891589  1
  Sm3+  Sm61  1  0.50037488  0.63209868  0.56165168  1
  Sm3+  Sm62  1  0.24776010  0.12816226  0.54972337  1
  Sm3+  Sm63  1  0.88009964  0.49918316  0.93720078  1
  Bi2+  Bi64  1  0.01052168  0.12691643  0.27567211  1
  Bi2+  Bi65  1  -0.00561233  0.17470108  0.80335816  1
  Bi2+  Bi66  1  0.02334482  0.37957976  0.29277812  1
  Bi2+  Bi67  1  0.06826918  0.35775131  0.82783410  1
  Bi2+  Bi68  1  -0.02934024  0.63572819  0.28325067  1
  Bi2+  Bi69  1  -0.00180760  0.52756218  0.79395872  1
  Bi2+  Bi70  1  0.01086476  0.82556822  0.26040633  1
  Bi2+  Bi71  1  -0.01590200  0.90978232  0.79411868  1
  Bi2+  Bi72  1  0.26442096  0.18223178  0.28807708  1
  Bi2+  Bi73  1  0.25099603  0.15760194  0.77625884  1
  Bi2+  Bi74  1  0.29497562  0.37746955  0.30292685  1
  Bi2+  Bi75  1  0.22498249  0.35394716  0.76238652  1
  Bi2+  Bi76  1  0.17002583  0.61465847  0.28858603  1
  Bi2+  Bi77  1  0.27243704  0.63704991  0.77500115  1
  Bi2+  Bi78  1  0.23402209  0.89613639  0.30162500  1
  Bi2+  Bi79  1  0.28355166  0.88998269  0.78450311  1
  Bi2+  Bi80  1  0.47829182  0.15904576  0.27169625  1
  Bi2+  Bi81  1  0.44724160  0.10483067  0.78633149  1
  Bi2+  Bi82  1  0.49301124  0.40859533  0.29415515  1
  Bi2+  Bi83  1  0.50217739  0.36359692  0.80327441  1
  Bi2+  Bi84  1  0.58509530  0.63067284  0.30554136  1
  Bi2+  Bi85  1  0.47879319  0.62470767  0.78475083  1
  Bi2+  Bi86  1  0.48292983  0.90957794  0.29451210  1
  Bi2+  Bi87  1  0.47908134  0.82760815  0.78571319  1
  Bi2+  Bi88  1  0.75950713  0.11015305  0.29597174  1
  Bi2+  Bi89  1  0.72312549  0.12271600  0.80527172  1
  Bi2+  Bi90  1  0.76047102  0.39302867  0.29037135  1
  Bi2+  Bi91  1  0.77152849  0.35538922  0.78937857  1
  Bi2+  Bi92  1  0.77078628  0.60367634  0.31075696  1
  Bi2+  Bi93  1  0.72008341  0.59118509  0.78208131  1
  Bi2+  Bi94  1  0.74095606  0.79854903  0.29708224  1
  Bi2+  Bi95  1  0.70612160  0.87381939  0.78918134  1
  Bi2+  Bi96  1  0.09652114  0.00033799  0.20298672  1
  Bi2+  Bi97  1  0.14908633  0.03184041  0.70449223  1
  Bi2+  Bi98  1  0.15273184  0.26423932  0.20574281  1
  Bi2+  Bi99  1  0.08368868  0.23219709  0.70672712  1
  Bi2+  Bi100  1  0.11035253  0.53354931  0.18679835  1
  Bi2+  Bi101  1  0.13532106  0.49879255  0.70108501  1
  Bi2+  Bi102  1  0.21607169  0.78185730  0.20095163  1
  Bi2+  Bi103  1  0.09422325  0.76594891  0.71363204  1
  Bi2+  Bi104  1  0.34580154  0.02005824  0.23802562  1
  Bi2+  Bi105  1  0.41249320  -0.03736082  0.70868486  1
  Bi2+  Bi106  1  0.34612231  0.28925934  0.19975309  1
  Bi2+  Bi107  1  0.38905466  0.22494871  0.70098417  1
  Bi2+  Bi108  1  0.34315098  0.54924315  0.25191386  1
  Bi2+  Bi109  1  0.35142875  0.51869665  0.69539589  1
  Bi2+  Bi110  1  0.39468307  0.73696987  0.23865638  1
  Bi2+  Bi111  1  0.38996120  0.71384349  0.68692311  1
  Bi2+  Bi112  1  0.64105018  0.03833366  0.19663822  1
  Bi2+  Bi113  1  0.59892737  0.04676270  0.70496206  1
  Bi2+  Bi114  1  0.61162018  0.28241773  0.19445756  1
  Bi2+  Bi115  1  0.69479601  0.25298703  0.70642890  1
  Bi2+  Bi116  1  0.61097927  0.54801241  0.20097838  1
  Bi2+  Bi117  1  0.54282988  0.48271704  0.71115262  1
  Bi2+  Bi118  1  0.61145736  0.75519377  0.21359436  1
  Bi2+  Bi119  1  0.59136970  0.75749851  0.70159462  1
  Bi2+  Bi120  1  0.84969037  -0.07593368  0.23680643  1
  Bi2+  Bi121  1  0.84426622  0.09921252  0.72095796  1
  Bi2+  Bi122  1  0.88912206  0.29374003  0.22445270  1
  Bi2+  Bi123  1  0.86697676  0.24632218  0.64545579  1
  Bi2+  Bi124  1  0.88329308  0.49000048  0.22011070  1
  Bi2+  Bi125  1  0.92799608  0.37653206  0.72853436  1
  Bi2+  Bi126  1  0.87737631  0.74987622  0.19079357  1
  Bi2+  Bi127  1  0.84287002  0.72128758  0.73217407  1
  S2-  S128  1  -0.03612449  0.08681458  0.17368979  1
  S2-  S129  1  0.01940496  0.04999248  0.64695342  1
  S2-  S130  1  -0.03023281  0.37802902  0.15182246  1
  S2-  S131  1  -0.01357442  0.48101216  0.65008964  1
  S2-  S132  1  -0.00166828  0.62800552  0.14636002  1
  S2-  S133  1  -0.02580046  0.66839783  0.68709072  1
  S2-  S134  1  0.10303402  0.86994004  0.13379755  1
  S2-  S135  1  -0.04427756  0.86260926  0.69571390  1
  S2-  S136  1  0.16773168  0.12065229  0.14218425  1
  S2-  S137  1  0.25859802  0.13205069  0.64819741  1
  S2-  S138  1  0.20879270  0.39524125  0.15016111  1
  S2-  S139  1  0.13770970  0.35153543  0.64500900  1
  S2-  S140  1  0.22805686  0.63281795  0.14674570  1
  S2-  S141  1  0.16088298  0.64672847  0.64984240  1
  S2-  S142  1  0.35621416  0.83969966  0.14849892  1
  S2-  S143  1  0.17074683  0.88518230  0.64893325  1
  S2-  S144  1  0.51531091  0.14274528  0.15807753  1
  S2-  S145  1  0.52137874  0.16124484  0.64462918  1
  S2-  S146  1  0.47090554  0.38548577  0.16584669  1
  S2-  S147  1  0.37932654  0.36112451  0.64282943  1
  S2-  S148  1  0.50111224  0.63794914  0.14963170  1
  S2-  S149  1  0.58739463  0.61187673  0.64648286  1
  S2-  S150  1  0.57453585  0.89925859  0.16562740  1
  S2-  S151  1  0.59399165  0.90870629  0.64807069  1
  S2-  S152  1  0.73218310  0.18683568  0.16633763  1
  S2-  S153  1  0.75829185  0.03645569  0.64159276  1
  S2-  S154  1  0.68625982  0.40673407  0.14705636  1
  S2-  S155  1  0.63009599  0.37516021  0.64422390  1
  S2-  S156  1  0.73882059  0.65563283  0.16287520  1
  S2-  S157  1  0.78169924  0.57225726  0.69441078  1
  S2-  S158  1  0.77013917  0.98185048  0.14658563  1
  S2-  S159  1  0.74879116  0.77209141  0.65572799  1
  S2-  S160  1  0.10600167  0.00254285  0.32725259  1
  S2-  S161  1  0.14136741  -0.09887311  0.83868495  1
  S2-  S162  1  0.08428689  0.24206669  0.33964405  1
  S2-  S163  1  0.14524628  0.13829742  0.85384353  1
  S2-  S164  1  0.13832203  0.46564086  0.34608858  1
  S2-  S165  1  0.14293387  0.58971137  0.84207553  1
  S2-  S166  1  0.17373820  0.75513173  0.34780899  1
  S2-  S167  1  -0.00475453  0.75214899  0.82611119  1
  S2-  S168  1  0.35993480  0.00375822  0.34620195  1
  S2-  S169  1  0.37034710  -0.00069218  0.85120089  1
  S2-  S170  1  0.48341307  0.26373842  0.35297618  1
  S2-  S171  1  0.39017767  0.26709331  0.84487224  1
  S2-  S172  1  0.39145308  0.52279373  0.35115464  1
  S2-  S173  1  0.40820994  0.49175690  0.83981385  1
  S2-  S174  1  0.39479487  0.78095011  0.33707146  1
  S2-  S175  1  0.29132489  0.75245284  0.84983780  1
  S2-  S176  1  0.59121313  0.06849988  0.31848870  1
  S2-  S177  1  0.62752809  -0.01554341  0.84183510  1
  S2-  S178  1  0.73403931  0.24732588  0.34657979  1
  S2-  S179  1  0.60099641  0.22627148  0.83609159  1
  S2-  S180  1  0.62152811  0.41766035  0.35358475  1
  S2-  S181  1  0.64959447  0.45712253  0.83930483  1
  S2-  S182  1  0.60288000  0.85219658  0.35485538  1
  S2-  S183  1  0.69806373  0.73027712  0.85040125  1
  S2-  S184  1  0.77422752  -0.02719884  0.35250996  1
  S2-  S185  1  0.97303128  0.03822160  0.86040635  1
  S2-  S186  1  0.90150687  0.12775450  0.34966954  1
  S2-  S187  1  0.83289544  0.23866596  0.85575256  1
  S2-  S188  1  0.89033244  0.40870537  0.36127375  1
  S2-  S189  1  0.86150564  0.57531316  0.84759911  1
  S2-  S190  1  0.89569477  0.65340439  0.37753485  1
  S2-  S191  1  0.83871032  0.89385879  0.85110220  1
  S2-  S192  1  0.00214541  0.13284705  0.45284758  1
  S2-  S193  1  0.00662129  0.12385269  0.96603277  1
  S2-  S194  1  0.00030037  0.38171271  0.46284115  1
  S2-  S195  1  0.00079219  0.37177176  0.95004714  1
  S2-  S196  1  0.00387965  0.62818363  0.47441140  1
  S2-  S197  1  0.00159044  0.62257261  0.94273576  1
  S2-  S198  1  -0.00510799  0.87801668  0.43673146  1
  S2-  S199  1  0.00358017  0.86032769  0.94531827  1
  S2-  S200  1  0.24844298  0.13210243  0.44368060  1
  S2-  S201  1  0.26092460  0.12273010  0.95445428  1
  S2-  S202  1  0.25255173  0.37913757  0.45748706  1
  S2-  S203  1  0.25586690  0.37043757  0.94554030  1
  S2-  S204  1  0.24956428  0.63064083  0.45728235  1
  S2-  S205  1  0.26018250  0.61382252  0.94597697  1
  S2-  S206  1  0.24767202  0.88035942  0.45283383  1
  S2-  S207  1  0.25536207  0.87134973  0.95572117  1
  S2-  S208  1  0.49965484  0.12553240  0.44392804  1
  S2-  S209  1  0.50856265  0.11792275  0.95174169  1
  S2-  S210  1  0.49735921  0.38280579  0.46076006  1
  S2-  S211  1  0.51179139  0.36875242  0.95571257  1
  S2-  S212  1  0.49635153  0.63515896  0.45547868  1
  S2-  S213  1  0.50594793  0.61994918  0.94494741  1
  S2-  S214  1  0.49364423  0.87877403  0.45689369  1
  S2-  S215  1  0.50459112  0.86691840  0.95693803  1
  S2-  S216  1  0.74312026  0.13190926  0.44943072  1
  S2-  S217  1  0.75865624  0.11272005  0.95967490  1
  S2-  S218  1  0.74756103  0.38539736  0.45816628  1
  S2-  S219  1  0.76021664  0.37374570  0.95429392  1
  S2-  S220  1  0.74612408  0.63426825  0.46658209  1
  S2-  S221  1  0.75595392  0.61925643  0.95611173  1
  S2-  S222  1  0.75094723  0.87607567  0.46420942  1
  S2-  S223  1  0.75418604  0.86349189  0.96230682  1
  S2-  S224  1  0.13450978  -0.00451058  0.03639988  1
  S2-  S225  1  0.12476459  0.00550623  0.53793670  1
  S2-  S226  1  0.13161928  0.24771059  0.04233631  1
  S2-  S227  1  0.12619888  0.24864285  0.54371804  1
  S2-  S228  1  0.12927656  0.49518074  0.03518767  1
  S2-  S229  1  0.13493982  0.50266761  0.55054991  1
  S2-  S230  1  0.13186368  0.73527371  0.03583507  1
  S2-  S231  1  0.12255248  0.76253910  0.54937220  1
  S2-  S232  1  0.38124442  -0.00270086  0.05618193  1
  S2-  S233  1  0.37533152  0.00843284  0.55048408  1
  S2-  S234  1  0.38357814  0.24486921  0.05021050  1
  S2-  S235  1  0.37534801  0.24688040  0.53845821  1
  S2-  S236  1  0.38188919  0.49328739  0.04688381  1
  S2-  S237  1  0.37831596  0.51005143  0.55249697  1
  S2-  S238  1  0.37737125  0.73653499  0.04128567  1
  S2-  S239  1  0.37315570  0.75738797  0.54651618  1
  S2-  S240  1  0.62741123  -0.00976311  0.04978952  1
  S2-  S241  1  0.62205858  0.00763209  0.53540464  1
  S2-  S242  1  0.63657800  0.24096656  0.04426825  1
  S2-  S243  1  0.62607788  0.25207847  0.53636779  1
  S2-  S244  1  0.63240589  0.49654751  0.04228354  1
  S2-  S245  1  0.62235289  0.50696419  0.54592309  1
  S2-  S246  1  0.62934105  0.74527824  0.04995349  1
  S2-  S247  1  0.62113264  0.75509386  0.54804180  1
  S2-  S248  1  0.88852577  -0.01158983  0.04704264  1
  S2-  S249  1  0.88217730  0.00074414  0.54300566  1
  S2-  S250  1  0.88412813  0.24036992  0.05663365  1
  S2-  S251  1  0.87280962  0.25512406  0.53412963  1
  S2-  S252  1  0.88272309  0.49491758  0.04409276  1
  S2-  S253  1  0.86619148  0.50786115  0.55379137  1
  S2-  S254  1  0.88345243  0.74312179  0.05074803  1
  S2-  S255  1  0.88697659  0.76354870  0.56361277  1
