# generated using pymatgen
data_La9Ce10Pr6Nd4Sm3(BiS2)32
_symmetry_space_group_name_H-M   'P 1'
_cell_length_a   16.12438148
_cell_length_b   16.15806223
_cell_length_c   27.26788226
_cell_angle_alpha   89.56798139
_cell_angle_beta   89.65221570
_cell_angle_gamma   90.11092778
_symmetry_Int_Tables_number   1
_chemical_formula_structural   La9Ce10Pr6Nd4Sm3(BiS2)32
_chemical_formula_sum   'La18 Ce20 Pr12 Nd8 Sm6 Bi64 S128'
_cell_volume   7103.99343411
_cell_formula_units_Z   2
loop_
 _symmetry_equiv_pos_site_id
 _symmetry_equiv_pos_as_xyz
  1  'x, y, z'
loop_
 _atom_type_symbol
 _atom_type_oxidation_number
  La3+  3.0
  Ce3+  3.0
  Pr3+  3.0
  Nd3+  3.0
  Sm3+  3.0
  Bi2+  2.0
  S2-  -2.0
loop_
 _atom_site_type_symbol
 _atom_site_label
 _atom_site_symmetry_multiplicity
 _atom_site_fract_x
 _atom_site_fract_y
 _atom_site_fract_z
 _atom_site_occupancy
  La3+  La0  1  0.71964584  0.11809285  0.58044454  1
  La3+  La1  1  0.47808780  0.36935197  0.56360063  1
  La3+  La2  1  0.84590497  0.24914566  0.43413351  1
  La3+  La3  1  0.86420835  0.77096817  0.91695814  1
  La3+  La4  1  -0.02943158  0.36077558  0.57344731  1
  La3+  La5  1  0.71902748  0.62235551  0.58788251  1
  La3+  La6  1  0.49933565  0.38964824  0.06721327  1
  La3+  La7  1  0.09664679  0.25069540  0.42027624  1
  La3+  La8  1  0.23553999  0.89721523  0.08840980  1
  La3+  La9  1  0.61099010  0.75102974  0.41789354  1
  La3+  La10  1  0.86915562  0.27310698  0.93082589  1
  La3+  La11  1  0.74144179  0.64422714  0.08494918  1
  La3+  La12  1  0.34848974  -0.00640423  0.42794163  1
  La3+  La13  1  0.22073269  0.61980796  0.56784347  1
  La3+  La14  1  0.47348382  0.86993429  0.55927705  1
  La3+  La15  1  0.10165946  0.74714953  0.43250109  1
  La3+  La16  1  0.22704382  0.12645092  0.57099809  1
  La3+  La17  1  0.84496320  -0.00489799  0.43761134  1
  Ce3+  Ce18  1  0.61978587  0.26703297  0.93778096  1
  Ce3+  Ce19  1  -0.00791089  0.88865437  0.06099515  1
  Ce3+  Ce20  1  0.48644543  0.64254797  0.06490799  1
  Ce3+  Ce21  1  0.10831455  0.00252721  0.43333192  1
  Ce3+  Ce22  1  -0.00778384  0.64374421  0.05665648  1
  Ce3+  Ce23  1  0.60433654  0.25053433  0.43851919  1
  Ce3+  Ce24  1  0.22081242  0.36844139  0.56310094  1
  Ce3+  Ce25  1  0.84735831  0.49868235  0.45122938  1
  Ce3+  Ce26  1  0.37175271  0.51250768  0.93425173  1
  Ce3+  Ce27  1  -0.02285601  0.87427707  0.55580441  1
  Ce3+  Ce28  1  0.24772448  0.63872540  0.05990315  1
  Ce3+  Ce29  1  0.09819549  0.49139210  0.44276829  1
  Ce3+  Ce30  1  0.12011272  0.26878887  0.94473346  1
  Ce3+  Ce31  1  0.87160329  0.01197312  0.93880945  1
  Ce3+  Ce32  1  -0.00790407  0.14088982  0.05505946  1
  Ce3+  Ce33  1  -0.02372795  0.11981270  0.55528631  1
  Ce3+  Ce34  1  0.36695656  0.76912312  0.94306824  1
  Ce3+  Ce35  1  0.84686862  0.74578821  0.45195824  1
  Ce3+  Ce36  1  0.35012032  0.49802184  0.44694002  1
  Ce3+  Ce37  1  0.61976544  0.01611038  0.94088512  1
  Pr3+  Pr38  1  0.37566915  0.00300418  0.89027623  1
  Pr3+  Pr39  1  -0.00965593  0.39191338  0.06956147  1
  Pr3+  Pr40  1  0.11954733  0.51659176  0.94314073  1
  Pr3+  Pr41  1  0.74420114  0.88830341  0.06708476  1
  Pr3+  Pr42  1  0.47329613  0.11852326  0.55994791  1
  Pr3+  Pr43  1  0.61655169  0.76642147  0.93918563  1
  Pr3+  Pr44  1  0.24776231  0.38991869  0.07016182  1
  Pr3+  Pr45  1  0.62053496  0.51956502  0.94401215  1
  Pr3+  Pr46  1  0.71999775  0.36911203  0.57926613  1
  Pr3+  Pr47  1  0.47815122  0.62477987  0.55692013  1
  Pr3+  Pr48  1  0.49163450  0.13746807  0.05769640  1
  Pr3+  Pr49  1  0.59256138  -0.00076711  0.43119194  1
  Nd3+  Nd50  1  0.12336330  0.76961705  0.94359546  1
  Nd3+  Nd51  1  0.35001810  0.25036770  0.43822244  1
  Nd3+  Nd52  1  0.36884748  0.26462900  0.93541945  1
  Nd3+  Nd53  1  0.49006993  0.89238353  0.05851430  1
  Nd3+  Nd54  1  0.74665662  0.39420544  0.07849358  1
  Nd3+  Nd55  1  0.60374486  0.50070022  0.44135772  1
  Nd3+  Nd56  1  0.34669467  0.74480915  0.43145629  1
  Nd3+  Nd57  1  0.12680760  0.01776005  0.93862826  1
  Sm3+  Sm58  1  0.86784763  0.51972007  0.94517811  1
  Sm3+  Sm59  1  0.22945271  0.87303656  0.56473056  1
  Sm3+  Sm60  1  0.74614582  0.14046972  0.04964876  1
  Sm3+  Sm61  1  0.71671511  0.87466040  0.57151454  1
  Sm3+  Sm62  1  -0.02700529  0.62283788  0.56093282  1
  Sm3+  Sm63  1  0.24457646  0.14521380  0.06539452  1
  Bi2+  Bi64  1  -0.01659441  0.11877151  0.29131285  1
  Bi2+  Bi65  1  0.03792350  0.10548773  0.78596787  1
  Bi2+  Bi66  1  0.01191023  0.35951951  0.27796243  1
  Bi2+  Bi67  1  0.03349713  0.38659707  0.79655096  1
  Bi2+  Bi68  1  -0.01289992  0.60731864  0.29628139  1
  Bi2+  Bi69  1  0.13612373  0.62899962  0.77023893  1
  Bi2+  Bi70  1  0.03455559  0.79752162  0.30416014  1
  Bi2+  Bi71  1  0.09431229  0.91849101  0.80152029  1
  Bi2+  Bi72  1  0.24928402  0.09655912  0.24381398  1
  Bi2+  Bi73  1  0.29489249  0.10887693  0.77079180  1
  Bi2+  Bi74  1  0.25936287  0.36498118  0.29506217  1
  Bi2+  Bi75  1  0.27413122  0.40386376  0.77479569  1
  Bi2+  Bi76  1  0.24264879  0.60576759  0.28341234  1
  Bi2+  Bi77  1  0.31200409  0.60590069  0.81701541  1
  Bi2+  Bi78  1  0.25789444  0.85143283  0.29061945  1
  Bi2+  Bi79  1  0.26281261  0.82242579  0.77344231  1
  Bi2+  Bi80  1  0.55971168  0.11863858  0.28375468  1
  Bi2+  Bi81  1  0.53796123  0.12688699  0.80534235  1
  Bi2+  Bi82  1  0.46203168  0.29488175  0.30129610  1
  Bi2+  Bi83  1  0.46769487  0.35650803  0.77540640  1
  Bi2+  Bi84  1  0.44110483  0.58223347  0.27693956  1
  Bi2+  Bi85  1  0.50302965  0.57357925  0.81957313  1
  Bi2+  Bi86  1  0.50467935  0.91369992  0.28530813  1
  Bi2+  Bi87  1  0.54348224  0.76101785  0.80250879  1
  Bi2+  Bi88  1  0.75864243  0.12433430  0.29034145  1
  Bi2+  Bi89  1  0.84065215  0.10326511  0.78359848  1
  Bi2+  Bi90  1  0.74989899  0.38492148  0.29646393  1
  Bi2+  Bi91  1  0.76998433  0.38108730  0.80211115  1
  Bi2+  Bi92  1  0.71484024  0.59887274  0.31237552  1
  Bi2+  Bi93  1  0.76585245  0.62603232  0.81014542  1
  Bi2+  Bi94  1  0.76657719  0.87509084  0.29166557  1
  Bi2+  Bi95  1  0.84901633  0.90453283  0.76046925  1
  Bi2+  Bi96  1  0.05964458  -0.03938602  0.23754160  1
  Bi2+  Bi97  1  0.15665200  0.04984885  0.69255469  1
  Bi2+  Bi98  1  0.12472414  0.24022447  0.21557139  1
  Bi2+  Bi99  1  0.16129732  0.24575674  0.73435068  1
  Bi2+  Bi100  1  0.07746512  0.47185931  0.18911732  1
  Bi2+  Bi101  1  0.20612225  0.51149311  0.68668550  1
  Bi2+  Bi102  1  0.09202548  0.67499694  0.20760310  1
  Bi2+  Bi103  1  0.13478284  0.85755318  0.68769061  1
  Bi2+  Bi104  1  0.39031792  -0.01567733  0.19410522  1
  Bi2+  Bi105  1  0.45950839  -0.02267457  0.68416304  1
  Bi2+  Bi106  1  0.38302008  0.22797930  0.20530852  1
  Bi2+  Bi107  1  0.45968599  0.22795873  0.68805541  1
  Bi2+  Bi108  1  0.27609768  0.48640138  0.19592791  1
  Bi2+  Bi109  1  0.40399053  0.49671374  0.70152334  1
  Bi2+  Bi110  1  0.41180726  0.73401504  0.20797114  1
  Bi2+  Bi111  1  0.40077311  0.70018950  0.72750309  1
  Bi2+  Bi112  1  0.71683604  0.00228287  0.20257233  1
  Bi2+  Bi113  1  0.68759760  0.01116304  0.73912387  1
  Bi2+  Bi114  1  0.62777222  0.28129514  0.23451354  1
  Bi2+  Bi115  1  0.64212598  0.27726628  0.73072230  1
  Bi2+  Bi116  1  0.56438396  0.49171645  0.20116068  1
  Bi2+  Bi117  1  0.62180512  0.54446828  0.72032356  1
  Bi2+  Bi118  1  0.61872932  0.76121909  0.21618996  1
  Bi2+  Bi119  1  0.66879661  0.79194585  0.71902625  1
  Bi2+  Bi120  1  0.89369520  -0.06814084  0.18285120  1
  Bi2+  Bi121  1  0.95138632  0.04730134  0.68675434  1
  Bi2+  Bi122  1  0.86856449  0.21928988  0.20190791  1
  Bi2+  Bi123  1  0.88810644  0.27650520  0.70924990  1
  Bi2+  Bi124  1  0.87474516  0.49772377  0.21103758  1
  Bi2+  Bi125  1  0.88759574  0.54799711  0.70384225  1
  Bi2+  Bi126  1  0.88446956  0.74870855  0.23498911  1
  Bi2+  Bi127  1  0.96930795  0.75368988  0.73582646  1
  S2-  S128  1  0.00307862  0.15607599  0.15261382  1
  S2-  S129  1  -0.02053625  0.20954282  0.63983977  1
  S2-  S130  1  -0.12402956  0.36496260  0.14647483  1
  S2-  S131  1  -0.02934241  0.41844523  0.67347250  1
  S2-  S132  1  -0.06136794  0.65756000  0.14899846  1
  S2-  S133  1  0.00315951  0.63301581  0.65768734  1
  S2-  S134  1  0.07636728  0.89202273  0.14650972  1
  S2-  S135  1  -0.03692461  0.87384821  0.65395248  1
  S2-  S136  1  0.24112249  0.04500182  0.14918178  1
  S2-  S137  1  0.36056063  0.10619425  0.64259174  1
  S2-  S138  1  0.24226016  0.26455460  0.14283145  1
  S2-  S139  1  0.21017802  0.26767667  0.64072599  1
  S2-  S140  1  0.35587606  0.63611285  0.13570881  1
  S2-  S141  1  0.26572197  0.66770354  0.66090527  1
  S2-  S142  1  0.28736074  0.83359387  0.18415580  1
  S2-  S143  1  0.35378634  0.88344376  0.63865318  1
  S2-  S144  1  0.48381620  0.12241810  0.15905592  1
  S2-  S145  1  0.56810705  0.10966640  0.64726111  1
  S2-  S146  1  0.41694593  0.41881774  0.15711260  1
  S2-  S147  1  0.56987536  0.35668834  0.64852417  1
  S2-  S148  1  0.57471641  0.63787754  0.15270455  1
  S2-  S149  1  0.56181500  0.62775972  0.64703970  1
  S2-  S150  1  0.51407756  0.87723908  0.15873292  1
  S2-  S151  1  0.57869252  0.86682204  0.64334501  1
  S2-  S152  1  0.74371208  0.15089350  0.14774969  1
  S2-  S153  1  0.75450518  0.24523055  0.65345295  1
  S2-  S154  1  0.61803182  0.35707759  0.14405639  1
  S2-  S155  1  0.73950566  0.48690778  0.65866377  1
  S2-  S156  1  0.74225947  0.52005589  0.15819663  1
  S2-  S157  1  0.77870716  0.69522198  0.67933438  1
  S2-  S158  1  0.73452894  0.78092162  0.14939414  1
  S2-  S159  1  0.74956318  0.98663418  0.64842975  1
  S2-  S160  1  0.22367297  -0.04120919  0.35780154  1
  S2-  S161  1  0.21495306  0.02448388  0.85108068  1
  S2-  S162  1  0.10155065  0.11544422  0.35539593  1
  S2-  S163  1  0.13533047  0.28922101  0.84738801  1
  S2-  S164  1  0.11688761  0.40052164  0.35811522  1
  S2-  S165  1  0.09400448  0.51440306  0.84243102  1
  S2-  S166  1  0.22047291  0.72136794  0.35781855  1
  S2-  S167  1  0.13005410  0.76225268  0.84330239  1
  S2-  S168  1  0.46403605  0.03143047  0.35261385  1
  S2-  S169  1  0.43094293  0.00127732  0.78551591  1
  S2-  S170  1  0.30723716  0.23046301  0.34175499  1
  S2-  S171  1  0.38191754  0.16870374  0.85027437  1
  S2-  S172  1  0.35018699  0.49356897  0.34861816  1
  S2-  S173  1  0.37042237  0.39133542  0.86277740  1
  S2-  S174  1  0.39739118  0.81820037  0.33940720  1
  S2-  S175  1  0.36270027  0.83745805  0.85338952  1
  S2-  S176  1  0.63098732  -0.10587312  0.35269180  1
  S2-  S177  1  0.62826724  0.00122747  0.84320409  1
  S2-  S178  1  0.71698677  0.25255788  0.36082274  1
  S2-  S179  1  0.65352854  0.25690697  0.84095810  1
  S2-  S180  1  0.61930183  0.46780873  0.34259276  1
  S2-  S181  1  0.65302405  0.49321760  0.84474824  1
  S2-  S182  1  0.57679370  0.67832697  0.32273051  1
  S2-  S183  1  0.70880764  0.76114913  0.85245866  1
  S2-  S184  1  0.86157559  0.00479922  0.33665100  1
  S2-  S185  1  0.87744295  -0.08044769  0.85780380  1
  S2-  S186  1  0.94982438  0.25800842  0.35056958  1
  S2-  S187  1  0.90240806  0.28155581  0.83128787  1
  S2-  S188  1  0.84842092  0.49680169  0.35198440  1
  S2-  S189  1  0.86724757  0.48860213  0.84708800  1
  S2-  S190  1  0.78072136  0.74043071  0.36212435  1
  S2-  S191  1  0.90983273  0.69836261  0.82431790  1
  S2-  S192  1  -0.02783746  0.11838541  0.45294563  1
  S2-  S193  1  -0.00515997  0.14073806  0.94622336  1
  S2-  S194  1  -0.02882004  0.37471142  0.46113831  1
  S2-  S195  1  -0.00758508  0.39481168  0.95824138  1
  S2-  S196  1  -0.02414283  0.62242545  0.45552942  1
  S2-  S197  1  -0.00630191  0.64344082  0.94972336  1
  S2-  S198  1  -0.02320224  0.87232824  0.44782011  1
  S2-  S199  1  0.00030104  0.89217834  0.95523237  1
  S2-  S200  1  0.22913371  0.12611010  0.45715406  1
  S2-  S201  1  0.24307330  0.14611313  0.95982055  1
  S2-  S202  1  0.22791687  0.37321773  0.45857713  1
  S2-  S203  1  0.24179980  0.39152878  0.96152638  1
  S2-  S204  1  0.22124801  0.61445541  0.45956161  1
  S2-  S205  1  0.24459624  0.64090268  0.95348316  1
  S2-  S206  1  0.22404766  0.86582036  0.46215265  1
  S2-  S207  1  0.24571649  0.89397069  0.95539987  1
  S2-  S208  1  0.47604551  0.13171304  0.45313866  1
  S2-  S209  1  0.49632006  0.13805652  0.95110693  1
  S2-  S210  1  0.47759475  0.37487016  0.45319169  1
  S2-  S211  1  0.50016907  0.38927906  0.95665021  1
  S2-  S212  1  0.47615000  0.62404433  0.44873723  1
  S2-  S213  1  0.49073886  0.64263401  0.95572765  1
  S2-  S214  1  0.47563954  0.86481594  0.45126711  1
  S2-  S215  1  0.49213044  0.89577611  0.95122261  1
  S2-  S216  1  0.72090461  0.11779591  0.45446530  1
  S2-  S217  1  0.74791635  0.14021344  0.94458679  1
  S2-  S218  1  0.72318268  0.37653978  0.46486466  1
  S2-  S219  1  0.74471066  0.39374500  0.95843941  1
  S2-  S220  1  0.72459206  0.62154999  0.46226899  1
  S2-  S221  1  0.74731282  0.64205174  0.95600224  1
  S2-  S222  1  0.72518347  0.87099407  0.46382877  1
  S2-  S223  1  0.74152972  0.89208458  0.95906293  1
  S2-  S224  1  0.11749511  0.02009549  0.04407647  1
  S2-  S225  1  0.10490154  -0.00450134  0.54623895  1
  S2-  S226  1  0.11408974  0.26866804  0.04854204  1
  S2-  S227  1  0.09871693  0.24669266  0.53569360  1
  S2-  S228  1  0.11868992  0.51618563  0.05082271  1
  S2-  S229  1  0.09337252  0.49352589  0.55131873  1
  S2-  S230  1  0.12250230  0.76317043  0.04945760  1
  S2-  S231  1  0.09927443  0.74716582  0.54635710  1
  S2-  S232  1  0.36644469  0.01530705  0.05297768  1
  S2-  S233  1  0.34635841  -0.00352984  0.53570014  1
  S2-  S234  1  0.37153312  0.26505656  0.04350445  1
  S2-  S235  1  0.35158041  0.25181170  0.54368642  1
  S2-  S236  1  0.36801227  0.51124885  0.03861123  1
  S2-  S237  1  0.35151926  0.49591005  0.55337535  1
  S2-  S238  1  0.36142276  0.77629738  0.04766616  1
  S2-  S239  1  0.34670229  0.74188143  0.54061817  1
  S2-  S240  1  0.62134103  0.01502868  0.04883887  1
  S2-  S241  1  0.60082102  -0.00398315  0.53865955  1
  S2-  S242  1  0.62288343  0.25850215  0.04208977  1
  S2-  S243  1  0.60164602  0.24465196  0.54285019  1
  S2-  S244  1  0.61980362  0.52023652  0.04887934  1
  S2-  S245  1  0.60054178  0.49711245  0.54713737  1
  S2-  S246  1  0.61430112  0.76684850  0.04499880  1
  S2-  S247  1  0.60519325  0.74512915  0.54164999  1
  S2-  S248  1  0.86781426  0.01516906  0.04560160  1
  S2-  S249  1  0.85108976  -0.00485226  0.54472117  1
  S2-  S250  1  0.86813758  0.26425156  0.03942006  1
  S2-  S251  1  0.84590294  0.24037592  0.54247590  1
  S2-  S252  1  0.86814527  0.51903882  0.04861252  1
  S2-  S253  1  0.85158466  0.49885019  0.55578959  1
  S2-  S254  1  0.86878770  0.76708321  0.04157204  1
  S2-  S255  1  0.84949191  0.74867125  0.55614985  1
