# generated using pymatgen
data_La9Ce10Pr6Nd4Sm3(BiS2)32
_symmetry_space_group_name_H-M   'P 1'
_cell_length_a   16.17316382
_cell_length_b   16.12400210
_cell_length_c   27.13090696
_cell_angle_alpha   90.08641931
_cell_angle_beta   90.34650344
_cell_angle_gamma   89.88312656
_symmetry_Int_Tables_number   1
_chemical_formula_structural   La9Ce10Pr6Nd4Sm3(BiS2)32
_chemical_formula_sum   'La18 Ce20 Pr12 Nd8 Sm6 Bi64 S128'
_cell_volume   7074.94083156
_cell_formula_units_Z   2
loop_
 _symmetry_equiv_pos_site_id
 _symmetry_equiv_pos_as_xyz
  1  'x, y, z'
loop_
 _atom_type_symbol
 _atom_type_oxidation_number
  La3+  3.0
  Ce3+  3.0
  Pr3+  3.0
  Nd3+  3.0
  Sm3+  3.0
  Bi2+  2.0
  S2-  -2.0
loop_
 _atom_site_type_symbol
 _atom_site_label
 _atom_site_symmetry_multiplicity
 _atom_site_fract_x
 _atom_site_fract_y
 _atom_site_fract_z
 _atom_site_occupancy
  La3+  La0  1  0.75130378  0.12521383  0.11021841  1
  La3+  La1  1  0.36961630  0.25531031  0.91445229  1
  La3+  La2  1  0.00424869  0.63154106  0.06993098  1
  La3+  La3  1  0.00369096  0.36974159  0.07806739  1
  La3+  La4  1  0.11385696  0.26068872  0.92777497  1
  La3+  La5  1  0.61827723  0.74857392  0.90545904  1
  La3+  La6  1  0.62877907  -0.00412996  0.44066246  1
  La3+  La7  1  0.50137994  0.63019454  0.06386708  1
  La3+  La8  1  0.13338476  0.24022299  0.43385659  1
  La3+  La9  1  0.25641731  0.63913184  0.08244436  1
  La3+  La10  1  0.25502366  0.87275770  0.56685455  1
  La3+  La11  1  0.75804660  0.11878421  0.56615068  1
  La3+  La12  1  0.00744052  0.13391430  0.57480065  1
  La3+  La13  1  0.38536659  0.00744499  0.89860225  1
  La3+  La14  1  0.87708813  0.50807060  0.93685717  1
  La3+  La15  1  0.25764171  0.13649118  0.58882586  1
  La3+  La16  1  0.51005560  0.86896784  0.59206546  1
  La3+  La17  1  0.37001534  0.50500254  0.93740283  1
  Ce3+  Ce18  1  0.25926247  0.61961713  0.55120442  1
  Ce3+  Ce19  1  0.25279277  0.12853995  0.04755531  1
  Ce3+  Ce20  1  0.50587004  0.62683096  0.56055320  1
  Ce3+  Ce21  1  0.25182970  0.37044566  0.06470107  1
  Ce3+  Ce22  1  0.50493204  0.37659766  0.56507174  1
  Ce3+  Ce23  1  0.75557251  0.38218673  0.07120016  1
  Ce3+  Ce24  1  0.38813045  -0.00182526  0.45154839  1
  Ce3+  Ce25  1  0.25577236  0.88066773  0.04959623  1
  Ce3+  Ce26  1  0.88601701  0.74668433  0.44899903  1
  Ce3+  Ce27  1  0.13197933  0.75319941  0.93815646  1
  Ce3+  Ce28  1  0.75962136  0.37206289  0.56111882  1
  Ce3+  Ce29  1  0.13353929  0.49295203  0.43101502  1
  Ce3+  Ce30  1  0.62560291  0.00530688  0.93301926  1
  Ce3+  Ce31  1  0.74911570  0.88354629  0.05272316  1
  Ce3+  Ce32  1  0.01151968  0.61452484  0.56080556  1
  Ce3+  Ce33  1  0.62866961  0.50489334  0.93758927  1
  Ce3+  Ce34  1  0.12331701  0.00405555  0.93431535  1
  Ce3+  Ce35  1  0.87769875  0.75178024  0.93725601  1
  Ce3+  Ce36  1  0.37151219  0.75257269  0.93035608  1
  Ce3+  Ce37  1  0.50385462  0.12525658  0.57403081  1
  Pr3+  Pr38  1  0.38472593  0.24668182  0.44151483  1
  Pr3+  Pr39  1  0.75181971  0.63096721  0.06585760  1
  Pr3+  Pr40  1  0.13381895  0.74781241  0.43379165  1
  Pr3+  Pr41  1  0.88345886  0.48977359  0.42821446  1
  Pr3+  Pr42  1  -0.00100786  0.88507311  0.06424847  1
  Pr3+  Pr43  1  0.38927863  0.49842949  0.42692529  1
  Pr3+  Pr44  1  0.38883017  0.75281241  0.43185991  1
  Pr3+  Pr45  1  0.62558913  0.25264032  0.94214682  1
  Pr3+  Pr46  1  0.50298565  0.37491534  0.05289990  1
  Pr3+  Pr47  1  0.88298144  0.24150119  0.43167133  1
  Pr3+  Pr48  1  0.87479737  0.00520284  0.93794596  1
  Pr3+  Pr49  1  0.63373215  0.49828263  0.44474147  1
  Nd3+  Nd50  1  0.00809393  0.12463419  0.07018382  1
  Nd3+  Nd51  1  0.50243052  0.12928307  0.06076692  1
  Nd3+  Nd52  1  0.76056308  0.61817787  0.56252871  1
  Nd3+  Nd53  1  0.26182152  0.38288133  0.57363458  1
  Nd3+  Nd54  1  0.13295481  0.00115815  0.44860573  1
  Nd3+  Nd55  1  0.87264383  0.25819832  0.94228237  1
  Nd3+  Nd56  1  0.63424410  0.74932952  0.43946256  1
  Nd3+  Nd57  1  0.00918572  0.87605580  0.56814811  1
  Sm3+  Sm58  1  0.75941981  0.86773326  0.56877632  1
  Sm3+  Sm59  1  0.87584903  -0.00395864  0.43574420  1
  Sm3+  Sm60  1  0.00936202  0.37549391  0.56025401  1
  Sm3+  Sm61  1  0.50299509  0.88245709  0.04935003  1
  Sm3+  Sm62  1  0.63190968  0.24650531  0.44856123  1
  Sm3+  Sm63  1  0.12461366  0.50399475  0.95239394  1
  Bi2+  Bi64  1  0.02395998  0.18082463  0.30124355  1
  Bi2+  Bi65  1  -0.04643425  0.10618134  0.78848379  1
  Bi2+  Bi66  1  -0.00673245  0.42169592  0.30409882  1
  Bi2+  Bi67  1  -0.02913914  0.36686658  0.79713335  1
  Bi2+  Bi68  1  -0.04777894  0.68531699  0.28907367  1
  Bi2+  Bi69  1  0.02078524  0.63280886  0.79385898  1
  Bi2+  Bi70  1  0.08838342  0.88989928  0.28654817  1
  Bi2+  Bi71  1  0.02399196  0.82164382  0.82998187  1
  Bi2+  Bi72  1  0.27013374  0.08309057  0.29990624  1
  Bi2+  Bi73  1  0.22970099  0.10184062  0.79293877  1
  Bi2+  Bi74  1  0.27369574  0.34644587  0.22687894  1
  Bi2+  Bi75  1  0.21373108  0.39370829  0.79124222  1
  Bi2+  Bi76  1  0.23578539  0.61318690  0.28148742  1
  Bi2+  Bi77  1  0.28367047  0.58279797  0.79354726  1
  Bi2+  Bi78  1  0.29327516  0.88354835  0.29193058  1
  Bi2+  Bi79  1  0.20584269  0.82278823  0.78149987  1
  Bi2+  Bi80  1  0.46384535  0.12806571  0.29491003  1
  Bi2+  Bi81  1  0.57699693  0.14178033  0.75756149  1
  Bi2+  Bi82  1  0.53250264  0.35121232  0.31599197  1
  Bi2+  Bi83  1  0.47340898  0.39742325  0.77698234  1
  Bi2+  Bi84  1  0.48417030  0.62656902  0.30286147  1
  Bi2+  Bi85  1  0.48101542  0.61292354  0.78819151  1
  Bi2+  Bi86  1  0.50536312  0.90594086  0.28653667  1
  Bi2+  Bi87  1  0.52918735  0.87810008  0.77799757  1
  Bi2+  Bi88  1  0.75570061  0.11499293  0.30027569  1
  Bi2+  Bi89  1  0.76343241  0.16261579  0.79293509  1
  Bi2+  Bi90  1  0.68179656  0.35745161  0.24567147  1
  Bi2+  Bi91  1  0.67698786  0.36852076  0.80590088  1
  Bi2+  Bi92  1  0.68685528  0.70849706  0.30294601  1
  Bi2+  Bi93  1  0.76797544  0.54410862  0.79989267  1
  Bi2+  Bi94  1  0.78842576  0.87435911  0.28228038  1
  Bi2+  Bi95  1  0.84100308  0.84992656  0.79306488  1
  Bi2+  Bi96  1  0.17022699  0.00146146  0.20820072  1
  Bi2+  Bi97  1  0.06221776  -0.06784781  0.72426176  1
  Bi2+  Bi98  1  0.12019666  0.23228140  0.21094556  1
  Bi2+  Bi99  1  0.09269069  0.20862639  0.70773211  1
  Bi2+  Bi100  1  0.05876949  0.49212405  0.20758388  1
  Bi2+  Bi101  1  0.13762230  0.51663515  0.71352730  1
  Bi2+  Bi102  1  0.10991565  0.75091150  0.19566974  1
  Bi2+  Bi103  1  0.08988743  0.70511458  0.69032914  1
  Bi2+  Bi104  1  0.36942478  0.02969850  0.20570670  1
  Bi2+  Bi105  1  0.35731659  -0.00565890  0.70915233  1
  Bi2+  Bi106  1  0.35274781  0.21560269  0.15657467  1
  Bi2+  Bi107  1  0.35814270  0.26735659  0.71571248  1
  Bi2+  Bi108  1  0.42303075  0.46482158  0.22893811  1
  Bi2+  Bi109  1  0.42318680  0.55117152  0.68161045  1
  Bi2+  Bi110  1  0.37737738  0.76456595  0.20549304  1
  Bi2+  Bi111  1  0.32688674  0.71741792  0.71335140  1
  Bi2+  Bi112  1  0.63908279  -0.01776427  0.21726186  1
  Bi2+  Bi113  1  0.72117535  0.04526640  0.70274908  1
  Bi2+  Bi114  1  0.52637955  0.24797749  0.20393098  1
  Bi2+  Bi115  1  0.56931204  0.30106789  0.69021978  1
  Bi2+  Bi116  1  0.59077748  0.56979288  0.18837785  1
  Bi2+  Bi117  1  0.61577064  0.48812465  0.71158041  1
  Bi2+  Bi118  1  0.59994255  0.76735152  0.20061548  1
  Bi2+  Bi119  1  0.64221625  0.74337726  0.71523498  1
  Bi2+  Bi120  1  0.93931334  -0.13115647  0.20215819  1
  Bi2+  Bi121  1  0.87582443  -0.08480105  0.68356509  1
  Bi2+  Bi122  1  0.87231770  0.28843236  0.21887921  1
  Bi2+  Bi123  1  0.83182985  0.30833936  0.72128567  1
  Bi2+  Bi124  1  0.75677434  0.54245397  0.24876626  1
  Bi2+  Bi125  1  0.89875114  0.50301722  0.71651557  1
  Bi2+  Bi126  1  0.79464147  0.72764813  0.19282146  1
  Bi2+  Bi127  1  0.89822957  0.71507578  0.70875500  1
  S2-  S128  1  -0.01659126  0.22957424  0.15044653  1
  S2-  S129  1  -0.02218631  0.05977415  0.66779096  1
  S2-  S130  1  -0.07117535  0.43083293  0.16609837  1
  S2-  S131  1  -0.00143035  0.27458677  0.64266529  1
  S2-  S132  1  -0.02727589  0.65303274  0.17030942  1
  S2-  S133  1  0.01217198  0.49956542  0.63532128  1
  S2-  S134  1  -0.00599110  0.99257353  0.14475796  1
  S2-  S135  1  0.12741330  0.85927390  0.64262940  1
  S2-  S136  1  0.16772358  0.12282076  0.13479310  1
  S2-  S137  1  0.20091822  0.07432977  0.68367071  1
  S2-  S138  1  0.15153889  0.37759989  0.14720644  1
  S2-  S139  1  0.21907937  0.28174347  0.65597171  1
  S2-  S140  1  0.18775837  0.60083605  0.17675678  1
  S2-  S141  1  0.25446981  0.53073706  0.63612047  1
  S2-  S142  1  0.24885561  0.80581265  0.13989334  1
  S2-  S143  1  0.34917746  0.85347512  0.65262264  1
  S2-  S144  1  0.58846763  0.11149275  0.15053188  1
  S2-  S145  1  0.40103338  0.13961029  0.65409310  1
  S2-  S146  1  0.52026300  0.41453158  0.15175410  1
  S2-  S147  1  0.40147168  0.38345345  0.64359949  1
  S2-  S148  1  0.39864097  0.63607895  0.14722308  1
  S2-  S149  1  0.52001848  0.71534850  0.64505813  1
  S2-  S150  1  0.48632934  0.86331624  0.14854252  1
  S2-  S151  1  0.50716906  0.96476390  0.68431062  1
  S2-  S152  1  0.81599889  0.12446413  0.21299699  1
  S2-  S153  1  0.77220792  0.19273091  0.65733659  1
  S2-  S154  1  0.73987198  0.28891242  0.15464258  1
  S2-  S155  1  0.77524507  0.43977411  0.65004441  1
  S2-  S156  1  0.73873203  0.51768172  0.14316398  1
  S2-  S157  1  0.75068974  0.67031752  0.65819485  1
  S2-  S158  1  0.74270243  0.95030704  0.14365821  1
  S2-  S159  1  0.68301059  0.87986367  0.65695511  1
  S2-  S160  1  0.13121027  0.09782862  0.36446881  1
  S2-  S161  1  0.08608291  0.03283954  0.83812461  1
  S2-  S162  1  0.11508814  0.31012633  0.33898522  1
  S2-  S163  1  0.19572630  0.24766072  0.83702825  1
  S2-  S164  1  0.13187659  0.52656162  0.33261306  1
  S2-  S165  1  0.09287529  0.44256073  0.86101996  1
  S2-  S166  1  0.09846374  0.73567192  0.33394840  1
  S2-  S167  1  0.24261096  0.71553461  0.86307888  1
  S2-  S168  1  0.49166747  0.00230409  0.36943900  1
  S2-  S169  1  0.31287630  -0.05468314  0.81012419  1
  S2-  S170  1  0.38985714  0.26863756  0.33998661  1
  S2-  S171  1  0.37248118  0.14681630  0.83376242  1
  S2-  S172  1  0.35522981  0.51319607  0.32701693  1
  S2-  S173  1  0.35966396  0.39935539  0.85433410  1
  S2-  S174  1  0.31482869  0.72834813  0.33791527  1
  S2-  S175  1  0.46845015  0.75928473  0.84548587  1
  S2-  S176  1  0.74137071  -0.02517663  0.36338571  1
  S2-  S177  1  0.54424603  -0.00353392  0.84435747  1
  S2-  S178  1  0.64311878  0.22080636  0.35134120  1
  S2-  S179  1  0.58103817  0.23927425  0.84269357  1
  S2-  S180  1  0.57794937  0.51602141  0.34875972  1
  S2-  S181  1  0.62668864  0.59146942  0.85110448  1
  S2-  S182  1  0.52861602  0.77144736  0.35936101  1
  S2-  S183  1  0.67950860  0.80574397  0.81373936  1
  S2-  S184  1  0.89966012  0.11016095  0.35926927  1
  S2-  S185  1  0.83286412  0.01163804  0.83804642  1
  S2-  S186  1  0.87199101  0.35362526  0.35232639  1
  S2-  S187  1  0.97388171  0.23042998  0.85940229  1
  S2-  S188  1  0.87588114  0.56896845  0.33518569  1
  S2-  S189  1  0.84281554  0.39369592  0.86057646  1
  S2-  S190  1  0.88737962  0.79680827  0.35575437  1
  S2-  S191  1  0.87644898  0.63585082  0.86028468  1
  S2-  S192  1  0.00333375  0.11820794  0.46594706  1
  S2-  S193  1  -0.00090411  0.12534723  0.96095276  1
  S2-  S194  1  0.00963887  0.36973279  0.45404305  1
  S2-  S195  1  -0.00197323  0.38240374  0.96731048  1
  S2-  S196  1  0.00922886  0.62099916  0.45115135  1
  S2-  S197  1  0.00797542  0.63223623  0.95994166  1
  S2-  S198  1  0.00902896  0.87718433  0.45789933  1
  S2-  S199  1  -0.00000813  0.87873300  0.95531236  1
  S2-  S200  1  0.26475481  0.12092858  0.46240475  1
  S2-  S201  1  0.25004227  0.12402138  0.94279030  1
  S2-  S202  1  0.26195986  0.37454125  0.44506011  1
  S2-  S203  1  0.24548228  0.37905301  0.95733558  1
  S2-  S204  1  0.25975954  0.62188661  0.44515695  1
  S2-  S205  1  0.24888007  0.62498910  0.96758465  1
  S2-  S206  1  0.25763076  0.87533974  0.45295671  1
  S2-  S207  1  0.25486298  0.88577870  0.94356992  1
  S2-  S208  1  0.50992578  0.12762170  0.46662563  1
  S2-  S209  1  0.49773246  0.12758798  0.95121098  1
  S2-  S210  1  0.50987251  0.37233124  0.45609728  1
  S2-  S211  1  0.50239060  0.38071253  0.94655672  1
  S2-  S212  1  0.50922560  0.62518429  0.45467974  1
  S2-  S213  1  0.49849293  0.62755302  0.95363809  1
  S2-  S214  1  0.50825779  0.87110142  0.47175922  1
  S2-  S215  1  0.50079864  0.87853739  0.94687479  1
  S2-  S216  1  0.75453493  0.12277203  0.45969807  1
  S2-  S217  1  0.75092456  0.13088661  0.94027686  1
  S2-  S218  1  0.75267141  0.36991530  0.45409213  1
  S2-  S219  1  0.74618115  0.37937268  0.96366760  1
  S2-  S220  1  0.75855863  0.62374098  0.45286148  1
  S2-  S221  1  0.74591375  0.63523276  0.95837944  1
  S2-  S222  1  0.75950361  0.86907622  0.46432978  1
  S2-  S223  1  0.74810334  0.87533221  0.94467397  1
  S2-  S224  1  0.12918447  -0.00135678  0.03937647  1
  S2-  S225  1  0.13373436  0.00636016  0.55318821  1
  S2-  S226  1  0.13011074  0.25265647  0.03841762  1
  S2-  S227  1  0.13850486  0.25523472  0.54264085  1
  S2-  S228  1  0.12944062  0.50704472  0.05484272  1
  S2-  S229  1  0.13534018  0.49488748  0.53565051  1
  S2-  S230  1  0.12384874  0.75954236  0.04508706  1
  S2-  S231  1  0.13074471  0.74229518  0.54113691  1
  S2-  S232  1  0.37878677  0.00481495  0.04969168  1
  S2-  S233  1  0.38138988  0.00140287  0.55584759  1
  S2-  S234  1  0.37769080  0.25287650  0.03212918  1
  S2-  S235  1  0.38132848  0.25342260  0.54738611  1
  S2-  S236  1  0.37475234  0.49865650  0.04753750  1
  S2-  S237  1  0.38607016  0.49998554  0.53483780  1
  S2-  S238  1  0.37988564  0.75842916  0.03754286  1
  S2-  S239  1  0.37891839  0.74456018  0.54176843  1
  S2-  S240  1  0.62507767  0.00679511  0.03813789  1
  S2-  S241  1  0.62976772  -0.00280626  0.55435908  1
  S2-  S242  1  0.62815703  0.25006887  0.04864090  1
  S2-  S243  1  0.63093447  0.25009684  0.55376706  1
  S2-  S244  1  0.62415662  0.50406166  0.04144162  1
  S2-  S245  1  0.63098996  0.50015943  0.55167233  1
  S2-  S246  1  0.62588331  0.75753335  0.05127144  1
  S2-  S247  1  0.63991702  0.74564508  0.54520972  1
  S2-  S248  1  0.86931769  0.01104526  0.04486669  1
  S2-  S249  1  0.88167093  -0.00581304  0.54723100  1
  S2-  S250  1  0.86831511  0.24727520  0.04920996  1
  S2-  S251  1  0.87946586  0.25113505  0.54112109  1
  S2-  S252  1  0.88041054  0.50878150  0.04623724  1
  S2-  S253  1  0.88185879  0.49666615  0.53652288  1
  S2-  S254  1  0.87630691  0.75745417  0.04761747  1
  S2-  S255  1  0.88764571  0.74678748  0.55571523  1
