# generated using pymatgen
data_La9Ce10Pr6Nd4Sm3(BiS2)32
_symmetry_space_group_name_H-M   'P 1'
_cell_length_a   16.22825115
_cell_length_b   16.21878821
_cell_length_c   27.02545056
_cell_angle_alpha   90.05287029
_cell_angle_beta   89.82358482
_cell_angle_gamma   89.98431752
_symmetry_Int_Tables_number   1
_chemical_formula_structural   La9Ce10Pr6Nd4Sm3(BiS2)32
_chemical_formula_sum   'La18 Ce20 Pr12 Nd8 Sm6 Bi64 S128'
_cell_volume   7113.13098046
_cell_formula_units_Z   2
loop_
 _symmetry_equiv_pos_site_id
 _symmetry_equiv_pos_as_xyz
  1  'x, y, z'
loop_
 _atom_type_symbol
 _atom_type_oxidation_number
  La3+  3.0
  Ce3+  3.0
  Pr3+  3.0
  Nd3+  3.0
  Sm3+  3.0
  Bi2+  2.0
  S2-  -2.0
loop_
 _atom_site_type_symbol
 _atom_site_label
 _atom_site_symmetry_multiplicity
 _atom_site_fract_x
 _atom_site_fract_y
 _atom_site_fract_z
 _atom_site_occupancy
  La3+  La0  1  0.62065193  0.74729570  0.43485374  1
  La3+  La1  1  0.73784800  0.36312732  0.58552284  1
  La3+  La2  1  0.38400789  0.01570106  0.92241754  1
  La3+  La3  1  0.75588220  0.62610609  0.07298692  1
  La3+  La4  1  0.24637936  0.88183279  0.59684593  1
  La3+  La5  1  0.49846758  0.12582143  0.07074334  1
  La3+  La6  1  0.13278387  0.49426515  0.91375901  1
  La3+  La7  1  0.12347430  0.74967630  0.44247385  1
  La3+  La8  1  0.24348298  0.38943137  0.08530977  1
  La3+  La9  1  0.38065703  0.76174398  0.91916489  1
  La3+  La10  1  -0.00431542  0.37531540  0.56854199  1
  La3+  La11  1  0.36830411  0.50435615  0.39517116  1
  La3+  La12  1  0.88572872  0.00445396  0.41220477  1
  La3+  La13  1  0.74712684  0.88245907  0.11089027  1
  La3+  La14  1  0.49439050  0.37275332  0.56241706  1
  La3+  La15  1  -0.00092670  0.38279147  0.06463384  1
  La3+  La16  1  0.74184277  0.63340702  0.57937923  1
  La3+  La17  1  0.49900268  0.38344476  0.06515995  1
  Ce3+  Ce18  1  0.62996871  0.75331715  0.93706269  1
  Ce3+  Ce19  1  0.12554926  0.75257444  0.93770873  1
  Ce3+  Ce20  1  0.37199045  0.50329125  0.94076798  1
  Ce3+  Ce21  1  0.62082343  0.49778088  0.44995141  1
  Ce3+  Ce22  1  -0.00236517  0.62648175  0.56116358  1
  Ce3+  Ce23  1  0.12633184  0.49726816  0.43975743  1
  Ce3+  Ce24  1  -0.00695516  0.87831606  0.05953048  1
  Ce3+  Ce25  1  0.62547879  0.00093306  0.43677161  1
  Ce3+  Ce26  1  0.36994605  0.74600157  0.44607855  1
  Ce3+  Ce27  1  0.62628230  0.50345859  0.93503387  1
  Ce3+  Ce28  1  0.49273313  0.62834205  0.56086728  1
  Ce3+  Ce29  1  0.25128694  0.87945309  0.04780362  1
  Ce3+  Ce30  1  0.74974399  0.87722662  0.55384315  1
  Ce3+  Ce31  1  0.24874961  0.12546141  0.06293062  1
  Ce3+  Ce32  1  0.86745443  0.49799531  0.44933800  1
  Ce3+  Ce33  1  0.87154855  0.25295000  0.44115291  1
  Ce3+  Ce34  1  0.74999920  0.12533183  0.06080951  1
  Ce3+  Ce35  1  0.24687517  0.62397123  0.56627737  1
  Ce3+  Ce36  1  0.86992603  0.73697925  0.43855873  1
  Ce3+  Ce37  1  0.50391219  0.87813013  0.05484169  1
  Pr3+  Pr38  1  -0.00631580  0.87798669  0.56521638  1
  Pr3+  Pr39  1  0.24869804  0.12504912  0.56541426  1
  Pr3+  Pr40  1  0.87465662  0.75148341  0.93486959  1
  Pr3+  Pr41  1  0.50193353  0.63258120  0.05206419  1
  Pr3+  Pr42  1  0.24933847  0.37581447  0.55851127  1
  Pr3+  Pr43  1  0.12483932  0.00017256  0.44240930  1
  Pr3+  Pr44  1  0.24742793  0.63255605  0.05788986  1
  Pr3+  Pr45  1  0.12428989  0.25508050  0.94633700  1
  Pr3+  Pr46  1  -0.00208880  0.62842029  0.04865791  1
  Pr3+  Pr47  1  0.75004415  0.38018246  0.06762025  1
  Pr3+  Pr48  1  0.37164480  0.00075784  0.42644660  1
  Pr3+  Pr49  1  0.37407045  0.25506762  0.94566372  1
  Nd3+  Nd50  1  0.86894169  0.50088200  0.92655841  1
  Nd3+  Nd51  1  -0.00180593  0.12629632  0.06361534  1
  Nd3+  Nd52  1  0.62347222  0.25957555  0.43202091  1
  Nd3+  Nd53  1  0.87379615  0.00374423  0.94195972  1
  Nd3+  Nd54  1  0.37193165  0.24764935  0.42982685  1
  Nd3+  Nd55  1  0.12291536  0.00287474  0.93804467  1
  Nd3+  Nd56  1  0.62860607  0.00527314  0.93851744  1
  Nd3+  Nd57  1  0.49494615  0.12048469  0.55301078  1
  Sm3+  Sm58  1  0.49354589  0.87767380  0.55154669  1
  Sm3+  Sm59  1  -0.00706624  0.12059196  0.55813912  1
  Sm3+  Sm60  1  0.74856507  0.12129632  0.55206332  1
  Sm3+  Sm61  1  0.62668124  0.25557893  0.94932101  1
  Sm3+  Sm62  1  0.87553007  0.25495734  0.94864053  1
  Sm3+  Sm63  1  0.12412356  0.25364024  0.44567024  1
  Bi2+  Bi64  1  0.02588247  0.14821691  0.29861860  1
  Bi2+  Bi65  1  0.00803609  0.13921123  0.79539940  1
  Bi2+  Bi66  1  -0.02639250  0.36271717  0.29088284  1
  Bi2+  Bi67  1  -0.00357601  0.34855039  0.79564299  1
  Bi2+  Bi68  1  -0.00890932  0.55761711  0.29552870  1
  Bi2+  Bi69  1  -0.03648469  0.64661548  0.79820072  1
  Bi2+  Bi70  1  0.02082910  0.85599827  0.29607029  1
  Bi2+  Bi71  1  -0.00994073  0.90591224  0.78552891  1
  Bi2+  Bi72  1  0.25046105  0.09041790  0.26456888  1
  Bi2+  Bi73  1  0.26783649  0.16157407  0.76890668  1
  Bi2+  Bi74  1  0.23203286  0.36262309  0.28715648  1
  Bi2+  Bi75  1  0.27235284  0.35474303  0.79166775  1
  Bi2+  Bi76  1  0.23321436  0.64571408  0.28504363  1
  Bi2+  Bi77  1  0.23766357  0.61802788  0.78656121  1
  Bi2+  Bi78  1  0.27530884  0.91304141  0.30973310  1
  Bi2+  Bi79  1  0.23812716  0.85395619  0.79920772  1
  Bi2+  Bi80  1  0.47210974  0.10204602  0.28669075  1
  Bi2+  Bi81  1  0.49146905  0.17283859  0.79381178  1
  Bi2+  Bi82  1  0.52027005  0.35520333  0.29694521  1
  Bi2+  Bi83  1  0.46875821  0.37811293  0.78228154  1
  Bi2+  Bi84  1  0.50110182  0.67515558  0.29135627  1
  Bi2+  Bi85  1  0.50022490  0.57246498  0.76086815  1
  Bi2+  Bi86  1  0.47087825  0.90074054  0.30170303  1
  Bi2+  Bi87  1  0.52303255  0.90936424  0.78896804  1
  Bi2+  Bi88  1  0.74477616  0.20621610  0.28576130  1
  Bi2+  Bi89  1  0.73938768  0.08230440  0.79610610  1
  Bi2+  Bi90  1  0.79647264  0.37407734  0.33674142  1
  Bi2+  Bi91  1  0.74168214  0.29213459  0.78657065  1
  Bi2+  Bi92  1  0.81751150  0.62728700  0.26737202  1
  Bi2+  Bi93  1  0.68442770  0.64430608  0.79984081  1
  Bi2+  Bi94  1  0.74192941  0.85331464  0.31371797  1
  Bi2+  Bi95  1  0.77748219  0.89160568  0.78577650  1
  Bi2+  Bi96  1  0.13716622  -0.05970661  0.22201855  1
  Bi2+  Bi97  1  0.09772179  0.01821711  0.71655021  1
  Bi2+  Bi98  1  0.05720870  0.25134151  0.20483666  1
  Bi2+  Bi99  1  0.11401553  0.24666572  0.72000036  1
  Bi2+  Bi100  1  0.11555376  0.54578635  0.20343643  1
  Bi2+  Bi101  1  0.11182847  0.49273095  0.70808010  1
  Bi2+  Bi102  1  0.16221188  0.74216189  0.19038457  1
  Bi2+  Bi103  1  0.05959515  0.75272070  0.72013687  1
  Bi2+  Bi104  1  0.37606258  -0.04109930  0.20655613  1
  Bi2+  Bi105  1  0.38139433  -0.00029064  0.70456801  1
  Bi2+  Bi106  1  0.39487164  0.22796049  0.20260277  1
  Bi2+  Bi107  1  0.37941302  0.27086870  0.69684279  1
  Bi2+  Bi108  1  0.39999746  0.49353448  0.19747821  1
  Bi2+  Bi109  1  0.36250330  0.48548863  0.69848809  1
  Bi2+  Bi110  1  0.36134420  0.75789316  0.22178934  1
  Bi2+  Bi111  1  0.40830941  0.74076014  0.70134078  1
  Bi2+  Bi112  1  0.62498684  0.00935686  0.21776433  1
  Bi2+  Bi113  1  0.66243147  -0.01154308  0.70111495  1
  Bi2+  Bi114  1  0.66630656  0.30585187  0.19886714  1
  Bi2+  Bi115  1  0.63183519  0.18341682  0.71317131  1
  Bi2+  Bi116  1  0.70339486  0.47708329  0.25185884  1
  Bi2+  Bi117  1  0.64266401  0.46167633  0.71436245  1
  Bi2+  Bi118  1  0.57514563  0.74027280  0.19626810  1
  Bi2+  Bi119  1  0.64036525  0.79243035  0.72650945  1
  Bi2+  Bi120  1  0.88017309  0.00365734  0.21485112  1
  Bi2+  Bi121  1  0.85311578  -0.00168120  0.64671945  1
  Bi2+  Bi122  1  0.85946989  0.26684498  0.19542642  1
  Bi2+  Bi123  1  0.86489398  0.15705324  0.71608506  1
  Bi2+  Bi124  1  0.88345753  0.46111534  0.18578492  1
  Bi2+  Bi125  1  0.87909947  0.51503984  0.71941142  1
  Bi2+  Bi126  1  0.97051831  0.71583936  0.21421344  1
  Bi2+  Bi127  1  0.88299780  0.82277893  0.69389121  1
  S2-  S128  1  0.00575838  0.09821767  0.16266428  1
  S2-  S129  1  0.03405032  0.14267827  0.65378077  1
  S2-  S130  1  0.09596968  0.39666932  0.14809484  1
  S2-  S131  1  0.00666583  0.38443436  0.67066820  1
  S2-  S132  1  -0.08372200  0.61540630  0.13794468  1
  S2-  S133  1  0.00906962  0.61166561  0.65988077  1
  S2-  S134  1  -0.08278921  0.87842368  0.14813934  1
  S2-  S135  1  0.09102067  0.87842449  0.65137277  1
  S2-  S136  1  0.27009262  0.13573836  0.16043036  1
  S2-  S137  1  0.24812636  0.03368143  0.65127286  1
  S2-  S138  1  0.29251920  0.34948439  0.18658979  1
  S2-  S139  1  0.22343165  0.40973634  0.65718020  1
  S2-  S140  1  0.25983468  0.54367709  0.14491903  1
  S2-  S141  1  0.28173000  0.63613127  0.66451398  1
  S2-  S142  1  0.24631253  0.89680526  0.14527496  1
  S2-  S143  1  0.28927488  0.84815875  0.69799007  1
  S2-  S144  1  0.53105123  0.12396353  0.17037259  1
  S2-  S145  1  0.44721577  0.12895321  0.64932137  1
  S2-  S146  1  0.50654640  0.35838699  0.16597413  1
  S2-  S147  1  0.58632086  0.36178816  0.64798658  1
  S2-  S148  1  0.50662294  0.59275088  0.15141614  1
  S2-  S149  1  0.52917322  0.63113135  0.65698511  1
  S2-  S150  1  0.57077680  0.89346351  0.14644827  1
  S2-  S151  1  0.46934422  0.88022521  0.64935491  1
  S2-  S152  1  0.75028352  0.05567603  0.15143396  1
  S2-  S153  1  0.74880573  0.20353064  0.63930105  1
  S2-  S154  1  0.72886689  0.49212890  0.14434237  1
  S2-  S155  1  0.79456757  0.39158522  0.68504964  1
  S2-  S156  1  0.72040899  0.72338094  0.15444150  1
  S2-  S157  1  0.75784373  0.59319081  0.68114460  1
  S2-  S158  1  0.74832002  0.89132147  0.21993229  1
  S2-  S159  1  0.73273867  0.78708636  0.63796015  1
  S2-  S160  1  0.04383041  0.00744961  0.35297968  1
  S2-  S161  1  0.14324137  -0.02055170  0.83900380  1
  S2-  S162  1  0.14480403  0.25579763  0.34661817  1
  S2-  S163  1  0.12990319  0.33548559  0.85692625  1
  S2-  S164  1  0.20720329  0.49647605  0.35069451  1
  S2-  S165  1  0.09582788  0.53169134  0.81264233  1
  S2-  S166  1  0.12401215  0.73794553  0.34050305  1
  S2-  S167  1  0.13143753  0.73296063  0.84006225  1
  S2-  S168  1  0.35198954  0.12603818  0.35444208  1
  S2-  S169  1  0.37210311  -0.08794946  0.84074841  1
  S2-  S170  1  0.36517804  0.34343835  0.34409895  1
  S2-  S171  1  0.36114132  0.16097862  0.85977284  1
  S2-  S172  1  0.43771958  0.50590875  0.29400650  1
  S2-  S173  1  0.28918915  0.49782700  0.85522090  1
  S2-  S174  1  0.36094992  0.67472002  0.35689785  1
  S2-  S175  1  0.34736560  0.71685606  0.82204423  1
  S2-  S176  1  0.61941399  -0.02883056  0.33931182  1
  S2-  S177  1  0.53896979  0.03159800  0.85408353  1
  S2-  S178  1  0.58860686  0.21095271  0.33628125  1
  S2-  S179  1  0.61844641  0.26295636  0.85046357  1
  S2-  S180  1  0.62472111  0.43994423  0.35656935  1
  S2-  S181  1  0.69121831  0.49939505  0.84423506  1
  S2-  S182  1  0.64560002  0.70385633  0.33735170  1
  S2-  S183  1  0.57090317  0.76269038  0.84449011  1
  S2-  S184  1  0.83629093  -0.01592822  0.31344902  1
  S2-  S185  1  0.90734205  0.02229482  0.84377795  1
  S2-  S186  1  0.88567243  0.16655421  0.35510304  1
  S2-  S187  1  0.87945467  0.26304282  0.84986074  1
  S2-  S188  1  0.85614492  0.59430474  0.36696020  1
  S2-  S189  1  0.90032924  0.48673089  0.82720499  1
  S2-  S190  1  0.89439192  0.79834396  0.34783103  1
  S2-  S191  1  0.83513278  0.72311897  0.83607502  1
  S2-  S192  1  0.00366128  0.13170865  0.45599490  1
  S2-  S193  1  -0.00137316  0.12944156  0.95508627  1
  S2-  S194  1  -0.00133835  0.37560779  0.45602195  1
  S2-  S195  1  -0.00400183  0.37935418  0.95468418  1
  S2-  S196  1  0.00133488  0.61935412  0.45597191  1
  S2-  S197  1  0.00063732  0.62303531  0.94120739  1
  S2-  S198  1  -0.00199250  0.87319930  0.45597269  1
  S2-  S199  1  -0.00156604  0.87861411  0.94913066  1
  S2-  S200  1  0.24286810  0.12747560  0.45741870  1
  S2-  S201  1  0.24509980  0.12713846  0.95614438  1
  S2-  S202  1  0.25030904  0.37415663  0.45338693  1
  S2-  S203  1  0.25128612  0.37729299  0.96382170  1
  S2-  S204  1  0.24807301  0.62034949  0.45883096  1
  S2-  S205  1  0.25270253  0.63369505  0.95021235  1
  S2-  S206  1  0.24927669  0.87491957  0.44758377  1
  S2-  S207  1  0.24976753  0.88074206  0.94431553  1
  S2-  S208  1  0.50046358  0.12355517  0.44749763  1
  S2-  S209  1  0.50499053  0.13579345  0.96228711  1
  S2-  S210  1  0.49188164  0.37632513  0.45328593  1
  S2-  S211  1  0.50049449  0.37813604  0.95368068  1
  S2-  S212  1  0.49387290  0.61856543  0.45212010  1
  S2-  S213  1  0.49840695  0.62718143  0.94346250  1
  S2-  S214  1  0.49447933  0.87459985  0.44604006  1
  S2-  S215  1  0.50444238  0.88116105  0.95056605  1
  S2-  S216  1  0.74413122  0.12846182  0.44699757  1
  S2-  S217  1  0.75094108  0.13190820  0.95217720  1
  S2-  S218  1  0.74516655  0.37447714  0.46843831  1
  S2-  S219  1  0.75094852  0.37530678  0.95614873  1
  S2-  S220  1  0.74016947  0.62217779  0.46746111  1
  S2-  S221  1  0.75115232  0.62640286  0.95319474  1
  S2-  S222  1  0.74931520  0.87378088  0.44657042  1
  S2-  S223  1  0.75137834  0.88077257  0.93691156  1
  S2-  S224  1  0.12164404  0.00244481  0.04670003  1
  S2-  S225  1  0.12183171  0.00149226  0.54790697  1
  S2-  S226  1  0.12404031  0.25084806  0.05324559  1
  S2-  S227  1  0.12267404  0.25003929  0.55174804  1
  S2-  S228  1  0.12424366  0.50789082  0.03739253  1
  S2-  S229  1  0.12208023  0.49977525  0.54861196  1
  S2-  S230  1  0.12118642  0.75614378  0.04533083  1
  S2-  S231  1  0.12541017  0.75201188  0.55202917  1
  S2-  S232  1  0.37639632  0.00327692  0.04237873  1
  S2-  S233  1  0.36832482  -0.00280990  0.53877995  1
  S2-  S234  1  0.37261784  0.25513628  0.05421290  1
  S2-  S235  1  0.37159300  0.24745577  0.54131458  1
  S2-  S236  1  0.37523633  0.50628736  0.04532485  1
  S2-  S237  1  0.37251829  0.50100322  0.55574881  1
  S2-  S238  1  0.37556250  0.75559938  0.04094901  1
  S2-  S239  1  0.36699935  0.75661270  0.55168612  1
  S2-  S240  1  0.62721623  0.00340100  0.04414316  1
  S2-  S241  1  0.62154592  -0.00097067  0.54537785  1
  S2-  S242  1  0.62551350  0.25375564  0.05513678  1
  S2-  S243  1  0.61764269  0.24255722  0.54000004  1
  S2-  S244  1  0.62318456  0.50367856  0.04113653  1
  S2-  S245  1  0.61951939  0.50352544  0.55486218  1
  S2-  S246  1  0.62720074  0.75526359  0.04205886  1
  S2-  S247  1  0.61334024  0.75471668  0.54284342  1
  S2-  S248  1  0.87248896  0.00315633  0.04668389  1
  S2-  S249  1  0.87330414  0.00284349  0.52912091  1
  S2-  S250  1  0.87442977  0.25262900  0.05362748  1
  S2-  S251  1  0.87528722  0.24727767  0.54814128  1
  S2-  S252  1  0.87423423  0.49947133  0.03538626  1
  S2-  S253  1  0.86823637  0.49994305  0.55877366  1
  S2-  S254  1  0.87230911  0.75610335  0.04119585  1
  S2-  S255  1  0.87564401  0.74950539  0.54623651  1
