# generated using pymatgen
data_La9Ce10Pr6Nd4Sm3(BiS2)32
_symmetry_space_group_name_H-M   'P 1'
_cell_length_a   16.22490668
_cell_length_b   16.22334496
_cell_length_c   27.15468816
_cell_angle_alpha   89.92833781
_cell_angle_beta   89.83572029
_cell_angle_gamma   90.13088544
_symmetry_Int_Tables_number   1
_chemical_formula_structural   La9Ce10Pr6Nd4Sm3(BiS2)32
_chemical_formula_sum   'La18 Ce20 Pr12 Nd8 Sm6 Bi64 S128'
_cell_volume   7147.66465438
_cell_formula_units_Z   2
loop_
 _symmetry_equiv_pos_site_id
 _symmetry_equiv_pos_as_xyz
  1  'x, y, z'
loop_
 _atom_type_symbol
 _atom_type_oxidation_number
  La3+  3.0
  Ce3+  3.0
  Pr3+  3.0
  Nd3+  3.0
  Sm3+  3.0
  Bi2+  2.0
  S2-  -2.0
loop_
 _atom_site_type_symbol
 _atom_site_label
 _atom_site_symmetry_multiplicity
 _atom_site_fract_x
 _atom_site_fract_y
 _atom_site_fract_z
 _atom_site_occupancy
  La3+  La0  1  0.75483485  0.86164559  0.56535163  1
  La3+  La1  1  0.36028391  0.76967626  0.93381573  1
  La3+  La2  1  0.89771842  0.24394179  0.44442095  1
  La3+  La3  1  0.74574524  0.88656755  0.07214971  1
  La3+  La4  1  0.13432484  0.49267828  0.44155193  1
  La3+  La5  1  0.48848878  0.64211780  0.07243899  1
  La3+  La6  1  0.60512161  0.51070085  0.92496032  1
  La3+  La7  1  0.86603500  0.51000600  0.92737669  1
  La3+  La8  1  0.88920408  -0.00624930  0.43874665  1
  La3+  La9  1  0.36005374  0.52377802  0.92889792  1
  La3+  La10  1  0.63522667  0.48388933  0.40261587  1
  La3+  La11  1  0.63662409  0.74759951  0.40100162  1
  La3+  La12  1  0.88467094  0.73913879  0.43278894  1
  La3+  La13  1  0.64221852  0.25350955  0.87673707  1
  La3+  La14  1  0.01080322  0.37105354  0.58655036  1
  La3+  La15  1  -0.01049838  0.39452659  0.07808173  1
  La3+  La16  1  0.74134359  0.38454750  0.05255421  1
  La3+  La17  1  0.39171570  0.24129345  0.44315671  1
  Ce3+  Ce18  1  0.75952589  0.36590354  0.56555460  1
  Ce3+  Ce19  1  -0.01142576  0.88978116  0.06702695  1
  Ce3+  Ce20  1  0.24682146  0.39068994  0.05375747  1
  Ce3+  Ce21  1  0.26774860  0.37196770  0.55832279  1
  Ce3+  Ce22  1  0.64640178  -0.00718694  0.43017276  1
  Ce3+  Ce23  1  -0.00958589  0.63538228  0.05389392  1
  Ce3+  Ce24  1  0.88494672  0.49135111  0.44940152  1
  Ce3+  Ce25  1  -0.01044578  0.14113609  0.05715201  1
  Ce3+  Ce26  1  0.11759081  0.26446479  0.94277803  1
  Ce3+  Ce27  1  0.61427565  0.76112820  0.93897245  1
  Ce3+  Ce28  1  0.11889937  0.51319494  0.94083477  1
  Ce3+  Ce29  1  0.13232331  0.74154576  0.43736247  1
  Ce3+  Ce30  1  0.26221639  0.11588057  0.56510118  1
  Ce3+  Ce31  1  0.77328022  0.10786800  0.57787119  1
  Ce3+  Ce32  1  0.00964307  0.61665828  0.56973065  1
  Ce3+  Ce33  1  0.36929380  0.01099995  0.94407637  1
  Ce3+  Ce34  1  0.86663020  0.76701627  0.93736924  1
  Ce3+  Ce35  1  0.74081861  0.63649557  0.05263877  1
  Ce3+  Ce36  1  0.38039860  0.26649095  0.94302545  1
  Ce3+  Ce37  1  0.49273828  0.88302744  0.07476384  1
  Pr3+  Pr38  1  0.49517266  0.13808758  0.06097793  1
  Pr3+  Pr39  1  0.61791885  0.01182584  0.93903375  1
  Pr3+  Pr40  1  0.38604918  0.74203230  0.43712545  1
  Pr3+  Pr41  1  0.01198481  0.85905674  0.56531639  1
  Pr3+  Pr42  1  0.13806513  0.24318017  0.45325102  1
  Pr3+  Pr43  1  0.51775516  0.11522200  0.56154347  1
  Pr3+  Pr44  1  0.49869799  0.39542464  0.07113628  1
  Pr3+  Pr45  1  0.24287793  0.88885727  0.07400137  1
  Pr3+  Pr46  1  0.88162956  0.26127203  0.91649122  1
  Pr3+  Pr47  1  0.39010809  -0.00581703  0.43851323  1
  Pr3+  Pr48  1  0.24319415  0.14154059  0.05988755  1
  Pr3+  Pr49  1  0.74312318  0.14262571  0.04813850  1
  Nd3+  Nd50  1  0.12075915  0.01395603  0.94883171  1
  Nd3+  Nd51  1  0.64736680  0.24181616  0.44136873  1
  Nd3+  Nd52  1  0.26479933  0.86472731  0.55427024  1
  Nd3+  Nd53  1  0.51344547  0.37167510  0.55675830  1
  Nd3+  Nd54  1  0.38850752  0.49311262  0.42840925  1
  Nd3+  Nd55  1  0.26608706  0.61790749  0.55849504  1
  Nd3+  Nd56  1  0.87169677  0.00750632  0.93100623  1
  Nd3+  Nd57  1  0.02207211  0.10358253  0.58011137  1
  Sm3+  Sm58  1  0.51434788  0.86754977  0.55011883  1
  Sm3+  Sm59  1  0.13465806  -0.00617065  0.43932617  1
  Sm3+  Sm60  1  0.11725249  0.76555113  0.95220475  1
  Sm3+  Sm61  1  0.24213008  0.63810159  0.06636250  1
  Sm3+  Sm62  1  0.51557893  0.61706480  0.54768234  1
  Sm3+  Sm63  1  0.75500397  0.61632539  0.54883659  1
  Bi2+  Bi64  1  0.02285739  0.12610484  0.28913622  1
  Bi2+  Bi65  1  0.04580475  0.10864656  0.79879978  1
  Bi2+  Bi66  1  -0.03573904  0.35207182  0.31457842  1
  Bi2+  Bi67  1  0.01457562  0.37678377  0.77602666  1
  Bi2+  Bi68  1  0.03206575  0.60401656  0.28475064  1
  Bi2+  Bi69  1  -0.04955527  0.64197104  0.79859905  1
  Bi2+  Bi70  1  -0.01509136  0.86900074  0.30259994  1
  Bi2+  Bi71  1  0.00666299  0.82753199  0.78679770  1
  Bi2+  Bi72  1  0.20837592  0.06806381  0.29509592  1
  Bi2+  Bi73  1  0.27827584  0.15597796  0.80740791  1
  Bi2+  Bi74  1  0.23505851  0.41577952  0.28208392  1
  Bi2+  Bi75  1  0.23066748  0.37771879  0.79033252  1
  Bi2+  Bi76  1  0.26446357  0.60310920  0.31343761  1
  Bi2+  Bi77  1  0.23498947  0.65286839  0.78850282  1
  Bi2+  Bi78  1  0.17734927  0.79364618  0.30648869  1
  Bi2+  Bi79  1  0.24076709  0.88616016  0.79409321  1
  Bi2+  Bi80  1  0.48911847  0.09466316  0.32091871  1
  Bi2+  Bi81  1  0.44437757  0.04711635  0.81573266  1
  Bi2+  Bi82  1  0.50606232  0.35347222  0.28371750  1
  Bi2+  Bi83  1  0.49996638  0.38084968  0.78626058  1
  Bi2+  Bi84  1  0.45060912  0.61741597  0.27265955  1
  Bi2+  Bi85  1  0.49776826  0.63610779  0.78735592  1
  Bi2+  Bi86  1  0.44565238  0.92970680  0.26737628  1
  Bi2+  Bi87  1  0.52852138  0.86812297  0.80215545  1
  Bi2+  Bi88  1  0.66990054  0.11174440  0.28261242  1
  Bi2+  Bi89  1  0.74969241  0.01445894  0.79041103  1
  Bi2+  Bi90  1  0.76572696  0.36530069  0.29331077  1
  Bi2+  Bi91  1  0.76216222  0.39475531  0.77042461  1
  Bi2+  Bi92  1  0.82292415  0.62872037  0.28345035  1
  Bi2+  Bi93  1  0.75305067  0.63792544  0.79127823  1
  Bi2+  Bi94  1  0.73681492  0.90724551  0.29043822  1
  Bi2+  Bi95  1  0.73710218  0.82774635  0.81961913  1
  Bi2+  Bi96  1  0.12536129  -0.05955518  0.21909672  1
  Bi2+  Bi97  1  0.17637372  -0.02532932  0.70191001  1
  Bi2+  Bi98  1  0.14346025  0.25335468  0.23520920  1
  Bi2+  Bi99  1  0.14218374  0.22895269  0.72897492  1
  Bi2+  Bi100  1  0.20369681  0.56051635  0.20090052  1
  Bi2+  Bi101  1  0.13263825  0.50635795  0.72204704  1
  Bi2+  Bi102  1  0.10472055  0.73922394  0.20185830  1
  Bi2+  Bi103  1  0.09607044  0.70702917  0.71195105  1
  Bi2+  Bi104  1  0.33583354  0.05459380  0.18623408  1
  Bi2+  Bi105  1  0.36438678  0.05503683  0.70962534  1
  Bi2+  Bi106  1  0.35174511  0.19957136  0.26221698  1
  Bi2+  Bi107  1  0.33890970  0.26562298  0.71839924  1
  Bi2+  Bi108  1  0.38929716  0.41558399  0.20539326  1
  Bi2+  Bi109  1  0.36600350  0.51187622  0.69130138  1
  Bi2+  Bi110  1  0.32121968  0.78113927  0.22497831  1
  Bi2+  Bi111  1  0.38860468  0.85708613  0.72007824  1
  Bi2+  Bi112  1  0.55846811  0.03334885  0.19834844  1
  Bi2+  Bi113  1  0.62067205  -0.01857335  0.70457003  1
  Bi2+  Bi114  1  0.62480649  0.24844600  0.20401240  1
  Bi2+  Bi115  1  0.59966732  0.26657300  0.67713569  1
  Bi2+  Bi116  1  0.64085241  0.51226366  0.20201683  1
  Bi2+  Bi117  1  0.61040999  0.52984226  0.68154724  1
  Bi2+  Bi118  1  0.64019278  0.76241197  0.20805015  1
  Bi2+  Bi119  1  0.64017817  0.76411330  0.72593242  1
  Bi2+  Bi120  1  0.93045568  -0.00765957  0.22029605  1
  Bi2+  Bi121  1  0.89596927  -0.03649308  0.71408585  1
  Bi2+  Bi122  1  0.88326037  0.24354732  0.19104977  1
  Bi2+  Bi123  1  0.86217281  0.20444509  0.72860621  1
  Bi2+  Bi124  1  0.93391475  0.47615492  0.21428026  1
  Bi2+  Bi125  1  0.86389516  0.58357759  0.69939784  1
  Bi2+  Bi126  1  0.90990313  0.75391709  0.21627467  1
  Bi2+  Bi127  1  0.91146505  0.77073747  0.68638644  1
  S2-  S128  1  -0.02187416  0.11934706  0.15435124  1
  S2-  S129  1  -0.08942127  0.10893482  0.65624056  1
  S2-  S130  1  0.03587818  0.33766058  0.17784918  1
  S2-  S131  1  -0.04746336  0.31449979  0.68268064  1
  S2-  S132  1  -0.00791219  0.55451653  0.13863569  1
  S2-  S133  1  0.00978788  0.51433525  0.65009456  1
  S2-  S134  1  -0.11869753  0.87946420  0.14396423  1
  S2-  S135  1  0.03345675  0.95157958  0.64920187  1
  S2-  S136  1  0.21613718  0.15849610  0.15872016  1
  S2-  S137  1  0.16092993  0.11948356  0.64561991  1
  S2-  S138  1  0.25042992  0.40706866  0.15094141  1
  S2-  S139  1  0.25964708  0.38500418  0.65531131  1
  S2-  S140  1  0.32359807  0.65530097  0.15417885  1
  S2-  S141  1  0.25658356  0.61271741  0.65861038  1
  S2-  S142  1  0.35704113  0.89146800  0.14984321  1
  S2-  S143  1  0.26226032  0.84426693  0.65311518  1
  S2-  S144  1  0.48143118  0.17913080  0.15984424  1
  S2-  S145  1  0.51692577  0.11284006  0.66280200  1
  S2-  S146  1  0.63687364  0.38470529  0.14140749  1
  S2-  S147  1  0.48873178  0.40338680  0.65541794  1
  S2-  S148  1  0.50384865  0.52525574  0.14988922  1
  S2-  S149  1  0.48304300  0.61775695  0.64674497  1
  S2-  S150  1  0.51922824  0.76260250  0.14702110  1
  S2-  S151  1  0.56837694  0.85574074  0.64311249  1
  S2-  S152  1  0.75384231  0.16804897  0.14983618  1
  S2-  S153  1  0.72837639  0.17415275  0.66595859  1
  S2-  S154  1  0.84593823  0.38296840  0.13927152  1
  S2-  S155  1  0.72549276  0.39754446  0.66233374  1
  S2-  S156  1  0.72668279  0.63449594  0.15259866  1
  S2-  S157  1  0.71418428  0.64101392  0.64461337  1
  S2-  S158  1  0.67154744  0.90704732  0.16611465  1
  S2-  S159  1  0.75860331  0.96089419  0.64836952  1
  S2-  S160  1  0.01730725  0.00691166  0.36600323  1
  S2-  S161  1  0.12634288  -0.00929342  0.84966358  1
  S2-  S162  1  0.04277723  0.24309014  0.37004403  1
  S2-  S163  1  0.03492573  0.26668631  0.85620279  1
  S2-  S164  1  0.10154941  0.46700007  0.34254342  1
  S2-  S165  1  0.19786789  0.51943700  0.85283200  1
  S2-  S166  1  0.01680250  0.71999128  0.36308487  1
  S2-  S167  1  0.18307754  0.76384940  0.86137385  1
  S2-  S168  1  0.33945657  -0.02249339  0.34173984  1
  S2-  S169  1  0.36542877  -0.09189865  0.86455940  1
  S2-  S170  1  0.37855314  0.28916218  0.34710501  1
  S2-  S171  1  0.46740937  0.27780158  0.85840710  1
  S2-  S172  1  0.48328423  0.49483201  0.34437926  1
  S2-  S173  1  0.46507280  0.49784511  0.84858767  1
  S2-  S174  1  0.37795430  0.73397972  0.33626287  1
  S2-  S175  1  0.36983185  0.66764049  0.85054857  1
  S2-  S176  1  0.60648933  -0.10304220  0.34658248  1
  S2-  S177  1  0.61781868  0.07999832  0.84519403  1
  S2-  S178  1  0.63317293  0.32567179  0.35357181  1
  S2-  S179  1  0.60925136  0.25077824  0.76950320  1
  S2-  S180  1  0.69364140  0.52225401  0.30506665  1
  S2-  S181  1  0.65100789  0.42334139  0.83682566  1
  S2-  S182  1  0.57834035  0.69700331  0.30268689  1
  S2-  S183  1  0.60821649  0.65410744  0.85757580  1
  S2-  S184  1  0.77702352  0.01780375  0.35765195  1
  S2-  S185  1  0.89821868  0.08419957  0.83972565  1
  S2-  S186  1  0.83537232  0.24842397  0.34741256  1
  S2-  S187  1  0.79709942  0.26308233  0.82473470  1
  S2-  S188  1  0.88079378  0.49534367  0.35153879  1
  S2-  S189  1  0.89601212  0.44787546  0.83350162  1
  S2-  S190  1  0.78652423  0.75710080  0.34575782  1
  S2-  S191  1  0.89554107  0.87144401  0.86068837  1
  S2-  S192  1  0.01841462  0.11604921  0.47242205  1
  S2-  S193  1  -0.00444070  0.13475324  0.95320765  1
  S2-  S194  1  0.01325604  0.37304297  0.47147671  1
  S2-  S195  1  -0.00369867  0.39231128  0.95602917  1
  S2-  S196  1  0.01027767  0.61325735  0.46399049  1
  S2-  S197  1  -0.00538683  0.64048478  0.94627898  1
  S2-  S198  1  0.01594092  0.86546420  0.45935755  1
  S2-  S199  1  -0.00159801  0.88886874  0.96206218  1
  S2-  S200  1  0.26123109  0.11608999  0.45469362  1
  S2-  S201  1  0.24548000  0.14068887  0.95252550  1
  S2-  S202  1  0.26343060  0.36941338  0.45078927  1
  S2-  S203  1  0.24440259  0.38494044  0.94854726  1
  S2-  S204  1  0.26165742  0.61751302  0.45098111  1
  S2-  S205  1  0.23591789  0.64103968  0.96258638  1
  S2-  S206  1  0.25904218  0.86884462  0.44806934  1
  S2-  S207  1  0.23727601  0.89044190  0.96722915  1
  S2-  S208  1  0.51882986  0.11834553  0.45366811  1
  S2-  S209  1  0.49108900  0.13262116  0.95507045  1
  S2-  S210  1  0.51426798  0.36861209  0.45245943  1
  S2-  S211  1  0.48036270  0.40152151  0.96414272  1
  S2-  S212  1  0.51510623  0.62012661  0.44222568  1
  S2-  S213  1  0.48720447  0.64549647  0.96102959  1
  S2-  S214  1  0.50962887  0.86656585  0.44712361  1
  S2-  S215  1  0.49534107  0.88828172  0.96252539  1
  S2-  S216  1  0.76703057  0.12181571  0.46503506  1
  S2-  S217  1  0.74816640  0.13670900  0.94169751  1
  S2-  S218  1  0.76268384  0.36932615  0.45756185  1
  S2-  S219  1  0.74621394  0.38047685  0.94284261  1
  S2-  S220  1  0.75403870  0.61307801  0.44373616  1
  S2-  S221  1  0.74669028  0.63893783  0.94720817  1
  S2-  S222  1  0.76095714  0.86446555  0.45536971  1
  S2-  S223  1  0.74235535  0.88774725  0.95789375  1
  S2-  S224  1  0.11738934  0.01401817  0.05686051  1
  S2-  S225  1  0.14411889  -0.01355039  0.54269284  1
  S2-  S226  1  0.11702400  0.26636783  0.04910008  1
  S2-  S227  1  0.14005574  0.25088204  0.55730534  1
  S2-  S228  1  0.12110362  0.51352038  0.04594206  1
  S2-  S229  1  0.14187905  0.49429716  0.55078739  1
  S2-  S230  1  0.11591056  0.76286743  0.05775485  1
  S2-  S231  1  0.14028590  0.73889848  0.54747621  1
  S2-  S232  1  0.36757476  0.01451641  0.04882452  1
  S2-  S233  1  0.38904546  -0.00891889  0.54727906  1
  S2-  S234  1  0.37003086  0.26508274  0.05073945  1
  S2-  S235  1  0.38960263  0.24142904  0.55224004  1
  S2-  S236  1  0.36276265  0.51788744  0.04577488  1
  S2-  S237  1  0.38995952  0.49556968  0.53644221  1
  S2-  S238  1  0.36011531  0.76524436  0.04526749  1
  S2-  S239  1  0.39189739  0.74249952  0.54444011  1
  S2-  S240  1  0.61920730  0.01279977  0.04799461  1
  S2-  S241  1  0.63629161  -0.00830079  0.54012141  1
  S2-  S242  1  0.61486376  0.26111730  0.04310023  1
  S2-  S243  1  0.63566844  0.24470235  0.54786256  1
  S2-  S244  1  0.61935708  0.51729071  0.03634203  1
  S2-  S245  1  0.63521409  0.49362698  0.54317276  1
  S2-  S246  1  0.62242222  0.76467845  0.04334471  1
  S2-  S247  1  0.63242404  0.74045653  0.53651228  1
  S2-  S248  1  0.86741229  0.01409415  0.04146594  1
  S2-  S249  1  0.89053043  -0.01797369  0.54674197  1
  S2-  S250  1  0.87297643  0.26242185  0.03362342  1
  S2-  S251  1  0.88887155  0.24637266  0.55552554  1
  S2-  S252  1  0.86505050  0.51593191  0.03578819  1
  S2-  S253  1  0.87847913  0.49430311  0.55447096  1
  S2-  S254  1  0.86880069  0.75929258  0.04287324  1
  S2-  S255  1  0.88277325  0.73684121  0.54542833  1
