# generated using pymatgen
data_La9Ce10Pr6Nd4Sm3(BiS2)32
_symmetry_space_group_name_H-M   'P 1'
_cell_length_a   16.22995572
_cell_length_b   16.19654275
_cell_length_c   27.23065414
_cell_angle_alpha   90.14000304
_cell_angle_beta   90.07876018
_cell_angle_gamma   89.92487145
_symmetry_Int_Tables_number   1
_chemical_formula_structural   La9Ce10Pr6Nd4Sm3(BiS2)32
_chemical_formula_sum   'La18 Ce20 Pr12 Nd8 Sm6 Bi64 S128'
_cell_volume   7158.06524129
_cell_formula_units_Z   2
loop_
 _symmetry_equiv_pos_site_id
 _symmetry_equiv_pos_as_xyz
  1  'x, y, z'
loop_
 _atom_type_symbol
 _atom_type_oxidation_number
  La3+  3.0
  Ce3+  3.0
  Pr3+  3.0
  Nd3+  3.0
  Sm3+  3.0
  Bi2+  2.0
  S2-  -2.0
loop_
 _atom_site_type_symbol
 _atom_site_label
 _atom_site_symmetry_multiplicity
 _atom_site_fract_x
 _atom_site_fract_y
 _atom_site_fract_z
 _atom_site_occupancy
  La3+  La0  1  0.62687876  0.75694968  0.89248496  1
  La3+  La1  1  0.25067981  0.86295864  0.57693222  1
  La3+  La2  1  0.25261734  0.36323424  0.57154644  1
  La3+  La3  1  0.36471700  0.25770688  0.93692357  1
  La3+  La4  1  0.25784959  0.36544245  0.11649346  1
  La3+  La5  1  0.00046452  0.86787577  0.55679336  1
  La3+  La6  1  0.24790694  0.62688884  0.06958117  1
  La3+  La7  1  0.74558104  0.63964852  0.07095486  1
  La3+  La8  1  0.13540236  0.23537927  0.41573597  1
  La3+  La9  1  0.62448622  0.74940287  0.39152043  1
  La3+  La10  1  0.37061187  0.75965896  0.93177096  1
  La3+  La11  1  0.75273066  0.62016453  0.56124239  1
  La3+  La12  1  0.87050648  0.25369393  0.93798055  1
  La3+  La13  1  0.75660044  0.11719293  0.56447984  1
  La3+  La14  1  -0.00435861  0.38504994  0.07670964  1
  La3+  La15  1  0.36265478  0.50709702  0.93358043  1
  La3+  La16  1  0.50045071  0.86198466  0.57504859  1
  La3+  La17  1  0.38089079  0.23674532  0.43772733  1
  Ce3+  Ce18  1  0.37709714  0.49308723  0.44392628  1
  Ce3+  Ce19  1  0.13159741  0.49022736  0.44091793  1
  Ce3+  Ce20  1  0.86778867  0.50789716  0.94697668  1
  Ce3+  Ce21  1  0.50401627  0.36596600  0.55040171  1
  Ce3+  Ce22  1  0.75171647  0.36816656  0.54985779  1
  Ce3+  Ce23  1  0.11908156  0.00226037  0.94966611  1
  Ce3+  Ce24  1  0.13628039  0.74272395  0.43756470  1
  Ce3+  Ce25  1  0.61726124  0.50894722  0.93869387  1
  Ce3+  Ce26  1  -0.00263699  0.63502008  0.05700994  1
  Ce3+  Ce27  1  0.87909470  0.49195747  0.43662757  1
  Ce3+  Ce28  1  0.37999367  -0.01294844  0.45332060  1
  Ce3+  Ce29  1  0.13108636  -0.00841123  0.44002418  1
  Ce3+  Ce30  1  0.86746441  0.00358704  0.94651075  1
  Ce3+  Ce31  1  0.12134006  0.50664016  0.94383998  1
  Ce3+  Ce32  1  0.24567037  0.13248145  0.05880600  1
  Ce3+  Ce33  1  0.62784284  0.49771234  0.43810737  1
  Ce3+  Ce34  1  0.25169202  0.61180699  0.57094529  1
  Ce3+  Ce35  1  0.62818931  0.23787393  0.43485234  1
  Ce3+  Ce36  1  0.74765948  0.38110317  0.06624335  1
  Ce3+  Ce37  1  0.74842151  0.86832251  0.55110281  1
  Pr3+  Pr38  1  -0.00376343  0.13364049  0.06623549  1
  Pr3+  Pr39  1  0.49353785  0.13325562  0.05730346  1
  Pr3+  Pr40  1  0.49619319  0.62920389  0.05690196  1
  Pr3+  Pr41  1  0.74398001  0.88807581  0.06793330  1
  Pr3+  Pr42  1  0.49604167  0.88043817  0.05981237  1
  Pr3+  Pr43  1  0.74396103  0.13122239  0.06982765  1
  Pr3+  Pr44  1  0.24659342  0.87744608  0.07285744  1
  Pr3+  Pr45  1  0.87606981  0.74025996  0.43184935  1
  Pr3+  Pr46  1  0.62094590  0.01062565  0.93104478  1
  Pr3+  Pr47  1  0.86660808  0.75569840  0.93933421  1
  Pr3+  Pr48  1  -0.00224310  0.87998612  0.06488667  1
  Pr3+  Pr49  1  0.00163663  0.36424846  0.55129006  1
  Nd3+  Nd50  1  0.51098733  0.11930680  0.57563696  1
  Nd3+  Nd51  1  0.12242427  0.76459941  0.92976631  1
  Nd3+  Nd52  1  0.00265286  0.61801650  0.55199058  1
  Nd3+  Nd53  1  0.00082813  0.12015317  0.55838618  1
  Nd3+  Nd54  1  0.87676186  -0.01000339  0.43239986  1
  Nd3+  Nd55  1  0.62286930  -0.00612123  0.43614552  1
  Nd3+  Nd56  1  0.36926344  0.00290241  0.94299435  1
  Nd3+  Nd57  1  0.87813541  0.24000254  0.43041305  1
  Sm3+  Sm58  1  0.62189003  0.25328453  0.94028189  1
  Sm3+  Sm59  1  0.37634375  0.74069080  0.43879677  1
  Sm3+  Sm60  1  0.50135585  0.61962600  0.55690128  1
  Sm3+  Sm61  1  0.49409990  0.38127187  0.05460977  1
  Sm3+  Sm62  1  0.25289585  0.12151145  0.56368760  1
  Sm3+  Sm63  1  0.11877933  0.25853898  0.95094207  1
  Bi2+  Bi64  1  -0.02813743  0.08596863  0.29923755  1
  Bi2+  Bi65  1  0.03435461  0.07718724  0.75898779  1
  Bi2+  Bi66  1  -0.01791866  0.39634025  0.30786507  1
  Bi2+  Bi67  1  0.00658698  0.34772346  0.79783521  1
  Bi2+  Bi68  1  0.02299070  0.69688704  0.27770981  1
  Bi2+  Bi69  1  0.00420230  0.62176905  0.81160503  1
  Bi2+  Bi70  1  0.02390257  0.89560259  0.28992630  1
  Bi2+  Bi71  1  0.01344836  0.81347380  0.80330420  1
  Bi2+  Bi72  1  0.26147889  0.06184348  0.28654151  1
  Bi2+  Bi73  1  0.22463429  0.10865337  0.77639730  1
  Bi2+  Bi74  1  0.24793938  0.40189604  0.31520288  1
  Bi2+  Bi75  1  0.23481219  0.35364418  0.80678258  1
  Bi2+  Bi76  1  0.21444418  0.65003300  0.27449007  1
  Bi2+  Bi77  1  0.26161722  0.61726341  0.78794593  1
  Bi2+  Bi78  1  0.20677902  0.88317541  0.32111933  1
  Bi2+  Bi79  1  0.24288573  0.88142656  0.79599105  1
  Bi2+  Bi80  1  0.47567721  0.18566003  0.31539040  1
  Bi2+  Bi81  1  0.51960258  0.14369937  0.76194439  1
  Bi2+  Bi82  1  0.51066252  0.36422224  0.28155123  1
  Bi2+  Bi83  1  0.48952774  0.36422716  0.78970195  1
  Bi2+  Bi84  1  0.48094510  0.61797036  0.29337088  1
  Bi2+  Bi85  1  0.51902064  0.61471952  0.78374453  1
  Bi2+  Bi86  1  0.46480005  0.92379916  0.27725298  1
  Bi2+  Bi87  1  0.50204322  0.87938201  0.78874060  1
  Bi2+  Bi88  1  0.72431916  0.18179106  0.27826190  1
  Bi2+  Bi89  1  0.75149474  0.15195011  0.79280992  1
  Bi2+  Bi90  1  0.69976836  0.36856929  0.31006985  1
  Bi2+  Bi91  1  0.72508377  0.35204219  0.78528815  1
  Bi2+  Bi92  1  0.75726049  0.62588456  0.28782086  1
  Bi2+  Bi93  1  0.76669564  0.62439125  0.78418168  1
  Bi2+  Bi94  1  0.73611070  0.88760564  0.28236570  1
  Bi2+  Bi95  1  0.84560735  0.90157516  0.79598634  1
  Bi2+  Bi96  1  0.14302527  -0.01508485  0.20635495  1
  Bi2+  Bi97  1  0.17288160  -0.02615715  0.69833096  1
  Bi2+  Bi98  1  0.13107277  0.24531692  0.21757812  1
  Bi2+  Bi99  1  0.10674215  0.23104293  0.70637381  1
  Bi2+  Bi100  1  0.09815022  0.54134819  0.21153491  1
  Bi2+  Bi101  1  0.10438516  0.49232270  0.74815971  1
  Bi2+  Bi102  1  0.10045355  0.80119212  0.18040476  1
  Bi2+  Bi103  1  0.11675599  0.69949056  0.72355852  1
  Bi2+  Bi104  1  0.33769045  -0.03096825  0.19017470  1
  Bi2+  Bi105  1  0.36420504  0.01334549  0.71976373  1
  Bi2+  Bi106  1  0.40822086  0.22817790  0.20665937  1
  Bi2+  Bi107  1  0.33672725  0.33298321  0.71038234  1
  Bi2+  Bi108  1  0.39161417  0.51036548  0.21051642  1
  Bi2+  Bi109  1  0.36586407  0.52395979  0.71003439  1
  Bi2+  Bi110  1  0.33104392  0.79240247  0.23834271  1
  Bi2+  Bi111  1  0.37057173  0.73754011  0.70423219  1
  Bi2+  Bi112  1  0.57815283  0.06721652  0.24411756  1
  Bi2+  Bi113  1  0.65839739  0.02403590  0.72575935  1
  Bi2+  Bi114  1  0.66009357  0.29552538  0.18779335  1
  Bi2+  Bi115  1  0.60723487  0.28137978  0.69602931  1
  Bi2+  Bi116  1  0.62293360  0.48196639  0.21437859  1
  Bi2+  Bi117  1  0.61830224  0.47398282  0.72402640  1
  Bi2+  Bi118  1  0.59756922  0.73433442  0.18196566  1
  Bi2+  Bi119  1  0.65710852  0.76813493  0.67847259  1
  Bi2+  Bi120  1  0.86847420  0.02069945  0.20762039  1
  Bi2+  Bi121  1  0.89980470  -0.01434971  0.69775036  1
  Bi2+  Bi122  1  0.83505686  0.21113757  0.18384714  1
  Bi2+  Bi123  1  0.87791289  0.27464115  0.69412511  1
  Bi2+  Bi124  1  0.83736355  0.44185850  0.24025670  1
  Bi2+  Bi125  1  0.89418596  0.48371610  0.74773490  1
  Bi2+  Bi126  1  0.87993715  0.72846902  0.20056499  1
  Bi2+  Bi127  1  0.90182028  0.73815097  0.68695396  1
  S2-  S128  1  0.00373082  0.17140285  0.16556546  1
  S2-  S129  1  -0.11144607  0.12287584  0.63743516  1
  S2-  S130  1  0.09527338  0.37947809  0.16148976  1
  S2-  S131  1  0.01441614  0.34500925  0.65135086  1
  S2-  S132  1  -0.02379161  0.60041504  0.15328231  1
  S2-  S133  1  0.00018726  0.62541799  0.65155609  1
  S2-  S134  1  -0.06251641  0.87864939  0.16021383  1
  S2-  S135  1  0.01300158  0.86620859  0.65736828  1
  S2-  S136  1  0.25615115  0.19188289  0.15050255  1
  S2-  S137  1  0.23833694  0.23234449  0.64080261  1
  S2-  S138  1  0.27295940  0.34599404  0.22608193  1
  S2-  S139  1  0.24373535  0.48807360  0.64442478  1
  S2-  S140  1  0.25326799  0.52944219  0.15519556  1
  S2-  S141  1  0.23005625  0.72436054  0.64590320  1
  S2-  S142  1  0.25227328  0.75306201  0.14488111  1
  S2-  S143  1  0.37431119  0.87396363  0.65090636  1
  S2-  S144  1  0.51733756  0.13409380  0.15704122  1
  S2-  S145  1  0.43801509  0.13224563  0.66936814  1
  S2-  S146  1  0.43368593  0.37263943  0.14652273  1
  S2-  S147  1  0.47661697  0.36213503  0.64653963  1
  S2-  S148  1  0.46145389  0.62591385  0.15772561  1
  S2-  S149  1  0.50889333  0.69435159  0.64702983  1
  S2-  S150  1  0.51634320  0.87178553  0.16089800  1
  S2-  S151  1  0.57916414  0.91828425  0.66603308  1
  S2-  S152  1  0.73994405  0.01413634  0.14612899  1
  S2-  S153  1  0.65057763  0.12921560  0.64410424  1
  S2-  S154  1  0.85871530  0.38387018  0.14536098  1
  S2-  S155  1  0.77543634  0.36973264  0.64681080  1
  S2-  S156  1  0.71635502  0.58911658  0.16753386  1
  S2-  S157  1  0.77039131  0.63285450  0.66193304  1
  S2-  S158  1  0.74830942  0.78470987  0.15026229  1
  S2-  S159  1  0.79398821  0.86735942  0.64647044  1
  S2-  S160  1  0.12423886  0.08535977  0.35661403  1
  S2-  S161  1  0.11810976  -0.08280605  0.86462622  1
  S2-  S162  1  0.10774669  0.29559308  0.31663092  1
  S2-  S163  1  0.11435101  0.25181322  0.85205060  1
  S2-  S164  1  0.11415393  0.50621907  0.34315024  1
  S2-  S165  1  0.22480016  0.50211472  0.86279392  1
  S2-  S166  1  0.25084814  0.72970521  0.36488999  1
  S2-  S167  1  0.24618949  0.74590610  0.85762291  1
  S2-  S168  1  0.38856819  0.00895356  0.35472493  1
  S2-  S169  1  0.37371842  -0.04481626  0.84736274  1
  S2-  S170  1  0.28751232  0.25389937  0.35473915  1
  S2-  S171  1  0.37097460  0.25609365  0.83632579  1
  S2-  S172  1  0.37568053  0.51664574  0.34568677  1
  S2-  S173  1  0.45645863  0.49842545  0.84715760  1
  S2-  S174  1  0.46198226  0.74522694  0.35134346  1
  S2-  S175  1  0.46634250  0.74509232  0.84498739  1
  S2-  S176  1  0.61818790  -0.09122178  0.34756353  1
  S2-  S177  1  0.62282979  -0.08171512  0.84559766  1
  S2-  S178  1  0.61803833  0.12409287  0.36178359  1
  S2-  S179  1  0.62098547  0.15566067  0.85740092  1
  S2-  S180  1  0.62620444  0.58089195  0.35135395  1
  S2-  S181  1  0.64697827  0.58982058  0.85322125  1
  S2-  S182  1  0.63887344  0.74672948  0.27666602  1
  S2-  S183  1  0.62282780  0.75553552  0.77067917  1
  S2-  S184  1  0.83231999  0.00348066  0.33598216  1
  S2-  S185  1  0.85974128  0.04411697  0.85148855  1
  S2-  S186  1  0.91074778  0.24025535  0.33249868  1
  S2-  S187  1  0.85874441  0.27443992  0.83853752  1
  S2-  S188  1  0.87497278  0.52984164  0.34097685  1
  S2-  S189  1  0.86298650  0.52651732  0.84948788  1
  S2-  S190  1  0.80457413  0.76276913  0.34089340  1
  S2-  S191  1  0.78974761  0.75570002  0.84884875  1
  S2-  S192  1  -0.00145619  0.11548050  0.45283362  1
  S2-  S193  1  -0.00276280  0.12983325  0.95705573  1
  S2-  S194  1  0.00473323  0.36378439  0.44426041  1
  S2-  S195  1  -0.00550660  0.38170367  0.95796150  1
  S2-  S196  1  0.00557447  0.61893851  0.44571360  1
  S2-  S197  1  -0.00281717  0.63481200  0.95051165  1
  S2-  S198  1  0.00409882  0.86622247  0.44548434  1
  S2-  S199  1  -0.00925754  0.88022452  0.95798927  1
  S2-  S200  1  0.25516971  0.11273699  0.45960289  1
  S2-  S201  1  0.24148498  0.12912012  0.95066463  1
  S2-  S202  1  0.25407651  0.36798237  0.45916790  1
  S2-  S203  1  0.24033182  0.37658621  0.95645601  1
  S2-  S204  1  0.25287723  0.61230667  0.46248361  1
  S2-  S205  1  0.24089637  0.63478960  0.96091216  1
  S2-  S206  1  0.25311434  0.86805104  0.46524786  1
  S2-  S207  1  0.24580166  0.88377099  0.96485232  1
  S2-  S208  1  0.50227028  0.11449798  0.46614065  1
  S2-  S209  1  0.49057268  0.13128341  0.95129556  1
  S2-  S210  1  0.50525435  0.36773794  0.44334330  1
  S2-  S211  1  0.49823028  0.37565570  0.95000955  1
  S2-  S212  1  0.50101556  0.61823070  0.45453231  1
  S2-  S213  1  0.49615320  0.63185482  0.95175350  1
  S2-  S214  1  0.50119537  0.86348381  0.45983485  1
  S2-  S215  1  0.49787314  0.88415449  0.95301000  1
  S2-  S216  1  0.75718518  0.11614418  0.45317213  1
  S2-  S217  1  0.74539207  0.13244853  0.96140032  1
  S2-  S218  1  0.75315162  0.36744573  0.44413475  1
  S2-  S219  1  0.74227916  0.37943836  0.95358333  1
  S2-  S220  1  0.75461188  0.61655809  0.45243938  1
  S2-  S221  1  0.74492519  0.63159756  0.96099668  1
  S2-  S222  1  0.75033717  0.86668600  0.44728187  1
  S2-  S223  1  0.74313569  0.88172837  0.95721857  1
  S2-  S224  1  0.12234336  0.00633194  0.05646818  1
  S2-  S225  1  0.12725393  -0.00278344  0.54986222  1
  S2-  S226  1  0.12230746  0.25777169  0.05391511  1
  S2-  S227  1  0.12411175  0.23808825  0.53634299  1
  S2-  S228  1  0.11602898  0.50804312  0.04835395  1
  S2-  S229  1  0.12230451  0.49086911  0.54640907  1
  S2-  S230  1  0.11998845  0.75788260  0.04070514  1
  S2-  S231  1  0.12402093  0.74205914  0.54266566  1
  S2-  S232  1  0.36895349  0.00677730  0.04999848  1
  S2-  S233  1  0.37590882  0.00002003  0.55728085  1
  S2-  S234  1  0.36936700  0.25765748  0.04487688  1
  S2-  S235  1  0.38146326  0.23903500  0.54605346  1
  S2-  S236  1  0.37395167  0.50235253  0.04226158  1
  S2-  S237  1  0.38286508  0.49282519  0.54821789  1
  S2-  S238  1  0.37320228  0.75654450  0.04324492  1
  S2-  S239  1  0.37513703  0.73768043  0.54447861  1
  S2-  S240  1  0.61688427  0.00977115  0.04237483  1
  S2-  S241  1  0.62700802  -0.00832230  0.54447561  1
  S2-  S242  1  0.61997013  0.25733701  0.04535415  1
  S2-  S243  1  0.62929203  0.24521760  0.54044697  1
  S2-  S244  1  0.62040907  0.50153731  0.04860900  1
  S2-  S245  1  0.62544185  0.49496782  0.54682077  1
  S2-  S246  1  0.61818093  0.75737220  0.05184848  1
  S2-  S247  1  0.62792926  0.74187007  0.54818712  1
  S2-  S248  1  0.87459739  0.00855036  0.05056295  1
  S2-  S249  1  0.87855306  -0.00981825  0.53893547  1
  S2-  S250  1  0.86971522  0.25434269  0.04572423  1
  S2-  S251  1  0.87608258  0.24528124  0.53636907  1
  S2-  S252  1  0.86904252  0.51100834  0.04943666  1
  S2-  S253  1  0.87880751  0.49263082  0.54434661  1
  S2-  S254  1  0.87275642  0.75955608  0.04615126  1
  S2-  S255  1  0.87800300  0.74295815  0.53911702  1
