# generated using pymatgen
data_La9Ce10Pr6Nd4Sm3(BiS2)32
_symmetry_space_group_name_H-M   'P 1'
_cell_length_a   16.17275866
_cell_length_b   16.14250568
_cell_length_c   27.07448180
_cell_angle_alpha   90.04355255
_cell_angle_beta   90.00893443
_cell_angle_gamma   89.91466610
_symmetry_Int_Tables_number   1
_chemical_formula_structural   La9Ce10Pr6Nd4Sm3(BiS2)32
_chemical_formula_sum   'La18 Ce20 Pr12 Nd8 Sm6 Bi64 S128'
_cell_volume   7068.29382038
_cell_formula_units_Z   2
loop_
 _symmetry_equiv_pos_site_id
 _symmetry_equiv_pos_as_xyz
  1  'x, y, z'
loop_
 _atom_type_symbol
 _atom_type_oxidation_number
  La3+  3.0
  Ce3+  3.0
  Pr3+  3.0
  Nd3+  3.0
  Sm3+  3.0
  Bi2+  2.0
  S2-  -2.0
loop_
 _atom_site_type_symbol
 _atom_site_label
 _atom_site_symmetry_multiplicity
 _atom_site_fract_x
 _atom_site_fract_y
 _atom_site_fract_z
 _atom_site_occupancy
  La3+  La0  1  0.51056021  0.38308651  0.06977341  1
  La3+  La1  1  0.39186963  0.76276812  0.93466914  1
  La3+  La2  1  0.62807400  0.74858955  0.42678343  1
  La3+  La3  1  0.01243182  0.89228134  0.06980465  1
  La3+  La4  1  0.75230133  0.62311558  0.56861212  1
  La3+  La5  1  0.00449969  0.62047728  0.57282294  1
  La3+  La6  1  0.26258715  0.36892780  0.58447573  1
  La3+  La7  1  0.38971811  0.26041454  0.92513599  1
  La3+  La8  1  0.87690014  0.27482692  0.91355108  1
  La3+  La9  1  0.26437284  0.89139172  0.08702987  1
  La3+  La10  1  0.37067379  -0.00178936  0.42600553  1
  La3+  La11  1  0.13910434  0.25480409  0.89942274  1
  La3+  La12  1  0.62720738  0.24662352  0.40956283  1
  La3+  La13  1  0.76307200  0.63703785  0.10553994  1
  La3+  La14  1  0.88198275  0.01022442  0.93101362  1
  La3+  La15  1  0.74509455  0.12511007  0.56927754  1
  La3+  La16  1  0.13402943  0.50035074  0.43615107  1
  La3+  La17  1  0.12919699  0.74526028  0.41666764  1
  Ce3+  Ce18  1  0.12396821  -0.00118884  0.44386803  1
  Ce3+  Ce19  1  0.25343542  0.87299034  0.55748278  1
  Ce3+  Ce20  1  0.37345246  0.50086733  0.44515752  1
  Ce3+  Ce21  1  0.25694837  0.37932401  0.05538101  1
  Ce3+  Ce22  1  -0.00036320  0.12475879  0.56016961  1
  Ce3+  Ce23  1  0.76244899  0.88288223  0.06748364  1
  Ce3+  Ce24  1  0.50568789  0.12320316  0.55220001  1
  Ce3+  Ce25  1  0.51652818  0.64005990  0.05948782  1
  Ce3+  Ce26  1  0.50436597  0.37438675  0.55387062  1
  Ce3+  Ce27  1  0.38556628  0.00973180  0.94623832  1
  Ce3+  Ce28  1  0.13813895  0.00877659  0.93956864  1
  Ce3+  Ce29  1  0.37375135  0.74499165  0.43937127  1
  Ce3+  Ce30  1  0.87468400  0.25007616  0.44058516  1
  Ce3+  Ce31  1  0.75229106  0.87260848  0.55440637  1
  Ce3+  Ce32  1  0.62919684  -0.00371727  0.42887706  1
  Ce3+  Ce33  1  0.00374498  0.87320697  0.55587744  1
  Ce3+  Ce34  1  0.88669209  0.75501501  0.94747466  1
  Ce3+  Ce35  1  0.01080606  0.13902922  0.04710970  1
  Ce3+  Ce36  1  0.50428467  0.87420223  0.55282386  1
  Ce3+  Ce37  1  0.88007847  0.74529972  0.43882879  1
  Pr3+  Pr38  1  0.13020746  0.25165052  0.43379601  1
  Pr3+  Pr39  1  0.76763788  0.13719551  0.07063934  1
  Pr3+  Pr40  1  0.64407614  0.76108864  0.93117794  1
  Pr3+  Pr41  1  0.13929965  0.75654566  0.93580004  1
  Pr3+  Pr42  1  0.25327883  0.63182370  0.57782377  1
  Pr3+  Pr43  1  0.50802731  0.13899232  0.06623032  1
  Pr3+  Pr44  1  0.51176846  0.89100643  0.07190425  1
  Pr3+  Pr45  1  0.26058935  0.63590361  0.06848432  1
  Pr3+  Pr46  1  0.13527944  0.51123417  0.93510700  1
  Pr3+  Pr47  1  0.38731951  0.50978493  0.94135887  1
  Pr3+  Pr48  1  0.63297905  0.50035473  0.42387968  1
  Pr3+  Pr49  1  0.37540758  0.25242694  0.43228361  1
  Nd3+  Nd50  1  0.88106080  0.50071430  0.44110809  1
  Nd3+  Nd51  1  0.50212012  0.62464161  0.56711791  1
  Nd3+  Nd52  1  0.01577876  0.62915809  0.07959379  1
  Nd3+  Nd53  1  0.87744007  0.00138121  0.44047687  1
  Nd3+  Nd54  1  0.00566401  0.37057564  0.56140809  1
  Nd3+  Nd55  1  0.01197976  0.38155872  0.05909069  1
  Nd3+  Nd56  1  0.63822671  0.26103889  0.94448754  1
  Nd3+  Nd57  1  0.74703190  0.37377021  0.55797059  1
  Sm3+  Sm58  1  0.25412798  0.12582511  0.55891426  1
  Sm3+  Sm59  1  0.75786772  0.38342972  0.07748613  1
  Sm3+  Sm60  1  0.88631449  0.50910468  0.95435663  1
  Sm3+  Sm61  1  0.64174913  0.50947857  0.94906244  1
  Sm3+  Sm62  1  0.25779005  0.14297875  0.05993247  1
  Sm3+  Sm63  1  0.63868045  0.01250468  0.95236548  1
  Bi2+  Bi64  1  0.03263922  0.17780514  0.28905830  1
  Bi2+  Bi65  1  0.02213996  0.10161947  0.78300386  1
  Bi2+  Bi66  1  0.02296389  0.37084137  0.31491068  1
  Bi2+  Bi67  1  -0.01766708  0.39709472  0.79233240  1
  Bi2+  Bi68  1  -0.02500352  0.55580462  0.29157323  1
  Bi2+  Bi69  1  -0.04661475  0.70854368  0.81826408  1
  Bi2+  Bi70  1  0.02016068  0.97315574  0.29560425  1
  Bi2+  Bi71  1  0.07323737  0.86467135  0.80962656  1
  Bi2+  Bi72  1  0.23503883  0.19054479  0.26221483  1
  Bi2+  Bi73  1  0.28189274  0.09396033  0.77775226  1
  Bi2+  Bi74  1  0.21276572  0.38727184  0.28851561  1
  Bi2+  Bi75  1  0.26854787  0.40646696  0.78934896  1
  Bi2+  Bi76  1  0.27174268  0.61497530  0.28534607  1
  Bi2+  Bi77  1  0.22465691  0.64170375  0.79161109  1
  Bi2+  Bi78  1  0.23686009  0.87953846  0.29471407  1
  Bi2+  Bi79  1  0.27521985  0.88399774  0.78826613  1
  Bi2+  Bi80  1  0.52288217  0.14402878  0.27482899  1
  Bi2+  Bi81  1  0.51408909  0.17262537  0.80331876  1
  Bi2+  Bi82  1  0.47360559  0.44049783  0.29049543  1
  Bi2+  Bi83  1  0.45999373  0.35880136  0.80406481  1
  Bi2+  Bi84  1  0.47761741  0.64688704  0.29834825  1
  Bi2+  Bi85  1  0.56306936  0.62640930  0.78345828  1
  Bi2+  Bi86  1  0.48250904  0.84804046  0.29049285  1
  Bi2+  Bi87  1  0.48113975  0.88536404  0.79280743  1
  Bi2+  Bi88  1  0.77176012  0.11968661  0.28300696  1
  Bi2+  Bi89  1  0.76453006  0.10704443  0.81032198  1
  Bi2+  Bi90  1  0.75285284  0.36514110  0.28356223  1
  Bi2+  Bi91  1  0.67933069  0.38160334  0.78388827  1
  Bi2+  Bi92  1  0.76313902  0.61756121  0.28620956  1
  Bi2+  Bi93  1  0.76165141  0.64068475  0.79093597  1
  Bi2+  Bi94  1  0.75468989  0.88674726  0.28751821  1
  Bi2+  Bi95  1  0.74081200  0.83232301  0.75627498  1
  Bi2+  Bi96  1  0.12450483  0.04856645  0.20996528  1
  Bi2+  Bi97  1  0.14826789  -0.01834474  0.72231566  1
  Bi2+  Bi98  1  0.09451919  0.27026994  0.17424983  1
  Bi2+  Bi99  1  0.12911781  0.28204246  0.69524094  1
  Bi2+  Bi100  1  0.18802737  0.47175521  0.18497812  1
  Bi2+  Bi101  1  0.08518966  0.51399998  0.72377709  1
  Bi2+  Bi102  1  0.09471834  0.74763758  0.21950254  1
  Bi2+  Bi103  1  0.12413578  0.75720031  0.71798980  1
  Bi2+  Bi104  1  0.37724846  -0.00272900  0.21276363  1
  Bi2+  Bi105  1  0.42542442  0.03328049  0.70543915  1
  Bi2+  Bi106  1  0.40164809  0.28745866  0.23285881  1
  Bi2+  Bi107  1  0.40975886  0.23119921  0.70780721  1
  Bi2+  Bi108  1  0.37896871  0.51882524  0.19514732  1
  Bi2+  Bi109  1  0.46384840  0.49939264  0.71885847  1
  Bi2+  Bi110  1  0.37272390  0.71666906  0.20617490  1
  Bi2+  Bi111  1  0.38390639  0.75504780  0.70516139  1
  Bi2+  Bi112  1  0.61933860  -0.02417771  0.21608673  1
  Bi2+  Bi113  1  0.60987587  0.01561109  0.75448251  1
  Bi2+  Bi114  1  0.62395131  0.25906115  0.20603926  1
  Bi2+  Bi115  1  0.63267256  0.22621264  0.71197515  1
  Bi2+  Bi116  1  0.60593704  0.51609907  0.21971734  1
  Bi2+  Bi117  1  0.61825617  0.41188007  0.67096480  1
  Bi2+  Bi118  1  0.61553505  0.77200506  0.21790853  1
  Bi2+  Bi119  1  0.59121101  0.76049745  0.69251617  1
  Bi2+  Bi120  1  0.79996329  0.02142848  0.18508775  1
  Bi2+  Bi121  1  0.87617183  -0.03790700  0.72035851  1
  Bi2+  Bi122  1  0.91569938  0.18911955  0.19063356  1
  Bi2+  Bi123  1  0.88481140  0.22731943  0.70424311  1
  Bi2+  Bi124  1  0.90670090  0.41297872  0.22048739  1
  Bi2+  Bi125  1  0.78313516  0.49865462  0.71208642  1
  Bi2+  Bi126  1  0.87838502  0.77219507  0.22541372  1
  Bi2+  Bi127  1  0.90349741  0.74512834  0.70870168  1
  S2-  S128  1  0.01530508  0.05786470  0.13611112  1
  S2-  S129  1  0.02349529  0.16375189  0.65594600  1
  S2-  S130  1  0.02550886  0.45840631  0.15077904  1
  S2-  S131  1  0.01289626  0.40443594  0.66124133  1
  S2-  S132  1  -0.08237467  0.65713338  0.16207367  1
  S2-  S133  1  -0.12630170  0.61459093  0.64700015  1
  S2-  S134  1  -0.00307740  0.85227654  0.17144438  1
  S2-  S135  1  -0.02367101  0.88686717  0.65393892  1
  S2-  S136  1  0.26913203  0.04569393  0.14632399  1
  S2-  S137  1  0.25954912  0.21381125  0.64400897  1
  S2-  S138  1  0.24552481  0.27083868  0.13304651  1
  S2-  S139  1  0.22500967  0.42889994  0.68460505  1
  S2-  S140  1  0.14993417  0.63460483  0.14878485  1
  S2-  S141  1  0.12286759  0.62410549  0.64896465  1
  S2-  S142  1  0.20669872  0.84778827  0.18857592  1
  S2-  S143  1  0.25319285  0.80069004  0.64704445  1
  S2-  S144  1  0.50278873  0.03040641  0.14888964  1
  S2-  S145  1  0.60290357  0.12478468  0.63443499  1
  S2-  S146  1  0.48030870  0.25471147  0.14407176  1
  S2-  S147  1  0.42512668  0.36944434  0.64298402  1
  S2-  S148  1  0.59210265  0.64677068  0.14870294  1
  S2-  S149  1  0.38764788  0.61934015  0.64933409  1
  S2-  S150  1  0.40545817  0.85665937  0.15205424  1
  S2-  S151  1  0.47422565  0.88522991  0.65116193  1
  S2-  S152  1  0.77001716  0.25501925  0.14853950  1
  S2-  S153  1  0.82553122  0.09615725  0.66161776  1
  S2-  S154  1  0.62376750  0.40051183  0.14772728  1
  S2-  S155  1  0.80292985  0.35107012  0.65426983  1
  S2-  S156  1  0.76912544  0.52469307  0.18917765  1
  S2-  S157  1  0.62629217  0.62548866  0.64109521  1
  S2-  S158  1  0.74979897  0.79626223  0.15364666  1
  S2-  S159  1  0.71937314  0.86509930  0.65017284  1
  S2-  S160  1  0.17688406  0.00669132  0.35040543  1
  S2-  S161  1  0.14752243  0.08468190  0.85094482  1
  S2-  S162  1  0.24888814  0.25324746  0.35771284  1
  S2-  S163  1  0.09065689  0.25348166  0.79103098  1
  S2-  S164  1  0.08345506  0.60330106  0.35523298  1
  S2-  S165  1  0.12675711  0.41613082  0.84870708  1
  S2-  S166  1  0.08325152  0.81624608  0.32059064  1
  S2-  S167  1  0.09808331  0.63364945  0.86119348  1
  S2-  S168  1  0.38891586  -0.01795172  0.32343174  1
  S2-  S169  1  0.38444179  0.00724566  0.84762606  1
  S2-  S170  1  0.47426076  0.23767511  0.34749576  1
  S2-  S171  1  0.28942718  0.26119447  0.84245382  1
  S2-  S172  1  0.27428663  0.49867333  0.36304488  1
  S2-  S173  1  0.33261730  0.53606348  0.84502657  1
  S2-  S174  1  0.27941387  0.74695597  0.35466647  1
  S2-  S175  1  0.27137602  0.76023440  0.86012660  1
  S2-  S176  1  0.62643160  -0.12378681  0.35213442  1
  S2-  S177  1  0.67724642  -0.00583529  0.85643048  1
  S2-  S178  1  0.64240644  0.10022395  0.34930721  1
  S2-  S179  1  0.71964184  0.26161679  0.85690161  1
  S2-  S180  1  0.62367774  0.38626282  0.34339245  1
  S2-  S181  1  0.61886569  0.50566545  0.84941449  1
  S2-  S182  1  0.63344940  0.63004318  0.35066487  1
  S2-  S183  1  0.51897504  0.75952414  0.85588433  1
  S2-  S184  1  0.86854484  -0.00188619  0.33970279  1
  S2-  S185  1  0.89690731  -0.00570674  0.82890481  1
  S2-  S186  1  0.80368521  0.24502030  0.35031426  1
  S2-  S187  1  0.90303254  0.22089992  0.81240153  1
  S2-  S188  1  0.81149931  0.49761656  0.34800213  1
  S2-  S189  1  0.87806350  0.43811906  0.86143231  1
  S2-  S190  1  0.85171267  0.73832119  0.34040203  1
  S2-  S191  1  0.78369241  0.76934052  0.86476245  1
  S2-  S192  1  0.00283150  0.12676024  0.45004740  1
  S2-  S193  1  0.00482861  0.14101128  0.94068103  1
  S2-  S194  1  0.00380236  0.37414647  0.45312098  1
  S2-  S195  1  0.00931770  0.38313662  0.95349356  1
  S2-  S196  1  0.00161855  0.62425337  0.46245594  1
  S2-  S197  1  0.00720716  0.63221319  0.97015235  1
  S2-  S198  1  0.00193360  0.87338053  0.44777501  1
  S2-  S199  1  0.01088473  0.88358194  0.95416114  1
  S2-  S200  1  0.25122781  0.12239488  0.45543090  1
  S2-  S201  1  0.26283871  0.13534237  0.95285930  1
  S2-  S202  1  0.25319510  0.37271337  0.46588743  1
  S2-  S203  1  0.26282665  0.38453722  0.95006579  1
  S2-  S204  1  0.25120892  0.62772209  0.46470926  1
  S2-  S205  1  0.26350789  0.63347163  0.96173087  1
  S2-  S206  1  0.24877901  0.87465609  0.45286644  1
  S2-  S207  1  0.26135991  0.88763821  0.95889091  1
  S2-  S208  1  0.49915255  0.11758973  0.44798532  1
  S2-  S209  1  0.51446454  0.13496723  0.95423866  1
  S2-  S210  1  0.50052334  0.37946337  0.44876093  1
  S2-  S211  1  0.51491342  0.38617256  0.95628460  1
  S2-  S212  1  0.49887970  0.62335932  0.45435042  1
  S2-  S213  1  0.51602662  0.63113487  0.95458698  1
  S2-  S214  1  0.49486609  0.87317464  0.44721430  1
  S2-  S215  1  0.51641513  0.89115265  0.96039525  1
  S2-  S216  1  0.75423328  0.12352170  0.45737685  1
  S2-  S217  1  0.76291887  0.13751735  0.95911030  1
  S2-  S218  1  0.75384227  0.37505314  0.45256533  1
  S2-  S219  1  0.75963716  0.38617848  0.96734032  1
  S2-  S220  1  0.75679359  0.62377864  0.45788644  1
  S2-  S221  1  0.76329241  0.62875155  0.95611741  1
  S2-  S222  1  0.75857533  0.87270415  0.44909680  1
  S2-  S223  1  0.76200423  0.88837453  0.96252325  1
  S2-  S224  1  0.14074236  0.01264452  0.04317018  1
  S2-  S225  1  0.12962317  0.00219318  0.55258611  1
  S2-  S226  1  0.13249411  0.25916057  0.03196048  1
  S2-  S227  1  0.12774921  0.24599754  0.54273519  1
  S2-  S228  1  0.13869493  0.50685115  0.04321552  1
  S2-  S229  1  0.13169432  0.49244877  0.54921781  1
  S2-  S230  1  0.13955580  0.76754356  0.05056354  1
  S2-  S231  1  0.12675054  0.75319710  0.54291385  1
  S2-  S232  1  0.38417372  0.01320336  0.04775263  1
  S2-  S233  1  0.37554296  0.00072567  0.54202030  1
  S2-  S234  1  0.38493404  0.26066285  0.03443863  1
  S2-  S235  1  0.38138937  0.24412103  0.54007906  1
  S2-  S236  1  0.38705269  0.51016785  0.05037358  1
  S2-  S237  1  0.37690481  0.50020899  0.54846438  1
  S2-  S238  1  0.38699705  0.75959519  0.04589768  1
  S2-  S239  1  0.38021858  0.75147810  0.54388801  1
  S2-  S240  1  0.64093763  0.01359199  0.05584350  1
  S2-  S241  1  0.62774554  -0.00553678  0.53690714  1
  S2-  S242  1  0.63826203  0.25750045  0.04817161  1
  S2-  S243  1  0.62492952  0.25194029  0.53500124  1
  S2-  S244  1  0.64221663  0.51521461  0.05147066  1
  S2-  S245  1  0.62607827  0.49891592  0.53681880  1
  S2-  S246  1  0.63545869  0.76592045  0.04289144  1
  S2-  S247  1  0.62636059  0.75092078  0.53745850  1
  S2-  S248  1  0.88431807  0.01069190  0.04146306  1
  S2-  S249  1  0.87730514  -0.00156718  0.54669480  1
  S2-  S250  1  0.88738444  0.26287541  0.04509620  1
  S2-  S251  1  0.87621241  0.24847162  0.54662697  1
  S2-  S252  1  0.88004105  0.50690619  0.05858544  1
  S2-  S253  1  0.87780261  0.49128137  0.54662842  1
  S2-  S254  1  0.88822365  0.76107678  0.05226940  1
  S2-  S255  1  0.87865376  0.75138510  0.54609699  1
