# generated using pymatgen
data_La9Ce10Pr6Nd4Sm3(BiS2)32
_symmetry_space_group_name_H-M   'P 1'
_cell_length_a   16.15184246
_cell_length_b   16.11636260
_cell_length_c   27.23201675
_cell_angle_alpha   89.75602553
_cell_angle_beta   89.68416984
_cell_angle_gamma   90.07419092
_symmetry_Int_Tables_number   1
_chemical_formula_structural   La9Ce10Pr6Nd4Sm3(BiS2)32
_chemical_formula_sum   'La18 Ce20 Pr12 Nd8 Sm6 Bi64 S128'
_cell_volume   7088.55955698
_cell_formula_units_Z   2
loop_
 _symmetry_equiv_pos_site_id
 _symmetry_equiv_pos_as_xyz
  1  'x, y, z'
loop_
 _atom_type_symbol
 _atom_type_oxidation_number
  La3+  3.0
  Ce3+  3.0
  Pr3+  3.0
  Nd3+  3.0
  Sm3+  3.0
  Bi2+  2.0
  S2-  -2.0
loop_
 _atom_site_type_symbol
 _atom_site_label
 _atom_site_symmetry_multiplicity
 _atom_site_fract_x
 _atom_site_fract_y
 _atom_site_fract_z
 _atom_site_occupancy
  La3+  La0  1  0.60067530  0.50419987  0.42573123  1
  La3+  La1  1  0.11067991  0.51020899  0.42136351  1
  La3+  La2  1  0.13750302  0.27253181  0.93394156  1
  La3+  La3  1  0.85620819  0.25214339  0.42567037  1
  La3+  La4  1  0.49812944  0.14048236  0.07074840  1
  La3+  La5  1  0.61037044  0.76001018  0.43971562  1
  La3+  La6  1  -0.02714395  0.13575222  0.57961808  1
  La3+  La7  1  -0.00270381  0.89299484  0.07414441  1
  La3+  La8  1  0.13627540  0.02185785  0.92604867  1
  La3+  La9  1  0.22360154  0.88648382  0.57981535  1
  La3+  La10  1  0.50789829  0.38530695  0.09496989  1
  La3+  La11  1  0.25623322  0.89010696  0.06498459  1
  La3+  La12  1  0.35536439  0.51345749  0.41485585  1
  La3+  La13  1  0.73052698  0.62839445  0.55789825  1
  La3+  La14  1  0.37828953  0.75757347  0.92666635  1
  La3+  La15  1  0.74886152  0.90281278  0.06905871  1
  La3+  La16  1  0.34440550  0.24879761  0.40626250  1
  La3+  La17  1  0.22748206  0.63099178  0.57082877  1
  Ce3+  Ce18  1  0.48131970  0.87954827  0.56338003  1
  Ce3+  Ce19  1  0.00653062  0.39519083  0.07376749  1
  Ce3+  Ce20  1  0.35508586  0.00690470  0.44353350  1
  Ce3+  Ce21  1  0.47976421  0.63160900  0.55772648  1
  Ce3+  Ce22  1  0.73312354  0.13047335  0.55888026  1
  Ce3+  Ce23  1  0.00548852  0.14174882  0.06376757  1
  Ce3+  Ce24  1  0.88247437  0.26474430  0.93618699  1
  Ce3+  Ce25  1  0.75144259  0.64187956  0.05211504  1
  Ce3+  Ce26  1  -0.01903494  0.62913472  0.55197438  1
  Ce3+  Ce27  1  0.75121976  0.39070421  0.05172772  1
  Ce3+  Ce28  1  0.87910221  0.51779776  0.94030257  1
  Ce3+  Ce29  1  0.50316290  0.89200217  0.04887909  1
  Ce3+  Ce30  1  0.62885845  0.01460519  0.93268403  1
  Ce3+  Ce31  1  -0.02133348  0.38103372  0.55388274  1
  Ce3+  Ce32  1  0.62953341  0.51905621  0.93222635  1
  Ce3+  Ce33  1  0.25189759  0.39672292  0.08017605  1
  Ce3+  Ce34  1  0.73887408  0.88363104  0.56574482  1
  Ce3+  Ce35  1  0.60712467  0.00722996  0.44757356  1
  Ce3+  Ce36  1  0.86017138  0.76121592  0.43684594  1
  Ce3+  Ce37  1  0.25567285  0.14844681  0.06008962  1
  Pr3+  Pr38  1  0.60221176  0.25626981  0.43738280  1
  Pr3+  Pr39  1  0.10536201  0.00270075  0.43902901  1
  Pr3+  Pr40  1  0.22830586  0.13292415  0.56469386  1
  Pr3+  Pr41  1  0.35345661  0.75772629  0.44330967  1
  Pr3+  Pr42  1  0.48063107  0.38021222  0.55818872  1
  Pr3+  Pr43  1  0.25740227  0.64575186  0.07337162  1
  Pr3+  Pr44  1  0.12872225  0.52080231  0.94639885  1
  Pr3+  Pr45  1  0.12667959  0.77200026  0.93994763  1
  Pr3+  Pr46  1  0.63197243  0.76908265  0.92932413  1
  Pr3+  Pr47  1  0.86374111  0.00632370  0.42484291  1
  Pr3+  Pr48  1  0.50977905  0.64293491  0.06609737  1
  Pr3+  Pr49  1  0.85202280  0.50543061  0.41936062  1
  Nd3+  Nd50  1  0.10402915  0.25392953  0.44261470  1
  Nd3+  Nd51  1  0.23360281  0.37984927  0.55482458  1
  Nd3+  Nd52  1  0.47986319  0.13085699  0.56131415  1
  Nd3+  Nd53  1  0.38325815  0.27373003  0.94172440  1
  Nd3+  Nd54  1  0.88064561  0.78088348  0.93389189  1
  Nd3+  Nd55  1  0.88067385  0.02520055  0.93553883  1
  Nd3+  Nd56  1  0.00068975  0.64375573  0.06594755  1
  Nd3+  Nd57  1  0.73031961  0.38020387  0.55333556  1
  Sm3+  Sm58  1  0.37897512  0.51936687  0.95342836  1
  Sm3+  Sm59  1  0.74951644  0.15017499  0.04942942  1
  Sm3+  Sm60  1  0.10910165  0.75786846  0.44039002  1
  Sm3+  Sm61  1  0.38299103  0.02043201  0.93599198  1
  Sm3+  Sm62  1  -0.02388021  0.88123486  0.56649411  1
  Sm3+  Sm63  1  0.61892033  0.27657593  0.92895941  1
  Bi2+  Bi64  1  0.01642549  0.19323905  0.29458649  1
  Bi2+  Bi65  1  -0.00155010  0.09758733  0.79541474  1
  Bi2+  Bi66  1  0.00324169  0.44821545  0.30501807  1
  Bi2+  Bi67  1  0.00386577  0.32479428  0.78560401  1
  Bi2+  Bi68  1  -0.00286435  0.64594738  0.28504125  1
  Bi2+  Bi69  1  -0.04125236  0.59316553  0.76249532  1
  Bi2+  Bi70  1  -0.00215785  0.91519038  0.29463610  1
  Bi2+  Bi71  1  -0.01975634  0.83410031  0.80042137  1
  Bi2+  Bi72  1  0.23355377  0.09055004  0.29054489  1
  Bi2+  Bi73  1  0.24438603  0.19859041  0.78237343  1
  Bi2+  Bi74  1  0.23211280  0.34807754  0.27735241  1
  Bi2+  Bi75  1  0.23674628  0.40036929  0.78217999  1
  Bi2+  Bi76  1  0.24594437  0.62676294  0.28913631  1
  Bi2+  Bi77  1  0.23824954  0.62575153  0.79959614  1
  Bi2+  Bi78  1  0.25348041  0.86412967  0.29962486  1
  Bi2+  Bi79  1  0.24231479  0.87101247  0.80692563  1
  Bi2+  Bi80  1  0.51386141  0.03241276  0.26790233  1
  Bi2+  Bi81  1  0.53607219  0.09643908  0.82455158  1
  Bi2+  Bi82  1  0.57930778  0.39569779  0.28361226  1
  Bi2+  Bi83  1  0.52053543  0.36230991  0.77922820  1
  Bi2+  Bi84  1  0.56489804  0.61543303  0.28383219  1
  Bi2+  Bi85  1  0.53656337  0.65472135  0.76068162  1
  Bi2+  Bi86  1  0.44455028  0.86468903  0.31044079  1
  Bi2+  Bi87  1  0.51725904  0.91595725  0.78092940  1
  Bi2+  Bi88  1  0.74094024  0.01908201  0.28123665  1
  Bi2+  Bi89  1  0.71903654  0.12874317  0.78730802  1
  Bi2+  Bi90  1  0.79269214  0.25804049  0.28678685  1
  Bi2+  Bi91  1  0.81185553  0.36604838  0.80033568  1
  Bi2+  Bi92  1  0.80181737  0.62624935  0.28918380  1
  Bi2+  Bi93  1  0.71788418  0.54265119  0.80053778  1
  Bi2+  Bi94  1  0.73436798  0.81460765  0.29369100  1
  Bi2+  Bi95  1  0.73289098  0.79509686  0.78640170  1
  Bi2+  Bi96  1  0.13801690  -0.02547401  0.21473466  1
  Bi2+  Bi97  1  0.16020045  -0.00382900  0.71113010  1
  Bi2+  Bi98  1  0.14198183  0.20760818  0.20869899  1
  Bi2+  Bi99  1  0.10356630  0.23700550  0.69956686  1
  Bi2+  Bi100  1  0.11044322  0.49461712  0.21199338  1
  Bi2+  Bi101  1  0.08525541  0.46763839  0.71786746  1
  Bi2+  Bi102  1  0.13645875  0.76662872  0.21793590  1
  Bi2+  Bi103  1  0.13006201  0.74459843  0.69898078  1
  Bi2+  Bi104  1  0.34243157  -0.00407770  0.20832130  1
  Bi2+  Bi105  1  0.37630912  0.05448227  0.76763196  1
  Bi2+  Bi106  1  0.40475875  0.23868839  0.21740478  1
  Bi2+  Bi107  1  0.36217858  0.25608293  0.68532808  1
  Bi2+  Bi108  1  0.38475504  0.51179771  0.20987177  1
  Bi2+  Bi109  1  0.40159936  0.51309857  0.77551115  1
  Bi2+  Bi110  1  0.39155314  0.78056685  0.21219010  1
  Bi2+  Bi111  1  0.38393966  0.73954808  0.69964907  1
  Bi2+  Bi112  1  0.62023750  -0.06547094  0.19106800  1
  Bi2+  Bi113  1  0.64241285  0.05617121  0.68811755  1
  Bi2+  Bi114  1  0.68613887  0.20521882  0.20360409  1
  Bi2+  Bi115  1  0.62323536  0.25735682  0.70869683  1
  Bi2+  Bi116  1  0.72363452  0.48882453  0.20636496  1
  Bi2+  Bi117  1  0.63526270  0.52381740  0.69876967  1
  Bi2+  Bi118  1  0.63099229  0.74499028  0.20309017  1
  Bi2+  Bi119  1  0.64216722  0.85339630  0.68856169  1
  Bi2+  Bi120  1  0.88085919  0.02960951  0.20440150  1
  Bi2+  Bi121  1  0.79650801  -0.03983297  0.73342755  1
  Bi2+  Bi122  1  0.94227515  0.21939012  0.18890562  1
  Bi2+  Bi123  1  0.84431481  0.23671400  0.71457052  1
  Bi2+  Bi124  1  0.90375286  0.41133117  0.20676419  1
  Bi2+  Bi125  1  0.89600202  0.44089690  0.69606945  1
  Bi2+  Bi126  1  0.89289736  0.77275562  0.21963492  1
  Bi2+  Bi127  1  0.86675439  0.73083779  0.69982030  1
  S2-  S128  1  0.01714085  0.02698774  0.14105271  1
  S2-  S129  1  0.03646874  0.08544459  0.67602104  1
  S2-  S130  1  0.12466411  0.35947906  0.14732475  1
  S2-  S131  1  -0.03143639  0.29613808  0.63990703  1
  S2-  S132  1  -0.01774973  0.52772639  0.14371991  1
  S2-  S133  1  0.00671823  0.66035081  0.64741817  1
  S2-  S134  1  0.01562650  0.75606186  0.14476400  1
  S2-  S135  1  0.08149364  0.87695506  0.64704288  1
  S2-  S136  1  0.35205892  0.13094506  0.14220129  1
  S2-  S137  1  0.26651212  0.07871165  0.65824560  1
  S2-  S138  1  0.36110542  0.36263999  0.15966181  1
  S2-  S139  1  0.23010137  0.33713661  0.65244280  1
  S2-  S140  1  0.24740220  0.53757223  0.15462544  1
  S2-  S141  1  0.25185834  0.62950574  0.67127054  1
  S2-  S142  1  0.25569263  0.77795193  0.14490036  1
  S2-  S143  1  0.26787547  0.84755992  0.68054327  1
  S2-  S144  1  0.53796424  0.23498248  0.15437122  1
  S2-  S145  1  0.49886005  0.14859932  0.66069416  1
  S2-  S146  1  0.54379519  0.46613264  0.18587633  1
  S2-  S147  1  0.45116858  0.38089863  0.65903967  1
  S2-  S148  1  0.43899650  0.65193614  0.15977349  1
  S2-  S149  1  0.50333416  0.62736528  0.65469169  1
  S2-  S150  1  0.46175246  0.91466524  0.14305806  1
  S2-  S151  1  0.47232405  0.87661131  0.66151472  1
  S2-  S152  1  0.73011599  0.08296319  0.14050017  1
  S2-  S153  1  0.82609596  0.12710548  0.64005071  1
  S2-  S154  1  0.72059999  0.35080563  0.14573055  1
  S2-  S155  1  0.69475986  0.38463347  0.65225580  1
  S2-  S156  1  0.73384691  0.63834769  0.15004401  1
  S2-  S157  1  0.75529158  0.63698880  0.65781360  1
  S2-  S158  1  0.85347323  0.88865141  0.14865395  1
  S2-  S159  1  0.85449526  0.88393011  0.64125999  1
  S2-  S160  1  0.12311156  -0.12733497  0.36461708  1
  S2-  S161  1  0.08648441  -0.04445298  0.83102866  1
  S2-  S162  1  0.17358784  0.24827536  0.35073044  1
  S2-  S163  1  0.11445396  0.15821536  0.85359833  1
  S2-  S164  1  0.23258663  0.47934393  0.34416818  1
  S2-  S165  1  0.14621578  0.51209761  0.84506179  1
  S2-  S166  1  0.11831940  0.65644588  0.35717741  1
  S2-  S167  1  0.12583251  0.74070724  0.83849823  1
  S2-  S168  1  0.35800323  0.09160943  0.35720633  1
  S2-  S169  1  0.28525174  0.01191785  0.85468247  1
  S2-  S170  1  0.38404878  0.30943263  0.31214164  1
  S2-  S171  1  0.27372437  0.30528146  0.86376901  1
  S2-  S172  1  0.48831409  0.49805701  0.34532022  1
  S2-  S173  1  0.36805363  0.60387183  0.86606108  1
  S2-  S174  1  0.34947869  0.66982403  0.35555789  1
  S2-  S175  1  0.38875581  0.81700893  0.82873861  1
  S2-  S176  1  0.61048189  -0.00397411  0.35034884  1
  S2-  S177  1  0.64072490  -0.10625642  0.85428099  1
  S2-  S178  1  0.62468897  0.26881114  0.33569814  1
  S2-  S179  1  0.49168161  0.25745911  0.85931065  1
  S2-  S180  1  0.70930187  0.51938918  0.34490863  1
  S2-  S181  1  0.63922936  0.40717866  0.85185066  1
  S2-  S182  1  0.57335149  0.74460186  0.34146465  1
  S2-  S183  1  0.61138497  0.63910507  0.85744240  1
  S2-  S184  1  1.01060910  0.04621993  0.35400744  1
  S2-  S185  1  0.88096678  -0.08362482  0.85747687  1
  S2-  S186  1  0.82145075  0.12600344  0.35079684  1
  S2-  S187  1  0.89168014  0.15005153  0.85996174  1
  S2-  S188  1  0.86291780  0.37385791  0.35033209  1
  S2-  S189  1  0.89813438  0.50393781  0.84278305  1
  S2-  S190  1  0.86696453  0.86505200  0.35743779  1
  S2-  S191  1  0.86870937  0.72037164  0.83789076  1
  S2-  S192  1  -0.01923263  0.13390668  0.46177673  1
  S2-  S193  1  0.00894490  0.14480615  0.96042587  1
  S2-  S194  1  -0.01251905  0.38539130  0.44902581  1
  S2-  S195  1  0.00447315  0.39190118  0.95315958  1
  S2-  S196  1  -0.02271046  0.63002180  0.44713378  1
  S2-  S197  1  0.00114420  0.64595935  0.95331772  1
  S2-  S198  1  -0.01677885  0.87807307  0.46190637  1
  S2-  S199  1  0.00684066  0.89883386  0.96064418  1
  S2-  S200  1  0.22893932  0.12975792  0.45766393  1
  S2-  S201  1  0.26251092  0.14466181  0.95596222  1
  S2-  S202  1  0.23354125  0.37861720  0.45062444  1
  S2-  S203  1  0.25585831  0.40183670  0.96759359  1
  S2-  S204  1  0.23172225  0.62900049  0.46214159  1
  S2-  S205  1  0.25007945  0.64484157  0.96472077  1
  S2-  S206  1  0.23353735  0.88232783  0.46707941  1
  S2-  S207  1  0.25871784  0.88874085  0.95408411  1
  S2-  S208  1  0.47992991  0.13204320  0.45464578  1
  S2-  S209  1  0.50415106  0.13996635  0.95982182  1
  S2-  S210  1  0.47129317  0.37494083  0.44934254  1
  S2-  S211  1  0.50284637  0.40241015  0.95381864  1
  S2-  S212  1  0.48313629  0.63376350  0.45328385  1
  S2-  S213  1  0.50610406  0.64300000  0.96066021  1
  S2-  S214  1  0.48022090  0.88181506  0.45577643  1
  S2-  S215  1  0.49923651  0.89163148  0.94510555  1
  S2-  S216  1  0.72635690  0.13128114  0.45453055  1
  S2-  S217  1  0.74319219  0.14849260  0.94652880  1
  S2-  S218  1  0.72854996  0.38040982  0.44875843  1
  S2-  S219  1  0.75627310  0.38886403  0.94850044  1
  S2-  S220  1  0.73507325  0.63402198  0.44918336  1
  S2-  S221  1  0.75825160  0.64616794  0.94844209  1
  S2-  S222  1  0.73363391  0.88452136  0.45705793  1
  S2-  S223  1  0.75381889  0.89685064  0.96030101  1
  S2-  S224  1  0.13851977  0.01909165  0.04210696  1
  S2-  S225  1  0.10004135  0.01016896  0.54874475  1
  S2-  S226  1  0.12864963  0.26596199  0.04362498  1
  S2-  S227  1  0.10601747  0.25671835  0.54658676  1
  S2-  S228  1  0.12669157  0.52147506  0.05019483  1
  S2-  S229  1  0.10636676  0.50296132  0.54728680  1
  S2-  S230  1  0.12777348  0.76841562  0.04436557  1
  S2-  S231  1  0.10390033  0.75553447  0.54454372  1
  S2-  S232  1  0.37652506  0.01529393  0.03903816  1
  S2-  S233  1  0.35719083  0.00473876  0.55058409  1
  S2-  S234  1  0.38115765  0.27432273  0.04661975  1
  S2-  S235  1  0.35629891  0.25329784  0.54663118  1
  S2-  S236  1  0.38696248  0.51586880  0.05547155  1
  S2-  S237  1  0.35548638  0.50631709  0.55155349  1
  S2-  S238  1  0.38387447  0.76477897  0.04031826  1
  S2-  S239  1  0.35442603  0.75742462  0.55276024  1
  S2-  S240  1  0.62369898  0.02200954  0.03925843  1
  S2-  S241  1  0.60647644  0.00471827  0.55312991  1
  S2-  S242  1  0.62388879  0.26908283  0.03695406  1
  S2-  S243  1  0.60583035  0.25437215  0.54593049  1
  S2-  S244  1  0.62689141  0.51355607  0.04593665  1
  S2-  S245  1  0.60405386  0.50505214  0.53864276  1
  S2-  S246  1  0.62995572  0.77118068  0.04346597  1
  S2-  S247  1  0.60848798  0.75797979  0.54833378  1
  S2-  S248  1  0.87370726  0.02738154  0.04174252  1
  S2-  S249  1  0.85619695  0.00634795  0.53814542  1
  S2-  S250  1  0.87962061  0.26805257  0.04538708  1
  S2-  S251  1  0.85162201  0.25960348  0.53568979  1
  S2-  S252  1  0.87488179  0.51641781  0.04403839  1
  S2-  S253  1  0.85541159  0.50407313  0.53894386  1
  S2-  S254  1  0.87360318  0.76653102  0.04221121  1
  S2-  S255  1  0.85739143  0.75348653  0.54200997  1
