# generated using pymatgen
data_La9Ce10Pr6Nd4Sm3(BiS2)32
_symmetry_space_group_name_H-M   'P 1'
_cell_length_a   16.17601052
_cell_length_b   16.16170279
_cell_length_c   27.48629430
_cell_angle_alpha   89.82828101
_cell_angle_beta   90.28756313
_cell_angle_gamma   89.96323776
_symmetry_Int_Tables_number   1
_chemical_formula_structural   La9Ce10Pr6Nd4Sm3(BiS2)32
_chemical_formula_sum   'La18 Ce20 Pr12 Nd8 Sm6 Bi64 S128'
_cell_volume   7185.66910970
_cell_formula_units_Z   2
loop_
 _symmetry_equiv_pos_site_id
 _symmetry_equiv_pos_as_xyz
  1  'x, y, z'
loop_
 _atom_type_symbol
 _atom_type_oxidation_number
  La3+  3.0
  Ce3+  3.0
  Pr3+  3.0
  Nd3+  3.0
  Sm3+  3.0
  Bi2+  2.0
  S2-  -2.0
loop_
 _atom_site_type_symbol
 _atom_site_label
 _atom_site_symmetry_multiplicity
 _atom_site_fract_x
 _atom_site_fract_y
 _atom_site_fract_z
 _atom_site_occupancy
  La3+  La0  1  0.61564953  0.50451242  0.41329482  1
  La3+  La1  1  0.12448657  0.00119938  0.93532916  1
  La3+  La2  1  0.85825988  0.25281019  0.43885470  1
  La3+  La3  1  0.49876066  0.37289004  0.08082254  1
  La3+  La4  1  0.60320457  0.00598664  0.42152473  1
  La3+  La5  1  0.00184138  0.63532933  0.07038215  1
  La3+  La6  1  0.75261098  0.63201197  0.07352320  1
  La3+  La7  1  0.50750425  0.88544279  0.06502877  1
  La3+  La8  1  0.73905835  0.87563498  0.55553918  1
  La3+  La9  1  0.50571157  0.62708492  0.07890972  1
  La3+  La10  1  0.00685994  0.89158191  0.09455854  1
  La3+  La11  1  0.37255922  0.25005305  0.89211698  1
  La3+  La12  1  -0.01146931  0.62537104  0.61552063  1
  La3+  La13  1  0.48949115  0.87294557  0.56403426  1
  La3+  La14  1  0.87327051  0.78138076  0.88642661  1
  La3+  La15  1  0.11681461  0.74269186  0.41079496  1
  La3+  La16  1  0.10964562  0.25289518  0.43906334  1
  La3+  La17  1  0.48524955  0.12029416  0.58754702  1
  Ce3+  Ce18  1  0.11989797  0.75856014  0.94665315  1
  Ce3+  Ce19  1  0.23767757  0.12353690  0.56233310  1
  Ce3+  Ce20  1  0.13463640  0.25762017  0.94256124  1
  Ce3+  Ce21  1  0.38157357  0.75811130  0.93844842  1
  Ce3+  Ce22  1  0.61231526  0.74727892  0.43601565  1
  Ce3+  Ce23  1  0.38040007  0.50179094  0.94847628  1
  Ce3+  Ce24  1  0.87720464  0.26796042  0.93616008  1
  Ce3+  Ce25  1  0.73574379  0.12410638  0.55299381  1
  Ce3+  Ce26  1  0.63284380  0.75570416  0.94227983  1
  Ce3+  Ce27  1  0.36559326  0.00312883  0.44228775  1
  Ce3+  Ce28  1  0.36451171  0.75165193  0.43540696  1
  Ce3+  Ce29  1  0.25750624  0.12566430  0.05212500  1
  Ce3+  Ce30  1  0.25590434  0.37705544  0.06464133  1
  Ce3+  Ce31  1  0.37977382  -0.00162731  0.93066395  1
  Ce3+  Ce32  1  0.87576254  0.00895833  0.94566182  1
  Ce3+  Ce33  1  0.73639710  0.62657204  0.56996759  1
  Ce3+  Ce34  1  0.49310053  0.62507076  0.56109114  1
  Ce3+  Ce35  1  0.87916624  0.51622574  0.93889899  1
  Ce3+  Ce36  1  0.86421392  -0.00257633  0.44060411  1
  Ce3+  Ce37  1  0.75377525  0.13479482  0.04711696  1
  Pr3+  Pr38  1  0.23379491  0.62916282  0.55679071  1
  Pr3+  Pr39  1  0.73737214  0.37899042  0.55869840  1
  Pr3+  Pr40  1  0.25971378  0.88760048  0.07175474  1
  Pr3+  Pr41  1  0.13161754  0.50759430  0.94974739  1
  Pr3+  Pr42  1  0.50563846  0.13508223  0.05373378  1
  Pr3+  Pr43  1  -0.01279147  0.12470522  0.56519726  1
  Pr3+  Pr44  1  0.36522106  0.50061487  0.43746605  1
  Pr3+  Pr45  1  0.62131293  0.26895553  0.93394572  1
  Pr3+  Pr46  1  0.36560114  0.25214118  0.44227409  1
  Pr3+  Pr47  1  0.11141495  0.00847795  0.42214132  1
  Pr3+  Pr48  1  0.48975806  0.37813592  0.56060100  1
  Pr3+  Pr49  1  0.00665109  0.38013025  0.06321876  1
  Nd3+  Nd50  1  0.23680841  0.37752342  0.55960101  1
  Nd3+  Nd51  1  0.62724336  0.50745124  0.95002290  1
  Nd3+  Nd52  1  0.00363794  0.12933922  0.05654440  1
  Nd3+  Nd53  1  0.25389602  0.63804631  0.05766109  1
  Nd3+  Nd54  1  0.75821232  0.38176852  0.06676789  1
  Nd3+  Nd55  1  0.86499187  0.74950975  0.44314874  1
  Nd3+  Nd56  1  0.75208129  0.88415347  0.06013863  1
  Nd3+  Nd57  1  0.23355045  0.87505378  0.54688638  1
  Sm3+  Sm58  1  0.61133585  0.25137939  0.44840048  1
  Sm3+  Sm59  1  0.62560995  0.01181040  0.93124461  1
  Sm3+  Sm60  1  0.11041277  0.50232366  0.44075282  1
  Sm3+  Sm61  1  0.86415399  0.50724523  0.44865086  1
  Sm3+  Sm62  1  -0.01169081  0.38031759  0.56048304  1
  Sm3+  Sm63  1  -0.00469474  0.87482954  0.55747640  1
  Bi2+  Bi64  1  0.01538531  0.12024991  0.30049906  1
  Bi2+  Bi65  1  -0.03129891  0.17413398  0.77805716  1
  Bi2+  Bi66  1  0.10334592  0.35249200  0.31586315  1
  Bi2+  Bi67  1  -0.03704887  0.37584217  0.77477772  1
  Bi2+  Bi68  1  -0.03813461  0.62599499  0.31218954  1
  Bi2+  Bi69  1  0.03791169  0.62008044  0.82013753  1
  Bi2+  Bi70  1  -0.04146917  0.88255073  0.28674519  1
  Bi2+  Bi71  1  -0.00647747  0.90651327  0.78604851  1
  Bi2+  Bi72  1  0.27974706  0.10687326  0.26820604  1
  Bi2+  Bi73  1  0.22316764  0.10694489  0.79200722  1
  Bi2+  Bi74  1  0.29506193  0.38710792  0.31862358  1
  Bi2+  Bi75  1  0.24908355  0.40616280  0.79992170  1
  Bi2+  Bi76  1  0.23511340  0.56181437  0.28024431  1
  Bi2+  Bi77  1  0.27553219  0.65921371  0.78879873  1
  Bi2+  Bi78  1  0.32014187  0.85942935  0.28562715  1
  Bi2+  Bi79  1  0.25046070  0.85205146  0.78685856  1
  Bi2+  Bi80  1  0.54535597  0.07806139  0.28954135  1
  Bi2+  Bi81  1  0.50360511  0.10945218  0.77922102  1
  Bi2+  Bi82  1  0.53414937  0.34485859  0.30486071  1
  Bi2+  Bi83  1  0.56538451  0.33771149  0.77894511  1
  Bi2+  Bi84  1  0.46239812  0.60835111  0.28282493  1
  Bi2+  Bi85  1  0.46139388  0.63318382  0.82698913  1
  Bi2+  Bi86  1  0.48439930  0.78566267  0.32550753  1
  Bi2+  Bi87  1  0.46238364  0.82114300  0.77221021  1
  Bi2+  Bi88  1  0.75184702  0.08364495  0.29428816  1
  Bi2+  Bi89  1  0.77416714  0.10589469  0.77857772  1
  Bi2+  Bi90  1  0.78655351  0.30128220  0.29065088  1
  Bi2+  Bi91  1  0.77976519  0.29944758  0.80254677  1
  Bi2+  Bi92  1  0.73331299  0.71226826  0.28021045  1
  Bi2+  Bi93  1  0.64801298  0.55312802  0.80709499  1
  Bi2+  Bi94  1  0.71473869  0.90634173  0.23194885  1
  Bi2+  Bi95  1  0.71992592  0.90933679  0.79731278  1
  Bi2+  Bi96  1  0.15159036  0.01034151  0.20652644  1
  Bi2+  Bi97  1  0.16250562  0.00671848  0.69633095  1
  Bi2+  Bi98  1  0.18442571  0.26161695  0.22339242  1
  Bi2+  Bi99  1  0.13276239  0.20365645  0.70342429  1
  Bi2+  Bi100  1  0.11997596  0.44674547  0.21228112  1
  Bi2+  Bi101  1  0.12472066  0.48829611  0.70961161  1
  Bi2+  Bi102  1  0.11374258  0.73634538  0.21154255  1
  Bi2+  Bi103  1  0.13510746  0.75499262  0.70985061  1
  Bi2+  Bi104  1  0.40832844  -0.01356086  0.21354579  1
  Bi2+  Bi105  1  0.35140303  -0.04374747  0.70864393  1
  Bi2+  Bi106  1  0.38850877  0.25375307  0.23371836  1
  Bi2+  Bi107  1  0.32819560  0.26529478  0.69899135  1
  Bi2+  Bi108  1  0.37080938  0.47976605  0.21344869  1
  Bi2+  Bi109  1  0.39155024  0.53652364  0.73178939  1
  Bi2+  Bi110  1  0.37078596  0.72481833  0.20497024  1
  Bi2+  Bi111  1  0.42082502  0.70715386  0.68017858  1
  Bi2+  Bi112  1  0.57904924  0.05726113  0.17441650  1
  Bi2+  Bi113  1  0.64832871  -0.00235192  0.68840048  1
  Bi2+  Bi114  1  0.65412204  0.23313099  0.20890703  1
  Bi2+  Bi115  1  0.70947243  0.23556064  0.69590282  1
  Bi2+  Bi116  1  0.66254520  0.51484856  0.20526387  1
  Bi2+  Bi117  1  0.57246202  0.46493494  0.69262864  1
  Bi2+  Bi118  1  0.56934517  0.76732415  0.22294206  1
  Bi2+  Bi119  1  0.59543880  0.69357957  0.73423996  1
  Bi2+  Bi120  1  0.87038092  0.05640573  0.20604398  1
  Bi2+  Bi121  1  0.90737538  0.02308072  0.70868820  1
  Bi2+  Bi122  1  0.92081059  0.24427515  0.21429601  1
  Bi2+  Bi123  1  0.95787629  0.27344000  0.67608404  1
  Bi2+  Bi124  1  0.94085030  0.43439707  0.26405905  1
  Bi2+  Bi125  1  0.79149486  0.47177718  0.74569613  1
  Bi2+  Bi126  1  0.86531350  0.68921858  0.20376178  1
  Bi2+  Bi127  1  0.84220829  0.79957289  0.68420719  1
  S2-  S128  1  0.01856177  0.05344341  0.14626434  1
  S2-  S129  1  0.02027564  0.00129739  0.63409386  1
  S2-  S130  1  -0.02666465  0.37870454  0.16123424  1
  S2-  S131  1  -0.00553526  0.45435542  0.64896022  1
  S2-  S132  1  0.01887865  0.62508439  0.17077079  1
  S2-  S133  1  0.01626929  0.62982480  0.72624882  1
  S2-  S134  1  -0.04641127  0.83629362  0.18925716  1
  S2-  S135  1  0.00107981  0.79377368  0.64660138  1
  S2-  S136  1  0.27054023  0.05127125  0.13874641  1
  S2-  S137  1  0.33603562  0.12708432  0.64407849  1
  S2-  S138  1  0.33910423  0.35359718  0.14863933  1
  S2-  S139  1  0.23414145  0.39635476  0.65795018  1
  S2-  S140  1  0.23930702  0.65676009  0.15586505  1
  S2-  S141  1  0.16395227  0.62342316  0.64743419  1
  S2-  S142  1  0.15438307  0.87064761  0.15359198  1
  S2-  S143  1  0.23973299  0.86618236  0.64706041  1
  S2-  S144  1  0.52059557  0.22457026  0.14273525  1
  S2-  S145  1  0.56126441  0.15488605  0.68059764  1
  S2-  S146  1  0.51284216  0.49186921  0.15665362  1
  S2-  S147  1  0.46416133  0.35175351  0.65772655  1
  S2-  S148  1  0.63221131  0.65758336  0.15111373  1
  S2-  S149  1  0.60398440  0.61918571  0.63826081  1
  S2-  S150  1  0.39457138  0.86359131  0.14128689  1
  S2-  S151  1  0.49454043  0.96714018  0.64760623  1
  S2-  S152  1  0.75351741  0.12853628  0.14418042  1
  S2-  S153  1  0.78139291  0.09870238  0.64494615  1
  S2-  S154  1  0.70890333  0.36970904  0.16211975  1
  S2-  S155  1  0.73686065  0.40352606  0.65881011  1
  S2-  S156  1  0.80792076  0.54953277  0.15969703  1
  S2-  S157  1  0.82734449  0.64307629  0.65432819  1
  S2-  S158  1  0.64219679  0.90018306  0.13783469  1
  S2-  S159  1  0.68150891  0.85388137  0.64979549  1
  S2-  S160  1  0.09273039  -0.02935259  0.32081621  1
  S2-  S161  1  0.10582533  0.01801920  0.83610803  1
  S2-  S162  1  0.13739652  0.15506866  0.35897833  1
  S2-  S163  1  0.20631060  0.26040468  0.85282897  1
  S2-  S164  1  0.11409179  0.57920649  0.35249068  1
  S2-  S165  1  0.13120437  0.47793664  0.84988199  1
  S2-  S166  1  0.06872107  0.77145356  0.31154724  1
  S2-  S167  1  0.05157455  0.78036581  0.85582228  1
  S2-  S168  1  0.45098241  0.01252950  0.36010225  1
  S2-  S169  1  0.37366696  0.08791057  0.84608514  1
  S2-  S170  1  0.38459318  0.24684732  0.34231262  1
  S2-  S171  1  0.41097616  0.25953432  0.78530147  1
  S2-  S172  1  0.46707818  0.48804076  0.35522903  1
  S2-  S173  1  0.37746693  0.42215880  0.86253913  1
  S2-  S174  1  0.27196656  0.74700670  0.35325339  1
  S2-  S175  1  0.37200352  0.86874842  0.86171164  1
  S2-  S176  1  0.66188310  -0.05136994  0.32977047  1
  S2-  S177  1  0.58800583  -0.01647214  0.83559491  1
  S2-  S178  1  0.60470617  0.21120672  0.35373550  1
  S2-  S179  1  0.58600797  0.20033619  0.84005418  1
  S2-  S180  1  0.66661626  0.42851683  0.32112492  1
  S2-  S181  1  0.61292301  0.41174705  0.86627000  1
  S2-  S182  1  0.64301159  0.65120464  0.35703504  1
  S2-  S183  1  0.70072325  0.77223224  0.85337019  1
  S2-  S184  1  0.88686944  0.01383216  0.34518687  1
  S2-  S185  1  0.87344852  -0.04396656  0.85357424  1
  S2-  S186  1  0.92008745  0.25118623  0.34679442  1
  S2-  S187  1  0.88331643  0.39254287  0.86687128  1
  S2-  S188  1  0.86958399  0.50919577  0.35022103  1
  S2-  S189  1  0.88679477  0.61359672  0.85743496  1
  S2-  S190  1  0.86234326  0.76883586  0.34365113  1
  S2-  S191  1  0.86849245  0.79076197  0.77752095  1
  S2-  S192  1  -0.01531007  0.12664872  0.45768454  1
  S2-  S193  1  0.00137520  0.13656715  0.94956222  1
  S2-  S194  1  -0.01461924  0.38070846  0.45562072  1
  S2-  S195  1  0.01091513  0.38050305  0.95906234  1
  S2-  S196  1  -0.01167453  0.62632567  0.44826264  1
  S2-  S197  1  0.00769846  0.63047772  0.96383109  1
  S2-  S198  1  -0.00695575  0.87497095  0.44741802  1
  S2-  S199  1  -0.00610935  0.88202741  0.95738022  1
  S2-  S200  1  0.24335068  0.12795339  0.45690614  1
  S2-  S201  1  0.25303460  0.12807170  0.94895192  1
  S2-  S202  1  0.23637733  0.37839464  0.45342297  1
  S2-  S203  1  0.25406009  0.37971621  0.96160231  1
  S2-  S204  1  0.23946138  0.62159587  0.45217887  1
  S2-  S205  1  0.25517002  0.63460712  0.95139551  1
  S2-  S206  1  0.23617468  0.88205517  0.44247781  1
  S2-  S207  1  0.24943383  0.87743622  0.95973994  1
  S2-  S208  1  0.48865700  0.13012997  0.46276172  1
  S2-  S209  1  0.50101638  0.13486920  0.94762939  1
  S2-  S210  1  0.49232014  0.37482277  0.45515917  1
  S2-  S211  1  0.50017173  0.38343485  0.97006156  1
  S2-  S212  1  0.48646762  0.62623902  0.45494136  1
  S2-  S213  1  0.50401676  0.63136942  0.96307188  1
  S2-  S214  1  0.48830274  0.87467893  0.45611922  1
  S2-  S215  1  0.51215921  0.88116516  0.95466586  1
  S2-  S216  1  0.73593725  0.12382830  0.44836627  1
  S2-  S217  1  0.75102182  0.13804312  0.94115908  1
  S2-  S218  1  0.73515769  0.37887604  0.45122107  1
  S2-  S219  1  0.75446522  0.38534718  0.96140767  1
  S2-  S220  1  0.74234659  0.62624212  0.46116309  1
  S2-  S221  1  0.75057106  0.63104625  0.96370768  1
  S2-  S222  1  0.73550905  0.87483120  0.44781164  1
  S2-  S223  1  0.75065271  0.88740954  0.95577440  1
  S2-  S224  1  0.12632633  0.00510315  0.04183402  1
  S2-  S225  1  0.11622041  0.00329733  0.53207037  1
  S2-  S226  1  0.12993004  0.25135958  0.05195746  1
  S2-  S227  1  0.11181829  0.25301714  0.54792795  1
  S2-  S228  1  0.13166571  0.50721573  0.05712475  1
  S2-  S229  1  0.11188224  0.49971333  0.54296827  1
  S2-  S230  1  0.12616466  0.76127985  0.05061967  1
  S2-  S231  1  0.11323765  0.75278487  0.53640708  1
  S2-  S232  1  0.38460293  0.00638369  0.03696196  1
  S2-  S233  1  0.36104762  -0.00159599  0.54514325  1
  S2-  S234  1  0.37420691  0.25033654  0.04646564  1
  S2-  S235  1  0.36233368  0.25402894  0.54742834  1
  S2-  S236  1  0.37413663  0.50900768  0.05343018  1
  S2-  S237  1  0.36191919  0.50202944  0.54684343  1
  S2-  S238  1  0.38262763  0.75235223  0.04440726  1
  S2-  S239  1  0.36152846  0.75103544  0.54240379  1
  S2-  S240  1  0.63112374  0.01252763  0.03450410  1
  S2-  S241  1  0.61233333  0.00267285  0.54004487  1
  S2-  S242  1  0.63438023  0.25981028  0.04053315  1
  S2-  S243  1  0.61264329  0.24990129  0.55278213  1
  S2-  S244  1  0.62997555  0.50113129  0.05307975  1
  S2-  S245  1  0.61261430  0.50019295  0.53874129  1
  S2-  S246  1  0.62741027  0.75718309  0.04541703  1
  S2-  S247  1  0.61211386  0.75008516  0.54061630  1
  S2-  S248  1  0.87736589  0.00627599  0.04995092  1
  S2-  S249  1  0.86540154  -0.00112358  0.54348727  1
  S2-  S250  1  0.88208134  0.25694321  0.04529153  1
  S2-  S251  1  0.86252281  0.25351613  0.54625949  1
  S2-  S252  1  0.88264917  0.50379544  0.04694655  1
  S2-  S253  1  0.86414599  0.50225208  0.55102242  1
  S2-  S254  1  0.87719753  0.76410062  0.06995048  1
  S2-  S255  1  0.86778151  0.75346357  0.54702650  1
