# generated using pymatgen
data_La9Ce10Pr6Nd4Sm3(BiS2)32
_symmetry_space_group_name_H-M   'P 1'
_cell_length_a   16.16457148
_cell_length_b   16.16841332
_cell_length_c   27.20330451
_cell_angle_alpha   89.89528791
_cell_angle_beta   89.99295282
_cell_angle_gamma   90.11502305
_symmetry_Int_Tables_number   1
_chemical_formula_structural   La9Ce10Pr6Nd4Sm3(BiS2)32
_chemical_formula_sum   'La18 Ce20 Pr12 Nd8 Sm6 Bi64 S128'
_cell_volume   7109.70625487
_cell_formula_units_Z   2
loop_
 _symmetry_equiv_pos_site_id
 _symmetry_equiv_pos_as_xyz
  1  'x, y, z'
loop_
 _atom_type_symbol
 _atom_type_oxidation_number
  La3+  3.0
  Ce3+  3.0
  Pr3+  3.0
  Nd3+  3.0
  Sm3+  3.0
  Bi2+  2.0
  S2-  -2.0
loop_
 _atom_site_type_symbol
 _atom_site_label
 _atom_site_symmetry_multiplicity
 _atom_site_fract_x
 _atom_site_fract_y
 _atom_site_fract_z
 _atom_site_occupancy
  La3+  La0  1  0.12100582  -0.02217754  0.93550846  1
  La3+  La1  1  0.24998506  0.85517916  0.06254283  1
  La3+  La2  1  0.49501923  0.85674239  0.06491167  1
  La3+  La3  1  0.51222743  0.11008908  0.11469616  1
  La3+  La4  1  0.74114168  0.11565683  0.57610904  1
  La3+  La5  1  0.48588838  0.85734237  0.57427297  1
  La3+  La6  1  0.36801768  0.73945844  0.42309823  1
  La3+  La7  1  0.37773225  0.72989307  0.92242664  1
  La3+  La8  1  0.61632153  -0.01374368  0.44578338  1
  La3+  La9  1  0.75183662  0.86108259  0.58338665  1
  La3+  La10  1  0.36912197  -0.01620732  0.91643261  1
  La3+  La11  1  -0.00735130  0.84838491  0.07552030  1
  La3+  La12  1  0.36700771  0.24251985  0.42021910  1
  La3+  La13  1  0.48300451  0.10417088  0.58241238  1
  La3+  La14  1  0.62414197  0.47976754  0.91783296  1
  La3+  La15  1  0.86498371  0.73436039  0.41540130  1
  La3+  La16  1  0.24585976  0.35706149  0.06966238  1
  La3+  La17  1  0.48642696  0.36501487  0.57938150  1
  Ce3+  Ce18  1  0.61147954  0.23958362  0.45682929  1
  Ce3+  Ce19  1  0.24190361  0.61391336  0.54843658  1
  Ce3+  Ce20  1  0.87345735  0.23228727  0.93927422  1
  Ce3+  Ce21  1  0.74369547  0.36866541  0.57759555  1
  Ce3+  Ce22  1  0.86937563  -0.01868686  0.94589177  1
  Ce3+  Ce23  1  0.25491645  0.10530686  0.06337225  1
  Ce3+  Ce24  1  0.11666741  0.48668084  0.44149843  1
  Ce3+  Ce25  1  0.11840011  0.23946635  0.43282975  1
  Ce3+  Ce26  1  0.24412108  0.36128765  0.56418420  1
  Ce3+  Ce27  1  0.61897096  0.23202525  0.94031624  1
  Ce3+  Ce28  1  -0.00558782  0.10620061  0.06030376  1
  Ce3+  Ce29  1  0.62463818  0.73972456  0.93154709  1
  Ce3+  Ce30  1  0.11700190  0.73385147  0.93968657  1
  Ce3+  Ce31  1  0.11532513  0.73912816  0.43794581  1
  Ce3+  Ce32  1  0.12097235  0.23394651  0.94846309  1
  Ce3+  Ce33  1  0.37254778  0.23306632  0.94367449  1
  Ce3+  Ce34  1  0.61348219  0.48261140  0.44456972  1
  Ce3+  Ce35  1  0.49602977  0.61029058  0.05490841  1
  Ce3+  Ce36  1  0.87111799  0.48332317  0.93663894  1
  Ce3+  Ce37  1  0.86311128  0.48806769  0.43518608  1
  Pr3+  Pr38  1  0.74103624  0.61433173  0.56517702  1
  Pr3+  Pr39  1  -0.00924345  0.61444167  0.55805003  1
  Pr3+  Pr40  1  0.86061088  0.24156302  0.44000065  1
  Pr3+  Pr41  1  0.24256805  0.11040593  0.55389509  1
  Pr3+  Pr42  1  -0.00844586  0.11039772  0.55228034  1
  Pr3+  Pr43  1  0.85625509  -0.00543747  0.42728987  1
  Pr3+  Pr44  1  0.74388969  0.85188645  0.07078272  1
  Pr3+  Pr45  1  -0.00525128  0.36308877  0.55533147  1
  Pr3+  Pr46  1  0.36890345  0.47723934  0.93508219  1
  Pr3+  Pr47  1  0.24659369  0.60500343  0.05233404  1
  Pr3+  Pr48  1  0.49557222  0.35790015  0.06742349  1
  Pr3+  Pr49  1  0.74075980  0.60402872  0.06356770  1
  Nd3+  Nd50  1  0.61990885  -0.01478770  0.94736432  1
  Nd3+  Nd51  1  0.61782445  0.73649890  0.43756917  1
  Nd3+  Nd52  1  0.37458239  -0.01401164  0.42373896  1
  Nd3+  Nd53  1  -0.01176787  0.86303487  0.55026513  1
  Nd3+  Nd54  1  -0.00555094  0.60281865  0.06491269  1
  Nd3+  Nd55  1  -0.01127422  0.36055876  0.06868068  1
  Nd3+  Nd56  1  0.86713061  0.73327438  0.93554720  1
  Nd3+  Nd57  1  0.75226831  0.10804371  0.06966260  1
  Sm3+  Sm58  1  0.49025717  0.61957977  0.55399766  1
  Sm3+  Sm59  1  0.24589434  0.86175990  0.55341427  1
  Sm3+  Sm60  1  0.74302754  0.35705913  0.05486833  1
  Sm3+  Sm61  1  0.36663605  0.48482538  0.43884008  1
  Sm3+  Sm62  1  0.11688199  0.48140468  0.93934897  1
  Sm3+  Sm63  1  0.11571093  -0.01360003  0.43665674  1
  Bi2+  Bi64  1  0.02946557  0.20588062  0.29267922  1
  Bi2+  Bi65  1  0.02701523  0.13184424  0.79283459  1
  Bi2+  Bi66  1  -0.02426478  0.39777999  0.27884612  1
  Bi2+  Bi67  1  0.00588502  0.46837357  0.81838023  1
  Bi2+  Bi68  1  0.00442261  0.59347713  0.28347341  1
  Bi2+  Bi69  1  0.03528275  0.68139517  0.81978957  1
  Bi2+  Bi70  1  0.01532070  0.86712534  0.30086635  1
  Bi2+  Bi71  1  -0.01546251  0.94774539  0.81378835  1
  Bi2+  Bi72  1  0.26055760  0.14797524  0.27915529  1
  Bi2+  Bi73  1  0.21797888  0.10089317  0.76559746  1
  Bi2+  Bi74  1  0.24491352  0.41213965  0.29643093  1
  Bi2+  Bi75  1  0.20270578  0.34381466  0.78842068  1
  Bi2+  Bi76  1  0.30435067  0.60907453  0.30152436  1
  Bi2+  Bi77  1  0.21415665  0.64553605  0.77360477  1
  Bi2+  Bi78  1  0.24624406  0.88406863  0.26987194  1
  Bi2+  Bi79  1  0.21914905  0.89252185  0.78683524  1
  Bi2+  Bi80  1  0.55186145  0.11675851  0.32522443  1
  Bi2+  Bi81  1  0.48618566  0.18360456  0.78827208  1
  Bi2+  Bi82  1  0.52577446  0.39540972  0.29268722  1
  Bi2+  Bi83  1  0.47723623  0.39062170  0.79937130  1
  Bi2+  Bi84  1  0.49461788  0.64188770  0.29786049  1
  Bi2+  Bi85  1  0.47154059  0.62602425  0.77269063  1
  Bi2+  Bi86  1  0.50326744  0.83532095  0.29419838  1
  Bi2+  Bi87  1  0.49599704  0.87274498  0.79863248  1
  Bi2+  Bi88  1  0.75695733  0.21225379  0.26413971  1
  Bi2+  Bi89  1  0.80616144  0.11558565  0.76947801  1
  Bi2+  Bi90  1  0.79846905  0.36702145  0.32620489  1
  Bi2+  Bi91  1  0.82913073  0.38118494  0.78726738  1
  Bi2+  Bi92  1  0.74819611  0.54332951  0.28016401  1
  Bi2+  Bi93  1  0.84803094  0.63786463  0.80502299  1
  Bi2+  Bi94  1  0.75131712  0.90784368  0.30503741  1
  Bi2+  Bi95  1  0.74101432  0.87753450  0.78609549  1
  Bi2+  Bi96  1  0.10981015  0.06806996  0.22498081  1
  Bi2+  Bi97  1  0.11472495  -0.02664624  0.69885012  1
  Bi2+  Bi98  1  0.14224435  0.25199723  0.18804285  1
  Bi2+  Bi99  1  0.12444578  0.31768419  0.67803624  1
  Bi2+  Bi100  1  0.15599455  0.44309639  0.19666079  1
  Bi2+  Bi101  1  0.12402493  0.50932894  0.70573918  1
  Bi2+  Bi102  1  0.15650715  0.69231734  0.24170256  1
  Bi2+  Bi103  1  0.10684671  0.77515290  0.71047280  1
  Bi2+  Bi104  1  0.38611839  -0.01448268  0.21950770  1
  Bi2+  Bi105  1  0.39189019  -0.00317429  0.70890432  1
  Bi2+  Bi106  1  0.37469801  0.25747488  0.20850576  1
  Bi2+  Bi107  1  0.30211453  0.24469507  0.70792849  1
  Bi2+  Bi108  1  0.42224201  0.51063660  0.21664227  1
  Bi2+  Bi109  1  0.32376975  0.51637241  0.71075522  1
  Bi2+  Bi110  1  0.33911657  0.70562985  0.18885835  1
  Bi2+  Bi111  1  0.36866403  0.74543640  0.70225071  1
  Bi2+  Bi112  1  0.64665169  -0.01078072  0.21730500  1
  Bi2+  Bi113  1  0.63122594  0.07827135  0.71314080  1
  Bi2+  Bi114  1  0.65790056  0.35123289  0.21078516  1
  Bi2+  Bi115  1  0.67738358  0.32607067  0.72007132  1
  Bi2+  Bi116  1  0.59430099  0.50744897  0.15290006  1
  Bi2+  Bi117  1  0.64465237  0.54616481  0.71229364  1
  Bi2+  Bi118  1  0.63708505  0.66327116  0.21486657  1
  Bi2+  Bi119  1  0.64314730  0.74158834  0.72444718  1
  Bi2+  Bi120  1  0.89730061  0.01781571  0.22057806  1
  Bi2+  Bi121  1  0.90697442  0.01261464  0.69083849  1
  Bi2+  Bi122  1  0.93153299  0.26245744  0.19528550  1
  Bi2+  Bi123  1  0.95114053  0.26654707  0.72509389  1
  Bi2+  Bi124  1  0.86815418  0.51985249  0.19474758  1
  Bi2+  Bi125  1  0.92303199  0.53055979  0.71660151  1
  Bi2+  Bi126  1  0.87746633  0.77588067  0.20228309  1
  Bi2+  Bi127  1  0.91483573  0.80380734  0.74438099  1
  S2-  S128  1  -0.10547699  0.11732537  0.14093189  1
  S2-  S129  1  0.04164914  0.10722033  0.64905614  1
  S2-  S130  1  0.00805462  0.48100511  0.14124376  1
  S2-  S131  1  -0.05112137  0.38168708  0.65231014  1
  S2-  S132  1  -0.01682089  0.70725829  0.14590606  1
  S2-  S133  1  0.01658572  0.63382449  0.65795693  1
  S2-  S134  1  -0.00873366  0.90572386  0.17575256  1
  S2-  S135  1  -0.08566557  0.86381456  0.64074843  1
  S2-  S136  1  0.33968002  0.10567177  0.14997133  1
  S2-  S137  1  0.32686811  0.10190169  0.64318744  1
  S2-  S138  1  0.34811099  0.38440019  0.15177872  1
  S2-  S139  1  0.34480469  0.37739067  0.64574576  1
  S2-  S140  1  0.21014732  0.59349732  0.15188454  1
  S2-  S141  1  0.26993440  0.63377556  0.64352930  1
  S2-  S142  1  0.27380090  0.86498229  0.16306907  1
  S2-  S143  1  0.33173193  0.87389292  0.64022241  1
  S2-  S144  1  0.50324966  0.10846964  0.23454557  1
  S2-  S145  1  0.52125757  0.17993800  0.67918711  1
  S2-  S146  1  0.51784615  0.27202694  0.15544650  1
  S2-  S147  1  0.55554049  0.41322645  0.67345033  1
  S2-  S148  1  0.47811074  0.71782095  0.13492654  1
  S2-  S149  1  0.49231306  0.70954577  0.63920528  1
  S2-  S150  1  0.50770011  0.94256934  0.15534837  1
  S2-  S151  1  0.52348306  0.96764552  0.65669993  1
  S2-  S152  1  0.67385630  0.11931512  0.15900028  1
  S2-  S153  1  0.75343300  0.24740298  0.65039741  1
  S2-  S154  1  0.81018257  0.36893664  0.14681714  1
  S2-  S155  1  0.75320820  0.49718300  0.64636335  1
  S2-  S156  1  0.74542853  0.71784470  0.14336463  1
  S2-  S157  1  0.73967606  0.72457513  0.64740642  1
  S2-  S158  1  0.76852497  0.91769576  0.16773537  1
  S2-  S159  1  0.74654289  0.99570298  0.65180147  1
  S2-  S160  1  0.14238228  -0.03802901  0.34002835  1
  S2-  S161  1  0.22460944  0.02390271  0.85554718  1
  S2-  S162  1  0.21350855  0.26005934  0.35171138  1
  S2-  S163  1  0.09665421  0.25245699  0.85207089  1
  S2-  S164  1  0.10285748  0.47938868  0.34320624  1
  S2-  S165  1  0.17428428  0.47247450  0.84606041  1
  S2-  S166  1  0.08942465  0.72161058  0.34153598  1
  S2-  S167  1  0.10334223  0.84136499  0.86209869  1
  S2-  S168  1  0.51725885  -0.03575270  0.35806992  1
  S2-  S169  1  0.43803346  0.03810210  0.81778613  1
  S2-  S170  1  0.37824802  0.11459828  0.35052208  1
  S2-  S171  1  0.36452854  0.27079747  0.84654489  1
  S2-  S172  1  0.38642271  0.38857695  0.35739338  1
  S2-  S173  1  0.38581417  0.51609738  0.83677476  1
  S2-  S174  1  0.34872479  0.85314928  0.34589579  1
  S2-  S175  1  0.34873058  0.84621507  0.84737910  1
  S2-  S176  1  0.71325963  0.03297366  0.36014393  1
  S2-  S177  1  0.62033662  -0.06563962  0.84969952  1
  S2-  S178  1  0.58667314  0.27648258  0.36145171  1
  S2-  S179  1  0.59788049  0.28295942  0.84566583  1
  S2-  S180  1  0.60638504  0.52126233  0.34748053  1
  S2-  S181  1  0.58375819  0.50932035  0.81583575  1
  S2-  S182  1  0.64307614  0.77725043  0.33930954  1
  S2-  S183  1  0.51767258  0.72731228  0.85300812  1
  S2-  S184  1  0.91603249  -0.01701198  0.32918042  1
  S2-  S185  1  0.82763384  -0.00689700  0.84924120  1
  S2-  S186  1  0.86557627  0.19827917  0.34127648  1
  S2-  S187  1  0.83235811  0.22862319  0.84410604  1
  S2-  S188  1  0.87133748  0.58689191  0.35362793  1
  S2-  S189  1  0.77307376  0.49609375  0.85612310  1
  S2-  S190  1  0.86744272  0.77997596  0.31079245  1
  S2-  S191  1  0.75036895  0.74905157  0.85916391  1
  S2-  S192  1  -0.00736356  0.11237677  0.44500053  1
  S2-  S193  1  -0.00340003  0.10573633  0.95341995  1
  S2-  S194  1  -0.00876873  0.36209102  0.44665044  1
  S2-  S195  1  -0.00491229  0.35841013  0.95832653  1
  S2-  S196  1  -0.00551862  0.61300025  0.45157766  1
  S2-  S197  1  -0.00600867  0.60690609  0.95419930  1
  S2-  S198  1  -0.01090089  0.86378868  0.44362493  1
  S2-  S199  1  -0.01033888  0.85562110  0.96323784  1
  S2-  S200  1  0.23717174  0.10942528  0.44817158  1
  S2-  S201  1  0.24642977  0.11220502  0.95940829  1
  S2-  S202  1  0.24162685  0.36607422  0.45822859  1
  S2-  S203  1  0.24271443  0.35856628  0.95830042  1
  S2-  S204  1  0.24233619  0.61167981  0.44218438  1
  S2-  S205  1  0.24260340  0.60660868  0.94476012  1
  S2-  S206  1  0.23841906  0.86357379  0.44993333  1
  S2-  S207  1  0.24562364  0.85490250  0.95543205  1
  S2-  S208  1  0.49021793  0.11511047  0.46198382  1
  S2-  S209  1  0.49559720  0.10845962  0.94240696  1
  S2-  S210  1  0.48765114  0.36557962  0.46681492  1
  S2-  S211  1  0.49666227  0.35817467  0.95447526  1
  S2-  S212  1  0.48860242  0.61158883  0.44869763  1
  S2-  S213  1  0.49880158  0.60036211  0.94895308  1
  S2-  S214  1  0.49065962  0.85494510  0.45848028  1
  S2-  S215  1  0.49507736  0.86279112  0.95492973  1
  S2-  S216  1  0.74028530  0.12081377  0.46672096  1
  S2-  S217  1  0.74691935  0.10910202  0.95839871  1
  S2-  S218  1  0.73902980  0.36437693  0.46471301  1
  S2-  S219  1  0.74670562  0.35489209  0.95158675  1
  S2-  S220  1  0.73862704  0.61037977  0.45319446  1
  S2-  S221  1  0.74357744  0.60864254  0.95637922  1
  S2-  S222  1  0.74587557  0.85737493  0.44728941  1
  S2-  S223  1  0.74617818  0.86155905  0.96291262  1
  S2-  S224  1  0.12092618  -0.01827677  0.05284242  1
  S2-  S225  1  0.11860492  -0.01762626  0.54240128  1
  S2-  S226  1  0.11770164  0.23261054  0.05444447  1
  S2-  S227  1  0.11785901  0.23601001  0.54022697  1
  S2-  S228  1  0.12116069  0.47901736  0.04189387  1
  S2-  S229  1  0.11870663  0.48913180  0.54869970  1
  S2-  S230  1  0.12173734  0.72987567  0.04608080  1
  S2-  S231  1  0.11760823  0.74207295  0.54549622  1
  S2-  S232  1  0.36970232  -0.01974759  0.04275628  1
  S2-  S233  1  0.36585785  -0.01575504  0.53406592  1
  S2-  S234  1  0.37252653  0.23324861  0.04865501  1
  S2-  S235  1  0.36468235  0.23746733  0.54557201  1
  S2-  S236  1  0.37270603  0.48299904  0.04272583  1
  S2-  S237  1  0.36830346  0.49429732  0.54335488  1
  S2-  S238  1  0.36785241  0.72931208  0.03284220  1
  S2-  S239  1  0.36264328  0.73637421  0.53237435  1
  S2-  S240  1  0.62388643  -0.01309598  0.05254885  1
  S2-  S241  1  0.62016371  -0.01658142  0.55103259  1
  S2-  S242  1  0.62387421  0.23126260  0.04724535  1
  S2-  S243  1  0.60931646  0.23892965  0.56028968  1
  S2-  S244  1  0.62144298  0.47810542  0.03473718  1
  S2-  S245  1  0.61082016  0.49480209  0.55033079  1
  S2-  S246  1  0.62024791  0.73081795  0.03921591  1
  S2-  S247  1  0.61851389  0.74031267  0.54195573  1
  S2-  S248  1  0.87125486  -0.02256257  0.05064626  1
  S2-  S249  1  0.86612355  -0.01141760  0.53670922  1
  S2-  S250  1  0.87095479  0.23686060  0.04352954  1
  S2-  S251  1  0.87100477  0.23880068  0.54732690  1
  S2-  S252  1  0.86671397  0.48221549  0.04141495  1
  S2-  S253  1  0.86990752  0.48893053  0.54162044  1
  S2-  S254  1  0.86882276  0.72737129  0.04109520  1
  S2-  S255  1  0.86834906  0.73623669  0.53501997  1
