# generated using pymatgen
data_La9Ce10Pr6Nd4Sm3(BiS2)32
_symmetry_space_group_name_H-M   'P 1'
_cell_length_a   16.21554679
_cell_length_b   16.20391563
_cell_length_c   27.08404486
_cell_angle_alpha   89.78054014
_cell_angle_beta   90.01074897
_cell_angle_gamma   90.06186032
_symmetry_Int_Tables_number   1
_chemical_formula_structural   La9Ce10Pr6Nd4Sm3(BiS2)32
_chemical_formula_sum   'La18 Ce20 Pr12 Nd8 Sm6 Bi64 S128'
_cell_volume   7116.42126872
_cell_formula_units_Z   2
loop_
 _symmetry_equiv_pos_site_id
 _symmetry_equiv_pos_as_xyz
  1  'x, y, z'
loop_
 _atom_type_symbol
 _atom_type_oxidation_number
  La3+  3.0
  Ce3+  3.0
  Pr3+  3.0
  Nd3+  3.0
  Sm3+  3.0
  Bi2+  2.0
  S2-  -2.0
loop_
 _atom_site_type_symbol
 _atom_site_label
 _atom_site_symmetry_multiplicity
 _atom_site_fract_x
 _atom_site_fract_y
 _atom_site_fract_z
 _atom_site_occupancy
  La3+  La0  1  0.60838553  0.74918692  0.92168607  1
  La3+  La1  1  0.12102763  0.23564287  0.42379406  1
  La3+  La2  1  0.75533471  0.12106428  0.56008820  1
  La3+  La3  1  0.60134304  0.24158495  0.92641605  1
  La3+  La4  1  0.85360650  0.48544413  0.92375968  1
  La3+  La5  1  0.75099354  0.86709751  0.56869363  1
  La3+  La6  1  0.50198916  0.86535641  0.57841715  1
  La3+  La7  1  0.63676352  0.50009116  0.42609213  1
  La3+  La8  1  -0.01879942  0.86642642  0.06097594  1
  La3+  La9  1  0.75607701  0.60807497  0.57509462  1
  La3+  La10  1  0.49686969  0.13224696  0.58717289  1
  La3+  La11  1  0.00642489  0.86705146  0.56727044  1
  La3+  La12  1  0.01170081  0.60853374  0.58491463  1
  La3+  La13  1  0.35597125  0.73761077  0.92453252  1
  La3+  La14  1  0.25513546  0.61693015  0.56337377  1
  La3+  La15  1  0.23595839  0.11764750  0.11236224  1
  La3+  La16  1  0.86012435  0.73495778  0.91578725  1
  La3+  La17  1  0.50310912  0.61240069  0.57009238  1
  Ce3+  Ce18  1  0.00657646  0.11901587  0.55884168  1
  Ce3+  Ce19  1  0.48224344  0.36597532  0.05868052  1
  Ce3+  Ce20  1  0.00486337  0.36993210  0.55339576  1
  Ce3+  Ce21  1  0.37903723  0.24073407  0.43407133  1
  Ce3+  Ce22  1  0.12549465  0.49530137  0.43387096  1
  Ce3+  Ce23  1  0.63059911  0.73940167  0.44423422  1
  Ce3+  Ce24  1  0.50345916  0.36770547  0.54729388  1
  Ce3+  Ce25  1  0.35711776  -0.00601101  0.94374046  1
  Ce3+  Ce26  1  0.37643080  0.49870622  0.43103982  1
  Ce3+  Ce27  1  0.25187685  0.36544002  0.54291921  1
  Ce3+  Ce28  1  0.25631207  0.86972835  0.55658418  1
  Ce3+  Ce29  1  0.73134957  0.86579339  0.04948115  1
  Ce3+  Ce30  1  0.23575036  0.86156789  0.06405236  1
  Ce3+  Ce31  1  0.22747681  0.61747480  0.07061720  1
  Ce3+  Ce32  1  -0.01385752  0.11894508  0.06197833  1
  Ce3+  Ce33  1  0.35745780  0.49906900  0.94743026  1
  Ce3+  Ce34  1  0.85821596  -0.00475589  0.94211832  1
  Ce3+  Ce35  1  0.87740545  -0.00812644  0.44083181  1
  Ce3+  Ce36  1  0.38274774  0.73625388  0.43832103  1
  Ce3+  Ce37  1  0.48792306  0.61920188  0.06322914  1
  Pr3+  Pr38  1  0.23330442  0.36719415  0.06854942  1
  Pr3+  Pr39  1  0.62624723  0.25024909  0.42764638  1
  Pr3+  Pr40  1  0.10920055  0.49389316  0.93829181  1
  Pr3+  Pr41  1  0.73321178  0.62059619  0.06216093  1
  Pr3+  Pr42  1  0.38832327  -0.01638258  0.42884440  1
  Pr3+  Pr43  1  0.48203755  0.86709514  0.05797132  1
  Pr3+  Pr44  1  0.35730585  0.24362137  0.94061626  1
  Pr3+  Pr45  1  0.10998141  -0.00728497  0.94196145  1
  Pr3+  Pr46  1  -0.02027281  0.36912645  0.06303472  1
  Pr3+  Pr47  1  0.25476961  0.11807655  0.55753550  1
  Pr3+  Pr48  1  0.72938554  0.11773563  0.06747181  1
  Pr3+  Pr49  1  0.60910058  0.49580730  0.93728157  1
  Nd3+  Nd50  1  0.60326188  -0.00250867  0.92931493  1
  Nd3+  Nd51  1  0.12510220  0.74468581  0.43737683  1
  Nd3+  Nd52  1  0.13513606  -0.01267825  0.42334110  1
  Nd3+  Nd53  1  0.62299038  -0.00446944  0.44659992  1
  Nd3+  Nd54  1  0.10929227  0.24280124  0.94147078  1
  Nd3+  Nd55  1  0.75516727  0.36890749  0.55195001  1
  Nd3+  Nd56  1  0.85777579  0.24320684  0.94212619  1
  Nd3+  Nd57  1  0.88771300  0.51163455  0.42070378  1
  Sm3+  Sm58  1  0.10637531  0.74063096  0.94525416  1
  Sm3+  Sm59  1  0.87899958  0.74555952  0.45543476  1
  Sm3+  Sm60  1  0.73012179  0.36774406  0.05997140  1
  Sm3+  Sm61  1  0.87575333  0.24565828  0.43739234  1
  Sm3+  Sm62  1  -0.02556307  0.61543136  0.06396062  1
  Sm3+  Sm63  1  0.48519124  0.11776366  0.06720989  1
  Bi2+  Bi64  1  -0.04151083  0.04512528  0.28364998  1
  Bi2+  Bi65  1  0.06043545  0.15883737  0.81269025  1
  Bi2+  Bi66  1  0.09377020  0.43185883  0.27302679  1
  Bi2+  Bi67  1  0.01346773  0.35789149  0.78618986  1
  Bi2+  Bi68  1  0.02674028  0.61740189  0.25854255  1
  Bi2+  Bi69  1  0.02190389  0.64380820  0.79339717  1
  Bi2+  Bi70  1  -0.02019547  0.79628541  0.30614510  1
  Bi2+  Bi71  1  0.11795530  0.91933133  0.75108798  1
  Bi2+  Bi72  1  0.24080514  0.14759451  0.31589674  1
  Bi2+  Bi73  1  0.24919858  0.19708191  0.78299907  1
  Bi2+  Bi74  1  0.29258309  0.47716081  0.29939878  1
  Bi2+  Bi75  1  0.30547208  0.41359592  0.76598896  1
  Bi2+  Bi76  1  0.22170854  0.66003822  0.28842587  1
  Bi2+  Bi77  1  0.25235572  0.59949916  0.78465724  1
  Bi2+  Bi78  1  0.26782175  0.85215339  0.29332599  1
  Bi2+  Bi79  1  0.27274947  0.81162719  0.80290232  1
  Bi2+  Bi80  1  0.51946651  0.21834745  0.26192541  1
  Bi2+  Bi81  1  0.49899541  0.13523554  0.79606762  1
  Bi2+  Bi82  1  0.47507221  0.40430756  0.28882668  1
  Bi2+  Bi83  1  0.50006022  0.40622716  0.79410888  1
  Bi2+  Bi84  1  0.51375829  0.65393477  0.28610351  1
  Bi2+  Bi85  1  0.50579827  0.60293202  0.79137324  1
  Bi2+  Bi86  1  0.54472159  0.87944806  0.30240605  1
  Bi2+  Bi87  1  0.49868229  0.87692932  0.78439793  1
  Bi2+  Bi88  1  0.75961045  0.08283526  0.29807015  1
  Bi2+  Bi89  1  0.80755734  0.20847591  0.81043350  1
  Bi2+  Bi90  1  0.74922112  0.34254528  0.29641778  1
  Bi2+  Bi91  1  0.69405504  0.36243423  0.78807882  1
  Bi2+  Bi92  1  0.76858469  0.64060708  0.29091157  1
  Bi2+  Bi93  1  0.76280699  0.60314598  0.77873514  1
  Bi2+  Bi94  1  0.73555308  0.85227918  0.28401758  1
  Bi2+  Bi95  1  0.78108413  0.86689122  0.80126456  1
  Bi2+  Bi96  1  0.10313841  -0.01543727  0.21436424  1
  Bi2+  Bi97  1  0.18696243  0.07158505  0.68394087  1
  Bi2+  Bi98  1  0.09081022  0.24807636  0.21825775  1
  Bi2+  Bi99  1  0.10941665  0.24693351  0.69208647  1
  Bi2+  Bi100  1  0.21671428  0.50759837  0.18839590  1
  Bi2+  Bi101  1  0.12865006  0.44468135  0.70548233  1
  Bi2+  Bi102  1  0.12199874  0.77411123  0.21128157  1
  Bi2+  Bi103  1  0.13177383  0.75338038  0.68702894  1
  Bi2+  Bi104  1  0.37126141  -0.00927889  0.21029430  1
  Bi2+  Bi105  1  0.29525954  0.00246179  0.77556354  1
  Bi2+  Bi106  1  0.37557480  0.35873541  0.19127578  1
  Bi2+  Bi107  1  0.36625250  0.26950603  0.69744663  1
  Bi2+  Bi108  1  0.40966858  0.55575780  0.18336468  1
  Bi2+  Bi109  1  0.39492100  0.54248114  0.68515135  1
  Bi2+  Bi110  1  0.37661824  0.74216058  0.21243803  1
  Bi2+  Bi111  1  0.37452824  0.73050207  0.71684038  1
  Bi2+  Bi112  1  0.65973111  -0.00231742  0.21424581  1
  Bi2+  Bi113  1  0.66119307  0.01401580  0.71570005  1
  Bi2+  Bi114  1  0.67156067  0.25902863  0.19283273  1
  Bi2+  Bi115  1  0.64339229  0.25969676  0.69781397  1
  Bi2+  Bi116  1  0.59464015  0.51418823  0.22089309  1
  Bi2+  Bi117  1  0.58321673  0.51059314  0.70467518  1
  Bi2+  Bi118  1  0.59766709  0.76213933  0.19818094  1
  Bi2+  Bi119  1  0.63520442  0.77878949  0.70214484  1
  Bi2+  Bi120  1  0.84209367  0.05241351  0.18634248  1
  Bi2+  Bi121  1  0.91230275  0.07377395  0.75544870  1
  Bi2+  Bi122  1  0.86225722  0.22901287  0.23159417  1
  Bi2+  Bi123  1  0.90477804  0.25174003  0.70332296  1
  Bi2+  Bi124  1  0.90277316  0.49239575  0.18840265  1
  Bi2+  Bi125  1  0.86247091  0.43923951  0.71760147  1
  Bi2+  Bi126  1  0.86088505  0.76654297  0.20838321  1
  Bi2+  Bi127  1  0.88819555  0.79304432  0.71595273  1
  S2-  S128  1  0.06411742  0.11635496  0.15081955  1
  S2-  S129  1  -0.05074556  0.10729969  0.65076463  1
  S2-  S130  1  0.00114739  0.34860667  0.16428092  1
  S2-  S131  1  -0.00657585  0.45375164  0.64117596  1
  S2-  S132  1  0.05817865  0.58091120  0.15121442  1
  S2-  S133  1  -0.02713333  0.66671912  0.68491932  1
  S2-  S134  1  -0.00807039  0.86536332  0.16285396  1
  S2-  S135  1  0.00598310  0.88345959  0.66778256  1
  S2-  S136  1  0.23420937  0.09689799  0.22535778  1
  S2-  S137  1  0.34679429  0.11997042  0.64503314  1
  S2-  S138  1  0.22606212  0.28060674  0.15802915  1
  S2-  S139  1  0.24667888  0.36218100  0.64126437  1
  S2-  S140  1  0.24542107  0.73825017  0.14074401  1
  S2-  S141  1  0.16187786  0.60681630  0.64878274  1
  S2-  S142  1  0.23624989  0.95104497  0.14935725  1
  S2-  S143  1  0.27680978  0.82614206  0.65141535  1
  S2-  S144  1  0.39862004  0.11651964  0.15409378  1
  S2-  S145  1  0.54197725  0.11886399  0.69213391  1
  S2-  S146  1  0.54176379  0.35421276  0.15017887  1
  S2-  S147  1  0.50482497  0.29934732  0.63753458  1
  S2-  S148  1  0.61081605  0.61814073  0.13958224  1
  S2-  S149  1  0.51024125  0.72541514  0.64765871  1
  S2-  S150  1  0.47191973  0.87522779  0.16010884  1
  S2-  S151  1  0.52906616  0.91845847  0.67792307  1
  S2-  S152  1  0.60990501  0.11699573  0.14184308  1
  S2-  S153  1  0.72983334  0.13661833  0.65973575  1
  S2-  S154  1  0.77610371  0.41137746  0.15324934  1
  S2-  S155  1  0.74337432  0.40472726  0.65039658  1
  S2-  S156  1  0.85257019  0.62512045  0.13969258  1
  S2-  S157  1  0.73867913  0.66167028  0.67303703  1
  S2-  S158  1  0.73516107  0.81637677  0.14377404  1
  S2-  S159  1  0.76671594  0.90145789  0.66794975  1
  S2-  S160  1  0.08368053  0.09966958  0.35150950  1
  S2-  S161  1  0.11227988  -0.00042964  0.84024482  1
  S2-  S162  1  0.13500921  0.29376799  0.32387591  1
  S2-  S163  1  0.14890202  0.30405349  0.84964977  1
  S2-  S164  1  0.02623886  0.51836603  0.35540335  1
  S2-  S165  1  0.11257770  0.53099456  0.83801367  1
  S2-  S166  1  0.11446861  0.84992420  0.35552752  1
  S2-  S167  1  0.13737163  0.74147879  0.84762001  1
  S2-  S168  1  0.27021423  -0.00102729  0.35160956  1
  S2-  S169  1  0.42447055  0.00422794  0.85194427  1
  S2-  S170  1  0.40023290  0.21936811  0.33578304  1
  S2-  S171  1  0.45837582  0.25424473  0.85529121  1
  S2-  S172  1  0.38987334  0.61540610  0.35978827  1
  S2-  S173  1  0.35046708  0.58598915  0.86257009  1
  S2-  S174  1  0.40103079  0.83412741  0.35770777  1
  S2-  S175  1  0.48246220  0.74809622  0.84781783  1
  S2-  S176  1  0.52585326  0.00066561  0.36295953  1
  S2-  S177  1  0.62396105  -0.10114672  0.84485979  1
  S2-  S178  1  0.63365256  0.17892353  0.33278469  1
  S2-  S179  1  0.62536211  0.11887565  0.85363186  1
  S2-  S180  1  0.61894511  0.38410012  0.34941726  1
  S2-  S181  1  0.71086064  0.49293797  0.85395933  1
  S2-  S182  1  0.63915565  0.64273640  0.36053939  1
  S2-  S183  1  0.72435678  0.71594326  0.84253097  1
  S2-  S184  1  0.88164440  -0.07190073  0.34897661  1
  S2-  S185  1  0.85591388  0.00295238  0.84407328  1
  S2-  S186  1  0.88621397  0.25437318  0.33881841  1
  S2-  S187  1  0.88186187  0.34094111  0.85823917  1
  S2-  S188  1  0.79814069  0.49170549  0.33413186  1
  S2-  S189  1  0.89583416  0.59064935  0.84423562  1
  S2-  S190  1  0.88131396  0.68331775  0.36357089  1
  S2-  S191  1  0.92749985  0.79481096  0.82208595  1
  S2-  S192  1  -0.00615372  0.11767476  0.45503164  1
  S2-  S193  1  -0.01674247  0.12071635  0.95367179  1
  S2-  S194  1  0.00071597  0.36759297  0.44651131  1
  S2-  S195  1  -0.01182994  0.36721034  0.95661380  1
  S2-  S196  1  0.00479566  0.62544690  0.46542617  1
  S2-  S197  1  -0.01423615  0.61763110  0.95597647  1
  S2-  S198  1  0.00125181  0.86918510  0.45940818  1
  S2-  S199  1  -0.01523427  0.86689437  0.95043564  1
  S2-  S200  1  0.25472868  0.11790495  0.45033834  1
  S2-  S201  1  0.23390385  0.11995585  0.94076035  1
  S2-  S202  1  0.25168182  0.36865986  0.43697085  1
  S2-  S203  1  0.23649727  0.37152821  0.95906269  1
  S2-  S204  1  0.24665518  0.61918084  0.45341832  1
  S2-  S205  1  0.22822871  0.61974903  0.96174183  1
  S2-  S206  1  0.25646660  0.86258776  0.45393187  1
  S2-  S207  1  0.23228613  0.86485389  0.95428432  1
  S2-  S208  1  0.50411339  0.12471570  0.45887408  1
  S2-  S209  1  0.48024503  0.11848577  0.96075012  1
  S2-  S210  1  0.49727301  0.37270213  0.44412713  1
  S2-  S211  1  0.48075791  0.37449106  0.95312297  1
  S2-  S212  1  0.50760519  0.61475041  0.46163435  1
  S2-  S213  1  0.48732572  0.61766527  0.95655097  1
  S2-  S214  1  0.51090529  0.86211155  0.46682234  1
  S2-  S215  1  0.47929873  0.86983357  0.95169127  1
  S2-  S216  1  0.75299663  0.11912366  0.45057780  1
  S2-  S217  1  0.73510266  0.11918416  0.95879305  1
  S2-  S218  1  0.75963913  0.37098482  0.44732734  1
  S2-  S219  1  0.72754618  0.36045154  0.95438898  1
  S2-  S220  1  0.75968580  0.61918040  0.46444920  1
  S2-  S221  1  0.73328923  0.61896447  0.95508989  1
  S2-  S222  1  0.75101377  0.86783403  0.45827028  1
  S2-  S223  1  0.73835309  0.87020034  0.94622269  1
  S2-  S224  1  0.10813262  -0.00829863  0.04763291  1
  S2-  S225  1  0.12922164  -0.00644037  0.54292981  1
  S2-  S226  1  0.10750048  0.24425507  0.04724475  1
  S2-  S227  1  0.12716785  0.24156618  0.53678311  1
  S2-  S228  1  0.10690355  0.48974126  0.04579351  1
  S2-  S229  1  0.13078712  0.49047830  0.53902526  1
  S2-  S230  1  0.10053585  0.73848780  0.04924618  1
  S2-  S231  1  0.12994549  0.74385260  0.54582360  1
  S2-  S232  1  0.35830487  -0.00538558  0.04836768  1
  S2-  S233  1  0.38308481  -0.00818368  0.54631483  1
  S2-  S234  1  0.35781276  0.24114087  0.04797127  1
  S2-  S235  1  0.37677553  0.24495674  0.53884580  1
  S2-  S236  1  0.35817956  0.49476223  0.05213591  1
  S2-  S237  1  0.37724442  0.49053251  0.54036463  1
  S2-  S238  1  0.36265025  0.73792667  0.03970065  1
  S2-  S239  1  0.37836931  0.74051102  0.54636115  1
  S2-  S240  1  0.60712592  -0.00953223  0.04058308  1
  S2-  S241  1  0.62518436  -0.00152203  0.55514967  1
  S2-  S242  1  0.60759005  0.24485764  0.03891141  1
  S2-  S243  1  0.63053784  0.24582317  0.53848092  1
  S2-  S244  1  0.60918082  0.48841738  0.04376160  1
  S2-  S245  1  0.62871529  0.49116891  0.54320548  1
  S2-  S246  1  0.60604999  0.74600514  0.03581118  1
  S2-  S247  1  0.63412499  0.73803566  0.55076761  1
  S2-  S248  1  0.85643383  -0.00570816  0.04927260  1
  S2-  S249  1  0.87755314  -0.00897670  0.54876557  1
  S2-  S250  1  0.85499852  0.24297486  0.05205506  1
  S2-  S251  1  0.88059374  0.24631653  0.54493287  1
  S2-  S252  1  0.85504056  0.48835000  0.03652780  1
  S2-  S253  1  0.87944642  0.49292696  0.54168913  1
  S2-  S254  1  0.85919730  0.74475265  0.03549949  1
  S2-  S255  1  0.88003670  0.73949217  0.56097247  1
