# generated using pymatgen
data_La9Ce10Pr6Nd4Sm3(BiS2)32
_symmetry_space_group_name_H-M   'P 1'
_cell_length_a   16.18811036
_cell_length_b   16.15757732
_cell_length_c   27.19221696
_cell_angle_alpha   90.09778486
_cell_angle_beta   89.76046770
_cell_angle_gamma   90.04200616
_symmetry_Int_Tables_number   1
_chemical_formula_structural   La9Ce10Pr6Nd4Sm3(BiS2)32
_chemical_formula_sum   'La18 Ce20 Pr12 Nd8 Sm6 Bi64 S128'
_cell_volume   7112.33941315
_cell_formula_units_Z   2
loop_
 _symmetry_equiv_pos_site_id
 _symmetry_equiv_pos_as_xyz
  1  'x, y, z'
loop_
 _atom_type_symbol
 _atom_type_oxidation_number
  La3+  3.0
  Ce3+  3.0
  Pr3+  3.0
  Nd3+  3.0
  Sm3+  3.0
  Bi2+  2.0
  S2-  -2.0
loop_
 _atom_site_type_symbol
 _atom_site_label
 _atom_site_symmetry_multiplicity
 _atom_site_fract_x
 _atom_site_fract_y
 _atom_site_fract_z
 _atom_site_occupancy
  La3+  La0  1  -0.00549036  0.38556373  0.07830512  1
  La3+  La1  1  0.74554044  0.37608742  0.07565889  1
  La3+  La2  1  0.61479786  0.47810255  0.41472233  1
  La3+  La3  1  0.87814856  0.22755999  0.41362940  1
  La3+  La4  1  -0.01364124  0.85416124  0.57352068  1
  La3+  La5  1  0.88075647  0.01080434  0.91954611  1
  La3+  La6  1  0.00522795  0.87997638  0.06403420  1
  La3+  La7  1  0.76014329  0.63602978  0.06989715  1
  La3+  La8  1  0.37987243  0.26248225  0.92540145  1
  La3+  La9  1  0.11452843  -0.02659763  0.43087634  1
  La3+  La10  1  0.62321034  -0.01048245  0.88333671  1
  La3+  La11  1  0.87999309  0.25536635  0.93776799  1
  La3+  La12  1  0.49092771  0.35997629  0.57517052  1
  La3+  La13  1  0.36517665  0.47211087  0.42765561  1
  La3+  La14  1  0.48918788  0.11289203  0.57417418  1
  La3+  La15  1  -0.01011687  0.10162082  0.56983637  1
  La3+  La16  1  0.25467017  0.62228299  0.07234255  1
  La3+  La17  1  0.64035416  0.75036528  0.92671358  1
  Ce3+  Ce18  1  0.25674978  0.12904601  0.05228569  1
  Ce3+  Ce19  1  0.12467341  0.75520880  0.93415754  1
  Ce3+  Ce20  1  0.24263953  0.60420782  0.55399654  1
  Ce3+  Ce21  1  0.12845526  0.00575668  0.93341269  1
  Ce3+  Ce22  1  0.00399929  0.13111711  0.06317365  1
  Ce3+  Ce23  1  0.00404685  0.62977323  0.05144087  1
  Ce3+  Ce24  1  0.12856741  0.25434565  0.95015523  1
  Ce3+  Ce25  1  0.38310194  0.00323197  0.93744608  1
  Ce3+  Ce26  1  0.86380083  -0.02347637  0.44067155  1
  Ce3+  Ce27  1  0.11465768  0.22865191  0.44783282  1
  Ce3+  Ce28  1  0.73723578  0.60220634  0.55294287  1
  Ce3+  Ce29  1  0.74299662  0.35473781  0.55056323  1
  Ce3+  Ce30  1  0.63107562  0.24894639  0.93548544  1
  Ce3+  Ce31  1  0.48835764  0.59769029  0.55687750  1
  Ce3+  Ce32  1  0.37140035  0.72969881  0.43822656  1
  Ce3+  Ce33  1  0.38826192  0.51093390  0.92845816  1
  Ce3+  Ce34  1  0.11756045  0.73001311  0.44053115  1
  Ce3+  Ce35  1  0.61540461  -0.02009378  0.45200497  1
  Ce3+  Ce36  1  0.86858696  0.48041831  0.44697079  1
  Ce3+  Ce37  1  0.25361356  0.87987758  0.05132654  1
  Pr3+  Pr38  1  0.48451412  0.85815413  0.57723918  1
  Pr3+  Pr39  1  0.13385653  0.50338625  0.93974608  1
  Pr3+  Pr40  1  0.38145517  0.75417323  0.93587639  1
  Pr3+  Pr41  1  0.50308283  0.38525851  0.06500117  1
  Pr3+  Pr42  1  0.75208719  0.13053647  0.06098231  1
  Pr3+  Pr43  1  0.11265341  0.47832663  0.44129809  1
  Pr3+  Pr44  1  0.63429848  0.50203785  0.94020054  1
  Pr3+  Pr45  1  0.25730997  0.37731937  0.06668730  1
  Pr3+  Pr46  1  0.75360161  0.88167382  0.05299128  1
  Pr3+  Pr47  1  0.73203804  0.83967605  0.57989388  1
  Pr3+  Pr48  1  0.50849134  0.63684291  0.06430802  1
  Pr3+  Pr49  1  0.61709174  0.22845431  0.43195934  1
  Nd3+  Nd50  1  0.86656616  0.73578066  0.43607205  1
  Nd3+  Nd51  1  0.88749011  0.49680014  0.92937013  1
  Nd3+  Nd52  1  0.61539735  0.73080164  0.44189599  1
  Nd3+  Nd53  1  0.88293765  0.75552441  0.92881510  1
  Nd3+  Nd54  1  0.74411201  0.10741227  0.55932798  1
  Nd3+  Nd55  1  -0.00941279  0.35006119  0.57679377  1
  Nd3+  Nd56  1  0.36792546  0.22921364  0.43959534  1
  Nd3+  Nd57  1  0.24420883  0.85489214  0.56250209  1
  Sm3+  Sm58  1  0.23705884  0.35925441  0.56806095  1
  Sm3+  Sm59  1  0.36954355  -0.02002038  0.44601188  1
  Sm3+  Sm60  1  -0.01084203  0.61263947  0.56255683  1
  Sm3+  Sm61  1  0.24171748  0.10554452  0.55491522  1
  Sm3+  Sm62  1  0.50502107  0.87802367  0.05600230  1
  Sm3+  Sm63  1  0.50403465  0.12901639  0.05311206  1
  Bi2+  Bi64  1  -0.01922347  0.11371344  0.28918504  1
  Bi2+  Bi65  1  0.00724488  0.13346394  0.78657850  1
  Bi2+  Bi66  1  -0.00338729  0.38514113  0.30875316  1
  Bi2+  Bi67  1  -0.00574490  0.37262173  0.78514963  1
  Bi2+  Bi68  1  0.04905405  0.70215874  0.29891101  1
  Bi2+  Bi69  1  0.00613579  0.61892078  0.79177825  1
  Bi2+  Bi70  1  -0.01585042  0.90409383  0.30492364  1
  Bi2+  Bi71  1  0.04130246  0.88030224  0.77995279  1
  Bi2+  Bi72  1  0.33724360  0.13395764  0.30604601  1
  Bi2+  Bi73  1  0.20299414  0.14711641  0.79214232  1
  Bi2+  Bi74  1  0.24542960  0.43568499  0.29749385  1
  Bi2+  Bi75  1  0.24452139  0.47406250  0.77924395  1
  Bi2+  Bi76  1  0.28781834  0.61652387  0.26025797  1
  Bi2+  Bi77  1  0.20296649  0.66478730  0.81080993  1
  Bi2+  Bi78  1  0.28268317  0.85892151  0.28241725  1
  Bi2+  Bi79  1  0.22839138  0.93753507  0.80877043  1
  Bi2+  Bi80  1  0.53167060  0.15273656  0.30938870  1
  Bi2+  Bi81  1  0.51235408  0.12601033  0.77792279  1
  Bi2+  Bi82  1  0.48150091  0.36302275  0.29247499  1
  Bi2+  Bi83  1  0.48445636  0.37230651  0.80270419  1
  Bi2+  Bi84  1  0.47066930  0.65505536  0.29351435  1
  Bi2+  Bi85  1  0.48682564  0.63262646  0.78726109  1
  Bi2+  Bi86  1  0.52036984  0.90241134  0.30985400  1
  Bi2+  Bi87  1  0.40761827  0.85219967  0.80054973  1
  Bi2+  Bi88  1  0.71729542  0.10789301  0.27696093  1
  Bi2+  Bi89  1  0.76397498  0.11588972  0.78288925  1
  Bi2+  Bi90  1  0.74790632  0.42588901  0.29401802  1
  Bi2+  Bi91  1  0.70567101  0.38866846  0.81991394  1
  Bi2+  Bi92  1  0.85955415  0.70681063  0.30581808  1
  Bi2+  Bi93  1  0.79319995  0.56889298  0.80923526  1
  Bi2+  Bi94  1  0.70904319  0.91728599  0.23722015  1
  Bi2+  Bi95  1  0.72360986  0.83997850  0.78051476  1
  Bi2+  Bi96  1  0.17050458  0.07167814  0.23568710  1
  Bi2+  Bi97  1  0.14677671  0.02751395  0.70651160  1
  Bi2+  Bi98  1  0.20019462  0.25685785  0.25947318  1
  Bi2+  Bi99  1  0.16155678  0.31375400  0.72975351  1
  Bi2+  Bi100  1  0.12292114  0.58807343  0.19857346  1
  Bi2+  Bi101  1  0.14607245  0.58082091  0.70290793  1
  Bi2+  Bi102  1  0.13980820  0.82189593  0.20905145  1
  Bi2+  Bi103  1  0.16558766  0.78177115  0.71695489  1
  Bi2+  Bi104  1  0.35456866  0.00031310  0.20507203  1
  Bi2+  Bi105  1  0.34967163  -0.02191211  0.71546446  1
  Bi2+  Bi106  1  0.37434738  0.23585048  0.20268063  1
  Bi2+  Bi107  1  0.36528977  0.24202595  0.70548822  1
  Bi2+  Bi108  1  0.37283053  0.42783227  0.19788287  1
  Bi2+  Bi109  1  0.40859796  0.49388487  0.71105864  1
  Bi2+  Bi110  1  0.43866050  0.81462624  0.21749138  1
  Bi2+  Bi111  1  0.35857246  0.72489638  0.71695217  1
  Bi2+  Bi112  1  0.54867246  0.02387976  0.20975277  1
  Bi2+  Bi113  1  0.64794589  -0.01504938  0.67706741  1
  Bi2+  Bi114  1  0.63056786  0.25852909  0.21270869  1
  Bi2+  Bi115  1  0.61437756  0.31008166  0.72546492  1
  Bi2+  Bi116  1  0.58323587  0.51464419  0.21471591  1
  Bi2+  Bi117  1  0.68167151  0.49944423  0.72272141  1
  Bi2+  Bi118  1  0.65416550  0.73859254  0.20634415  1
  Bi2+  Bi119  1  0.62632412  0.69201163  0.71568631  1
  Bi2+  Bi120  1  0.85891699  0.03260690  0.21101718  1
  Bi2+  Bi121  1  0.87831368  0.02576274  0.70865179  1
  Bi2+  Bi122  1  0.89232710  0.27415388  0.20160138  1
  Bi2+  Bi123  1  0.87006832  0.29404803  0.70704760  1
  Bi2+  Bi124  1  0.95493200  0.50061747  0.21765195  1
  Bi2+  Bi125  1  0.89616562  0.49077087  0.71071485  1
  Bi2+  Bi126  1  0.90542886  0.77051867  0.20610066  1
  Bi2+  Bi127  1  0.88068392  0.68842261  0.71270121  1
  S2-  S128  1  -0.02546498  0.13808522  0.16092848  1
  S2-  S129  1  -0.02610033  0.22032519  0.64758775  1
  S2-  S130  1  0.03730434  0.36141636  0.17872767  1
  S2-  S131  1  0.12153569  0.37884432  0.64393430  1
  S2-  S132  1  -0.03692887  0.63478479  0.14685561  1
  S2-  S133  1  -0.01054272  0.72147902  0.64203626  1
  S2-  S134  1  0.00367973  0.89295954  0.16524651  1
  S2-  S135  1  0.00541585  0.98099120  0.64574012  1
  S2-  S136  1  0.24658660  0.15281227  0.14904793  1
  S2-  S137  1  0.26244368  0.12646145  0.65246603  1
  S2-  S138  1  0.23208464  0.48295462  0.14523141  1
  S2-  S139  1  0.34935936  0.36666761  0.64527789  1
  S2-  S140  1  0.24694809  0.69653820  0.16523428  1
  S2-  S141  1  0.29407225  0.59953023  0.64800649  1
  S2-  S142  1  0.23706662  0.91694407  0.14657825  1
  S2-  S143  1  0.34537055  0.84947488  0.64425934  1
  S2-  S144  1  0.51746905  0.17044383  0.14957476  1
  S2-  S145  1  0.48075953  0.01039627  0.65769190  1
  S2-  S146  1  0.60928859  0.38606778  0.14762488  1
  S2-  S147  1  0.50776082  0.23356566  0.65080135  1
  S2-  S148  1  0.46370464  0.55340188  0.14999346  1
  S2-  S149  1  0.52227986  0.50557530  0.63723672  1
  S2-  S150  1  0.52599149  0.77326420  0.13492200  1
  S2-  S151  1  0.58997291  0.82436156  0.65641262  1
  S2-  S152  1  0.75169764  0.22510087  0.14860347  1
  S2-  S153  1  0.74990487  0.12078032  0.66051523  1
  S2-  S154  1  0.85408966  0.41717964  0.15131189  1
  S2-  S155  1  0.73279382  0.36223391  0.64963367  1
  S2-  S156  1  0.70099669  0.59112954  0.16564106  1
  S2-  S157  1  0.75008999  0.67859276  0.64093062  1
  S2-  S158  1  0.76955685  0.78434856  0.13750361  1
  S2-  S159  1  0.80174540  0.89366341  0.67115674  1
  S2-  S160  1  0.11210845  0.03447713  0.33279027  1
  S2-  S161  1  0.02397954  0.00395851  0.85320529  1
  S2-  S162  1  0.03985989  0.24745473  0.36139123  1
  S2-  S163  1  0.10574335  0.24838780  0.85305513  1
  S2-  S164  1  0.10915417  0.50776627  0.34141114  1
  S2-  S165  1  0.03007558  0.49176987  0.85799355  1
  S2-  S166  1  0.10812203  0.83183932  0.36169791  1
  S2-  S167  1  0.00995782  0.76674811  0.85611108  1
  S2-  S168  1  0.36160375  -0.03521050  0.34760726  1
  S2-  S169  1  0.45399412  0.00895060  0.84781547  1
  S2-  S170  1  0.35220685  0.33247480  0.35908645  1
  S2-  S171  1  0.40505847  0.21127917  0.82525868  1
  S2-  S172  1  0.47029555  0.50725647  0.34732532  1
  S2-  S173  1  0.33792381  0.40083912  0.85757994  1
  S2-  S174  1  0.32085194  0.71760738  0.34382168  1
  S2-  S175  1  0.35995884  0.64070661  0.85906053  1
  S2-  S176  1  0.62643958  0.02238720  0.35702652  1
  S2-  S177  1  0.62177490  -0.01539844  0.77213235  1
  S2-  S178  1  0.62880343  0.33526414  0.34928275  1
  S2-  S179  1  0.63592119  0.16030253  0.84833318  1
  S2-  S180  1  0.66544135  0.55010227  0.32101152  1
  S2-  S181  1  0.53446601  0.51235751  0.85514186  1
  S2-  S182  1  0.57702674  0.75638605  0.34508590  1
  S2-  S183  1  0.58319378  0.82445876  0.84176283  1
  S2-  S184  1  0.87084353  0.07736837  0.35869667  1
  S2-  S185  1  0.78816845  -0.03465907  0.83553191  1
  S2-  S186  1  0.85429261  0.28564045  0.30953110  1
  S2-  S187  1  0.87461773  0.15654358  0.85060182  1
  S2-  S188  1  0.87694100  0.49132110  0.34877252  1
  S2-  S189  1  0.86639145  0.36924605  0.85747950  1
  S2-  S190  1  0.85168824  0.85852911  0.36263075  1
  S2-  S191  1  0.77367342  0.73346979  0.85015457  1
  S2-  S192  1  -0.00533271  0.10074894  0.46039405  1
  S2-  S193  1  0.00678309  0.12885506  0.95805922  1
  S2-  S194  1  -0.00968323  0.35544266  0.46440025  1
  S2-  S195  1  0.00769022  0.37764860  0.96468116  1
  S2-  S196  1  -0.00990050  0.60998398  0.45605309  1
  S2-  S197  1  0.00463470  0.62797702  0.94948228  1
  S2-  S198  1  -0.00846250  0.85255031  0.46455414  1
  S2-  S199  1  0.00536614  0.88395059  0.95644566  1
  S2-  S200  1  0.24245387  0.10262558  0.44925226  1
  S2-  S201  1  0.25768447  0.12973851  0.94456657  1
  S2-  S202  1  0.23450242  0.35360422  0.46086175  1
  S2-  S203  1  0.25144397  0.37784611  0.96118063  1
  S2-  S204  1  0.24154696  0.60309295  0.44749026  1
  S2-  S205  1  0.24907763  0.63254640  0.96051838  1
  S2-  S206  1  0.24797394  0.85484650  0.45658535  1
  S2-  S207  1  0.25356758  0.87831100  0.94542251  1
  S2-  S208  1  0.48978887  0.10594277  0.45912755  1
  S2-  S209  1  0.50233019  0.12968116  0.95038173  1
  S2-  S210  1  0.49299925  0.35060154  0.45679826  1
  S2-  S211  1  0.50849601  0.37639240  0.95577114  1
  S2-  S212  1  0.49272058  0.60481465  0.45190188  1
  S2-  S213  1  0.50994985  0.63527526  0.95631607  1
  S2-  S214  1  0.49020886  0.85683518  0.46180988  1
  S2-  S215  1  0.50712233  0.88084193  0.95309453  1
  S2-  S216  1  0.74095668  0.10676048  0.45418282  1
  S2-  S217  1  0.75220232  0.12579225  0.95570208  1
  S2-  S218  1  0.75193962  0.34961051  0.44605126  1
  S2-  S219  1  0.75091860  0.37592143  0.96208066  1
  S2-  S220  1  0.74259456  0.60783934  0.44680568  1
  S2-  S221  1  0.76350504  0.62127657  0.95482372  1
  S2-  S222  1  0.73428263  0.85358693  0.46519628  1
  S2-  S223  1  0.75482530  0.88563877  0.94821182  1
  S2-  S224  1  0.13023892  0.00744037  0.04270438  1
  S2-  S225  1  0.12392894  -0.02218321  0.54390399  1
  S2-  S226  1  0.12900138  0.25614897  0.05640684  1
  S2-  S227  1  0.12108476  0.22769488  0.55119656  1
  S2-  S228  1  0.12405449  0.50203707  0.04588026  1
  S2-  S229  1  0.11101396  0.48930081  0.54709755  1
  S2-  S230  1  0.12991187  0.75420113  0.04556044  1
  S2-  S231  1  0.12121992  0.73069941  0.54667466  1
  S2-  S232  1  0.38275222  0.00298834  0.04577646  1
  S2-  S233  1  0.36419814  -0.01483984  0.54821388  1
  S2-  S234  1  0.38197955  0.25469006  0.04225376  1
  S2-  S235  1  0.36046829  0.23259043  0.54413788  1
  S2-  S236  1  0.37903112  0.50353655  0.03873445  1
  S2-  S237  1  0.36252638  0.47879338  0.53746862  1
  S2-  S238  1  0.37667899  0.75663169  0.04376808  1
  S2-  S239  1  0.36857896  0.72671942  0.54389314  1
  S2-  S240  1  0.62477781  0.00294006  0.06037507  1
  S2-  S241  1  0.61686085  -0.01837959  0.55599938  1
  S2-  S242  1  0.62323828  0.25208237  0.04136233  1
  S2-  S243  1  0.61963967  0.23131803  0.54171935  1
  S2-  S244  1  0.62972869  0.51030936  0.04581026  1
  S2-  S245  1  0.62149419  0.47734415  0.53093141  1
  S2-  S246  1  0.63421755  0.75662797  0.03475392  1
  S2-  S247  1  0.60774747  0.72303091  0.54642363  1
  S2-  S248  1  0.87854922  0.00664386  0.05037230  1
  S2-  S249  1  0.85952147  -0.02397671  0.54818698  1
  S2-  S250  1  0.88010989  0.25367851  0.04748380  1
  S2-  S251  1  0.86534626  0.23034700  0.54284534  1
  S2-  S252  1  0.87791977  0.50841303  0.04028722  1
  S2-  S253  1  0.87142075  0.48315389  0.55480329  1
  S2-  S254  1  0.88359835  0.75776776  0.03553531  1
  S2-  S255  1  0.86169666  0.72869385  0.54076749  1
