# generated using pymatgen
data_La9Ce10Pr6Nd4Sm3(BiS2)32
_symmetry_space_group_name_H-M   'P 1'
_cell_length_a   16.16638930
_cell_length_b   16.13765125
_cell_length_c   27.32796924
_cell_angle_alpha   90.31235926
_cell_angle_beta   89.89721516
_cell_angle_gamma   89.98418198
_symmetry_Int_Tables_number   1
_chemical_formula_structural   La9Ce10Pr6Nd4Sm3(BiS2)32
_chemical_formula_sum   'La18 Ce20 Pr12 Nd8 Sm6 Bi64 S128'
_cell_volume   7129.40929848
_cell_formula_units_Z   2
loop_
 _symmetry_equiv_pos_site_id
 _symmetry_equiv_pos_as_xyz
  1  'x, y, z'
loop_
 _atom_type_symbol
 _atom_type_oxidation_number
  La3+  3.0
  Ce3+  3.0
  Pr3+  3.0
  Nd3+  3.0
  Sm3+  3.0
  Bi2+  2.0
  S2-  -2.0
loop_
 _atom_site_type_symbol
 _atom_site_label
 _atom_site_symmetry_multiplicity
 _atom_site_fract_x
 _atom_site_fract_y
 _atom_site_fract_z
 _atom_site_occupancy
  La3+  La0  1  0.51449842  0.62727355  0.57457433  1
  La3+  La1  1  0.11440696  0.00523064  0.92103634  1
  La3+  La2  1  0.88290050  -0.01080442  0.43790312  1
  La3+  La3  1  0.26191453  0.62833515  0.57397826  1
  La3+  La4  1  0.59526118  0.27015313  0.93207317  1
  La3+  La5  1  0.13360197  0.49115553  0.42938550  1
  La3+  La6  1  0.38180277  0.74670634  0.43941236  1
  La3+  La7  1  0.39717221  0.50868574  0.88621032  1
  La3+  La8  1  0.39236829  0.26153566  0.40790396  1
  La3+  La9  1  0.73635519  0.37926067  0.06262533  1
  La3+  La10  1  -0.01700687  0.87420565  0.09400196  1
  La3+  La11  1  0.00784103  0.87821322  0.57913465  1
  La3+  La12  1  0.48295871  0.63635277  0.07038929  1
  La3+  La13  1  0.23563504  0.37678773  0.07747596  1
  La3+  La14  1  0.22883556  0.62818549  0.07788990  1
  La3+  La15  1  0.13690523  -0.00038551  0.42876810  1
  La3+  La16  1  0.84981939  0.01189717  0.91187702  1
  La3+  La17  1  0.75433069  0.87762053  0.58058738  1
  Ce3+  Ce18  1  0.11052587  0.75839339  0.94559546  1
  Ce3+  Ce19  1  0.11274567  0.25554010  0.94806975  1
  Ce3+  Ce20  1  0.73730763  0.13335526  0.04861659  1
  Ce3+  Ce21  1  0.75510142  0.62538469  0.56195401  1
  Ce3+  Ce22  1  0.73952159  0.63766967  0.05628614  1
  Ce3+  Ce23  1  0.63297857  -0.00694483  0.44267209  1
  Ce3+  Ce24  1  0.50593668  0.12376584  0.55422206  1
  Ce3+  Ce25  1  0.60770808  0.75505019  0.94293900  1
  Ce3+  Ce26  1  0.00968775  0.62427797  0.55420442  1
  Ce3+  Ce27  1  0.63311018  0.24942399  0.44017182  1
  Ce3+  Ce28  1  0.34782817  0.26372009  0.93859070  1
  Ce3+  Ce29  1  0.35675039  0.00561419  0.93802322  1
  Ce3+  Ce30  1  0.13719765  0.75401058  0.43835186  1
  Ce3+  Ce31  1  0.61051458  0.51162511  0.95352995  1
  Ce3+  Ce32  1  0.60752186  0.00880706  0.93857907  1
  Ce3+  Ce33  1  0.35603468  0.75180408  0.94736156  1
  Ce3+  Ce34  1  0.75676973  0.12649106  0.56578579  1
  Ce3+  Ce35  1  0.00633400  0.12316784  0.56397866  1
  Ce3+  Ce36  1  0.62682140  0.75209079  0.43697234  1
  Ce3+  Ce37  1  0.86259374  0.26077243  0.92522161  1
  Pr3+  Pr38  1  0.23168930  0.12897341  0.06855881  1
  Pr3+  Pr39  1  0.25485725  0.88400867  0.57527819  1
  Pr3+  Pr40  1  0.38297428  -0.00190563  0.43478200  1
  Pr3+  Pr41  1  0.12338023  0.50724209  0.93836226  1
  Pr3+  Pr42  1  0.22844365  0.88831659  0.06936228  1
  Pr3+  Pr43  1  0.75985086  0.37080286  0.56638127  1
  Pr3+  Pr44  1  0.50807686  0.37183328  0.56939013  1
  Pr3+  Pr45  1  0.00877324  0.37138081  0.56714388  1
  Pr3+  Pr46  1  -0.01706274  0.38134237  0.06109620  1
  Pr3+  Pr47  1  0.88164630  0.24439295  0.43679310  1
  Pr3+  Pr48  1  0.86247985  0.75958228  0.93051613  1
  Pr3+  Pr49  1  0.25605258  0.12691907  0.55714019  1
  Nd3+  Nd50  1  0.88028396  0.49839565  0.44191984  1
  Nd3+  Nd51  1  -0.02589634  0.12614134  0.05652707  1
  Nd3+  Nd52  1  0.13077010  0.24374127  0.43381806  1
  Nd3+  Nd53  1  0.50405141  0.88162613  0.57263370  1
  Nd3+  Nd54  1  0.88152637  0.74903089  0.44519280  1
  Nd3+  Nd55  1  0.48336669  0.38147163  0.06843661  1
  Nd3+  Nd56  1  0.86122061  0.50467934  0.93587558  1
  Nd3+  Nd57  1  0.48438364  0.88545817  0.05445151  1
  Sm3+  Sm58  1  -0.01822319  0.63097795  0.05407942  1
  Sm3+  Sm59  1  0.63034847  0.49740908  0.44649080  1
  Sm3+  Sm60  1  0.74028510  0.88581477  0.05257588  1
  Sm3+  Sm61  1  0.38389427  0.49787548  0.44942600  1
  Sm3+  Sm62  1  0.25768798  0.37417163  0.55806652  1
  Sm3+  Sm63  1  0.48365358  0.13300082  0.05096057  1
  Bi2+  Bi64  1  -0.04714925  0.15888186  0.28446566  1
  Bi2+  Bi65  1  0.00284207  0.20141870  0.79167523  1
  Bi2+  Bi66  1  -0.01730311  0.39489817  0.28640991  1
  Bi2+  Bi67  1  0.01221542  0.40696510  0.78724405  1
  Bi2+  Bi68  1  0.00126344  0.67140267  0.28722029  1
  Bi2+  Bi69  1  0.03449244  0.59594525  0.74771647  1
  Bi2+  Bi70  1  -0.01368334  0.94624634  0.30567667  1
  Bi2+  Bi71  1  0.00437836  0.82044243  0.80022914  1
  Bi2+  Bi72  1  0.20933867  0.10705177  0.28738822  1
  Bi2+  Bi73  1  0.22140743  0.13593844  0.79450375  1
  Bi2+  Bi74  1  0.24596242  0.38643894  0.30040438  1
  Bi2+  Bi75  1  0.20765981  0.37793541  0.78868433  1
  Bi2+  Bi76  1  0.29408270  0.64754611  0.28645110  1
  Bi2+  Bi77  1  0.21666728  0.63507570  0.78492158  1
  Bi2+  Bi78  1  0.30545074  0.88106050  0.27884044  1
  Bi2+  Bi79  1  0.33048166  0.84137316  0.82245747  1
  Bi2+  Bi80  1  0.52219990  0.05345147  0.28971273  1
  Bi2+  Bi81  1  0.44306287  0.09841401  0.80015701  1
  Bi2+  Bi82  1  0.51678787  0.39368808  0.29116653  1
  Bi2+  Bi83  1  0.51972359  0.37592182  0.78873209  1
  Bi2+  Bi84  1  0.54285953  0.59995796  0.28770521  1
  Bi2+  Bi85  1  0.59602190  0.62720608  0.77064678  1
  Bi2+  Bi86  1  0.48700543  0.87123532  0.32089961  1
  Bi2+  Bi87  1  0.50700031  0.90562057  0.79154488  1
  Bi2+  Bi88  1  0.66928673  0.13191118  0.22604908  1
  Bi2+  Bi89  1  0.70839721  0.11919106  0.78239398  1
  Bi2+  Bi90  1  0.70395053  0.28135042  0.29572386  1
  Bi2+  Bi91  1  0.75626321  0.35162629  0.78842485  1
  Bi2+  Bi92  1  0.81053272  0.64636102  0.30760150  1
  Bi2+  Bi93  1  0.76567794  0.55019007  0.78100934  1
  Bi2+  Bi94  1  0.76661714  0.91981816  0.29607876  1
  Bi2+  Bi95  1  0.75259458  0.81274826  0.80379183  1
  Bi2+  Bi96  1  0.12399064  0.00579093  0.20735415  1
  Bi2+  Bi97  1  0.12408008  -0.02081997  0.71413739  1
  Bi2+  Bi98  1  0.10972073  0.24027248  0.21941959  1
  Bi2+  Bi99  1  0.13360932  0.23165781  0.70756787  1
  Bi2+  Bi100  1  0.10239828  0.52316363  0.23895548  1
  Bi2+  Bi101  1  0.11153844  0.44278297  0.68762076  1
  Bi2+  Bi102  1  0.12090727  0.81626787  0.25616006  1
  Bi2+  Bi103  1  0.25117846  0.79170246  0.72404284  1
  Bi2+  Bi104  1  0.39864091  0.00771423  0.20363825  1
  Bi2+  Bi105  1  0.36963725  0.00297494  0.70830015  1
  Bi2+  Bi106  1  0.37562420  0.24218518  0.21062212  1
  Bi2+  Bi107  1  0.35458702  0.22971629  0.72689231  1
  Bi2+  Bi108  1  0.34498124  0.52479806  0.19870431  1
  Bi2+  Bi109  1  0.36080835  0.48412149  0.69090682  1
  Bi2+  Bi110  1  0.41634253  0.74969225  0.21359599  1
  Bi2+  Bi111  1  0.45058634  0.75600465  0.72087863  1
  Bi2+  Bi112  1  0.62651280  -0.06691941  0.21406489  1
  Bi2+  Bi113  1  0.63181812  -0.02246714  0.71327316  1
  Bi2+  Bi114  1  0.61402121  0.32355258  0.19682574  1
  Bi2+  Bi115  1  0.54386248  0.17404738  0.71134267  1
  Bi2+  Bi116  1  0.68857118  0.52589101  0.22147200  1
  Bi2+  Bi117  1  0.68853690  0.41488007  0.69053259  1
  Bi2+  Bi118  1  0.67350853  0.73737041  0.24662857  1
  Bi2+  Bi119  1  0.72144628  0.73815293  0.70349388  1
  Bi2+  Bi120  1  0.85736806  0.03911036  0.19701267  1
  Bi2+  Bi121  1  0.87811756  -0.02669320  0.71265854  1
  Bi2+  Bi122  1  0.94220020  0.30379414  0.18666525  1
  Bi2+  Bi123  1  0.85059013  0.21360030  0.71935971  1
  Bi2+  Bi124  1  0.87940888  0.58818966  0.19234080  1
  Bi2+  Bi125  1  0.89309459  0.39530547  0.67865900  1
  Bi2+  Bi126  1  0.88520918  0.79607120  0.21984998  1
  Bi2+  Bi127  1  0.86139420  0.58715843  0.68241923  1
  S2-  S128  1  -0.00643394  0.03467063  0.14276797  1
  S2-  S129  1  0.00531989  0.02329916  0.65130774  1
  S2-  S130  1  -0.02413674  0.46684536  0.15049850  1
  S2-  S131  1  0.01296703  0.24162176  0.63861515  1
  S2-  S132  1  -0.02869118  0.70751027  0.14298530  1
  S2-  S133  1  0.01166218  0.65044292  0.65133190  1
  S2-  S134  1  0.12841817  0.85785745  0.15443821  1
  S2-  S135  1  0.13543871  0.85075244  0.65308910  1
  S2-  S136  1  0.23914692  0.24375406  0.15027416  1
  S2-  S137  1  0.24447788  0.04001822  0.64562169  1
  S2-  S138  1  0.20169818  0.48801322  0.15503434  1
  S2-  S139  1  0.27480694  0.33992467  0.65473163  1
  S2-  S140  1  0.27472220  0.67911184  0.17334609  1
  S2-  S141  1  0.21794279  0.57226809  0.66797202  1
  S2-  S142  1  0.26094179  1.01348502  0.14392201  1
  S2-  S143  1  0.38199956  0.86220559  0.64761395  1
  S2-  S144  1  0.46735002  0.14013833  0.14960552  1
  S2-  S145  1  0.50374635  0.04583937  0.64219176  1
  S2-  S146  1  0.41974641  0.37578519  0.16301415  1
  S2-  S147  1  0.52233357  0.42001842  0.66672875  1
  S2-  S148  1  0.48871520  0.60912698  0.16998073  1
  S2-  S149  1  0.40735331  0.63616348  0.65406743  1
  S2-  S150  1  0.49392231  0.87671083  0.15335911  1
  S2-  S151  1  0.61775445  0.84692702  0.64814836  1
  S2-  S152  1  0.82533604  0.15907211  0.13104397  1
  S2-  S153  1  0.75821998  0.02511160  0.64781672  1
  S2-  S154  1  0.75615231  0.40184625  0.16203549  1
  S2-  S155  1  0.74368955  0.25071435  0.64263456  1
  S2-  S156  1  0.72402808  0.65873311  0.15255407  1
  S2-  S157  1  0.65263075  0.62147056  0.64181498  1
  S2-  S158  1  0.82171305  0.89228449  0.13986705  1
  S2-  S159  1  0.88135933  0.84968506  0.65493912  1
  S2-  S160  1  0.09497775  0.12791236  0.35692054  1
  S2-  S161  1  0.07580059  -0.04025272  0.81761994  1
  S2-  S162  1  0.11801309  0.35391316  0.35604187  1
  S2-  S163  1  0.21369833  0.26052675  0.86710018  1
  S2-  S164  1  0.18389140  0.54173547  0.33331671  1
  S2-  S165  1  0.22565300  0.50246357  0.85548818  1
  S2-  S166  1  0.09573751  0.86932868  0.36151350  1
  S2-  S167  1  0.12515717  0.73191596  0.84786418  1
  S2-  S168  1  0.27613448  -0.00524588  0.35476442  1
  S2-  S169  1  0.26221260  0.00269120  0.85699679  1
  S2-  S170  1  0.32796503  0.23283418  0.31441738  1
  S2-  S171  1  0.42283949  0.33148025  0.86004170  1
  S2-  S172  1  0.38601324  0.42883545  0.35818453  1
  S2-  S173  1  0.41265553  0.50709074  0.77901871  1
  S2-  S174  1  0.26203767  0.73914652  0.36354810  1
  S2-  S175  1  0.36754783  0.68240311  0.85774925  1
  S2-  S176  1  0.64709388  -0.11810500  0.36650249  1
  S2-  S177  1  0.68539150  0.00470787  0.85256770  1
  S2-  S178  1  0.54951869  0.26188083  0.35367137  1
  S2-  S179  1  0.62651984  0.25220632  0.83342431  1
  S2-  S180  1  0.62835329  0.48956226  0.34744691  1
  S2-  S181  1  0.57250933  0.49216740  0.85968862  1
  S2-  S182  1  0.50382059  0.71522126  0.36467188  1
  S2-  S183  1  0.60595758  0.73492106  0.84589490  1
  S2-  S184  1  0.85697536  0.06306500  0.34310113  1
  S2-  S185  1  0.87240188  -0.07124890  0.81704948  1
  S2-  S186  1  0.86182363  0.28135710  0.33837283  1
  S2-  S187  1  0.86948316  0.15106380  0.84788117  1
  S2-  S188  1  0.88941895  0.50113536  0.34229112  1
  S2-  S189  1  0.87388663  0.39340286  0.85874390  1
  S2-  S190  1  0.87765259  0.85156209  0.36432516  1
  S2-  S191  1  0.87689472  0.70856545  0.83359790  1
  S2-  S192  1  0.00358825  0.12236020  0.45861593  1
  S2-  S193  1  -0.01082537  0.13052903  0.94817396  1
  S2-  S194  1  0.00186155  0.37295569  0.45808826  1
  S2-  S195  1  -0.00641818  0.38484486  0.95480758  1
  S2-  S196  1  0.00859019  0.62332437  0.44624128  1
  S2-  S197  1  -0.01306327  0.62755805  0.94820856  1
  S2-  S198  1  0.00649390  0.86855545  0.46857555  1
  S2-  S199  1  -0.01498602  0.88399225  0.93472801  1
  S2-  S200  1  0.26819201  0.13610378  0.45010968  1
  S2-  S201  1  0.23411870  0.12803978  0.96198907  1
  S2-  S202  1  0.26290775  0.37002757  0.45456157  1
  S2-  S203  1  0.23104269  0.38054404  0.97018941  1
  S2-  S204  1  0.25780728  0.61421386  0.46208925  1
  S2-  S205  1  0.23293180  0.63562204  0.96666631  1
  S2-  S206  1  0.25956833  0.87670627  0.46397832  1
  S2-  S207  1  0.23447864  0.88016977  0.96012477  1
  S2-  S208  1  0.50715044  0.12407873  0.44872196  1
  S2-  S209  1  0.48005126  0.13426891  0.94604686  1
  S2-  S210  1  0.50833903  0.37484844  0.46160642  1
  S2-  S211  1  0.47887772  0.39607859  0.96500607  1
  S2-  S212  1  0.50803124  0.61517154  0.46555951  1
  S2-  S213  1  0.48349097  0.63109302  0.96160514  1
  S2-  S214  1  0.50493895  0.87739500  0.46312014  1
  S2-  S215  1  0.48382178  0.88100085  0.94848635  1
  S2-  S216  1  0.75350989  0.12256972  0.45407435  1
  S2-  S217  1  0.72512443  0.14235896  0.94686907  1
  S2-  S218  1  0.75638887  0.37443568  0.45439903  1
  S2-  S219  1  0.73105114  0.38488511  0.95374881  1
  S2-  S220  1  0.75371415  0.62320264  0.45304151  1
  S2-  S221  1  0.73849269  0.63179604  0.94853513  1
  S2-  S222  1  0.75653282  0.87180825  0.46844397  1
  S2-  S223  1  0.73249982  0.87933405  0.94909400  1
  S2-  S224  1  0.10297284  0.00373979  0.03862672  1
  S2-  S225  1  0.13171069  0.00384659  0.54010774  1
  S2-  S226  1  0.10189880  0.25211915  0.05278273  1
  S2-  S227  1  0.13578951  0.25371039  0.54018820  1
  S2-  S228  1  0.10399947  0.50930691  0.04511341  1
  S2-  S229  1  0.13364326  0.49555443  0.54425700  1
  S2-  S230  1  0.10502665  0.75523019  0.04835038  1
  S2-  S231  1  0.13536552  0.74589738  0.54589638  1
  S2-  S232  1  0.36387028  0.00858063  0.04193627  1
  S2-  S233  1  0.38094435  0.00351769  0.54088025  1
  S2-  S234  1  0.36396064  0.25488728  0.04513965  1
  S2-  S235  1  0.38291085  0.25008110  0.55287878  1
  S2-  S236  1  0.36104384  0.50854745  0.06406217  1
  S2-  S237  1  0.38299243  0.49573166  0.55306706  1
  S2-  S238  1  0.35678267  0.76253861  0.05543555  1
  S2-  S239  1  0.38433923  0.75095768  0.54685867  1
  S2-  S240  1  0.61139379  0.00865348  0.04649014  1
  S2-  S241  1  0.63117919  0.00248967  0.54516536  1
  S2-  S242  1  0.60723417  0.25650564  0.04501653  1
  S2-  S243  1  0.62887617  0.24857792  0.54445751  1
  S2-  S244  1  0.61134419  0.50827464  0.05922594  1
  S2-  S245  1  0.63451404  0.49279329  0.54831814  1
  S2-  S246  1  0.61272684  0.76263120  0.04979149  1
  S2-  S247  1  0.63248673  0.75052085  0.54177243  1
  S2-  S248  1  0.85432389  0.00668479  0.02769241  1
  S2-  S249  1  0.88007900  0.00286934  0.54565429  1
  S2-  S250  1  0.86094487  0.26107975  0.03154600  1
  S2-  S251  1  0.88172773  0.24911647  0.54237447  1
  S2-  S252  1  0.85803044  0.50869622  0.04137137  1
  S2-  S253  1  0.88238132  0.49900121  0.54756749  1
  S2-  S254  1  0.86256118  0.76124838  0.03736285  1
  S2-  S255  1  0.88079025  0.74359288  0.54900444  1
