# generated using pymatgen
data_La9Ce10Pr6Nd4Sm3(BiS2)32
_symmetry_space_group_name_H-M   'P 1'
_cell_length_a   16.25201451
_cell_length_b   16.23349942
_cell_length_c   26.99907237
_cell_angle_alpha   89.92233335
_cell_angle_beta   89.83895570
_cell_angle_gamma   90.02292089
_symmetry_Int_Tables_number   1
_chemical_formula_structural   La9Ce10Pr6Nd4Sm3(BiS2)32
_chemical_formula_sum   'La18 Ce20 Pr12 Nd8 Sm6 Bi64 S128'
_cell_volume   7123.05084069
_cell_formula_units_Z   2
loop_
 _symmetry_equiv_pos_site_id
 _symmetry_equiv_pos_as_xyz
  1  'x, y, z'
loop_
 _atom_type_symbol
 _atom_type_oxidation_number
  La3+  3.0
  Ce3+  3.0
  Pr3+  3.0
  Nd3+  3.0
  Sm3+  3.0
  Bi2+  2.0
  S2-  -2.0
loop_
 _atom_site_type_symbol
 _atom_site_label
 _atom_site_symmetry_multiplicity
 _atom_site_fract_x
 _atom_site_fract_y
 _atom_site_fract_z
 _atom_site_occupancy
  La3+  La0  1  -0.00142280  0.10791955  0.08688240  1
  La3+  La1  1  0.73607195  0.11293583  0.09001894  1
  La3+  La2  1  0.86177763  0.00662219  0.92925711  1
  La3+  La3  1  0.49518391  0.36271957  0.56143213  1
  La3+  La4  1  0.11083094  0.00580424  0.91267987  1
  La3+  La5  1  0.22992995  0.61838816  0.07074980  1
  La3+  La6  1  0.74176767  0.37599521  0.57399647  1
  La3+  La7  1  -0.00355990  0.87190977  0.05128277  1
  La3+  La8  1  0.48850125  0.11128456  0.07183627  1
  La3+  La9  1  -0.01402641  0.61810475  0.06532359  1
  La3+  La10  1  -0.00624931  0.61496656  0.57398012  1
  La3+  La11  1  0.23945588  0.61286422  0.58126716  1
  La3+  La12  1  0.74963484  0.11849670  0.60432893  1
  La3+  La13  1  0.49591103  0.61945917  0.56404824  1
  La3+  La14  1  0.87276079  -0.00737016  0.42872248  1
  La3+  La15  1  0.49776783  0.86973833  0.56518956  1
  La3+  La16  1  -0.00867973  0.36682010  0.07164157  1
  La3+  La17  1  0.11519393  0.73749850  0.90637680  1
  Ce3+  Ce18  1  0.36885715  0.49482668  0.44515994  1
  Ce3+  Ce19  1  0.24490632  0.36875602  0.55597433  1
  Ce3+  Ce20  1  0.74318203  0.62245828  0.06697618  1
  Ce3+  Ce21  1  0.24287297  0.86673309  0.55933144  1
  Ce3+  Ce22  1  0.36676274  0.24265532  0.94015092  1
  Ce3+  Ce23  1  0.86484127  0.49231081  0.94161666  1
  Ce3+  Ce24  1  0.86453695  0.23793279  0.95982075  1
  Ce3+  Ce25  1  0.11370575  0.24215622  0.95068290  1
  Ce3+  Ce26  1  0.11994540  0.24402389  0.44121874  1
  Ce3+  Ce27  1  0.62050340  -0.00193655  0.44115107  1
  Ce3+  Ce28  1  0.48965630  0.37057929  0.05478815  1
  Ce3+  Ce29  1  0.48842056  0.62472393  0.06641979  1
  Ce3+  Ce30  1  0.12078218  0.49936547  0.43712704  1
  Ce3+  Ce31  1  0.87077606  0.24503946  0.44139843  1
  Ce3+  Ce32  1  0.87610715  0.74270770  0.44515822  1
  Ce3+  Ce33  1  0.74560312  0.61897376  0.55568932  1
  Ce3+  Ce34  1  0.24236944  0.37316064  0.05812501  1
  Ce3+  Ce35  1  0.37314133  -0.00534077  0.44318327  1
  Ce3+  Ce36  1  0.37048740  0.24356708  0.43644080  1
  Ce3+  Ce37  1  0.74777143  0.87473994  0.55331931  1
  Pr3+  Pr38  1  0.62055701  0.49105006  0.43413631  1
  Pr3+  Pr39  1  0.24202464  0.11416570  0.06301356  1
  Pr3+  Pr40  1  0.37296190  0.74295190  0.92750633  1
  Pr3+  Pr41  1  0.24153492  0.86549434  0.04143074  1
  Pr3+  Pr42  1  0.36580926  0.00119105  0.92720835  1
  Pr3+  Pr43  1  0.62063852  0.74396622  0.43277730  1
  Pr3+  Pr44  1  0.49654458  0.11902726  0.56940643  1
  Pr3+  Pr45  1  -0.00271990  0.87627796  0.56898137  1
  Pr3+  Pr46  1  0.36420674  0.49615777  0.94143716  1
  Pr3+  Pr47  1  0.12243920  -0.01456018  0.42572051  1
  Pr3+  Pr48  1  0.37595310  0.74249493  0.43545968  1
  Pr3+  Pr49  1  0.10590971  0.49129645  0.92883942  1
  Nd3+  Nd50  1  -0.00576228  0.36741335  0.55972557  1
  Nd3+  Nd51  1  0.61992660  0.74068471  0.93364774  1
  Nd3+  Nd52  1  0.49011844  0.86344696  0.05983132  1
  Nd3+  Nd53  1  0.61795580  -0.00262786  0.93784450  1
  Nd3+  Nd54  1  0.62332657  0.24144941  0.44038681  1
  Nd3+  Nd55  1  -0.00373567  0.11583942  0.55770101  1
  Nd3+  Nd56  1  0.74191470  0.87275797  0.05819082  1
  Nd3+  Nd57  1  0.73765855  0.36764013  0.06871749  1
  Sm3+  Sm58  1  0.24367152  0.11670961  0.55104799  1
  Sm3+  Sm59  1  0.61746563  0.24284017  0.94749259  1
  Sm3+  Sm60  1  0.87046936  0.49369902  0.43744654  1
  Sm3+  Sm61  1  0.12916975  0.73808172  0.43279629  1
  Sm3+  Sm62  1  0.61935462  0.49519729  0.95158617  1
  Sm3+  Sm63  1  0.86854746  0.74511176  0.93823919  1
  Bi2+  Bi64  1  -0.00206259  0.14394085  0.28916636  1
  Bi2+  Bi65  1  -0.00813354  0.13328258  0.79650778  1
  Bi2+  Bi66  1  0.08342148  0.39014801  0.28254246  1
  Bi2+  Bi67  1  0.04271325  0.35251118  0.80249364  1
  Bi2+  Bi68  1  -0.01434726  0.65787197  0.29283548  1
  Bi2+  Bi69  1  0.01011520  0.59375154  0.78744687  1
  Bi2+  Bi70  1  0.00340021  0.84811310  0.27319569  1
  Bi2+  Bi71  1  -0.03371023  0.84827399  0.78506895  1
  Bi2+  Bi72  1  0.28267449  0.17484772  0.29086512  1
  Bi2+  Bi73  1  0.26484128  0.20374002  0.78102645  1
  Bi2+  Bi74  1  0.28144533  0.39068514  0.28466506  1
  Bi2+  Bi75  1  0.24191906  0.39241669  0.80021378  1
  Bi2+  Bi76  1  0.25565775  0.58304522  0.30695124  1
  Bi2+  Bi77  1  0.27728555  0.60814078  0.77694409  1
  Bi2+  Bi78  1  0.25069394  0.87469945  0.29788710  1
  Bi2+  Bi79  1  0.28610726  0.88076818  0.78208070  1
  Bi2+  Bi80  1  0.48602741  0.06803000  0.29017461  1
  Bi2+  Bi81  1  0.50945606  0.12763251  0.79371908  1
  Bi2+  Bi82  1  0.49065636  0.34091532  0.28248951  1
  Bi2+  Bi83  1  0.44406529  0.32573557  0.79155063  1
  Bi2+  Bi84  1  0.45373415  0.63664259  0.27563611  1
  Bi2+  Bi85  1  0.52847194  0.59545889  0.79775017  1
  Bi2+  Bi86  1  0.52097940  0.83099680  0.26963786  1
  Bi2+  Bi87  1  0.54491161  0.85584317  0.78617966  1
  Bi2+  Bi88  1  0.74849747  0.13280650  0.30299829  1
  Bi2+  Bi89  1  0.74753348  0.13329603  0.79787638  1
  Bi2+  Bi90  1  0.76277013  0.38453129  0.31286885  1
  Bi2+  Bi91  1  0.76811623  0.37482562  0.75461252  1
  Bi2+  Bi92  1  0.71783509  0.65186265  0.29778661  1
  Bi2+  Bi93  1  0.72086423  0.65010401  0.80945586  1
  Bi2+  Bi94  1  0.71638816  0.84412243  0.27885466  1
  Bi2+  Bi95  1  0.74405609  0.84779376  0.79270357  1
  Bi2+  Bi96  1  0.16129507  -0.00485815  0.22305567  1
  Bi2+  Bi97  1  0.13989283  0.01220139  0.71136813  1
  Bi2+  Bi98  1  0.18133252  0.26829496  0.20778934  1
  Bi2+  Bi99  1  0.10418986  0.23972122  0.70766942  1
  Bi2+  Bi100  1  0.10922873  0.52091810  0.20283876  1
  Bi2+  Bi101  1  0.10835090  0.44253854  0.70878654  1
  Bi2+  Bi102  1  0.17955395  0.74720537  0.21279389  1
  Bi2+  Bi103  1  0.13275014  0.75938929  0.70149945  1
  Bi2+  Bi104  1  0.34951550  0.04749976  0.20609390  1
  Bi2+  Bi105  1  0.37427260  0.08673129  0.71341490  1
  Bi2+  Bi106  1  0.37205906  0.24282911  0.19213378  1
  Bi2+  Bi107  1  0.39681747  0.26298093  0.67082516  1
  Bi2+  Bi108  1  0.42544636  0.47748992  0.20905924  1
  Bi2+  Bi109  1  0.36974764  0.44226722  0.71171730  1
  Bi2+  Bi110  1  0.36338993  0.81099042  0.18730663  1
  Bi2+  Bi111  1  0.42190788  0.77367745  0.69992972  1
  Bi2+  Bi112  1  0.60593227  -0.02145733  0.20653645  1
  Bi2+  Bi113  1  0.61786123  -0.01178607  0.71412625  1
  Bi2+  Bi114  1  0.62904072  0.26906269  0.20939150  1
  Bi2+  Bi115  1  0.58418053  0.27005781  0.71664128  1
  Bi2+  Bi116  1  0.60578891  0.55672812  0.21879971  1
  Bi2+  Bi117  1  0.64050829  0.50841323  0.71951714  1
  Bi2+  Bi118  1  0.66443719  0.73199387  0.18258802  1
  Bi2+  Bi119  1  0.64621684  0.73992015  0.70638337  1
  Bi2+  Bi120  1  0.88186178  -0.02943782  0.21612051  1
  Bi2+  Bi121  1  0.88442219  -0.03973858  0.70668554  1
  Bi2+  Bi122  1  0.87355614  0.30217118  0.21004676  1
  Bi2+  Bi123  1  0.91227919  0.27507363  0.70926436  1
  Bi2+  Bi124  1  0.85828586  0.55534930  0.23818441  1
  Bi2+  Bi125  1  0.86875425  0.53039546  0.71722116  1
  Bi2+  Bi126  1  0.86012218  0.77006288  0.20486951  1
  Bi2+  Bi127  1  0.84107617  0.72503719  0.71284886  1
  S2-  S128  1  -0.02707747  0.18816601  0.18350083  1
  S2-  S129  1  0.01071055  0.01313562  0.63996816  1
  S2-  S130  1  -0.02620428  0.42913586  0.16521598  1
  S2-  S131  1  -0.02230679  0.46661346  0.64173748  1
  S2-  S132  1  0.08881649  0.65917342  0.14359569  1
  S2-  S133  1  0.10533371  0.62812571  0.65176690  1
  S2-  S134  1  -0.01515564  0.95316739  0.14273641  1
  S2-  S135  1  -0.01765752  0.79737184  0.66205197  1
  S2-  S136  1  0.15002391  0.10412237  0.14998440  1
  S2-  S137  1  0.23133299  0.10229346  0.65077456  1
  S2-  S138  1  0.22024647  0.45978755  0.14086320  1
  S2-  S139  1  0.24223667  0.45563034  0.64231203  1
  S2-  S140  1  0.30799175  0.66455237  0.15950350  1
  S2-  S141  1  0.30152896  0.67518717  0.67583450  1
  S2-  S142  1  0.21520157  0.87606601  0.14422031  1
  S2-  S143  1  0.22214486  0.88848604  0.65826686  1
  S2-  S144  1  0.59419171  0.12884434  0.15196155  1
  S2-  S145  1  0.59778795  0.12392429  0.65452483  1
  S2-  S146  1  0.50316668  0.34864684  0.15143080  1
  S2-  S147  1  0.56602952  0.40194015  0.65102971  1
  S2-  S148  1  0.50254272  0.74348356  0.13796040  1
  S2-  S149  1  0.51410884  0.64523130  0.66383200  1
  S2-  S150  1  0.46734791  0.96560796  0.14200184  1
  S2-  S151  1  0.48446609  0.92835054  0.66041268  1
  S2-  S152  1  0.76817978  0.17182034  0.19977738  1
  S2-  S153  1  0.83193662  0.11103266  0.70141693  1
  S2-  S154  1  0.73340846  0.38592994  0.16941182  1
  S2-  S155  1  0.76039048  0.28324231  0.65866913  1
  S2-  S156  1  0.85542453  0.62189379  0.14356649  1
  S2-  S157  1  0.74744367  0.52612950  0.63866499  1
  S2-  S158  1  0.74784756  0.96194299  0.14651393  1
  S2-  S159  1  0.74795564  0.94394096  0.64395293  1
  S2-  S160  1  0.10893304  0.05221787  0.32653966  1
  S2-  S161  1  0.19566126  -0.00209409  0.81570654  1
  S2-  S162  1  0.08327143  0.25882168  0.34542633  1
  S2-  S163  1  0.10734426  0.17012637  0.86183848  1
  S2-  S164  1  0.11040155  0.61238630  0.36128846  1
  S2-  S165  1  0.14059189  0.59182794  0.84521867  1
  S2-  S166  1  0.11030037  0.85166386  0.35813182  1
  S2-  S167  1  0.11713490  0.80632693  0.80634670  1
  S2-  S168  1  0.37849587  -0.03201850  0.34579792  1
  S2-  S169  1  0.40940837  -0.06679734  0.83615682  1
  S2-  S170  1  0.43209059  0.21944646  0.34433763  1
  S2-  S171  1  0.37094447  0.14406425  0.85873860  1
  S2-  S172  1  0.40586974  0.51529347  0.35043386  1
  S2-  S173  1  0.38671201  0.53565093  0.84287965  1
  S2-  S174  1  0.27650877  0.73131180  0.35187135  1
  S2-  S175  1  0.29574302  0.73303440  0.83578742  1
  S2-  S176  1  0.62633324  0.03235240  0.34330931  1
  S2-  S177  1  0.72798798  0.00836509  0.85746476  1
  S2-  S178  1  0.65055885  0.26143012  0.34035204  1
  S2-  S179  1  0.62996672  0.22084216  0.84882856  1
  S2-  S180  1  0.65245599  0.49491537  0.33413541  1
  S2-  S181  1  0.64707192  0.50490882  0.85409793  1
  S2-  S182  1  0.50186859  0.74301621  0.35793262  1
  S2-  S183  1  0.50829458  0.73103859  0.85770337  1
  S2-  S184  1  0.87520538  0.02434316  0.32707714  1
  S2-  S185  1  0.97085725  -0.00538431  0.84700313  1
  S2-  S186  1  0.86674042  0.24326697  0.34033685  1
  S2-  S187  1  0.86350754  0.18224036  0.86602280  1
  S2-  S188  1  0.89269945  0.48563529  0.33817258  1
  S2-  S189  1  0.95577139  0.47630181  0.85807568  1
  S2-  S190  1  0.89615876  0.77416059  0.34931848  1
  S2-  S191  1  0.94723702  0.71640619  0.85095223  1
  S2-  S192  1  -0.00248171  0.11790971  0.45048241  1
  S2-  S193  1  -0.00859464  0.12114959  0.96842990  1
  S2-  S194  1  -0.00449776  0.37238861  0.45238766  1
  S2-  S195  1  -0.01292884  0.36219169  0.96197629  1
  S2-  S196  1  -0.00881236  0.61602028  0.46062987  1
  S2-  S197  1  -0.01470566  0.61700950  0.95634308  1
  S2-  S198  1  -0.00597030  0.86891930  0.45953563  1
  S2-  S199  1  -0.00928498  0.86732484  0.94382597  1
  S2-  S200  1  0.24494278  0.11834775  0.44503156  1
  S2-  S201  1  0.24163712  0.12210904  0.95613889  1
  S2-  S202  1  0.24472278  0.36957725  0.44757220  1
  S2-  S203  1  0.23978280  0.36857856  0.94962200  1
  S2-  S204  1  0.24837002  0.61604384  0.46445930  1
  S2-  S205  1  0.24065197  0.61703022  0.95311593  1
  S2-  S206  1  0.25175503  0.86776092  0.45444383  1
  S2-  S207  1  0.23879190  0.87214832  0.93509912  1
  S2-  S208  1  0.49615701  0.12066356  0.45852300  1
  S2-  S209  1  0.49661483  0.12025670  0.95876040  1
  S2-  S210  1  0.49617062  0.36675400  0.45138980  1
  S2-  S211  1  0.49504385  0.37039217  0.94766471  1
  S2-  S212  1  0.49901317  0.61599044  0.45603227  1
  S2-  S213  1  0.49649909  0.61369365  0.95958048  1
  S2-  S214  1  0.49888736  0.87219219  0.45671468  1
  S2-  S215  1  0.49733959  0.87219051  0.95230070  1
  S2-  S216  1  0.74838193  0.11965869  0.44589858  1
  S2-  S217  1  0.73401738  0.12232813  0.97028083  1
  S2-  S218  1  0.74715948  0.37032621  0.45665775  1
  S2-  S219  1  0.73939040  0.36712569  0.95877303  1
  S2-  S220  1  0.74681462  0.61860317  0.44763423  1
  S2-  S221  1  0.74429466  0.61954876  0.95750135  1
  S2-  S222  1  0.74462592  0.86846188  0.44529337  1
  S2-  S223  1  0.74215852  0.86525459  0.95028318  1
  S2-  S224  1  0.12144587  -0.00589833  0.03474220  1
  S2-  S225  1  0.12481172  -0.00522963  0.53557497  1
  S2-  S226  1  0.11973259  0.24632842  0.05633314  1
  S2-  S227  1  0.12051751  0.24249200  0.54942624  1
  S2-  S228  1  0.10993252  0.49163054  0.03829086  1
  S2-  S229  1  0.11844344  0.48956196  0.54175813  1
  S2-  S230  1  0.11557572  0.74489492  0.03279707  1
  S2-  S231  1  0.11899547  0.74526459  0.54412600  1
  S2-  S232  1  0.36432444  -0.00720412  0.03676895  1
  S2-  S233  1  0.36864557  -0.00328132  0.55080657  1
  S2-  S234  1  0.36603166  0.24405180  0.04754088  1
  S2-  S235  1  0.36644653  0.23972690  0.54290857  1
  S2-  S236  1  0.36816041  0.49690513  0.04857871  1
  S2-  S237  1  0.37398890  0.49173264  0.55087369  1
  S2-  S238  1  0.36587306  0.74122045  0.03657417  1
  S2-  S239  1  0.37106563  0.74456923  0.54877720  1
  S2-  S240  1  0.61440300  -0.01020220  0.04372418  1
  S2-  S241  1  0.62241136  -0.00203620  0.54635329  1
  S2-  S242  1  0.61363592  0.24649100  0.05148660  1
  S2-  S243  1  0.62517682  0.24079067  0.54874104  1
  S2-  S244  1  0.61629973  0.49699190  0.05766095  1
  S2-  S245  1  0.61832280  0.49653637  0.54062369  1
  S2-  S246  1  0.62214503  0.74360463  0.03939937  1
  S2-  S247  1  0.62400717  0.74577318  0.54459842  1
  S2-  S248  1  0.86437395  -0.00473825  0.04077310  1
  S2-  S249  1  0.86731139  0.00069453  0.54083437  1
  S2-  S250  1  0.86281992  0.23953378  0.06628897  1
  S2-  S251  1  0.87185429  0.23992965  0.55070116  1
  S2-  S252  1  0.86091039  0.48821744  0.04714522  1
  S2-  S253  1  0.86871877  0.49277589  0.54044426  1
  S2-  S254  1  0.86513261  0.75005729  0.04320453  1
  S2-  S255  1  0.86854056  0.74488462  0.55200906  1
