# generated using pymatgen
data_La9Ce10Pr6Nd4Sm3(BiS2)32
_symmetry_space_group_name_H-M   'P 1'
_cell_length_a   16.23090773
_cell_length_b   16.24415626
_cell_length_c   27.14559955
_cell_angle_alpha   89.93789882
_cell_angle_beta   89.97415977
_cell_angle_gamma   90.07258438
_symmetry_Int_Tables_number   1
_chemical_formula_structural   La9Ce10Pr6Nd4Sm3(BiS2)32
_chemical_formula_sum   'La18 Ce20 Pr12 Nd8 Sm6 Bi64 S128'
_cell_volume   7157.12755924
_cell_formula_units_Z   2
loop_
 _symmetry_equiv_pos_site_id
 _symmetry_equiv_pos_as_xyz
  1  'x, y, z'
loop_
 _atom_type_symbol
 _atom_type_oxidation_number
  La3+  3.0
  Ce3+  3.0
  Pr3+  3.0
  Nd3+  3.0
  Sm3+  3.0
  Bi2+  2.0
  S2-  -2.0
loop_
 _atom_site_type_symbol
 _atom_site_label
 _atom_site_symmetry_multiplicity
 _atom_site_fract_x
 _atom_site_fract_y
 _atom_site_fract_z
 _atom_site_occupancy
  La3+  La0  1  0.49806478  0.10853492  0.07681867  1
  La3+  La1  1  0.87240494  0.72983063  0.93493139  1
  La3+  La2  1  -0.00220753  0.37871462  0.57117730  1
  La3+  La3  1  -0.00250549  0.60351611  0.07109954  1
  La3+  La4  1  0.87149440  -0.02171274  0.92662263  1
  La3+  La5  1  0.87044506  0.00764867  0.41423253  1
  La3+  La6  1  0.49620444  0.60698102  0.07337401  1
  La3+  La7  1  0.12355124  0.73496150  0.94283774  1
  La3+  La8  1  0.37649233  0.47857722  0.92260565  1
  La3+  La9  1  0.61966875  0.01088788  0.42446402  1
  La3+  La10  1  0.38459535  0.50925627  0.41810850  1
  La3+  La11  1  0.12271436  0.74639845  0.40977133  1
  La3+  La12  1  0.12542629  -0.01708918  0.93664815  1
  La3+  La13  1  0.12805416  0.48205125  0.92936098  1
  La3+  La14  1  0.13320480  0.01008209  0.40421038  1
  La3+  La15  1  0.61515776  0.73554957  0.93533008  1
  La3+  La16  1  0.49852862  0.12626776  0.56626746  1
  La3+  La17  1  0.23659091  0.87598944  0.56020100  1
  Ce3+  Ce18  1  0.49726623  0.85672089  0.07670688  1
  Ce3+  Ce19  1  0.75000715  0.10562176  0.05488020  1
  Ce3+  Ce20  1  0.49614199  0.38175599  0.56318133  1
  Ce3+  Ce21  1  0.87355567  0.50190997  0.43740370  1
  Ce3+  Ce22  1  0.61849271  -0.01540658  0.94604750  1
  Ce3+  Ce23  1  0.00126272  0.87781566  0.53713244  1
  Ce3+  Ce24  1  0.37242975  0.25726248  0.44841058  1
  Ce3+  Ce25  1  0.24619206  0.60248658  0.06183529  1
  Ce3+  Ce26  1  0.75154459  0.12288986  0.55538580  1
  Ce3+  Ce27  1  0.87806974  0.48708914  0.92087471  1
  Ce3+  Ce28  1  -0.00314483  0.36367040  0.06026428  1
  Ce3+  Ce29  1  0.37321217  0.75143760  0.44175946  1
  Ce3+  Ce30  1  0.62499298  0.75381883  0.44273757  1
  Ce3+  Ce31  1  0.87638508  0.74398300  0.42195611  1
  Ce3+  Ce32  1  0.24878524  0.35862484  0.06082887  1
  Ce3+  Ce33  1  0.49698742  0.62750209  0.56376527  1
  Ce3+  Ce34  1  0.24417685  0.12594099  0.55284527  1
  Ce3+  Ce35  1  0.24595516  0.62622230  0.55478307  1
  Ce3+  Ce36  1  0.75333701  0.37531726  0.56497319  1
  Ce3+  Ce37  1  0.37253340  0.73441438  0.95581608  1
  Pr3+  Pr38  1  0.87394912  0.23418290  0.93988943  1
  Pr3+  Pr39  1  0.74682218  0.60495104  0.05532845  1
  Pr3+  Pr40  1  0.74608570  0.85605184  0.06569865  1
  Pr3+  Pr41  1  0.49790859  0.87905798  0.55891107  1
  Pr3+  Pr42  1  0.24370435  0.37925082  0.57015993  1
  Pr3+  Pr43  1  0.37437661  0.00347838  0.43510804  1
  Pr3+  Pr44  1  0.75209769  0.87806136  0.55495953  1
  Pr3+  Pr45  1  0.87413888  0.25485782  0.43578170  1
  Pr3+  Pr46  1  0.49682643  0.35882583  0.07473837  1
  Pr3+  Pr47  1  -0.01128364  0.85360276  0.07370898  1
  Pr3+  Pr48  1  0.24573913  0.10858987  0.05864961  1
  Pr3+  Pr49  1  0.75078482  0.62970188  0.55942146  1
  Nd3+  Nd50  1  0.74834068  0.36052366  0.05602024  1
  Nd3+  Nd51  1  0.12337752  0.25652381  0.43470958  1
  Nd3+  Nd52  1  0.12531843  0.50013554  0.43510313  1
  Nd3+  Nd53  1  0.23989185  0.86052523  0.07367876  1
  Nd3+  Nd54  1  0.61982561  0.23480336  0.94287703  1
  Nd3+  Nd55  1  -0.00008725  0.12336743  0.55408432  1
  Nd3+  Nd56  1  -0.00416661  0.10698947  0.06093207  1
  Nd3+  Nd57  1  0.37352641  -0.01740012  0.94661007  1
  Sm3+  Sm58  1  0.61927040  0.48146485  0.94103183  1
  Sm3+  Sm59  1  0.00071779  0.63083147  0.55245549  1
  Sm3+  Sm60  1  0.62338738  0.25520703  0.44438658  1
  Sm3+  Sm61  1  0.62451060  0.50269385  0.44628280  1
  Sm3+  Sm62  1  0.37515207  0.23505563  0.94364499  1
  Sm3+  Sm63  1  0.12275552  0.23463070  0.94493380  1
  Bi2+  Bi64  1  -0.00691538  0.10004746  0.28627537  1
  Bi2+  Bi65  1  0.01401251  0.13800192  0.80345920  1
  Bi2+  Bi66  1  -0.04609456  0.37510878  0.33811247  1
  Bi2+  Bi67  1  -0.02204846  0.38296688  0.76929104  1
  Bi2+  Bi68  1  -0.00514253  0.54459489  0.28807596  1
  Bi2+  Bi69  1  -0.02521256  0.60395448  0.78132324  1
  Bi2+  Bi70  1  0.00346772  0.84835230  0.26501508  1
  Bi2+  Bi71  1  0.00830843  0.86089431  0.79309143  1
  Bi2+  Bi72  1  0.23241410  0.22019245  0.28011753  1
  Bi2+  Bi73  1  0.28690255  0.13097447  0.75181820  1
  Bi2+  Bi74  1  0.14829742  0.38373186  0.31757029  1
  Bi2+  Bi75  1  0.25455645  0.36629568  0.79516327  1
  Bi2+  Bi76  1  0.26308007  0.62801835  0.29134218  1
  Bi2+  Bi77  1  0.25473761  0.61570079  0.76159672  1
  Bi2+  Bi78  1  0.30945643  0.89778863  0.27792753  1
  Bi2+  Bi79  1  0.22537142  0.88421266  0.79894780  1
  Bi2+  Bi80  1  0.45967709  0.11834459  0.31329480  1
  Bi2+  Bi81  1  0.49253226  0.12513398  0.78040597  1
  Bi2+  Bi82  1  0.48010070  0.37969618  0.29502923  1
  Bi2+  Bi83  1  0.52116346  0.35943675  0.79990917  1
  Bi2+  Bi84  1  0.53119001  0.63554202  0.29232146  1
  Bi2+  Bi85  1  0.49597863  0.65166697  0.80475533  1
  Bi2+  Bi86  1  0.50518836  0.93567955  0.31135144  1
  Bi2+  Bi87  1  0.47665755  0.93177601  0.79694818  1
  Bi2+  Bi88  1  0.74078487  0.11650829  0.28638997  1
  Bi2+  Bi89  1  0.72881355  0.12446179  0.75964484  1
  Bi2+  Bi90  1  0.75220173  0.38224107  0.31623659  1
  Bi2+  Bi91  1  0.78880880  0.37689479  0.81072540  1
  Bi2+  Bi92  1  0.73865963  0.57440000  0.28776466  1
  Bi2+  Bi93  1  0.72062078  0.55510855  0.79327692  1
  Bi2+  Bi94  1  0.73760105  0.84085766  0.28216153  1
  Bi2+  Bi95  1  0.73697208  0.85736273  0.79066240  1
  Bi2+  Bi96  1  0.15673778  0.01073220  0.19737353  1
  Bi2+  Bi97  1  0.12029846  0.00280515  0.68340599  1
  Bi2+  Bi98  1  0.07927285  0.28375401  0.21835953  1
  Bi2+  Bi99  1  0.13158259  0.25412706  0.73838449  1
  Bi2+  Bi100  1  0.11887491  0.47369118  0.20948305  1
  Bi2+  Bi101  1  0.16366286  0.49260490  0.69195310  1
  Bi2+  Bi102  1  0.13541823  0.73803793  0.20225020  1
  Bi2+  Bi103  1  0.08975464  0.72267384  0.68943654  1
  Bi2+  Bi104  1  0.40476489  0.08892495  0.20635995  1
  Bi2+  Bi105  1  0.39050129  -0.01609230  0.69321114  1
  Bi2+  Bi106  1  0.37308849  0.28481744  0.20817709  1
  Bi2+  Bi107  1  0.40828636  0.26776814  0.71905769  1
  Bi2+  Bi108  1  0.36631396  0.48648007  0.22710753  1
  Bi2+  Bi109  1  0.41649049  0.52632359  0.72547034  1
  Bi2+  Bi110  1  0.45850447  0.78498960  0.24211551  1
  Bi2+  Bi111  1  0.37147839  0.77474782  0.75322084  1
  Bi2+  Bi112  1  0.63280549  -0.00605337  0.21570782  1
  Bi2+  Bi113  1  0.64008883  -0.00137918  0.68646535  1
  Bi2+  Bi114  1  0.62179157  0.26419511  0.26773987  1
  Bi2+  Bi115  1  0.67987644  0.30672536  0.72343085  1
  Bi2+  Bi116  1  0.62627664  0.51019859  0.20420969  1
  Bi2+  Bi117  1  0.60731873  0.48897718  0.69997687  1
  Bi2+  Bi118  1  0.64516393  0.80672068  0.18584827  1
  Bi2+  Bi119  1  0.65620234  0.69773913  0.72017782  1
  Bi2+  Bi120  1  0.85700046  0.01658812  0.19356805  1
  Bi2+  Bi121  1  0.86646073  -0.02693622  0.74055839  1
  Bi2+  Bi122  1  0.88844421  0.28294807  0.24022830  1
  Bi2+  Bi123  1  0.86626398  0.22879484  0.70495511  1
  Bi2+  Bi124  1  0.84469429  0.46030039  0.20593813  1
  Bi2+  Bi125  1  0.85117709  0.49904281  0.71342900  1
  Bi2+  Bi126  1  0.83619908  0.72594715  0.21076043  1
  Bi2+  Bi127  1  0.88318685  0.75729692  0.72766558  1
  S2-  S128  1  0.00848658  0.08902464  0.16078401  1
  S2-  S129  1  -0.00045356  0.09918882  0.65513665  1
  S2-  S130  1  -0.01174023  0.46787326  0.13940420  1
  S2-  S131  1  0.11358451  0.35399618  0.64658004  1
  S2-  S132  1  -0.01406669  0.69747505  0.15726398  1
  S2-  S133  1  0.02290949  0.58992744  0.64899228  1
  S2-  S134  1  0.07663615  0.88248725  0.16023586  1
  S2-  S135  1  0.06282867  0.86847184  0.62987013  1
  S2-  S136  1  0.25438891  0.13456953  0.15814751  1
  S2-  S137  1  0.23136158  0.11995439  0.65023601  1
  S2-  S138  1  0.26245991  0.39870945  0.15688203  1
  S2-  S139  1  0.31014118  0.43438140  0.66065119  1
  S2-  S140  1  0.21534513  0.62043756  0.15951477  1
  S2-  S141  1  0.23474946  0.66242917  0.65225133  1
  S2-  S142  1  0.27391673  0.89036835  0.17136702  1
  S2-  S143  1  0.26480953  0.90085593  0.65990185  1
  S2-  S144  1  0.50223600  0.23679035  0.14820941  1
  S2-  S145  1  0.50842109  0.11510571  0.66668530  1
  S2-  S146  1  0.48989878  0.48486464  0.14901392  1
  S2-  S147  1  0.52848732  0.34396282  0.65696744  1
  S2-  S148  1  0.49744235  0.72857635  0.14723545  1
  S2-  S149  1  0.51614031  0.63464346  0.66179858  1
  S2-  S150  1  0.49645791  0.98057798  0.14891553  1
  S2-  S151  1  0.52834151  0.88581935  0.65844419  1
  S2-  S152  1  0.73148191  0.10828867  0.15316738  1
  S2-  S153  1  0.74130322  0.14975501  0.65209999  1
  S2-  S154  1  0.71870783  0.38457615  0.15345241  1
  S2-  S155  1  0.86621076  0.37202865  0.64158453  1
  S2-  S156  1  0.72697104  0.63623633  0.15439545  1
  S2-  S157  1  0.78182544  0.67718611  0.65532515  1
  S2-  S158  1  0.85636986  0.87870368  0.14497179  1
  S2-  S159  1  0.77538748  0.92381428  0.65179212  1
  S2-  S160  1  0.10630528  -0.02601733  0.29803370  1
  S2-  S161  1  0.10249979  -0.00322725  0.83632555  1
  S2-  S162  1  0.11798502  0.16408968  0.34884870  1
  S2-  S163  1  0.14522374  0.24419871  0.84718867  1
  S2-  S164  1  0.12117947  0.59429142  0.34939002  1
  S2-  S165  1  0.01419504  0.48007627  0.85182435  1
  S2-  S166  1  0.20998328  0.77711515  0.31762433  1
  S2-  S167  1  0.12017930  0.75721953  0.84230544  1
  S2-  S168  1  0.28880879  0.00993345  0.34740764  1
  S2-  S169  1  0.32522419  -0.02092566  0.84934177  1
  S2-  S170  1  0.37798015  0.25712324  0.35019042  1
  S2-  S171  1  0.37913376  0.32582460  0.85919090  1
  S2-  S172  1  0.30443952  0.46946568  0.32901596  1
  S2-  S173  1  0.24684507  0.50560440  0.85087923  1
  S2-  S174  1  0.38967572  0.66571851  0.35659949  1
  S2-  S175  1  0.38297670  0.74094411  0.85883687  1
  S2-  S176  1  0.72734954  -0.01959299  0.34793784  1
  S2-  S177  1  0.62329679  -0.04606280  0.84930724  1
  S2-  S178  1  0.61270251  0.16499104  0.35959550  1
  S2-  S179  1  0.58756054  0.21747683  0.84546732  1
  S2-  S180  1  0.53627140  0.50109433  0.36038826  1
  S2-  S181  1  0.52027122  0.49746248  0.86004798  1
  S2-  S182  1  0.64040107  0.73792925  0.34459611  1
  S2-  S183  1  0.65071585  0.72963142  0.83595690  1
  S2-  S184  1  0.91735355  -0.03980406  0.31390890  1
  S2-  S185  1  0.88250100  0.05931487  0.83514483  1
  S2-  S186  1  0.86809768  0.15547918  0.35093000  1
  S2-  S187  1  0.91679392  0.26412180  0.84370822  1
  S2-  S188  1  0.86000327  0.60082862  0.35563292  1
  S2-  S189  1  0.85884974  0.61982235  0.85353191  1
  S2-  S190  1  0.98256394  0.76124787  0.34368997  1
  S2-  S191  1  0.87768065  0.84458068  0.85850590  1
  S2-  S192  1  0.00080037  0.12917666  0.44810216  1
  S2-  S193  1  0.00017492  0.11078308  0.95278462  1
  S2-  S194  1  -0.00023917  0.37899213  0.45979169  1
  S2-  S195  1  -0.00023526  0.35564454  0.95493658  1
  S2-  S196  1  -0.00159181  0.62340947  0.45043447  1
  S2-  S197  1  0.00212449  0.60847763  0.95718640  1
  S2-  S198  1  0.00441509  0.88589682  0.43485581  1
  S2-  S199  1  0.00060298  0.86045451  0.95992180  1
  S2-  S200  1  0.25035563  0.13323055  0.44902743  1
  S2-  S201  1  0.24956606  0.11327367  0.95109366  1
  S2-  S202  1  0.25000430  0.38051613  0.45623061  1
  S2-  S203  1  0.24763533  0.35352097  0.95567245  1
  S2-  S204  1  0.25210076  0.62369463  0.44994479  1
  S2-  S205  1  0.24992651  0.61042713  0.95619859  1
  S2-  S206  1  0.24929614  0.87455176  0.44679364  1
  S2-  S207  1  0.24904570  0.86023756  0.96236560  1
  S2-  S208  1  0.49497074  0.13134288  0.45890238  1
  S2-  S209  1  0.49506341  0.11016843  0.95866003  1
  S2-  S210  1  0.50142215  0.37714965  0.45747175  1
  S2-  S211  1  0.49948202  0.35606414  0.96403341  1
  S2-  S212  1  0.50436706  0.62930215  0.46028237  1
  S2-  S213  1  0.49589299  0.60880674  0.96300297  1
  S2-  S214  1  0.49941921  0.87800628  0.45063393  1
  S2-  S215  1  0.49507871  0.86068442  0.96279775  1
  S2-  S216  1  0.74689653  0.13237969  0.45303725  1
  S2-  S217  1  0.74575417  0.11035706  0.94658407  1
  S2-  S218  1  0.74559922  0.37838007  0.45738159  1
  S2-  S219  1  0.74527641  0.35992779  0.94843891  1
  S2-  S220  1  0.74414544  0.62654075  0.45372371  1
  S2-  S221  1  0.73796696  0.60488473  0.94982632  1
  S2-  S222  1  0.75278867  0.87165336  0.44833586  1
  S2-  S223  1  0.74172896  0.85852045  0.95726390  1
  S2-  S224  1  0.11970517  -0.01493199  0.04626276  1
  S2-  S225  1  0.12349515  0.00477172  0.53061832  1
  S2-  S226  1  0.11945408  0.23475866  0.05135031  1
  S2-  S227  1  0.12245464  0.25024886  0.54149317  1
  S2-  S228  1  0.12521961  0.48080107  0.04163300  1
  S2-  S229  1  0.12243684  0.50456244  0.54227144  1
  S2-  S230  1  0.12220301  0.73398702  0.05104020  1
  S2-  S231  1  0.12231165  0.74770471  0.52950346  1
  S2-  S232  1  0.36754468  -0.01700895  0.05167243  1
  S2-  S233  1  0.37093056  0.00154416  0.54421049  1
  S2-  S234  1  0.37039189  0.23358345  0.04749235  1
  S2-  S235  1  0.37110901  0.25416103  0.55619568  1
  S2-  S236  1  0.36982442  0.48176853  0.04364843  1
  S2-  S237  1  0.37483138  0.50576109  0.54611654  1
  S2-  S238  1  0.36288297  0.73632542  0.05914932  1
  S2-  S239  1  0.37227702  0.75441163  0.54970028  1
  S2-  S240  1  0.62532573  -0.01716595  0.05062347  1
  S2-  S241  1  0.62422104  0.00197598  0.53931798  1
  S2-  S242  1  0.62801697  0.23344776  0.04809831  1
  S2-  S243  1  0.62523661  0.25284601  0.54908816  1
  S2-  S244  1  0.62191339  0.48153986  0.04477137  1
  S2-  S245  1  0.62671949  0.50273123  0.55148206  1
  S2-  S246  1  0.62316628  0.73246767  0.04415671  1
  S2-  S247  1  0.62412758  0.75429197  0.55097892  1
  S2-  S248  1  0.87289857  -0.01435408  0.03864774  1
  S2-  S249  1  0.87625917  0.00229794  0.53390103  1
  S2-  S250  1  0.87307660  0.23541491  0.04902994  1
  S2-  S251  1  0.87506389  0.24755951  0.54272628  1
  S2-  S252  1  0.87002113  0.48257807  0.03543003  1
  S2-  S253  1  0.87500908  0.50787729  0.54524316  1
  S2-  S254  1  0.86904198  0.72920117  0.04376088  1
  S2-  S255  1  0.87774627  0.75242559  0.53725275  1
