# generated using pymatgen
data_La9Ce10Pr6Nd4Sm3(BiS2)32
_symmetry_space_group_name_H-M   'P 1'
_cell_length_a   16.19227376
_cell_length_b   16.15487266
_cell_length_c   27.24567259
_cell_angle_alpha   89.96506253
_cell_angle_beta   90.04671238
_cell_angle_gamma   90.07582309
_symmetry_Int_Tables_number   1
_chemical_formula_structural   La9Ce10Pr6Nd4Sm3(BiS2)32
_chemical_formula_sum   'La18 Ce20 Pr12 Nd8 Sm6 Bi64 S128'
_cell_volume   7127.02537500
_cell_formula_units_Z   2
loop_
 _symmetry_equiv_pos_site_id
 _symmetry_equiv_pos_as_xyz
  1  'x, y, z'
loop_
 _atom_type_symbol
 _atom_type_oxidation_number
  La3+  3.0
  Ce3+  3.0
  Pr3+  3.0
  Nd3+  3.0
  Sm3+  3.0
  Bi2+  2.0
  S2-  -2.0
loop_
 _atom_site_type_symbol
 _atom_site_label
 _atom_site_symmetry_multiplicity
 _atom_site_fract_x
 _atom_site_fract_y
 _atom_site_fract_z
 _atom_site_occupancy
  La3+  La0  1  0.49795901  0.62612599  0.55697892  1
  La3+  La1  1  0.24506750  0.10721034  0.06574257  1
  La3+  La2  1  0.49351343  0.10487536  0.06256820  1
  La3+  La3  1  0.37964188  0.49742512  0.41862610  1
  La3+  La4  1  0.61296763  -0.00684507  0.92290786  1
  La3+  La5  1  0.87806682  0.49853669  0.44065607  1
  La3+  La6  1  0.74904787  0.36823369  0.10950836  1
  La3+  La7  1  0.49574263  0.37549019  0.56205896  1
  La3+  La8  1  0.24471635  0.85840596  0.06281680  1
  La3+  La9  1  0.88619496  0.24366836  0.89445734  1
  La3+  La10  1  0.37431262  0.00098359  0.44130017  1
  La3+  La11  1  0.74243009  0.11238917  0.06369014  1
  La3+  La12  1  0.61760555  0.75294253  0.43219425  1
  La3+  La13  1  -0.01364893  0.10371856  0.06913430  1
  La3+  La14  1  0.73818579  0.11801575  0.59946342  1
  La3+  La15  1  0.87631885  0.00209609  0.44368371  1
  La3+  La16  1  0.00380373  0.62610342  0.57417049  1
  La3+  La17  1  0.74812271  0.37677357  0.58424733  1
  Ce3+  Ce18  1  0.62803437  0.25076859  0.44557231  1
  Ce3+  Ce19  1  0.62120818  0.47780394  0.94208036  1
  Ce3+  Ce20  1  0.86011909  -0.01213893  0.92876051  1
  Ce3+  Ce21  1  -0.01587299  0.35753152  0.06242854  1
  Ce3+  Ce22  1  0.11411288  -0.01229350  0.93663241  1
  Ce3+  Ce23  1  0.00006187  0.87319128  0.56749962  1
  Ce3+  Ce24  1  0.25066132  0.62432062  0.54935964  1
  Ce3+  Ce25  1  0.86686538  0.73097553  0.93623868  1
  Ce3+  Ce26  1  0.74847847  0.62332098  0.56637421  1
  Ce3+  Ce27  1  0.62374746  0.23494052  0.94294479  1
  Ce3+  Ce28  1  -0.01167158  0.86099013  0.05135789  1
  Ce3+  Ce29  1  0.24802067  0.12415366  0.56209189  1
  Ce3+  Ce30  1  0.36762222  0.48114056  0.93247226  1
  Ce3+  Ce31  1  0.12143530  0.49673344  0.43605725  1
  Ce3+  Ce32  1  0.74858148  0.87515866  0.55928082  1
  Ce3+  Ce33  1  0.74103124  0.60847862  0.05910478  1
  Ce3+  Ce34  1  0.74102226  0.86356515  0.05804708  1
  Ce3+  Ce35  1  0.36274053  -0.02535875  0.92123675  1
  Ce3+  Ce36  1  0.24896243  0.87052180  0.55857052  1
  Ce3+  Ce37  1  0.49146540  0.86106835  0.05433165  1
  Pr3+  Pr38  1  0.37356032  0.24787912  0.43577564  1
  Pr3+  Pr39  1  0.87454349  0.24935189  0.45028856  1
  Pr3+  Pr40  1  0.24531288  0.35370920  0.07489657  1
  Pr3+  Pr41  1  -0.01211849  0.60843133  0.06902674  1
  Pr3+  Pr42  1  -0.00425861  0.12765062  0.58034951  1
  Pr3+  Pr43  1  0.87205550  0.74716410  0.44189752  1
  Pr3+  Pr44  1  0.36407416  0.72794904  0.92948279  1
  Pr3+  Pr45  1  0.87071457  0.48696886  0.93221117  1
  Pr3+  Pr46  1  0.49213591  0.36002922  0.06755325  1
  Pr3+  Pr47  1  0.49723391  0.87487208  0.56515571  1
  Pr3+  Pr48  1  0.36574479  0.74668941  0.41798901  1
  Pr3+  Pr49  1  0.36549770  0.23628032  0.93450545  1
  Nd3+  Nd50  1  0.24974795  0.37617481  0.55694993  1
  Nd3+  Nd51  1  0.11782265  0.48130235  0.95025574  1
  Nd3+  Nd52  1  0.23691544  0.61078599  0.07099718  1
  Nd3+  Nd53  1  0.49813051  0.12556595  0.56306646  1
  Nd3+  Nd54  1  0.11986081  0.74996450  0.43148712  1
  Nd3+  Nd55  1  0.61625162  0.73356507  0.94142642  1
  Nd3+  Nd56  1  0.63213362  0.50024462  0.43315220  1
  Nd3+  Nd57  1  0.00110044  0.37685680  0.58189811  1
  Sm3+  Sm58  1  0.11623049  0.23397667  0.94767497  1
  Sm3+  Sm59  1  0.11620009  0.73114506  0.94132839  1
  Sm3+  Sm60  1  0.12216510  0.24967573  0.44989602  1
  Sm3+  Sm61  1  0.62547666  0.00426939  0.44271145  1
  Sm3+  Sm62  1  0.49034601  0.60873772  0.05531411  1
  Sm3+  Sm63  1  0.12066690  0.00154338  0.44592247  1
  Bi2+  Bi64  1  0.00479089  0.09574728  0.30848949  1
  Bi2+  Bi65  1  0.02301780  0.03702517  0.78631565  1
  Bi2+  Bi66  1  -0.01120298  0.45858872  0.26489902  1
  Bi2+  Bi67  1  0.04619707  0.36071962  0.79252109  1
  Bi2+  Bi68  1  0.05517813  0.63847901  0.31047680  1
  Bi2+  Bi69  1  0.03334798  0.57653894  0.81551603  1
  Bi2+  Bi70  1  -0.02484163  0.85666023  0.22433255  1
  Bi2+  Bi71  1  -0.04420628  0.83792198  0.79415567  1
  Bi2+  Bi72  1  0.26359139  0.15964732  0.31063351  1
  Bi2+  Bi73  1  0.29060899  0.11060606  0.81552927  1
  Bi2+  Bi74  1  0.23286570  0.43843849  0.31995952  1
  Bi2+  Bi75  1  0.27743223  0.30003177  0.78085196  1
  Bi2+  Bi76  1  0.24591938  0.64191986  0.28405058  1
  Bi2+  Bi77  1  0.17998643  0.63569347  0.74728077  1
  Bi2+  Bi78  1  0.28605102  0.89621798  0.23466698  1
  Bi2+  Bi79  1  0.26081698  0.93844404  0.75252518  1
  Bi2+  Bi80  1  0.50263281  0.10774157  0.30865669  1
  Bi2+  Bi81  1  0.47388588  0.17653739  0.79648248  1
  Bi2+  Bi82  1  0.41481314  0.44044567  0.28429189  1
  Bi2+  Bi83  1  0.50108546  0.43954767  0.75786091  1
  Bi2+  Bi84  1  0.54434987  0.65165892  0.30522866  1
  Bi2+  Bi85  1  0.42926920  0.68949374  0.79414947  1
  Bi2+  Bi86  1  0.48101589  0.87083567  0.26111770  1
  Bi2+  Bi87  1  0.49247686  0.86801172  0.78819202  1
  Bi2+  Bi88  1  0.75269923  0.11923603  0.31402666  1
  Bi2+  Bi89  1  0.74595161  0.09989142  0.79330100  1
  Bi2+  Bi90  1  0.74084154  0.35859375  0.32437460  1
  Bi2+  Bi91  1  0.69261628  0.46642899  0.79012526  1
  Bi2+  Bi92  1  0.81836070  0.64304168  0.29700148  1
  Bi2+  Bi93  1  0.73384190  0.65634039  0.80473766  1
  Bi2+  Bi94  1  0.77936349  0.87335263  0.25544527  1
  Bi2+  Bi95  1  0.75474740  0.84905724  0.77706849  1
  Bi2+  Bi96  1  0.15284018  0.03312133  0.25256630  1
  Bi2+  Bi97  1  0.08002003  -0.00893479  0.67682280  1
  Bi2+  Bi98  1  0.11882327  0.30544964  0.26121341  1
  Bi2+  Bi99  1  0.13554694  0.16397922  0.72283046  1
  Bi2+  Bi100  1  0.16639636  0.47575683  0.20804973  1
  Bi2+  Bi101  1  0.15331045  0.42652761  0.69811758  1
  Bi2+  Bi102  1  0.13943266  0.75723728  0.20644874  1
  Bi2+  Bi103  1  0.11566248  0.81356651  0.72312124  1
  Bi2+  Bi104  1  0.38241324  0.05252636  0.19297418  1
  Bi2+  Bi105  1  0.39089285  0.06925445  0.71127896  1
  Bi2+  Bi106  1  0.31947401  0.27943809  0.21967835  1
  Bi2+  Bi107  1  0.41410679  0.26657356  0.69625783  1
  Bi2+  Bi108  1  0.35153789  0.53896322  0.19244117  1
  Bi2+  Bi109  1  0.31481250  0.49643435  0.74578052  1
  Bi2+  Bi110  1  0.43581174  0.74228267  0.18118310  1
  Bi2+  Bi111  1  0.37182817  0.74033948  0.68005887  1
  Bi2+  Bi112  1  0.62448226  -0.02494267  0.20852217  1
  Bi2+  Bi113  1  0.58972982  -0.01828487  0.71012907  1
  Bi2+  Bi114  1  0.60807118  0.23455558  0.21535027  1
  Bi2+  Bi115  1  0.63182952  0.29457030  0.73786049  1
  Bi2+  Bi116  1  0.62625312  0.50331964  0.21528780  1
  Bi2+  Bi117  1  0.62009608  0.61984887  0.70799695  1
  Bi2+  Bi118  1  0.63278634  0.76960032  0.20352358  1
  Bi2+  Bi119  1  0.73630284  0.76089239  0.67334787  1
  Bi2+  Bi120  1  0.88049388  0.02505437  0.19822173  1
  Bi2+  Bi121  1  0.88659759  -0.05345280  0.70413699  1
  Bi2+  Bi122  1  0.87491525  0.25687250  0.21595882  1
  Bi2+  Bi123  1  0.88707291  0.24281714  0.71345314  1
  Bi2+  Bi124  1  0.93133577  0.61221585  0.20244897  1
  Bi2+  Bi125  1  0.87390971  0.50849805  0.71179235  1
  Bi2+  Bi126  1  0.82533064  0.75982427  0.16381906  1
  Bi2+  Bi127  1  0.90359128  0.69519439  0.71671857  1
  S2-  S128  1  -0.02230434  0.16053121  0.16989065  1
  S2-  S129  1  0.03473116  0.24831588  0.65669540  1
  S2-  S130  1  -0.08386376  0.37690707  0.15227088  1
  S2-  S131  1  -0.12076232  0.37664946  0.65583310  1
  S2-  S132  1  0.09530263  0.61787651  0.14971937  1
  S2-  S133  1  0.02282632  0.51367015  0.65336908  1
  S2-  S134  1  -0.00485548  0.95318036  0.13526923  1
  S2-  S135  1  0.01378408  0.76035209  0.64294004  1
  S2-  S136  1  0.23461372  0.22027291  0.14729182  1
  S2-  S137  1  0.27336545  0.17083761  0.65550654  1
  S2-  S138  1  0.37226389  0.38280965  0.14442967  1
  S2-  S139  1  0.30413549  0.41636004  0.64842053  1
  S2-  S140  1  0.27164667  0.73725111  0.13947930  1
  S2-  S141  1  0.23568422  0.65781115  0.64487761  1
  S2-  S142  1  0.25373611  0.98042901  0.13955233  1
  S2-  S143  1  0.29003984  0.88588238  0.65326023  1
  S2-  S144  1  0.48842081  0.17829490  0.15933850  1
  S2-  S145  1  0.57637792  0.11076625  0.65226908  1
  S2-  S146  1  0.58874123  0.37084512  0.15577785  1
  S2-  S147  1  0.54313917  0.37142887  0.65928433  1
  S2-  S148  1  0.50923641  0.58769127  0.15425462  1
  S2-  S149  1  0.47303062  0.60662877  0.65622178  1
  S2-  S150  1  0.49519334  0.96647598  0.13396199  1
  S2-  S151  1  0.50992038  0.84435136  0.66459768  1
  S2-  S152  1  0.73647493  0.20452050  0.15818545  1
  S2-  S153  1  0.88101507  0.10489722  0.66057447  1
  S2-  S154  1  0.75087141  0.38670290  0.23156591  1
  S2-  S155  1  0.73188847  0.25661619  0.66461305  1
  S2-  S156  1  0.73703181  0.53785567  0.14841166  1
  S2-  S157  1  0.73303994  0.52474756  0.64852611  1
  S2-  S158  1  0.74183292  0.97962668  0.13453660  1
  S2-  S159  1  0.72996108  0.95147932  0.64779806  1
  S2-  S160  1  0.10109680  -0.02196241  0.34925400  1
  S2-  S161  1  0.16913945  -0.01850718  0.84316641  1
  S2-  S162  1  0.10197160  0.22729060  0.35272981  1
  S2-  S163  1  0.05852328  0.23266481  0.85407660  1
  S2-  S164  1  0.00251739  0.49145035  0.36398488  1
  S2-  S165  1  0.14390485  0.46909092  0.85118710  1
  S2-  S166  1  0.22784502  0.76636515  0.35332214  1
  S2-  S167  1  0.13000481  0.70472146  0.84405882  1
  S2-  S168  1  0.37411163  0.02530622  0.34116245  1
  S2-  S169  1  0.48370847  -0.00743909  0.85103470  1
  S2-  S170  1  0.40521718  0.24436122  0.33632278  1
  S2-  S171  1  0.35367133  0.36024071  0.86220393  1
  S2-  S172  1  0.38618676  0.61868222  0.34265663  1
  S2-  S173  1  0.35121152  0.59850864  0.85968098  1
  S2-  S174  1  0.49610957  0.79156895  0.35351682  1
  S2-  S175  1  0.35470038  0.83271889  0.84666905  1
  S2-  S176  1  0.62964540  0.00799252  0.34334054  1
  S2-  S177  1  0.73479263  -0.04268338  0.85297966  1
  S2-  S178  1  0.62245258  0.23109209  0.34487976  1
  S2-  S179  1  0.62042382  0.15381502  0.85471837  1
  S2-  S180  1  0.54767741  0.48292392  0.34318276  1
  S2-  S181  1  0.55766878  0.48486766  0.85107266  1
  S2-  S182  1  0.69458358  0.71328312  0.34259423  1
  S2-  S183  1  0.58528090  0.73945277  0.84220138  1
  S2-  S184  1  0.86352224  0.01144014  0.34267231  1
  S2-  S185  1  0.89358484  0.08416874  0.84633908  1
  S2-  S186  1  0.86461901  0.25059122  0.34662643  1
  S2-  S187  1  0.79296087  0.25208812  0.80277287  1
  S2-  S188  1  0.76823840  0.51048080  0.35965624  1
  S2-  S189  1  0.91772762  0.40585394  0.84424749  1
  S2-  S190  1  0.94227878  0.74408895  0.34915600  1
  S2-  S191  1  0.87870919  0.62386575  0.85958102  1
  S2-  S192  1  0.00175290  0.12577672  0.46518779  1
  S2-  S193  1  -0.00726783  0.11082952  0.95710633  1
  S2-  S194  1  0.00194444  0.36935625  0.46674305  1
  S2-  S195  1  -0.00733133  0.35662502  0.95828150  1
  S2-  S196  1  0.00104591  0.62791769  0.46288430  1
  S2-  S197  1  -0.00368937  0.60874589  0.96200632  1
  S2-  S198  1  0.00030608  0.87472434  0.45794924  1
  S2-  S199  1  -0.00811753  0.85761502  0.94396543  1
  S2-  S200  1  0.24498236  0.12476926  0.45484330  1
  S2-  S201  1  0.24060128  0.11084349  0.95372590  1
  S2-  S202  1  0.24856406  0.37126551  0.44998266  1
  S2-  S203  1  0.23779128  0.35602158  0.96600689  1
  S2-  S204  1  0.24473406  0.61832558  0.44548403  1
  S2-  S205  1  0.23476351  0.60947370  0.96358319  1
  S2-  S206  1  0.24528051  0.88088956  0.45289839  1
  S2-  S207  1  0.23428626  0.85568501  0.95323332  1
  S2-  S208  1  0.50102454  0.12613880  0.45586799  1
  S2-  S209  1  0.48773076  0.11510487  0.95449754  1
  S2-  S210  1  0.49890086  0.37255069  0.45207734  1
  S2-  S211  1  0.49549536  0.35715674  0.95842061  1
  S2-  S212  1  0.50040549  0.62211619  0.44949123  1
  S2-  S213  1  0.49678719  0.60709196  0.95320630  1
  S2-  S214  1  0.50055962  0.88338570  0.45791788  1
  S2-  S215  1  0.49195640  0.85531684  0.95058597  1
  S2-  S216  1  0.74862894  0.12361349  0.45497646  1
  S2-  S217  1  0.74898071  0.11639679  0.95411102  1
  S2-  S218  1  0.74968548  0.37345687  0.46294929  1
  S2-  S219  1  0.74845993  0.35621119  0.93356246  1
  S2-  S220  1  0.74801044  0.62764002  0.46127574  1
  S2-  S221  1  0.73946101  0.60838758  0.95332798  1
  S2-  S222  1  0.74775784  0.87711931  0.44957844  1
  S2-  S223  1  0.74369077  0.85184464  0.95336899  1
  S2-  S224  1  0.11724960  -0.01600200  0.04002606  1
  S2-  S225  1  0.12444088  -0.00026163  0.55090612  1
  S2-  S226  1  0.11058786  0.23280552  0.05107928  1
  S2-  S227  1  0.12752490  0.24998620  0.55244269  1
  S2-  S228  1  0.11602418  0.47954044  0.05615189  1
  S2-  S229  1  0.12800431  0.49832962  0.54366784  1
  S2-  S230  1  0.11143329  0.73688779  0.04597130  1
  S2-  S231  1  0.12760644  0.75064517  0.53870701  1
  S2-  S232  1  0.36748650  -0.01895442  0.03123120  1
  S2-  S233  1  0.37401715  0.00145965  0.55001403  1
  S2-  S234  1  0.36924125  0.23277513  0.04296142  1
  S2-  S235  1  0.37321687  0.24810049  0.54366619  1
  S2-  S236  1  0.36407115  0.49225820  0.04238486  1
  S2-  S237  1  0.37366791  0.49957014  0.53415972  1
  S2-  S238  1  0.37150448  0.73242340  0.03715361  1
  S2-  S239  1  0.37377772  0.75173822  0.53515705  1
  S2-  S240  1  0.61799862  -0.01847807  0.03201041  1
  S2-  S241  1  0.62130025  -0.00009969  0.54570055  1
  S2-  S242  1  0.61847666  0.23720589  0.04747297  1
  S2-  S243  1  0.62315953  0.24857361  0.55056729  1
  S2-  S244  1  0.61677598  0.48602382  0.04576045  1
  S2-  S245  1  0.62127751  0.49915802  0.54239536  1
  S2-  S246  1  0.61559911  0.73435874  0.04935358  1
  S2-  S247  1  0.62303883  0.75187005  0.54556518  1
  S2-  S248  1  0.86525951  -0.01874162  0.03452926  1
  S2-  S249  1  0.87579654  -0.00292830  0.55080176  1
  S2-  S250  1  0.86609005  0.23668870  0.05628546  1
  S2-  S251  1  0.86980116  0.24542306  0.55510070  1
  S2-  S252  1  0.86433667  0.48513311  0.04296683  1
  S2-  S253  1  0.87657761  0.50258640  0.54915499  1
  S2-  S254  1  0.86714567  0.73371171  0.04176008  1
  S2-  S255  1  0.87229352  0.75157042  0.54851239  1
