# generated using pymatgen
data_La9Ce10Pr6Nd4Sm3(BiS2)32
_symmetry_space_group_name_H-M   'P 1'
_cell_length_a   16.21251614
_cell_length_b   16.14880450
_cell_length_c   27.16820730
_cell_angle_alpha   89.87308741
_cell_angle_beta   89.94524210
_cell_angle_gamma   90.02424761
_symmetry_Int_Tables_number   1
_chemical_formula_structural   La9Ce10Pr6Nd4Sm3(BiS2)32
_chemical_formula_sum   'La18 Ce20 Pr12 Nd8 Sm6 Bi64 S128'
_cell_volume   7112.96182399
_cell_formula_units_Z   2
loop_
 _symmetry_equiv_pos_site_id
 _symmetry_equiv_pos_as_xyz
  1  'x, y, z'
loop_
 _atom_type_symbol
 _atom_type_oxidation_number
  La3+  3.0
  Ce3+  3.0
  Pr3+  3.0
  Nd3+  3.0
  Sm3+  3.0
  Bi2+  2.0
  S2-  -2.0
loop_
 _atom_site_type_symbol
 _atom_site_label
 _atom_site_symmetry_multiplicity
 _atom_site_fract_x
 _atom_site_fract_y
 _atom_site_fract_z
 _atom_site_occupancy
  La3+  La0  1  0.62412099  0.73489255  0.93731867  1
  La3+  La1  1  0.37337508  0.23196536  0.94260239  1
  La3+  La2  1  0.74501187  0.86273201  0.07476718  1
  La3+  La3  1  -0.00859978  0.60568855  0.08679454  1
  La3+  La4  1  0.01003493  0.12303876  0.57026832  1
  La3+  La5  1  0.37725238  0.24273137  0.42349137  1
  La3+  La6  1  0.38492249  0.50445876  0.40852622  1
  La3+  La7  1  0.63628300  0.50069385  0.42510556  1
  La3+  La8  1  0.87657414  0.75389467  0.39780853  1
  La3+  La9  1  0.00806933  0.37867526  0.56371091  1
  La3+  La10  1  0.11646250  -0.01735656  0.91778183  1
  La3+  La11  1  0.25474993  0.60961000  0.09487906  1
  La3+  La12  1  0.00268222  0.63249862  0.55721204  1
  La3+  La13  1  0.25308979  0.86812801  0.60178651  1
  La3+  La14  1  0.12313886  0.48706790  0.93784479  1
  La3+  La15  1  0.38111061  -0.02109706  0.90884479  1
  La3+  La16  1  0.87048947  -0.01520304  0.93850488  1
  La3+  La17  1  0.50127813  0.13614697  0.57737470  1
  Ce3+  Ce18  1  0.75576513  0.37217205  0.56391666  1
  Ce3+  Ce19  1  0.24567878  0.36394373  0.06476237  1
  Ce3+  Ce20  1  0.37079764  0.73641427  0.94113558  1
  Ce3+  Ce21  1  -0.00026714  0.36644224  0.05884304  1
  Ce3+  Ce22  1  0.62082550  0.49010136  0.93463399  1
  Ce3+  Ce23  1  0.26098157  0.38252574  0.54680083  1
  Ce3+  Ce24  1  0.13141119  0.50355004  0.43192226  1
  Ce3+  Ce25  1  0.13226349  0.75068112  0.43149926  1
  Ce3+  Ce26  1  0.87920861  0.00524151  0.43827047  1
  Ce3+  Ce27  1  0.25827557  0.12822874  0.56101755  1
  Ce3+  Ce28  1  0.38052191  0.00182716  0.44773314  1
  Ce3+  Ce29  1  0.24231460  0.10730250  0.05551324  1
  Ce3+  Ce30  1  0.12237364  0.23384527  0.93767492  1
  Ce3+  Ce31  1  0.75752093  0.88286844  0.57071839  1
  Ce3+  Ce32  1  0.13027577  0.25002160  0.44459186  1
  Ce3+  Ce33  1  0.12856571  -0.00196363  0.44065778  1
  Ce3+  Ce34  1  0.49770474  0.10627662  0.06832598  1
  Ce3+  Ce35  1  0.49315288  0.85989371  0.06007124  1
  Ce3+  Ce36  1  0.74327577  0.60764404  0.06863451  1
  Ce3+  Ce37  1  0.49547870  0.35598150  0.06268778  1
  Pr3+  Pr38  1  0.38226962  0.75308649  0.43247197  1
  Pr3+  Pr39  1  0.50307416  0.62490102  0.55305996  1
  Pr3+  Pr40  1  0.63666297  0.75632423  0.44367728  1
  Pr3+  Pr41  1  0.74564140  0.36170585  0.05692997  1
  Pr3+  Pr42  1  0.87340336  0.73366426  0.94986410  1
  Pr3+  Pr43  1  0.12117304  0.73277328  0.94519940  1
  Pr3+  Pr44  1  0.00226126  0.10969397  0.06613309  1
  Pr3+  Pr45  1  0.88195688  0.24892907  0.43782689  1
  Pr3+  Pr46  1  0.62162811  0.23159546  0.94550773  1
  Pr3+  Pr47  1  0.75853687  0.62146417  0.56530988  1
  Pr3+  Pr48  1  0.88338446  0.50084776  0.43191222  1
  Pr3+  Pr49  1  0.37246925  0.48577408  0.94201762  1
  Nd3+  Nd50  1  0.62877296  0.24776377  0.44155412  1
  Nd3+  Nd51  1  0.75599628  0.11403839  0.07222304  1
  Nd3+  Nd52  1  0.00353182  0.85947484  0.06447002  1
  Nd3+  Nd53  1  0.00782463  0.87404341  0.55277631  1
  Nd3+  Nd54  1  0.50183502  0.87435364  0.56417887  1
  Nd3+  Nd55  1  0.62442372  -0.01980523  0.93669245  1
  Nd3+  Nd56  1  0.50291956  0.38505912  0.55632265  1
  Nd3+  Nd57  1  0.87207370  0.48772763  0.94064836  1
  Sm3+  Sm58  1  0.49714789  0.60771620  0.06279561  1
  Sm3+  Sm59  1  0.25396861  0.61911135  0.55867268  1
  Sm3+  Sm60  1  0.75593402  0.12747899  0.57076412  1
  Sm3+  Sm61  1  0.63175050  0.00422740  0.45343663  1
  Sm3+  Sm62  1  0.87201431  0.23559966  0.94234461  1
  Sm3+  Sm63  1  0.24624288  0.86138847  0.05318631  1
  Bi2+  Bi64  1  0.02038483  0.20074406  0.31962550  1
  Bi2+  Bi65  1  -0.03727019  0.12678361  0.78642318  1
  Bi2+  Bi66  1  -0.08341468  0.36612630  0.32282949  1
  Bi2+  Bi67  1  0.08292612  0.38416884  0.80378794  1
  Bi2+  Bi68  1  -0.00980338  0.61745869  0.27765492  1
  Bi2+  Bi69  1  -0.02128111  0.62537872  0.80786145  1
  Bi2+  Bi70  1  -0.03535222  0.95971151  0.28341100  1
  Bi2+  Bi71  1  -0.02211936  0.84777448  0.79742632  1
  Bi2+  Bi72  1  0.27112960  0.05918164  0.28381964  1
  Bi2+  Bi73  1  0.22577518  0.14125613  0.79140875  1
  Bi2+  Bi74  1  0.21992825  0.33983959  0.27942086  1
  Bi2+  Bi75  1  0.27554970  0.38293942  0.78831202  1
  Bi2+  Bi76  1  0.22863357  0.62566769  0.29543385  1
  Bi2+  Bi77  1  0.31825382  0.64022952  0.73876826  1
  Bi2+  Bi78  1  0.35229590  0.88010478  0.29057375  1
  Bi2+  Bi79  1  0.25464136  0.79881003  0.78996400  1
  Bi2+  Bi80  1  0.51755907  0.16045646  0.30953930  1
  Bi2+  Bi81  1  0.47759549  0.14978282  0.79845221  1
  Bi2+  Bi82  1  0.55746678  0.40248178  0.25544262  1
  Bi2+  Bi83  1  0.53559259  0.38981764  0.79152809  1
  Bi2+  Bi84  1  0.50641002  0.63037433  0.27946869  1
  Bi2+  Bi85  1  0.48350962  0.58694460  0.79719325  1
  Bi2+  Bi86  1  0.52490022  0.80976201  0.32590121  1
  Bi2+  Bi87  1  0.53130326  0.86714917  0.79543119  1
  Bi2+  Bi88  1  0.76302395  0.16067411  0.28554071  1
  Bi2+  Bi89  1  0.72065318  0.13672126  0.78331700  1
  Bi2+  Bi90  1  0.73076675  0.42413090  0.30800746  1
  Bi2+  Bi91  1  0.73109189  0.40350398  0.78566193  1
  Bi2+  Bi92  1  0.72082905  0.62094143  0.28097787  1
  Bi2+  Bi93  1  0.74065931  0.60303328  0.78200222  1
  Bi2+  Bi94  1  0.69327446  0.90845616  0.30501591  1
  Bi2+  Bi95  1  0.77436672  0.96014335  0.81164519  1
  Bi2+  Bi96  1  0.09676651  0.08750431  0.23551756  1
  Bi2+  Bi97  1  0.10954773  -0.01853620  0.71672613  1
  Bi2+  Bi98  1  0.17215019  0.24859867  0.17733744  1
  Bi2+  Bi99  1  0.09535931  0.30876025  0.69533623  1
  Bi2+  Bi100  1  0.04530189  0.38261873  0.23027282  1
  Bi2+  Bi101  1  0.15536032  0.49338814  0.71577128  1
  Bi2+  Bi102  1  0.12634317  0.80908807  0.21437542  1
  Bi2+  Bi103  1  0.12505656  0.71805173  0.70258622  1
  Bi2+  Bi104  1  0.37835125  0.04692482  0.18803129  1
  Bi2+  Bi105  1  0.39204433  0.00058440  0.70847777  1
  Bi2+  Bi106  1  0.35220398  0.22981807  0.22151091  1
  Bi2+  Bi107  1  0.27882734  0.24599132  0.69203803  1
  Bi2+  Bi108  1  0.37050444  0.48853725  0.21103187  1
  Bi2+  Bi109  1  0.39441170  0.40789815  0.68902961  1
  Bi2+  Bi110  1  0.36431039  0.77472639  0.19510020  1
  Bi2+  Bi111  1  0.49171857  0.73163483  0.71210946  1
  Bi2+  Bi112  1  0.52322521  -0.03541588  0.24710472  1
  Bi2+  Bi113  1  0.64630519  -0.04064902  0.71787390  1
  Bi2+  Bi114  1  0.63618785  0.21923792  0.20536631  1
  Bi2+  Bi115  1  0.62125080  0.24932795  0.70813407  1
  Bi2+  Bi116  1  0.62613074  0.54463839  0.18033531  1
  Bi2+  Bi117  1  0.61291757  0.50640877  0.70791125  1
  Bi2+  Bi118  1  0.62058431  0.73708687  0.20646970  1
  Bi2+  Bi119  1  0.68586245  0.76270754  0.70784496  1
  Bi2+  Bi120  1  0.81198567  0.01801546  0.21248906  1
  Bi2+  Bi121  1  0.88752733  -0.03277063  0.71230179  1
  Bi2+  Bi122  1  0.90093343  0.24796067  0.21985783  1
  Bi2+  Bi123  1  0.84570845  0.26326104  0.73706582  1
  Bi2+  Bi124  1  0.80660020  0.47441819  0.20295860  1
  Bi2+  Bi125  1  0.86328382  0.51248001  0.70604710  1
  Bi2+  Bi126  1  0.88869878  0.76766908  0.20138861  1
  Bi2+  Bi127  1  0.87821699  0.77025213  0.70844230  1
  S2-  S128  1  -0.10938170  0.11991573  0.14622794  1
  S2-  S129  1  0.00515016  0.10480003  0.67133104  1
  S2-  S130  1  -0.00334143  0.45279695  0.14378861  1
  S2-  S131  1  -0.05077254  0.37797307  0.65891897  1
  S2-  S132  1  0.03227586  0.67799065  0.17821673  1
  S2-  S133  1  0.08673801  0.59555064  0.64456491  1
  S2-  S134  1  -0.00388403  0.88918171  0.16334248  1
  S2-  S135  1  0.08083031  0.86284652  0.64473329  1
  S2-  S136  1  0.13641276  0.08853338  0.13392020  1
  S2-  S137  1  0.26161168  0.08493695  0.65700269  1
  S2-  S138  1  0.24896278  0.45750006  0.14986626  1
  S2-  S139  1  0.27460555  0.47806367  0.62781578  1
  S2-  S140  1  0.22756323  0.67439892  0.19208447  1
  S2-  S141  1  0.26592422  0.70690423  0.64425737  1
  S2-  S142  1  0.23754420  0.87490214  0.15276805  1
  S2-  S143  1  0.24798309  0.89521943  0.70924612  1
  S2-  S144  1  0.48671563  0.18661902  0.15539140  1
  S2-  S145  1  0.52490206  0.07190560  0.67297026  1
  S2-  S146  1  0.49256584  0.40612105  0.15646759  1
  S2-  S147  1  0.49829555  0.28295189  0.64184793  1
  S2-  S148  1  0.41215404  0.62217642  0.14884505  1
  S2-  S149  1  0.49490863  0.51269525  0.63091041  1
  S2-  S150  1  0.51556330  0.85455162  0.15806012  1
  S2-  S151  1  0.42030924  0.86475550  0.65127061  1
  S2-  S152  1  0.67377794  0.07541051  0.15836824  1
  S2-  S153  1  0.75201883  0.24675535  0.64496807  1
  S2-  S154  1  0.75610048  0.32684416  0.15675387  1
  S2-  S155  1  0.74073770  0.48728777  0.63727847  1
  S2-  S156  1  0.83837227  0.62151039  0.15045779  1
  S2-  S157  1  0.88401183  0.63812741  0.64176234  1
  S2-  S158  1  0.74948111  0.85434171  0.17612955  1
  S2-  S159  1  0.76455585  1.00566400  0.64506863  1
  S2-  S160  1  0.08647044  -0.00956024  0.34427432  1
  S2-  S161  1  0.16151496  -0.00084781  0.81651518  1
  S2-  S162  1  0.18399048  0.22534804  0.35247758  1
  S2-  S163  1  0.08718397  0.21347379  0.84166233  1
  S2-  S164  1  0.10330401  0.52771529  0.33564795  1
  S2-  S165  1  0.10836823  0.55548010  0.84503238  1
  S2-  S166  1  0.15320933  0.75272032  0.33215335  1
  S2-  S167  1  0.11111162  0.78720632  0.84836220  1
  S2-  S168  1  0.38868913  0.08664883  0.36167348  1
  S2-  S169  1  0.35152903  0.03493525  0.81062458  1
  S2-  S170  1  0.42611196  0.28684892  0.32860331  1
  S2-  S171  1  0.35093337  0.24460000  0.84247451  1
  S2-  S172  1  0.31124531  0.46810389  0.31242960  1
  S2-  S173  1  0.34814672  0.51056972  0.84288481  1
  S2-  S174  1  0.36921535  0.65678911  0.34786327  1
  S2-  S175  1  0.38940370  0.81721448  0.85385427  1
  S2-  S176  1  0.62962161  0.03980483  0.35641137  1
  S2-  S177  1  0.53130163  0.01703075  0.85332592  1
  S2-  S178  1  0.65819036  0.26545026  0.34315944  1
  S2-  S179  1  0.58656281  0.24317810  0.84700484  1
  S2-  S180  1  0.52993106  0.49746233  0.34376847  1
  S2-  S181  1  0.62837428  0.61020014  0.86080580  1
  S2-  S182  1  0.71554158  0.74636848  0.35221181  1
  S2-  S183  1  0.65534418  0.85080941  0.86181414  1
  S2-  S184  1  0.84426433  -0.08265753  0.35534063  1
  S2-  S185  1  0.96884911  0.00119602  0.85564094  1
  S2-  S186  1  0.87173371  0.12889626  0.36333819  1
  S2-  S187  1  0.85726699  0.22272555  0.84409543  1
  S2-  S188  1  0.88028252  0.59559757  0.34536328  1
  S2-  S189  1  0.88230708  0.50491828  0.84077844  1
  S2-  S190  1  0.94682822  0.77432267  0.29846477  1
  S2-  S191  1  0.86875727  0.74196779  0.84888585  1
  S2-  S192  1  0.00982332  0.12531864  0.46133919  1
  S2-  S193  1  -0.00496880  0.11571280  0.95789755  1
  S2-  S194  1  0.00836184  0.37543159  0.45283428  1
  S2-  S195  1  -0.00560581  0.36049537  0.95022937  1
  S2-  S196  1  0.00442887  0.63208875  0.44765154  1
  S2-  S197  1  -0.00439776  0.60938435  0.96344816  1
  S2-  S198  1  0.00229034  0.87152111  0.44711886  1
  S2-  S199  1  -0.00334380  0.85882465  0.95719919  1
  S2-  S200  1  0.25156557  0.12178129  0.45709566  1
  S2-  S201  1  0.24847384  0.10419176  0.94525902  1
  S2-  S202  1  0.25542923  0.37717729  0.44067051  1
  S2-  S203  1  0.24686748  0.36001785  0.95335840  1
  S2-  S204  1  0.25336011  0.62626070  0.44962031  1
  S2-  S205  1  0.24896302  0.61241062  0.95250221  1
  S2-  S206  1  0.25723841  0.87856717  0.43850167  1
  S2-  S207  1  0.24740225  0.86315133  0.94809982  1
  S2-  S208  1  0.50693985  0.12611848  0.46489596  1
  S2-  S209  1  0.49591919  0.10682957  0.96019857  1
  S2-  S210  1  0.50688891  0.37341463  0.44830707  1
  S2-  S211  1  0.49871055  0.36134795  0.95387303  1
  S2-  S212  1  0.51260391  0.63161076  0.44725047  1
  S2-  S213  1  0.49379197  0.61198393  0.95829588  1
  S2-  S214  1  0.50766139  0.88000089  0.45740447  1
  S2-  S215  1  0.49658774  0.86075361  0.95668256  1
  S2-  S216  1  0.75300224  0.12727162  0.46571258  1
  S2-  S217  1  0.74848224  0.11080298  0.95616743  1
  S2-  S218  1  0.75769734  0.37309103  0.45297549  1
  S2-  S219  1  0.74665024  0.36093468  0.94787679  1
  S2-  S220  1  0.75948766  0.62740630  0.45515080  1
  S2-  S221  1  0.74913592  0.60895626  0.96144074  1
  S2-  S222  1  0.75266733  0.88346933  0.46438311  1
  S2-  S223  1  0.75068997  0.85993853  0.96632840  1
  S2-  S224  1  0.12199474  -0.01981922  0.03241007  1
  S2-  S225  1  0.13686406  -0.00208562  0.54855536  1
  S2-  S226  1  0.12230394  0.24076629  0.04195262  1
  S2-  S227  1  0.13483175  0.25305931  0.55172806  1
  S2-  S228  1  0.12686229  0.49118023  0.04664393  1
  S2-  S229  1  0.12977323  0.50059264  0.53597967  1
  S2-  S230  1  0.12660600  0.73251539  0.05388506  1
  S2-  S231  1  0.13662331  0.75220663  0.53898236  1
  S2-  S232  1  0.36882696  -0.01532788  0.04894784  1
  S2-  S233  1  0.37869574  -0.00057875  0.55249538  1
  S2-  S234  1  0.36738811  0.23433663  0.05109700  1
  S2-  S235  1  0.37736272  0.25438653  0.53794605  1
  S2-  S236  1  0.37441724  0.48483464  0.04755097  1
  S2-  S237  1  0.38124165  0.50551392  0.52225294  1
  S2-  S238  1  0.36827273  0.73537551  0.04689970  1
  S2-  S239  1  0.37870053  0.75048764  0.53996739  1
  S2-  S240  1  0.62221173  -0.01562663  0.04704350  1
  S2-  S241  1  0.62334487  0.00334239  0.55649654  1
  S2-  S242  1  0.62415594  0.23226280  0.05126614  1
  S2-  S243  1  0.62999121  0.25277213  0.54601563  1
  S2-  S244  1  0.61838482  0.48456949  0.04317090  1
  S2-  S245  1  0.63131448  0.50193080  0.53284437  1
  S2-  S246  1  0.61969111  0.73335807  0.05164498  1
  S2-  S247  1  0.63077441  0.75136017  0.55363926  1
  S2-  S248  1  0.87474567  -0.01648758  0.04931820  1
  S2-  S249  1  0.88549948  0.00203844  0.54693931  1
  S2-  S250  1  0.87523083  0.24146203  0.04610959  1
  S2-  S251  1  0.88532284  0.24712232  0.54670846  1
  S2-  S252  1  0.86842921  0.48498978  0.04595421  1
  S2-  S253  1  0.88332213  0.49832810  0.53889294  1
  S2-  S254  1  0.87354480  0.73939551  0.05550674  1
  S2-  S255  1  0.87616559  0.76045672  0.54710955  1
