# generated using pymatgen
data_La9Ce10Pr6Nd4Sm3(BiS2)32
_symmetry_space_group_name_H-M   'P 1'
_cell_length_a   16.23498871
_cell_length_b   16.26103133
_cell_length_c   27.06880329
_cell_angle_alpha   89.94517846
_cell_angle_beta   89.97920707
_cell_angle_gamma   89.95093211
_symmetry_Int_Tables_number   1
_chemical_formula_structural   La9Ce10Pr6Nd4Sm3(BiS2)32
_chemical_formula_sum   'La18 Ce20 Pr12 Nd8 Sm6 Bi64 S128'
_cell_volume   7146.09437170
_cell_formula_units_Z   2
loop_
 _symmetry_equiv_pos_site_id
 _symmetry_equiv_pos_as_xyz
  1  'x, y, z'
loop_
 _atom_type_symbol
 _atom_type_oxidation_number
  La3+  3.0
  Ce3+  3.0
  Pr3+  3.0
  Nd3+  3.0
  Sm3+  3.0
  Bi2+  2.0
  S2-  -2.0
loop_
 _atom_site_type_symbol
 _atom_site_label
 _atom_site_symmetry_multiplicity
 _atom_site_fract_x
 _atom_site_fract_y
 _atom_site_fract_z
 _atom_site_occupancy
  La3+  La0  1  0.12801831  0.26316816  0.40876155  1
  La3+  La1  1  0.62426668  0.49126852  0.91611389  1
  La3+  La2  1  0.75042749  0.88882115  0.57680391  1
  La3+  La3  1  0.85986138  0.24816084  0.39694644  1
  La3+  La4  1  0.87845476  0.25407803  0.94835700  1
  La3+  La5  1  0.49995530  0.62280898  0.06043454  1
  La3+  La6  1  0.36858421  0.50133058  0.93758382  1
  La3+  La7  1  0.75398840  0.63696402  0.57559730  1
  La3+  La8  1  0.00846253  0.37554001  0.07960133  1
  La3+  La9  1  0.74304062  0.87206132  0.06343362  1
  La3+  La10  1  -0.00196202  0.11894545  0.07154549  1
  La3+  La11  1  -0.00874096  0.87209372  0.07193011  1
  La3+  La12  1  0.62959944  0.00559647  0.92921937  1
  La3+  La13  1  0.13138535  0.25023948  0.90259812  1
  La3+  La14  1  0.24854135  0.12599310  0.07295196  1
  La3+  La15  1  0.73793207  0.38355519  0.07773544  1
  La3+  La16  1  0.61193573  0.75759449  0.91625216  1
  La3+  La17  1  0.12190705  0.75584504  0.93507719  1
  Ce3+  Ce18  1  0.37492023  0.00270793  0.44459993  1
  Ce3+  Ce19  1  0.24648724  0.37491766  0.55549048  1
  Ce3+  Ce20  1  0.50036724  0.37707662  0.55373011  1
  Ce3+  Ce21  1  0.74510629  0.62328881  0.04479530  1
  Ce3+  Ce22  1  0.12236963  0.00486212  0.94301803  1
  Ce3+  Ce23  1  0.12567405  0.75362725  0.44372393  1
  Ce3+  Ce24  1  0.87428623  0.49769480  0.44232264  1
  Ce3+  Ce25  1  0.62552908  0.25408045  0.94687073  1
  Ce3+  Ce26  1  0.75240417  0.12759675  0.56137532  1
  Ce3+  Ce27  1  0.86935670  0.75147258  0.93614831  1
  Ce3+  Ce28  1  0.87028439  -0.00193842  0.43041590  1
  Ce3+  Ce29  1  -0.00204866  0.62925918  0.55597799  1
  Ce3+  Ce30  1  -0.00228946  0.13187763  0.54229477  1
  Ce3+  Ce31  1  0.37683712  0.50376447  0.44653009  1
  Ce3+  Ce32  1  0.37456969  0.25134984  0.43439433  1
  Ce3+  Ce33  1  0.62566962  0.75360039  0.45098025  1
  Ce3+  Ce34  1  0.49831460  0.62633981  0.56704674  1
  Ce3+  Ce35  1  0.49718796  0.37685993  0.05658295  1
  Ce3+  Ce36  1  0.62549614  0.00147498  0.44673065  1
  Ce3+  Ce37  1  0.12496588  0.00321714  0.43036227  1
  Pr3+  Pr38  1  0.49700325  0.13135151  0.55880190  1
  Pr3+  Pr39  1  0.12343942  0.50207072  0.93912200  1
  Pr3+  Pr40  1  0.24659142  0.62462777  0.55882165  1
  Pr3+  Pr41  1  0.75017113  0.37872314  0.56822505  1
  Pr3+  Pr42  1  0.37161131  0.00419992  0.94789542  1
  Pr3+  Pr43  1  0.87286650  0.75133402  0.43051954  1
  Pr3+  Pr44  1  0.49331265  0.87893450  0.57156967  1
  Pr3+  Pr45  1  0.37419225  0.75228300  0.94568515  1
  Pr3+  Pr46  1  0.62744638  0.50338550  0.44274409  1
  Pr3+  Pr47  1  0.00166676  0.37378065  0.56308594  1
  Pr3+  Pr48  1  0.87635429  0.49485613  0.94331955  1
  Pr3+  Pr49  1  0.23752963  0.62646220  0.06831877  1
  Nd3+  Nd50  1  0.50141918  0.87659713  0.06617202  1
  Nd3+  Nd51  1  0.37525427  0.75331123  0.44118923  1
  Nd3+  Nd52  1  0.24342161  0.13062496  0.55367945  1
  Nd3+  Nd53  1  0.24853961  0.87462451  0.06165323  1
  Nd3+  Nd54  1  0.12342704  0.50259332  0.43794976  1
  Nd3+  Nd55  1  0.74651409  0.12637373  0.06513246  1
  Nd3+  Nd56  1  0.24814334  0.87835545  0.56455175  1
  Nd3+  Nd57  1  0.87487315  0.00135832  0.93790242  1
  Sm3+  Sm58  1  0.62488199  0.25194206  0.44184573  1
  Sm3+  Sm59  1  -0.00223681  0.62379409  0.05335045  1
  Sm3+  Sm60  1  0.24743605  0.37356334  0.05765608  1
  Sm3+  Sm61  1  0.37009921  0.24898130  0.94557093  1
  Sm3+  Sm62  1  -0.00208269  0.88008718  0.55063483  1
  Sm3+  Sm63  1  0.49922624  0.12645806  0.05284573  1
  Bi2+  Bi64  1  -0.01267940  0.09862380  0.29074372  1
  Bi2+  Bi65  1  -0.01343972  0.07667167  0.78983846  1
  Bi2+  Bi66  1  0.00063002  0.37695090  0.28987172  1
  Bi2+  Bi67  1  0.00291413  0.40772008  0.79644401  1
  Bi2+  Bi68  1  -0.06057698  0.62583491  0.31845616  1
  Bi2+  Bi69  1  0.03005583  0.64532072  0.74539769  1
  Bi2+  Bi70  1  -0.00820683  0.81280401  0.29988131  1
  Bi2+  Bi71  1  -0.00450512  0.89166932  0.81717745  1
  Bi2+  Bi72  1  0.34246730  0.10779597  0.28017050  1
  Bi2+  Bi73  1  0.26513851  0.11041917  0.79453353  1
  Bi2+  Bi74  1  0.29035920  0.35329002  0.27218323  1
  Bi2+  Bi75  1  0.25852998  0.36154382  0.78298620  1
  Bi2+  Bi76  1  0.24340430  0.59000700  0.28629980  1
  Bi2+  Bi77  1  0.27070185  0.58926779  0.81129553  1
  Bi2+  Bi78  1  0.27117039  0.85462621  0.29952178  1
  Bi2+  Bi79  1  0.18491289  0.85744254  0.80641346  1
  Bi2+  Bi80  1  0.50516459  0.18666907  0.31825480  1
  Bi2+  Bi81  1  0.51950985  0.15383024  0.79492413  1
  Bi2+  Bi82  1  0.49049706  0.36812171  0.27467005  1
  Bi2+  Bi83  1  0.49068578  0.34020498  0.75946185  1
  Bi2+  Bi84  1  0.49535790  0.62520945  0.31312829  1
  Bi2+  Bi85  1  0.44777873  0.62806270  0.77343965  1
  Bi2+  Bi86  1  0.53993542  0.87615644  0.28997394  1
  Bi2+  Bi87  1  0.45064476  0.88219249  0.78941989  1
  Bi2+  Bi88  1  0.69475812  0.11032858  0.28971656  1
  Bi2+  Bi89  1  0.71656898  0.14638286  0.78196595  1
  Bi2+  Bi90  1  0.72877533  0.40396819  0.29219531  1
  Bi2+  Bi91  1  0.77084317  0.38045969  0.80592502  1
  Bi2+  Bi92  1  0.75213144  0.66764135  0.30704929  1
  Bi2+  Bi93  1  0.78041727  0.62482986  0.79340128  1
  Bi2+  Bi94  1  0.77076248  0.85232424  0.26646163  1
  Bi2+  Bi95  1  0.74519804  0.88197208  0.80927929  1
  Bi2+  Bi96  1  0.15198209  -0.03086093  0.22324212  1
  Bi2+  Bi97  1  0.13167600  -0.00191165  0.72076323  1
  Bi2+  Bi98  1  0.12503679  0.25012540  0.20075299  1
  Bi2+  Bi99  1  0.10396662  0.24903633  0.69196815  1
  Bi2+  Bi100  1  0.12026255  0.50905011  0.21675787  1
  Bi2+  Bi101  1  0.16566859  0.52829220  0.70534180  1
  Bi2+  Bi102  1  0.10729766  0.70134600  0.23157210  1
  Bi2+  Bi103  1  0.10869762  0.80974988  0.69969661  1
  Bi2+  Bi104  1  0.41316502  -0.06409760  0.21012604  1
  Bi2+  Bi105  1  0.32758664  -0.02245460  0.71744122  1
  Bi2+  Bi106  1  0.39500980  0.23737056  0.20081318  1
  Bi2+  Bi107  1  0.36840588  0.20833862  0.71212919  1
  Bi2+  Bi108  1  0.37422725  0.49781086  0.21711874  1
  Bi2+  Bi109  1  0.35496632  0.48120411  0.71650353  1
  Bi2+  Bi110  1  0.34683222  0.75541260  0.21545374  1
  Bi2+  Bi111  1  0.32122566  0.76298032  0.72586803  1
  Bi2+  Bi112  1  0.59497421  0.00484155  0.20839078  1
  Bi2+  Bi113  1  0.59502474  0.02329656  0.72221882  1
  Bi2+  Bi114  1  0.60371477  0.23083136  0.21814117  1
  Bi2+  Bi115  1  0.62896165  0.24530423  0.69650398  1
  Bi2+  Bi116  1  0.63017687  0.53003283  0.19819583  1
  Bi2+  Bi117  1  0.62113797  0.49093588  0.70560632  1
  Bi2+  Bi118  1  0.63156993  0.74387003  0.20978423  1
  Bi2+  Bi119  1  0.62778652  0.75457146  0.71186568  1
  Bi2+  Bi120  1  0.88503875  -0.01898649  0.21095146  1
  Bi2+  Bi121  1  0.85375111  -0.02926958  0.72484966  1
  Bi2+  Bi122  1  0.85724335  0.24189586  0.19400884  1
  Bi2+  Bi123  1  0.87422689  0.16257871  0.70988911  1
  Bi2+  Bi124  1  0.84148996  0.54042602  0.22808891  1
  Bi2+  Bi125  1  0.88036598  0.47812948  0.69776028  1
  Bi2+  Bi126  1  0.89796334  0.72580153  0.20829439  1
  Bi2+  Bi127  1  0.89645027  0.77550592  0.71134629  1
  S2-  S128  1  0.00126692  0.15919450  0.17059445  1
  S2-  S129  1  0.00504269  0.13921318  0.64197145  1
  S2-  S130  1  -0.01270249  0.35823543  0.18128913  1
  S2-  S131  1  -0.02443126  0.36406835  0.66517116  1
  S2-  S132  1  0.08030113  0.61785748  0.13972940  1
  S2-  S133  1  -0.04438889  0.61908688  0.65059234  1
  S2-  S134  1  0.03290846  0.95929291  0.15833938  1
  S2-  S135  1  -0.03209389  0.89037698  0.64761524  1
  S2-  S136  1  0.21504999  0.10909787  0.17242178  1
  S2-  S137  1  0.23557678  0.16200357  0.65255004  1
  S2-  S138  1  0.18316607  0.38865997  0.14837672  1
  S2-  S139  1  0.18049204  0.37731671  0.64568496  1
  S2-  S140  1  0.30963409  0.61944718  0.15922577  1
  S2-  S141  1  0.25137669  0.65700764  0.65748060  1
  S2-  S142  1  0.23072571  0.85717097  0.16055060  1
  S2-  S143  1  0.36001314  0.87075117  0.64226743  1
  S2-  S144  1  0.50812446  0.12823064  0.15097089  1
  S2-  S145  1  0.49684791  0.11758083  0.65932281  1
  S2-  S146  1  0.58038858  0.41345288  0.13783246  1
  S2-  S147  1  0.52144386  0.37346516  0.65099430  1
  S2-  S148  1  0.52252664  0.64551765  0.16069066  1
  S2-  S149  1  0.53259049  0.62959711  0.66487119  1
  S2-  S150  1  0.62126176  0.87088871  0.13857383  1
  S2-  S151  1  0.58117749  0.88224128  0.66228110  1
  S2-  S152  1  0.78279377  0.09263437  0.16113253  1
  S2-  S153  1  0.76166299  0.02843017  0.64160185  1
  S2-  S154  1  0.77940168  0.39046738  0.17744264  1
  S2-  S155  1  0.74473216  0.37124908  0.67122840  1
  S2-  S156  1  0.73682437  0.62776299  0.14251728  1
  S2-  S157  1  0.74214210  0.57765781  0.67335773  1
  S2-  S158  1  0.85545065  0.85835407  0.14205376  1
  S2-  S159  1  0.76177508  0.76905779  0.64929485  1
  S2-  S160  1  0.11210326  0.00001329  0.32965512  1
  S2-  S161  1  0.12632549  0.09167735  0.85784316  1
  S2-  S162  1  0.08568166  0.22465592  0.30843124  1
  S2-  S163  1  0.09968782  0.28026240  0.79762608  1
  S2-  S164  1  0.11713185  0.42078685  0.35064890  1
  S2-  S165  1  0.14719152  0.46439355  0.84216206  1
  S2-  S166  1  0.15002147  0.76393684  0.34707675  1
  S2-  S167  1  0.14356770  0.69495311  0.84124216  1
  S2-  S168  1  0.35920577  -0.01674553  0.34758533  1
  S2-  S169  1  0.36862626  0.00295405  0.84708206  1
  S2-  S170  1  0.28297819  0.24590227  0.35084403  1
  S2-  S171  1  0.29444980  0.25488802  0.85731965  1
  S2-  S172  1  0.37284318  0.52372035  0.34927392  1
  S2-  S173  1  0.43003334  0.50597535  0.84316533  1
  S2-  S174  1  0.39140227  0.74122008  0.34100832  1
  S2-  S175  1  0.44148312  0.75278006  0.85286375  1
  S2-  S176  1  0.62354605  -0.01298249  0.34819309  1
  S2-  S177  1  0.59252298  -0.09439945  0.85016126  1
  S2-  S178  1  0.69915450  0.27194997  0.35329225  1
  S2-  S179  1  0.64916129  0.33506000  0.86224592  1
  S2-  S180  1  0.61957222  0.50456334  0.34084784  1
  S2-  S181  1  0.66282667  0.51913631  0.81370085  1
  S2-  S182  1  0.60746905  0.74006114  0.35303331  1
  S2-  S183  1  0.65680456  0.72205300  0.81717818  1
  S2-  S184  1  0.84182024  0.08656748  0.34780278  1
  S2-  S185  1  0.77046541  0.02324173  0.85753986  1
  S2-  S186  1  0.88860230  0.24388867  0.28907992  1
  S2-  S187  1  0.89899727  0.29623564  0.84998775  1
  S2-  S188  1  0.86583078  0.41571708  0.35505296  1
  S2-  S189  1  0.88599353  0.51354444  0.84202044  1
  S2-  S190  1  0.85769004  0.87302024  0.35762082  1
  S2-  S191  1  0.87401986  0.76138921  0.83751941  1
  S2-  S192  1  -0.00052608  0.13302216  0.43620663  1
  S2-  S193  1  -0.00172842  0.12653355  0.95831019  1
  S2-  S194  1  -0.00211853  0.37565046  0.45367659  1
  S2-  S195  1  0.00781696  0.37290604  0.95944584  1
  S2-  S196  1  0.00045667  0.62756654  0.44949142  1
  S2-  S197  1  -0.00210023  0.62625345  0.94824457  1
  S2-  S198  1  0.00365912  0.87772565  0.44681677  1
  S2-  S199  1  -0.00466971  0.87762903  0.95753555  1
  S2-  S200  1  0.24732615  0.12481468  0.44761888  1
  S2-  S201  1  0.24706520  0.12899715  0.96262125  1
  S2-  S202  1  0.25257992  0.38159633  0.45066705  1
  S2-  S203  1  0.24518467  0.37208906  0.95412943  1
  S2-  S204  1  0.24926178  0.62705185  0.45071261  1
  S2-  S205  1  0.24770522  0.62863389  0.95859208  1
  S2-  S206  1  0.25035767  0.87763929  0.45723646  1
  S2-  S207  1  0.24920103  0.87758868  0.95418038  1
  S2-  S208  1  0.50039644  0.12837192  0.45174746  1
  S2-  S209  1  0.49766073  0.12963318  0.94757315  1
  S2-  S210  1  0.50161648  0.37594288  0.44629973  1
  S2-  S211  1  0.49260166  0.37197374  0.95025680  1
  S2-  S212  1  0.49939434  0.62816283  0.45887666  1
  S2-  S213  1  0.49978853  0.62264306  0.94991396  1
  S2-  S214  1  0.49730687  0.87700734  0.45925467  1
  S2-  S215  1  0.49566152  0.88048741  0.96064086  1
  S2-  S216  1  0.74617072  0.12938386  0.45538099  1
  S2-  S217  1  0.75071565  0.13262940  0.95853741  1
  S2-  S218  1  0.74751417  0.37561513  0.46017818  1
  S2-  S219  1  0.75196876  0.37656143  0.96589537  1
  S2-  S220  1  0.75150213  0.62783796  0.45870066  1
  S2-  S221  1  0.74729498  0.62160860  0.93945755  1
  S2-  S222  1  0.74577192  0.87721941  0.46317680  1
  S2-  S223  1  0.74883981  0.87404506  0.95312731  1
  S2-  S224  1  0.12619368  -0.00217774  0.04945119  1
  S2-  S225  1  0.12440870  0.00102283  0.54240966  1
  S2-  S226  1  0.12457302  0.24789217  0.05687757  1
  S2-  S227  1  0.12381830  0.25388577  0.53335987  1
  S2-  S228  1  0.12428988  0.49849106  0.04419486  1
  S2-  S229  1  0.12086251  0.50311098  0.54455950  1
  S2-  S230  1  0.12039025  0.75454319  0.04544140  1
  S2-  S231  1  0.12297673  0.75592583  0.55065966  1
  S2-  S232  1  0.37608469  0.00080741  0.05631891  1
  S2-  S233  1  0.36995229  0.00829785  0.55004232  1
  S2-  S234  1  0.37385534  0.25103197  0.05091103  1
  S2-  S235  1  0.37165802  0.25356990  0.54406274  1
  S2-  S236  1  0.36894846  0.49838952  0.04801354  1
  S2-  S237  1  0.37310501  0.50082232  0.55442418  1
  S2-  S238  1  0.37491403  0.75262606  0.05326293  1
  S2-  S239  1  0.37265374  0.74776304  0.54731961  1
  S2-  S240  1  0.62175248  0.00733908  0.04102487  1
  S2-  S241  1  0.61728506  0.00531976  0.55082599  1
  S2-  S242  1  0.62105888  0.24948379  0.05251763  1
  S2-  S243  1  0.62575274  0.25257167  0.54758770  1
  S2-  S244  1  0.62129724  0.50184212  0.03103255  1
  S2-  S245  1  0.62618370  0.50473695  0.55117161  1
  S2-  S246  1  0.62057392  0.74743180  0.03441836  1
  S2-  S247  1  0.61948126  0.75363657  0.55491435  1
  S2-  S248  1  0.86925405  0.00224367  0.04449196  1
  S2-  S249  1  0.87878566  0.00461215  0.53790543  1
  S2-  S250  1  0.87322551  0.25390714  0.05866948  1
  S2-  S251  1  0.87208338  0.25280071  0.55302548  1
  S2-  S252  1  0.87798123  0.49957802  0.05336009  1
  S2-  S253  1  0.87474260  0.50198735  0.54930424  1
  S2-  S254  1  0.87343076  0.74164430  0.04224587  1
  S2-  S255  1  0.87842463  0.75688501  0.54005841  1
