# generated using pymatgen
data_La9Ce10Pr6Nd4Sm3(BiS2)32
_symmetry_space_group_name_H-M   'P 1'
_cell_length_a   16.19251493
_cell_length_b   16.20324097
_cell_length_c   27.17973448
_cell_angle_alpha   90.34806188
_cell_angle_beta   90.03249122
_cell_angle_gamma   89.91288540
_symmetry_Int_Tables_number   1
_chemical_formula_structural   La9Ce10Pr6Nd4Sm3(BiS2)32
_chemical_formula_sum   'La18 Ce20 Pr12 Nd8 Sm6 Bi64 S128'
_cell_volume   7131.03919555
_cell_formula_units_Z   2
loop_
 _symmetry_equiv_pos_site_id
 _symmetry_equiv_pos_as_xyz
  1  'x, y, z'
loop_
 _atom_type_symbol
 _atom_type_oxidation_number
  La3+  3.0
  Ce3+  3.0
  Pr3+  3.0
  Nd3+  3.0
  Sm3+  3.0
  Bi2+  2.0
  S2-  -2.0
loop_
 _atom_site_type_symbol
 _atom_site_label
 _atom_site_symmetry_multiplicity
 _atom_site_fract_x
 _atom_site_fract_y
 _atom_site_fract_z
 _atom_site_occupancy
  La3+  La0  1  0.01408521  0.86049751  0.06941289  1
  La3+  La1  1  0.12318780  0.73205273  0.91445383  1
  La3+  La2  1  0.63413049  0.48486641  0.92375561  1
  La3+  La3  1  0.23628936  0.12950688  0.59279085  1
  La3+  La4  1  0.50717413  0.86880079  0.06450077  1
  La3+  La5  1  0.12979841  -0.01917533  0.90084441  1
  La3+  La6  1  0.85892977  0.23820933  0.41833628  1
  La3+  La7  1  0.50885891  0.36822649  0.06234587  1
  La3+  La8  1  0.49412808  0.37601350  0.56911315  1
  La3+  La9  1  0.62708576  0.74097493  0.93211453  1
  La3+  La10  1  0.11196073  0.24951025  0.43342872  1
  La3+  La11  1  0.50726271  0.11790642  0.04969412  1
  La3+  La12  1  0.63347639  -0.01492555  0.91860354  1
  La3+  La13  1  0.24764263  0.63288744  0.11208885  1
  La3+  La14  1  0.23929525  0.37863213  0.56584698  1
  La3+  La15  1  -0.01303900  0.62010057  0.58046360  1
  La3+  La16  1  0.38680602  0.49524188  0.93855512  1
  La3+  La17  1  0.36498221  0.48895886  0.41548903  1
  Ce3+  Ce18  1  0.24101410  0.87652963  0.55340205  1
  Ce3+  Ce19  1  0.01180074  0.61329230  0.05993242  1
  Ce3+  Ce20  1  -0.01000345  0.12533618  0.55934841  1
  Ce3+  Ce21  1  0.48795764  0.62130168  0.56812146  1
  Ce3+  Ce22  1  0.75421089  0.36855788  0.06071246  1
  Ce3+  Ce23  1  0.61068473  0.74816144  0.45546224  1
  Ce3+  Ce24  1  0.74443715  0.62578885  0.56176687  1
  Ce3+  Ce25  1  0.74175921  0.87848817  0.56141700  1
  Ce3+  Ce26  1  0.36650141  0.24944088  0.44384990  1
  Ce3+  Ce27  1  0.36877242  0.00144282  0.44601953  1
  Ce3+  Ce28  1  0.88680299  0.23661555  0.94681615  1
  Ce3+  Ce29  1  0.49615098  0.13180497  0.56772489  1
  Ce3+  Ce30  1  0.12237848  0.23168695  0.93083907  1
  Ce3+  Ce31  1  0.88720727  -0.01310011  0.94390607  1
  Ce3+  Ce32  1  0.61652255  0.24836657  0.43540319  1
  Ce3+  Ce33  1  0.75816250  0.11519249  0.05217195  1
  Ce3+  Ce34  1  0.74482305  0.12355567  0.55270567  1
  Ce3+  Ce35  1  0.75137462  0.61295998  0.06355476  1
  Ce3+  Ce36  1  0.37135159  0.74647530  0.44392814  1
  Ce3+  Ce37  1  0.63183935  0.24160796  0.92912420  1
  Pr3+  Pr38  1  0.88503097  0.73927530  0.94691774  1
  Pr3+  Pr39  1  0.00967537  0.11974617  0.06628926  1
  Pr3+  Pr40  1  0.50678196  0.61728159  0.06819629  1
  Pr3+  Pr41  1  0.88315740  0.48949750  0.94238534  1
  Pr3+  Pr42  1  0.75741602  0.86639123  0.06255331  1
  Pr3+  Pr43  1  0.38206871  -0.00734515  0.92673163  1
  Pr3+  Pr44  1  0.24113656  0.62326555  0.56475491  1
  Pr3+  Pr45  1  0.48818226  0.88567956  0.57818892  1
  Pr3+  Pr46  1  0.11688793  0.00024163  0.43468523  1
  Pr3+  Pr47  1  0.86702018  0.50232452  0.43008225  1
  Pr3+  Pr48  1  0.25520548  0.86685150  0.05241211  1
  Pr3+  Pr49  1  0.25552150  0.12233863  0.05997355  1
  Nd3+  Nd50  1  0.11741800  0.74605638  0.44352992  1
  Nd3+  Nd51  1  0.37770448  0.74312065  0.94223555  1
  Nd3+  Nd52  1  0.36659979  0.24699253  0.92741881  1
  Nd3+  Nd53  1  0.86624031  0.75034038  0.43843894  1
  Nd3+  Nd54  1  0.60590023  -0.00738175  0.43417939  1
  Nd3+  Nd55  1  0.86170375  -0.00881556  0.42338202  1
  Nd3+  Nd56  1  0.11036272  0.50160533  0.43557640  1
  Nd3+  Nd57  1  0.13839821  0.48825807  0.93915023  1
  Sm3+  Sm58  1  0.26395636  0.37173013  0.07212983  1
  Sm3+  Sm59  1  0.74577529  0.37579564  0.55018767  1
  Sm3+  Sm60  1  0.01165444  0.36856192  0.05967808  1
  Sm3+  Sm61  1  -0.01304699  0.37288188  0.55667420  1
  Sm3+  Sm62  1  0.61437599  0.50036989  0.44274683  1
  Sm3+  Sm63  1  -0.00614579  0.87721670  0.55656449  1
  Bi2+  Bi64  1  0.02825281  0.12948066  0.29978994  1
  Bi2+  Bi65  1  -0.02271447  0.12192910  0.79056339  1
  Bi2+  Bi66  1  -0.03093279  0.39026832  0.28677838  1
  Bi2+  Bi67  1  -0.01789092  0.39503062  0.80260234  1
  Bi2+  Bi68  1  -0.02267695  0.65515201  0.29284018  1
  Bi2+  Bi69  1  -0.01254340  0.62888457  0.79174225  1
  Bi2+  Bi70  1  -0.03568292  0.90410937  0.27605144  1
  Bi2+  Bi71  1  -0.07965058  0.90770144  0.74002003  1
  Bi2+  Bi72  1  0.27766591  0.09760180  0.29397956  1
  Bi2+  Bi73  1  0.27030705  0.14584207  0.79935117  1
  Bi2+  Bi74  1  0.24799899  0.34834066  0.28462304  1
  Bi2+  Bi75  1  0.22941044  0.38199490  0.77619399  1
  Bi2+  Bi76  1  0.23031803  0.63316155  0.32081137  1
  Bi2+  Bi77  1  0.25195324  0.61824912  0.78712740  1
  Bi2+  Bi78  1  0.26979231  0.91056987  0.26259927  1
  Bi2+  Bi79  1  0.29714806  0.83330849  0.80028050  1
  Bi2+  Bi80  1  0.47006071  0.14160952  0.29816833  1
  Bi2+  Bi81  1  0.56513570  0.09380613  0.77235157  1
  Bi2+  Bi82  1  0.53591710  0.32703225  0.31703621  1
  Bi2+  Bi83  1  0.48454588  0.37795792  0.81131723  1
  Bi2+  Bi84  1  0.49712153  0.64287162  0.31058589  1
  Bi2+  Bi85  1  0.45722445  0.62951000  0.77855463  1
  Bi2+  Bi86  1  0.54669585  0.90435953  0.29637036  1
  Bi2+  Bi87  1  0.54091014  0.85990283  0.78237120  1
  Bi2+  Bi88  1  0.66510498  0.11865852  0.28825230  1
  Bi2+  Bi89  1  0.75343239  0.14265481  0.79897354  1
  Bi2+  Bi90  1  0.78338559  0.46649691  0.30065009  1
  Bi2+  Bi91  1  0.80389246  0.32637057  0.76538041  1
  Bi2+  Bi92  1  0.73415413  0.65552267  0.29734174  1
  Bi2+  Bi93  1  0.72450273  0.58713413  0.79460282  1
  Bi2+  Bi94  1  0.77718451  0.85427023  0.26804101  1
  Bi2+  Bi95  1  0.78570751  0.95212668  0.81657688  1
  Bi2+  Bi96  1  0.20295557  0.04713818  0.18745603  1
  Bi2+  Bi97  1  0.12307975  -0.00754956  0.70345138  1
  Bi2+  Bi98  1  0.09933320  0.21819226  0.19733738  1
  Bi2+  Bi99  1  0.07573377  0.29361615  0.72423799  1
  Bi2+  Bi100  1  0.01310647  0.51916806  0.20674458  1
  Bi2+  Bi101  1  0.10589141  0.51310722  0.71098982  1
  Bi2+  Bi102  1  0.11170598  0.77969352  0.21476683  1
  Bi2+  Bi103  1  0.17305699  0.76049275  0.72078343  1
  Bi2+  Bi104  1  0.39579436  0.01951106  0.19564953  1
  Bi2+  Bi105  1  0.38512112  -0.04791422  0.70589352  1
  Bi2+  Bi106  1  0.36527302  0.24527254  0.21600264  1
  Bi2+  Bi107  1  0.37965731  0.23201405  0.71001219  1
  Bi2+  Bi108  1  0.37296863  0.48806425  0.20924987  1
  Bi2+  Bi109  1  0.36227215  0.47913696  0.70875326  1
  Bi2+  Bi110  1  0.36900681  0.75867576  0.21667675  1
  Bi2+  Bi111  1  0.34077337  0.67430082  0.68617704  1
  Bi2+  Bi112  1  0.61738196  0.01710504  0.18768505  1
  Bi2+  Bi113  1  0.68304395  -0.02614197  0.71292224  1
  Bi2+  Bi114  1  0.63848172  0.29497341  0.22608245  1
  Bi2+  Bi115  1  0.63945075  0.24496397  0.71786452  1
  Bi2+  Bi116  1  0.63994256  0.49892056  0.21658230  1
  Bi2+  Bi117  1  0.62044700  0.48189775  0.71688690  1
  Bi2+  Bi118  1  0.63235716  0.75879831  0.20750313  1
  Bi2+  Bi119  1  0.61911949  0.67524625  0.71137285  1
  Bi2+  Bi120  1  0.84652184  0.11113959  0.23342944  1
  Bi2+  Bi121  1  0.87154471  0.08174079  0.69047972  1
  Bi2+  Bi122  1  0.83535333  0.30730727  0.21899933  1
  Bi2+  Bi123  1  0.90706451  0.26966211  0.67098965  1
  Bi2+  Bi124  1  0.82368044  0.49695532  0.17653121  1
  Bi2+  Bi125  1  0.85131473  0.49070269  0.70203112  1
  Bi2+  Bi126  1  0.85168758  0.68996421  0.20780858  1
  Bi2+  Bi127  1  0.80365389  0.72902702  0.73102163  1
  S2-  S128  1  -0.02508145  0.11378178  0.16699230  1
  S2-  S129  1  0.08157146  0.11087009  0.64421477  1
  S2-  S130  1  0.03333319  0.35856192  0.15770165  1
  S2-  S131  1  -0.01061394  0.46743368  0.64041395  1
  S2-  S132  1  0.07477257  0.65208219  0.14823829  1
  S2-  S133  1  0.06349015  0.66665614  0.67151920  1
  S2-  S134  1  -0.00259751  0.87114881  0.17126894  1
  S2-  S135  1  0.00665791  0.89335675  0.65548108  1
  S2-  S136  1  0.25016900  0.23709470  0.13914056  1
  S2-  S137  1  0.27453988  0.08992934  0.69639749  1
  S2-  S138  1  0.24341231  0.47213094  0.15428698  1
  S2-  S139  1  0.26256823  0.27889369  0.65050249  1
  S2-  S140  1  0.23902965  0.64699436  0.22584148  1
  S2-  S141  1  0.23333276  0.50494776  0.64100415  1
  S2-  S142  1  0.24684258  0.80716501  0.14780055  1
  S2-  S143  1  0.23957368  0.89248229  0.65171996  1
  S2-  S144  1  0.50287563  0.13163188  0.15082847  1
  S2-  S145  1  0.48399378  0.02602979  0.64404153  1
  S2-  S146  1  0.42178670  0.36541954  0.15274178  1
  S2-  S147  1  0.50634060  0.25533960  0.64627409  1
  S2-  S148  1  0.41116482  0.62662591  0.15571791  1
  S2-  S149  1  0.49240684  0.50283998  0.64230908  1
  S2-  S150  1  0.49949991  0.83571901  0.16412199  1
  S2-  S151  1  0.49240233  0.83296680  0.67901193  1
  S2-  S152  1  0.73231896  0.11518171  0.14955453  1
  S2-  S153  1  0.71145317  0.11960408  0.65017571  1
  S2-  S154  1  0.64054241  0.37067028  0.13586883  1
  S2-  S155  1  0.72504260  0.41692806  0.64637783  1
  S2-  S156  1  0.63802708  0.61778406  0.14049456  1
  S2-  S157  1  0.84042854  0.63062863  0.64392336  1
  S2-  S158  1  0.72962381  0.88501735  0.16214874  1
  S2-  S159  1  0.75822377  0.85213236  0.65819716  1
  S2-  S160  1  0.08086761  -0.02020400  0.33471870  1
  S2-  S161  1  0.12117049  0.11899248  0.84126201  1
  S2-  S162  1  0.18205468  0.22211404  0.33685627  1
  S2-  S163  1  0.22664190  0.27910848  0.85905780  1
  S2-  S164  1  0.20026209  0.46998463  0.35094123  1
  S2-  S165  1  0.11785527  0.58069536  0.84964568  1
  S2-  S166  1  0.09572965  0.74430867  0.34371726  1
  S2-  S167  1  0.14507485  0.84082778  0.83438200  1
  S2-  S168  1  0.46464793  -0.01598738  0.36433230  1
  S2-  S169  1  0.28723823  -0.00740136  0.84074247  1
  S2-  S170  1  0.37320435  0.33482086  0.35740866  1
  S2-  S171  1  0.42467745  0.21925595  0.82976750  1
  S2-  S172  1  0.37422451  0.54092169  0.31360607  1
  S2-  S173  1  0.33607428  0.44389435  0.84458362  1
  S2-  S174  1  0.36184398  0.74003965  0.34520000  1
  S2-  S175  1  0.44731808  0.76152426  0.84928022  1
  S2-  S176  1  0.68492896  -0.02866988  0.34419328  1
  S2-  S177  1  0.50618917  -0.01150628  0.84594920  1
  S2-  S178  1  0.71552866  0.24533923  0.35483836  1
  S2-  S179  1  0.63258156  0.34977917  0.85309389  1
  S2-  S180  1  0.55401334  0.49344167  0.35122780  1
  S2-  S181  1  0.51426408  0.53025850  0.85474890  1
  S2-  S182  1  0.57335712  0.77490869  0.36207976  1
  S2-  S183  1  0.66057014  0.83904280  0.85054606  1
  S2-  S184  1  0.88212294  0.09637137  0.34178399  1
  S2-  S185  1  0.95938139  -0.01671577  0.85444389  1
  S2-  S186  1  0.98974311  0.27153934  0.35479146  1
  S2-  S187  1  0.96672182  0.24881258  0.86038035  1
  S2-  S188  1  0.98956234  0.52133250  0.35852086  1
  S2-  S189  1  0.87518133  0.51973310  0.84250443  1
  S2-  S190  1  0.87610239  0.85432473  0.35720497  1
  S2-  S191  1  0.96049100  0.74015990  0.85586731  1
  S2-  S192  1  -0.01200157  0.11712216  0.45237392  1
  S2-  S193  1  0.00711929  0.10840589  0.95996263  1
  S2-  S194  1  -0.01329372  0.37673741  0.45491288  1
  S2-  S195  1  0.00993803  0.36928096  0.95581612  1
  S2-  S196  1  -0.01182030  0.63105263  0.46180223  1
  S2-  S197  1  0.00733532  0.61014456  0.95661128  1
  S2-  S198  1  -0.00475782  0.87351008  0.45348597  1
  S2-  S199  1  0.01196773  0.86452938  0.96029815  1
  S2-  S200  1  0.24296956  0.12343628  0.44854535  1
  S2-  S201  1  0.25388075  0.11261185  0.95223519  1
  S2-  S202  1  0.23855965  0.37202439  0.45785292  1
  S2-  S203  1  0.25706203  0.37129948  0.96483703  1
  S2-  S204  1  0.24384324  0.62256809  0.45489833  1
  S2-  S205  1  0.25878232  0.61883063  0.94097731  1
  S2-  S206  1  0.24304098  0.87363158  0.44561526  1
  S2-  S207  1  0.25371487  0.86642984  0.94721160  1
  S2-  S208  1  0.49303120  0.12763621  0.45842864  1
  S2-  S209  1  0.50750701  0.11927987  0.94328461  1
  S2-  S210  1  0.49563909  0.37506947  0.46024004  1
  S2-  S211  1  0.50410845  0.35900375  0.95271666  1
  S2-  S212  1  0.48913936  0.61966173  0.45934870  1
  S2-  S213  1  0.50765192  0.62291004  0.96022474  1
  S2-  S214  1  0.48696247  0.87302088  0.47035272  1
  S2-  S215  1  0.50631344  0.86943032  0.95602181  1
  S2-  S216  1  0.73669182  0.11201425  0.44938519  1
  S2-  S217  1  0.75961884  0.11326038  0.94502400  1
  S2-  S218  1  0.74074022  0.38013280  0.44704149  1
  S2-  S219  1  0.76359971  0.36081743  0.95233882  1
  S2-  S220  1  0.74001417  0.62619769  0.45177947  1
  S2-  S221  1  0.75652716  0.61637565  0.95168848  1
  S2-  S222  1  0.73686900  0.87075144  0.45594843  1
  S2-  S223  1  0.76083643  0.86388720  0.95630754  1
  S2-  S224  1  0.13188923  -0.00696301  0.05838112  1
  S2-  S225  1  0.11826738  -0.00039075  0.54175264  1
  S2-  S226  1  0.12726648  0.24450329  0.04061374  1
  S2-  S227  1  0.11170383  0.25116519  0.54541522  1
  S2-  S228  1  0.13257743  0.49055141  0.04619952  1
  S2-  S229  1  0.11063030  0.50172763  0.54110041  1
  S2-  S230  1  0.13557025  0.73653464  0.04055721  1
  S2-  S231  1  0.11628534  0.75079038  0.55036740  1
  S2-  S232  1  0.37951769  -0.00685872  0.04326354  1
  S2-  S233  1  0.35584869  0.00910358  0.54958280  1
  S2-  S234  1  0.38261764  0.24218016  0.03773997  1
  S2-  S235  1  0.36427428  0.24769689  0.54694602  1
  S2-  S236  1  0.38427726  0.49425346  0.04708091  1
  S2-  S237  1  0.36696115  0.50133719  0.54046541  1
  S2-  S238  1  0.38131677  0.74345077  0.04759462  1
  S2-  S239  1  0.36687371  0.75121709  0.55231849  1
  S2-  S240  1  0.63407726  -0.00915974  0.03836374  1
  S2-  S241  1  0.61850054  0.00072802  0.54437662  1
  S2-  S242  1  0.63615822  0.23868490  0.03660155  1
  S2-  S243  1  0.62561387  0.25272714  0.54202303  1
  S2-  S244  1  0.63509759  0.49191257  0.03352648  1
  S2-  S245  1  0.62272227  0.50285599  0.54527767  1
  S2-  S246  1  0.63303606  0.74553821  0.04223309  1
  S2-  S247  1  0.61461077  0.75016429  0.56108831  1
  S2-  S248  1  0.88497116  -0.01022756  0.05360202  1
  S2-  S249  1  0.86874898  -0.00330864  0.54238898  1
  S2-  S250  1  0.88342104  0.24534013  0.05353343  1
  S2-  S251  1  0.86494196  0.24986512  0.53427161  1
  S2-  S252  1  0.88318885  0.48998870  0.04908334  1
  S2-  S253  1  0.86388841  0.49904656  0.53781445  1
  S2-  S254  1  0.88094882  0.73785995  0.05492114  1
  S2-  S255  1  0.86855984  0.75636373  0.54455209  1
