# generated using pymatgen
data_La9Ce10Pr6Nd4Sm3(BiS2)32
_symmetry_space_group_name_H-M   'P 1'
_cell_length_a   16.21020690
_cell_length_b   16.21298830
_cell_length_c   27.34789275
_cell_angle_alpha   90.08688835
_cell_angle_beta   90.01661665
_cell_angle_gamma   90.15895636
_symmetry_Int_Tables_number   1
_chemical_formula_structural   La9Ce10Pr6Nd4Sm3(BiS2)32
_chemical_formula_sum   'La18 Ce20 Pr12 Nd8 Sm6 Bi64 S128'
_cell_volume   7187.42466679
_cell_formula_units_Z   2
loop_
 _symmetry_equiv_pos_site_id
 _symmetry_equiv_pos_as_xyz
  1  'x, y, z'
loop_
 _atom_type_symbol
 _atom_type_oxidation_number
  La3+  3.0
  Ce3+  3.0
  Pr3+  3.0
  Nd3+  3.0
  Sm3+  3.0
  Bi2+  2.0
  S2-  -2.0
loop_
 _atom_site_type_symbol
 _atom_site_label
 _atom_site_symmetry_multiplicity
 _atom_site_fract_x
 _atom_site_fract_y
 _atom_site_fract_z
 _atom_site_occupancy
  La3+  La0  1  0.12340615  0.25454164  0.91400024  1
  La3+  La1  1  0.14001595  0.25825128  0.43818758  1
  La3+  La2  1  0.87793402  0.74183425  0.91324161  1
  La3+  La3  1  0.38247222  0.25644069  0.92418843  1
  La3+  La4  1  0.38398020  0.75080616  0.93068368  1
  La3+  La5  1  0.50801026  0.13577934  0.57160295  1
  La3+  La6  1  -0.00141767  0.14880243  0.59381192  1
  La3+  La7  1  0.75833563  0.64393624  0.57021200  1
  La3+  La8  1  0.37418585  0.48971094  0.38942695  1
  La3+  La9  1  0.26190619  0.63534254  0.57441656  1
  La3+  La10  1  0.62975039  0.25869502  0.43658432  1
  La3+  La11  1  0.88538847  0.26109788  0.42876607  1
  La3+  La12  1  0.00139750  0.63447321  0.06453114  1
  La3+  La13  1  0.26668406  0.88540614  0.58046788  1
  La3+  La14  1  0.87528804  0.25135724  0.93390919  1
  La3+  La15  1  0.25033277  0.13663655  0.61026340  1
  La3+  La16  1  0.48781337  0.88249496  0.07355832  1
  La3+  La17  1  0.00989505  0.12811362  0.06644087  1
  Ce3+  Ce18  1  0.63453868  0.75869347  0.43817505  1
  Ce3+  Ce19  1  0.00834310  0.63499023  0.55765880  1
  Ce3+  Ce20  1  0.49853561  0.12992042  0.05320854  1
  Ce3+  Ce21  1  0.13828494  0.76037304  0.45117355  1
  Ce3+  Ce22  1  0.63447921  0.00859008  0.44614938  1
  Ce3+  Ce23  1  0.62763132  0.51218123  0.44040239  1
  Ce3+  Ce24  1  0.50737845  0.88403197  0.55911453  1
  Ce3+  Ce25  1  0.12461601  0.75161054  0.92922560  1
  Ce3+  Ce26  1  0.88361993  0.51300297  0.44000905  1
  Ce3+  Ce27  1  0.13974595  0.51192475  0.44945775  1
  Ce3+  Ce28  1  0.75065383  0.63056925  0.06144074  1
  Ce3+  Ce29  1  0.25993516  0.38080275  0.56078821  1
  Ce3+  Ce30  1  0.25199535  0.62716935  0.05224988  1
  Ce3+  Ce31  1  0.87428779  0.00200895  0.93858795  1
  Ce3+  Ce32  1  0.75917058  0.38476802  0.55043684  1
  Ce3+  Ce33  1  0.62593235  0.00008435  0.94568120  1
  Ce3+  Ce34  1  0.62728049  0.50401104  0.95108252  1
  Ce3+  Ce35  1  0.01269416  0.88939553  0.56152273  1
  Ce3+  Ce36  1  0.00828960  0.38267044  0.55499027  1
  Ce3+  Ce37  1  0.76036824  0.13727317  0.55834680  1
  Pr3+  Pr38  1  0.13656139  0.01209270  0.45215160  1
  Pr3+  Pr39  1  0.75091826  0.12799377  0.05623449  1
  Pr3+  Pr40  1  -0.00085018  0.87670842  0.04614529  1
  Pr3+  Pr41  1  0.24900337  0.87686105  0.04810743  1
  Pr3+  Pr42  1  0.37947279  0.50223712  0.94431428  1
  Pr3+  Pr43  1  0.88722348  0.75885429  0.43858670  1
  Pr3+  Pr44  1  0.75267236  0.37567304  0.06693708  1
  Pr3+  Pr45  1  0.49919419  0.63139730  0.07170285  1
  Pr3+  Pr46  1  0.12621034  0.50144186  0.93500158  1
  Pr3+  Pr47  1  0.50104809  0.36667444  0.07006528  1
  Pr3+  Pr48  1  0.62720840  0.25572265  0.92908358  1
  Pr3+  Pr49  1  0.37873279  0.00060505  0.93028080  1
  Nd3+  Nd50  1  0.12001049  0.00438966  0.92151574  1
  Nd3+  Nd51  1  0.50863752  0.38353830  0.56218208  1
  Nd3+  Nd52  1  0.87139670  0.50299246  0.94305570  1
  Nd3+  Nd53  1  0.25031850  0.37413111  0.05769939  1
  Nd3+  Nd54  1  0.76164296  0.88763419  0.55681788  1
  Nd3+  Nd55  1  0.38368563  0.00476004  0.43946216  1
  Nd3+  Nd56  1  0.00214839  0.37692624  0.05645598  1
  Nd3+  Nd57  1  0.38129227  0.75774725  0.43499877  1
  Sm3+  Sm58  1  0.24702206  0.13042786  0.04484742  1
  Sm3+  Sm59  1  0.75186056  0.87849149  0.05336538  1
  Sm3+  Sm60  1  0.50734848  0.63398027  0.55467106  1
  Sm3+  Sm61  1  0.88674450  0.01117574  0.44594005  1
  Sm3+  Sm62  1  0.38516926  0.25604656  0.44613054  1
  Sm3+  Sm63  1  0.62699454  0.75454278  0.95011660  1
  Bi2+  Bi64  1  0.02289047  0.11781176  0.31299238  1
  Bi2+  Bi65  1  -0.03431548  0.12510970  0.78293404  1
  Bi2+  Bi66  1  -0.02184537  0.39997012  0.26180627  1
  Bi2+  Bi67  1  0.01946711  0.38446051  0.78363450  1
  Bi2+  Bi68  1  0.03356016  0.68292265  0.29740699  1
  Bi2+  Bi69  1  0.03604145  0.59006961  0.80194214  1
  Bi2+  Bi70  1  -0.02729474  0.86739018  0.29804024  1
  Bi2+  Bi71  1  -0.07878420  0.88279555  0.75458912  1
  Bi2+  Bi72  1  0.28726425  0.10527096  0.23966739  1
  Bi2+  Bi73  1  0.25062417  0.08917304  0.80754608  1
  Bi2+  Bi74  1  0.22659439  0.35902973  0.29177468  1
  Bi2+  Bi75  1  0.28513898  0.39662904  0.79000909  1
  Bi2+  Bi76  1  0.24643222  0.68472681  0.27839675  1
  Bi2+  Bi77  1  0.25849222  0.59095663  0.80351206  1
  Bi2+  Bi78  1  0.25315857  0.90658892  0.29233720  1
  Bi2+  Bi79  1  0.18904426  0.77230128  0.80294957  1
  Bi2+  Bi80  1  0.42398181  0.11124814  0.32032755  1
  Bi2+  Bi81  1  0.55204080  0.12521425  0.79134170  1
  Bi2+  Bi82  1  0.50052340  0.36879364  0.29132046  1
  Bi2+  Bi83  1  0.55480803  0.34004374  0.75980955  1
  Bi2+  Bi84  1  0.49821238  0.63537666  0.29038701  1
  Bi2+  Bi85  1  0.50414246  0.53532488  0.76811074  1
  Bi2+  Bi86  1  0.49619325  0.94012275  0.29341642  1
  Bi2+  Bi87  1  0.49489157  0.85167188  0.80947226  1
  Bi2+  Bi88  1  0.76428759  0.06156353  0.28594780  1
  Bi2+  Bi89  1  0.74507039  0.16794915  0.78672724  1
  Bi2+  Bi90  1  0.77666392  0.33548190  0.29464476  1
  Bi2+  Bi91  1  0.75209662  0.34828756  0.82137983  1
  Bi2+  Bi92  1  0.79398732  0.58503346  0.31894910  1
  Bi2+  Bi93  1  0.71987682  0.64045011  0.81167143  1
  Bi2+  Bi94  1  0.72185095  0.87702914  0.25435259  1
  Bi2+  Bi95  1  0.71120490  0.90772924  0.77641375  1
  Bi2+  Bi96  1  0.10708422  0.00132917  0.23884649  1
  Bi2+  Bi97  1  0.10253752  -0.05303337  0.72662905  1
  Bi2+  Bi98  1  0.09159863  0.23978844  0.18673092  1
  Bi2+  Bi99  1  0.11578178  0.26413819  0.71004802  1
  Bi2+  Bi100  1  0.12834110  0.52442689  0.26059738  1
  Bi2+  Bi101  1  0.14434227  0.51120925  0.71345573  1
  Bi2+  Bi102  1  0.12908009  0.80517498  0.21908692  1
  Bi2+  Bi103  1  0.11088243  0.70287785  0.70821467  1
  Bi2+  Bi104  1  0.43062897  -0.00252898  0.18834956  1
  Bi2+  Bi105  1  0.38642652  -0.02098414  0.71574964  1
  Bi2+  Bi106  1  0.36097151  0.26195543  0.18800202  1
  Bi2+  Bi107  1  0.38098764  0.25436120  0.71337708  1
  Bi2+  Bi108  1  0.33375142  0.50801717  0.18622956  1
  Bi2+  Bi109  1  0.34126833  0.53616811  0.69900378  1
  Bi2+  Bi110  1  0.37870247  0.75070240  0.18531424  1
  Bi2+  Bi111  1  0.39915137  0.72309607  0.70038703  1
  Bi2+  Bi112  1  0.61985831  0.03076684  0.20722048  1
  Bi2+  Bi113  1  0.59936959  -0.01126472  0.69374842  1
  Bi2+  Bi114  1  0.54481062  0.20094267  0.24774730  1
  Bi2+  Bi115  1  0.62841140  0.18086238  0.69024206  1
  Bi2+  Bi116  1  0.67933631  0.47564206  0.24231278  1
  Bi2+  Bi117  1  0.67211832  0.47703280  0.71570486  1
  Bi2+  Bi118  1  0.66743269  0.68974901  0.25164135  1
  Bi2+  Bi119  1  0.59212029  0.71988856  0.74008773  1
  Bi2+  Bi120  1  0.88388778  -0.03392170  0.21380625  1
  Bi2+  Bi121  1  0.79453613  -0.03091197  0.68082424  1
  Bi2+  Bi122  1  0.82497017  0.26247036  0.19093845  1
  Bi2+  Bi123  1  0.84512983  0.28282671  0.70501531  1
  Bi2+  Bi124  1  0.86009738  0.52941519  0.21242859  1
  Bi2+  Bi125  1  0.85918439  0.48155170  0.76271007  1
  Bi2+  Bi126  1  0.88815146  0.74486569  0.18123395  1
  Bi2+  Bi127  1  0.85685921  0.71663378  0.70719923  1
  S2-  S128  1  -0.04179766  0.15398285  0.16334880  1
  S2-  S129  1  0.05214079  0.10487034  0.68778071  1
  S2-  S130  1  -0.01599444  0.36703841  0.15525453  1
  S2-  S131  1  -0.00903533  0.31363985  0.64402295  1
  S2-  S132  1  -0.01406638  0.61231523  0.16371574  1
  S2-  S133  1  -0.02192386  0.63337941  0.65322461  1
  S2-  S134  1  0.01846987  0.82283365  0.14036109  1
  S2-  S135  1  0.00536094  0.87600702  0.65917588  1
  S2-  S136  1  0.15854501  0.12400436  0.12883466  1
  S2-  S137  1  0.24098171  0.15726371  0.72018196  1
  S2-  S138  1  0.22091298  0.35760701  0.15628776  1
  S2-  S139  1  0.24959906  0.30955399  0.64889582  1
  S2-  S140  1  0.24039909  0.64787910  0.14811979  1
  S2-  S141  1  0.25053015  0.74967814  0.65221390  1
  S2-  S142  1  0.31900854  0.89261456  0.13974375  1
  S2-  S143  1  0.24002256  0.97840263  0.66562833  1
  S2-  S144  1  0.49918043  0.21695154  0.13647304  1
  S2-  S145  1  0.40855224  0.12097384  0.65388057  1
  S2-  S146  1  0.44988318  0.40469484  0.16420733  1
  S2-  S147  1  0.49651332  0.33770738  0.65748165  1
  S2-  S148  1  0.47012965  0.60935661  0.17101115  1
  S2-  S149  1  0.53335421  0.65592268  0.65191504  1
  S2-  S150  1  0.52158794  0.80951081  0.16191534  1
  S2-  S151  1  0.42520865  0.87539783  0.64617005  1
  S2-  S152  1  0.73600427  0.13845600  0.15612115  1
  S2-  S153  1  0.84326773  0.13837532  0.64442118  1
  S2-  S154  1  0.69853894  0.36105300  0.16146629  1
  S2-  S155  1  0.74397255  0.36455613  0.64708046  1
  S2-  S156  1  0.74410152  0.64461027  0.15798332  1
  S2-  S157  1  0.76593173  0.59296198  0.66607092  1
  S2-  S158  1  0.77437096  0.87687382  0.15033001  1
  S2-  S159  1  0.75888400  0.79967598  0.64267739  1
  S2-  S160  1  0.14483504  0.01083838  0.35025331  1
  S2-  S161  1  0.15540585  -0.06947081  0.82867740  1
  S2-  S162  1  0.12844882  0.25674297  0.33659859  1
  S2-  S163  1  0.10625067  0.12587002  0.84528453  1
  S2-  S164  1  0.19882718  0.49282356  0.35868817  1
  S2-  S165  1  0.14442767  0.39794114  0.85380344  1
  S2-  S166  1  0.15824978  0.75939706  0.35502553  1
  S2-  S167  1  0.02337017  0.73938479  0.85017902  1
  S2-  S168  1  0.37231272  -0.11349765  0.36319111  1
  S2-  S169  1  0.38268630  -0.01835611  0.82964645  1
  S2-  S170  1  0.36800741  0.31852747  0.35371362  1
  S2-  S171  1  0.28950869  0.24511010  0.83952186  1
  S2-  S172  1  0.37373663  0.48033093  0.27905534  1
  S2-  S173  1  0.41034143  0.47906771  0.84674001  1
  S2-  S174  1  0.37296457  0.65626301  0.35222210  1
  S2-  S175  1  0.36151683  0.74478662  0.83097354  1
  S2-  S176  1  0.63225751  0.01097066  0.34917016  1
  S2-  S177  1  0.60252479  -0.01825275  0.85005981  1
  S2-  S178  1  0.62911180  0.26562170  0.33653877  1
  S2-  S179  1  0.51448896  0.26082718  0.85182338  1
  S2-  S180  1  0.54567858  0.50203040  0.35353511  1
  S2-  S181  1  0.66257085  0.49642861  0.85629246  1
  S2-  S182  1  0.59245066  0.74708589  0.34364921  1
  S2-  S183  1  0.57832310  0.73139147  0.85746861  1
  S2-  S184  1  0.89876366  0.00678254  0.34837192  1
  S2-  S185  1  0.89997951  0.02413621  0.84314463  1
  S2-  S186  1  0.89494942  0.22899799  0.33007576  1
  S2-  S187  1  0.96410956  0.25846978  0.84790125  1
  S2-  S188  1  0.92956340  0.48783731  0.34699886  1
  S2-  S189  1  0.86848025  0.58334289  0.85443790  1
  S2-  S190  1  0.86529506  0.74791499  0.33920217  1
  S2-  S191  1  0.80875161  0.79467453  0.82525659  1
  S2-  S192  1  0.00855800  0.13472868  0.44993965  1
  S2-  S193  1  -0.00205462  0.12578663  0.95574444  1
  S2-  S194  1  0.01295704  0.38562752  0.44986999  1
  S2-  S195  1  -0.00375733  0.38284568  0.95134126  1
  S2-  S196  1  0.01187844  0.63421025  0.45105669  1
  S2-  S197  1  0.00120156  0.62258309  0.95652494  1
  S2-  S198  1  0.00971506  0.88625625  0.45466123  1
  S2-  S199  1  -0.00146946  0.87761262  0.94103050  1
  S2-  S200  1  0.26458627  0.13360877  0.44613763  1
  S2-  S201  1  0.25251921  0.12425985  0.94296440  1
  S2-  S202  1  0.26515060  0.38463349  0.45793762  1
  S2-  S203  1  0.25589917  0.37901214  0.95273451  1
  S2-  S204  1  0.25877175  0.63462694  0.46508208  1
  S2-  S205  1  0.25187028  0.62646475  0.94574404  1
  S2-  S206  1  0.25755411  0.88542741  0.46749089  1
  S2-  S207  1  0.25337458  0.87604981  0.94275976  1
  S2-  S208  1  0.50792637  0.13215973  0.45859353  1
  S2-  S209  1  0.50354419  0.12562271  0.94942124  1
  S2-  S210  1  0.50435235  0.38410398  0.45579879  1
  S2-  S211  1  0.50512066  0.37960970  0.96097995  1
  S2-  S212  1  0.50948782  0.63686396  0.45369495  1
  S2-  S213  1  0.50436290  0.62767301  0.96165080  1
  S2-  S214  1  0.51274354  0.88315599  0.45489543  1
  S2-  S215  1  0.50140165  0.87714619  0.96017118  1
  S2-  S216  1  0.76043156  0.13371549  0.44964458  1
  S2-  S217  1  0.74868260  0.12706160  0.94737106  1
  S2-  S218  1  0.75636316  0.38790570  0.44402874  1
  S2-  S219  1  0.75109535  0.37708375  0.95954340  1
  S2-  S220  1  0.75775354  0.63561384  0.45736696  1
  S2-  S221  1  0.74887072  0.63200449  0.95677606  1
  S2-  S222  1  0.76245044  0.88541040  0.45052753  1
  S2-  S223  1  0.75218228  0.87504213  0.94853267  1
  S2-  S224  1  0.12645841  -0.00138396  0.03092668  1
  S2-  S225  1  0.13216346  0.02226036  0.55918854  1
  S2-  S226  1  0.12549371  0.25708284  0.03136299  1
  S2-  S227  1  0.13178980  0.25546888  0.54697787  1
  S2-  S228  1  0.12588248  0.50155599  0.04522995  1
  S2-  S229  1  0.13411355  0.50850506  0.55648502  1
  S2-  S230  1  0.12724695  0.75244604  0.03586176  1
  S2-  S231  1  0.13127202  0.76104471  0.55439020  1
  S2-  S232  1  0.37087596  0.00947930  0.03760862  1
  S2-  S233  1  0.38462077  0.01106069  0.54586264  1
  S2-  S234  1  0.37118356  0.25056096  0.03606324  1
  S2-  S235  1  0.38204260  0.25628023  0.54863999  1
  S2-  S236  1  0.37692775  0.50113686  0.05033611  1
  S2-  S237  1  0.38687832  0.50874836  0.56100611  1
  S2-  S238  1  0.37544968  0.75014147  0.04014091  1
  S2-  S239  1  0.38722296  0.75635847  0.54316914  1
  S2-  S240  1  0.62453035  0.00104563  0.05207001  1
  S2-  S241  1  0.63555627  0.01010455  0.55194111  1
  S2-  S242  1  0.62911368  0.25210128  0.03808543  1
  S2-  S243  1  0.63340631  0.25942547  0.54449915  1
  S2-  S244  1  0.62373711  0.50225162  0.05836722  1
  S2-  S245  1  0.63224110  0.51045749  0.54851117  1
  S2-  S246  1  0.62549186  0.75684185  0.05306309  1
  S2-  S247  1  0.63045994  0.76137288  0.54407541  1
  S2-  S248  1  0.87590677  0.00308656  0.04639777  1
  S2-  S249  1  0.88816202  0.01191728  0.54869949  1
  S2-  S250  1  0.87712004  0.25217837  0.04372720  1
  S2-  S251  1  0.88224239  0.26132054  0.53686219  1
  S2-  S252  1  0.87527322  0.50309744  0.05018627  1
  S2-  S253  1  0.88270126  0.50992124  0.54690298  1
  S2-  S254  1  0.87255043  0.75441955  0.03838158  1
  S2-  S255  1  0.88860147  0.76302672  0.54490941  1
