# generated using pymatgen
data_La9Ce10Pr6Nd4Sm3(BiS2)32
_symmetry_space_group_name_H-M   'P 1'
_cell_length_a   16.12940337
_cell_length_b   16.16557135
_cell_length_c   27.09396977
_cell_angle_alpha   90.24077888
_cell_angle_beta   89.93517727
_cell_angle_gamma   90.02339362
_symmetry_Int_Tables_number   1
_chemical_formula_structural   La9Ce10Pr6Nd4Sm3(BiS2)32
_chemical_formula_sum   'La18 Ce20 Pr12 Nd8 Sm6 Bi64 S128'
_cell_volume   7064.44186955
_cell_formula_units_Z   2
loop_
 _symmetry_equiv_pos_site_id
 _symmetry_equiv_pos_as_xyz
  1  'x, y, z'
loop_
 _atom_type_symbol
 _atom_type_oxidation_number
  La3+  3.0
  Ce3+  3.0
  Pr3+  3.0
  Nd3+  3.0
  Sm3+  3.0
  Bi2+  2.0
  S2-  -2.0
loop_
 _atom_site_type_symbol
 _atom_site_label
 _atom_site_symmetry_multiplicity
 _atom_site_fract_x
 _atom_site_fract_y
 _atom_site_fract_z
 _atom_site_occupancy
  La3+  La0  1  0.49610476  0.13000816  0.06561752  1
  La3+  La1  1  0.01507692  0.87363271  0.11849821  1
  La3+  La2  1  0.24447063  0.62582463  0.57125383  1
  La3+  La3  1  0.87036284  0.74608599  0.42449940  1
  La3+  La4  1  0.12031939  0.24757903  0.92641259  1
  La3+  La5  1  0.37221088  0.00656167  0.92474137  1
  La3+  La6  1  0.35972933  0.24205168  0.42031874  1
  La3+  La7  1  0.61599913  -0.00097941  0.43649818  1
  La3+  La8  1  0.49528847  0.38266017  0.10195688  1
  La3+  La9  1  0.73984306  0.87660685  0.57065033  1
  La3+  La10  1  0.24258059  0.37294480  0.56161803  1
  La3+  La11  1  0.73766223  0.62174200  0.56857763  1
  La3+  La12  1  0.86573673  0.50151440  0.91913499  1
  La3+  La13  1  0.36113728  0.50825516  0.40336783  1
  La3+  La14  1  0.62824133  0.01033733  0.91943421  1
  La3+  La15  1  -0.01476634  0.62873241  0.58047602  1
  La3+  La16  1  -0.00888698  0.13504165  0.07553550  1
  La3+  La17  1  0.74145203  0.13108965  0.06338364  1
  Ce3+  Ce18  1  0.00029570  0.37969709  0.04912386  1
  Ce3+  Ce19  1  0.74679779  0.62752341  0.05846292  1
  Ce3+  Ce20  1  0.86762935  -0.00299226  0.44281826  1
  Ce3+  Ce21  1  0.61473222  0.25458395  0.94051673  1
  Ce3+  Ce22  1  -0.01008100  0.12577844  0.55828204  1
  Ce3+  Ce23  1  0.49515393  0.62447665  0.56744668  1
  Ce3+  Ce24  1  0.11580091  0.25267824  0.43630191  1
  Ce3+  Ce25  1  0.50402770  0.88039924  0.05306604  1
  Ce3+  Ce26  1  0.24943162  0.38218655  0.05561099  1
  Ce3+  Ce27  1  0.24608902  0.88093080  0.05645395  1
  Ce3+  Ce28  1  0.24417998  0.63156948  0.05673492  1
  Ce3+  Ce29  1  0.74424952  0.38281865  0.05506306  1
  Ce3+  Ce30  1  0.36631710  0.74839517  0.44793056  1
  Ce3+  Ce31  1  0.37186738  0.75509288  0.94297513  1
  Ce3+  Ce32  1  -0.00398432  0.63202197  0.05498641  1
  Ce3+  Ce33  1  0.11728254  0.00520535  0.94604759  1
  Ce3+  Ce34  1  0.11575110  0.74669213  0.44642121  1
  Ce3+  Ce35  1  -0.01575047  0.87170322  0.57287200  1
  Ce3+  Ce36  1  0.36246905  -0.00092390  0.44117460  1
  Ce3+  Ce37  1  0.36370260  0.25445346  0.93151688  1
  Pr3+  Pr38  1  0.86947183  0.49891421  0.43919885  1
  Pr3+  Pr39  1  0.60760643  0.24689278  0.41812116  1
  Pr3+  Pr40  1  0.48680743  0.12726363  0.56719494  1
  Pr3+  Pr41  1  0.49621784  0.62794550  0.06431381  1
  Pr3+  Pr42  1  0.73648718  0.12833005  0.55944039  1
  Pr3+  Pr43  1  0.48985671  0.88130512  0.59549686  1
  Pr3+  Pr44  1  0.12787708  0.51328700  0.90249063  1
  Pr3+  Pr45  1  0.87221938  0.25348595  0.93025267  1
  Pr3+  Pr46  1  0.11870527  0.75736817  0.93328852  1
  Pr3+  Pr47  1  0.48965752  0.36898550  0.55571882  1
  Pr3+  Pr48  1  0.24221050  0.87597382  0.57096417  1
  Pr3+  Pr49  1  0.25094415  0.13141376  0.06560174  1
  Nd3+  Nd50  1  0.61820237  0.50405092  0.93459166  1
  Nd3+  Nd51  1  0.74709051  0.87602509  0.06878958  1
  Nd3+  Nd52  1  0.11619623  0.50103993  0.44195847  1
  Nd3+  Nd53  1  0.36877257  0.50729946  0.93421484  1
  Nd3+  Nd54  1  0.61322462  0.49682885  0.43946773  1
  Nd3+  Nd55  1  0.74267969  0.37227165  0.55348547  1
  Nd3+  Nd56  1  0.61218407  0.74587993  0.44185383  1
  Nd3+  Nd57  1  0.62553696  0.75551986  0.93424331  1
  Sm3+  Sm58  1  0.11245693  -0.00496205  0.44955255  1
  Sm3+  Sm59  1  0.86847299  0.00338381  0.94675084  1
  Sm3+  Sm60  1  0.23785187  0.12358115  0.55871447  1
  Sm3+  Sm61  1  0.87280758  0.75325500  0.94242693  1
  Sm3+  Sm62  1  0.86762147  0.24909418  0.44259863  1
  Sm3+  Sm63  1  -0.00113666  0.37831135  0.57701120  1
  Bi2+  Bi64  1  0.01716101  0.17620093  0.27649258  1
  Bi2+  Bi65  1  -0.04114477  0.15057918  0.81622565  1
  Bi2+  Bi66  1  -0.00026413  0.42525978  0.33814698  1
  Bi2+  Bi67  1  -0.02487153  0.32704073  0.76928575  1
  Bi2+  Bi68  1  -0.00896828  0.60785006  0.30061931  1
  Bi2+  Bi69  1  0.02869715  0.60338927  0.76783152  1
  Bi2+  Bi70  1  -0.02199324  0.90177841  0.31830659  1
  Bi2+  Bi71  1  -0.01555348  0.83387084  0.79997441  1
  Bi2+  Bi72  1  0.20494660  0.11621857  0.29535075  1
  Bi2+  Bi73  1  0.24382994  0.13941616  0.79805526  1
  Bi2+  Bi74  1  0.17382167  0.38949131  0.28974595  1
  Bi2+  Bi75  1  0.33967206  0.38167890  0.78886934  1
  Bi2+  Bi76  1  0.23386449  0.68507054  0.30619013  1
  Bi2+  Bi77  1  0.26526142  0.65335764  0.78247119  1
  Bi2+  Bi78  1  0.28833677  0.87232710  0.29139620  1
  Bi2+  Bi79  1  0.16395111  0.89810327  0.81498336  1
  Bi2+  Bi80  1  0.47923875  0.12561525  0.28842721  1
  Bi2+  Bi81  1  0.50074470  0.18102564  0.77795546  1
  Bi2+  Bi82  1  0.54100878  0.38203582  0.27884606  1
  Bi2+  Bi83  1  0.54194418  0.37153335  0.80508776  1
  Bi2+  Bi84  1  0.51350429  0.65510688  0.28924129  1
  Bi2+  Bi85  1  0.48824765  0.56382721  0.78851850  1
  Bi2+  Bi86  1  0.49034311  0.87508771  0.29257842  1
  Bi2+  Bi87  1  0.44438103  0.84351150  0.78067916  1
  Bi2+  Bi88  1  0.75358246  0.15686264  0.30306502  1
  Bi2+  Bi89  1  0.76351411  0.15091850  0.79868335  1
  Bi2+  Bi90  1  0.81051595  0.41159751  0.29782991  1
  Bi2+  Bi91  1  0.73677708  0.34654353  0.78375489  1
  Bi2+  Bi92  1  0.72761805  0.59043741  0.28369548  1
  Bi2+  Bi93  1  0.75939465  0.64227880  0.79744122  1
  Bi2+  Bi94  1  0.74152525  0.91764486  0.27612370  1
  Bi2+  Bi95  1  0.71054223  0.88327106  0.79903224  1
  Bi2+  Bi96  1  0.19966186  0.02403061  0.19084987  1
  Bi2+  Bi97  1  0.12302852  0.00598358  0.71633147  1
  Bi2+  Bi98  1  0.15555235  0.22065494  0.19524345  1
  Bi2+  Bi99  1  0.12145262  0.22056693  0.72456234  1
  Bi2+  Bi100  1  0.06226061  0.46001922  0.20885407  1
  Bi2+  Bi101  1  0.16249383  0.46562154  0.71504791  1
  Bi2+  Bi102  1  0.12187959  0.64507569  0.21629650  1
  Bi2+  Bi103  1  0.15294653  0.81712180  0.71118241  1
  Bi2+  Bi104  1  0.39169119  -0.01593913  0.20832597  1
  Bi2+  Bi105  1  0.35431123  -0.00001045  0.71531523  1
  Bi2+  Bi106  1  0.34721931  0.25132560  0.21210310  1
  Bi2+  Bi107  1  0.36924079  0.25877225  0.69965676  1
  Bi2+  Bi108  1  0.35542895  0.51166470  0.21593883  1
  Bi2+  Bi109  1  0.43139080  0.44898558  0.68910980  1
  Bi2+  Bi110  1  0.36410896  0.75898436  0.20876667  1
  Bi2+  Bi111  1  0.39655138  0.64721775  0.69271382  1
  Bi2+  Bi112  1  0.59915068  0.00436928  0.21934168  1
  Bi2+  Bi113  1  0.61252165  -0.00687702  0.72161138  1
  Bi2+  Bi114  1  0.71743365  0.22604172  0.20109823  1
  Bi2+  Bi115  1  0.64290178  0.24078101  0.70418879  1
  Bi2+  Bi116  1  0.66758925  0.54169692  0.18158893  1
  Bi2+  Bi117  1  0.62451907  0.49924288  0.71445007  1
  Bi2+  Bi118  1  0.55476453  0.76273694  0.19576013  1
  Bi2+  Bi119  1  0.56742052  0.74024235  0.71984661  1
  Bi2+  Bi120  1  0.88466785  0.03745648  0.21542436  1
  Bi2+  Bi121  1  0.92716729  -0.00859024  0.74073907  1
  Bi2+  Bi122  1  0.90988154  0.31015216  0.21604669  1
  Bi2+  Bi123  1  0.87101751  0.16773995  0.69557654  1
  Bi2+  Bi124  1  0.86900618  0.51477699  0.20333729  1
  Bi2+  Bi125  1  0.86795219  0.48321844  0.69737708  1
  Bi2+  Bi126  1  0.87163641  0.76164016  0.21341729  1
  Bi2+  Bi127  1  0.87941004  0.77282429  0.70938812  1
  S2-  S128  1  0.02119241  0.03707569  0.16085149  1
  S2-  S129  1  0.03560428  0.13407458  0.65368753  1
  S2-  S130  1  0.01417546  0.28861128  0.13405149  1
  S2-  S131  1  -0.08182745  0.33511180  0.66193997  1
  S2-  S132  1  -0.00346850  0.70052718  0.14662714  1
  S2-  S133  1  0.01997225  0.51909371  0.66092698  1
  S2-  S134  1  0.00968856  0.85359591  0.22996292  1
  S2-  S135  1  0.02276869  0.76262163  0.65144071  1
  S2-  S136  1  0.37292004  0.12939485  0.14216234  1
  S2-  S137  1  0.29676918  0.12695986  0.65164596  1
  S2-  S138  1  0.32669342  0.38820342  0.14564960  1
  S2-  S139  1  0.15503241  0.34946494  0.64942535  1
  S2-  S140  1  0.26853615  0.62979917  0.15468684  1
  S2-  S141  1  0.22345700  0.61331733  0.67245414  1
  S2-  S142  1  0.18687832  0.86982433  0.14860504  1
  S2-  S143  1  0.34207165  0.87321527  0.65693090  1
  S2-  S144  1  0.62168946  0.12316937  0.14202640  1
  S2-  S145  1  0.49341337  0.02820276  0.65524370  1
  S2-  S146  1  0.50153315  0.29415626  0.19414134  1
  S2-  S147  1  0.51657521  0.25942701  0.63577138  1
  S2-  S148  1  0.49213943  0.53699060  0.15286831  1
  S2-  S149  1  0.61071520  0.62929320  0.64299999  1
  S2-  S150  1  0.60505646  0.88856268  0.13510503  1
  S2-  S151  1  0.63400975  0.86572847  0.65634792  1
  S2-  S152  1  0.84291860  0.14521457  0.14684371  1
  S2-  S153  1  0.71961769  0.09566102  0.65904440  1
  S2-  S154  1  0.67893466  0.37656315  0.14767950  1
  S2-  S155  1  0.72678592  0.42491315  0.64840754  1
  S2-  S156  1  0.74391928  0.69296785  0.15037528  1
  S2-  S157  1  0.84077706  0.63565805  0.65084313  1
  S2-  S158  1  0.84362557  0.89094847  0.15476375  1
  S2-  S159  1  0.86234578  0.90042576  0.64694769  1
  S2-  S160  1  0.10893488  -0.00717259  0.35033442  1
  S2-  S161  1  0.11185822  0.09688178  0.86191406  1
  S2-  S162  1  0.21787594  0.26127450  0.35466519  1
  S2-  S163  1  0.23635727  0.27996587  0.85163911  1
  S2-  S164  1  0.20391236  0.52701836  0.35351887  1
  S2-  S165  1  0.07862063  0.45009053  0.80997808  1
  S2-  S166  1  0.02876660  0.75038832  0.36090011  1
  S2-  S167  1  0.12505350  0.66421996  0.84497993  1
  S2-  S168  1  0.36312231  0.08488864  0.35509197  1
  S2-  S169  1  0.33261969  -0.05821534  0.82723060  1
  S2-  S170  1  0.47770546  0.26948560  0.34493089  1
  S2-  S171  1  0.38909805  0.14105078  0.85358423  1
  S2-  S172  1  0.39242987  0.45281438  0.30170184  1
  S2-  S173  1  0.28184135  0.51545909  0.84581988  1
  S2-  S174  1  0.38147504  0.66944293  0.35907641  1
  S2-  S175  1  0.37379932  0.72948382  0.84531683  1
  S2-  S176  1  0.61286368  0.09897269  0.35289594  1
  S2-  S177  1  0.56209686  -0.04234112  0.82493835  1
  S2-  S178  1  0.67954631  0.30871313  0.32826507  1
  S2-  S179  1  0.62024883  0.16276682  0.85596552  1
  S2-  S180  1  0.59057997  0.51823431  0.34047872  1
  S2-  S181  1  0.71358655  0.51963218  0.85103191  1
  S2-  S182  1  0.60396338  0.76749180  0.34106132  1
  S2-  S183  1  0.62353897  0.73571005  0.83374283  1
  S2-  S184  1  0.83808019  0.01225553  0.34483633  1
  S2-  S185  1  0.77886845  -0.00330276  0.85836671  1
  S2-  S186  1  0.90098280  0.22325050  0.34633851  1
  S2-  S187  1  0.86858381  0.36231630  0.84886312  1
  S2-  S188  1  0.84570554  0.60618718  0.35936066  1
  S2-  S189  1  0.91057373  0.58701178  0.83111802  1
  S2-  S190  1  0.82414961  0.80661896  0.32500671  1
  S2-  S191  1  0.83133516  0.78085005  0.84683073  1
  S2-  S192  1  -0.00726586  0.12384268  0.45191384  1
  S2-  S193  1  -0.01023702  0.12790776  0.96225628  1
  S2-  S194  1  -0.00778051  0.37162939  0.46382034  1
  S2-  S195  1  0.00451644  0.38436294  0.94323951  1
  S2-  S196  1  -0.00706562  0.62312173  0.46412865  1
  S2-  S197  1  -0.00301611  0.62710549  0.94892071  1
  S2-  S198  1  -0.00979694  0.87426360  0.46342753  1
  S2-  S199  1  -0.00871696  0.88136254  0.94230415  1
  S2-  S200  1  0.23211341  0.11975944  0.45581226  1
  S2-  S201  1  0.24763499  0.12563308  0.95840191  1
  S2-  S202  1  0.24478658  0.38181576  0.45388150  1
  S2-  S203  1  0.23910565  0.39049209  0.95154255  1
  S2-  S204  1  0.24323991  0.62390754  0.46280643  1
  S2-  S205  1  0.24382223  0.63179752  0.95211363  1
  S2-  S206  1  0.23879210  0.87351761  0.45827371  1
  S2-  S207  1  0.24567069  0.87997534  0.94984711  1
  S2-  S208  1  0.48742095  0.12272261  0.45778114  1
  S2-  S209  1  0.49506618  0.12894014  0.95675268  1
  S2-  S210  1  0.47998652  0.38276707  0.44828977  1
  S2-  S211  1  0.49099761  0.38111397  0.93619314  1
  S2-  S212  1  0.48965721  0.61934507  0.45912609  1
  S2-  S213  1  0.49723574  0.63014179  0.95092092  1
  S2-  S214  1  0.48745699  0.87491282  0.44547142  1
  S2-  S215  1  0.49873370  0.87864559  0.94583217  1
  S2-  S216  1  0.74570617  0.12675929  0.45247402  1
  S2-  S217  1  0.74937719  0.13476687  0.95583468  1
  S2-  S218  1  0.74393267  0.37306547  0.44694220  1
  S2-  S219  1  0.74083646  0.37684720  0.95006869  1
  S2-  S220  1  0.73516987  0.62240173  0.45887359  1
  S2-  S221  1  0.74752144  0.63084561  0.95276639  1
  S2-  S222  1  0.73946936  0.87159198  0.45307080  1
  S2-  S223  1  0.74769607  0.87447615  0.95894304  1
  S2-  S224  1  0.12258990  0.00654268  0.05001903  1
  S2-  S225  1  0.11501487  -0.00282287  0.55570933  1
  S2-  S226  1  0.12932404  0.25454939  0.03688015  1
  S2-  S227  1  0.11483445  0.24781752  0.54371047  1
  S2-  S228  1  0.12091132  0.50627384  0.05661801  1
  S2-  S229  1  0.11768439  0.50120298  0.54915683  1
  S2-  S230  1  0.11988622  0.75741258  0.04183142  1
  S2-  S231  1  0.12080823  0.75100870  0.55053852  1
  S2-  S232  1  0.37325406  -0.00012239  0.04060449  1
  S2-  S233  1  0.36351953  -0.00080005  0.54665936  1
  S2-  S234  1  0.37554385  0.26191079  0.04142434  1
  S2-  S235  1  0.35970673  0.24497130  0.53874622  1
  S2-  S236  1  0.37232635  0.50758905  0.04045206  1
  S2-  S237  1  0.36827231  0.49882788  0.55867652  1
  S2-  S238  1  0.37443308  0.75628064  0.05002926  1
  S2-  S239  1  0.37165180  0.75335572  0.55371113  1
  S2-  S240  1  0.62269805  0.00358406  0.03272005  1
  S2-  S241  1  0.61258439  0.00041035  0.54523963  1
  S2-  S242  1  0.61340097  0.26467179  0.04540147  1
  S2-  S243  1  0.61816004  0.25090113  0.53044806  1
  S2-  S244  1  0.61683172  0.50317892  0.04085234  1
  S2-  S245  1  0.61329649  0.49257319  0.54470594  1
  S2-  S246  1  0.62086869  0.74874493  0.04066851  1
  S2-  S247  1  0.60813602  0.75802456  0.54659519  1
  S2-  S248  1  0.86896686  0.00314749  0.04811461  1
  S2-  S249  1  0.86397875  0.00613630  0.54649529  1
  S2-  S250  1  0.86905676  0.26289676  0.03813841  1
  S2-  S251  1  0.86777065  0.25036800  0.54783663  1
  S2-  S252  1  0.87287252  0.50390726  0.04262266  1
  S2-  S253  1  0.87016926  0.49280853  0.54734103  1
  S2-  S254  1  0.87060136  0.75277144  0.04496110  1
  S2-  S255  1  0.86165026  0.75064070  0.54290293  1
