# generated using pymatgen
data_La9Ce10Pr6Nd4Sm3(BiS2)32
_symmetry_space_group_name_H-M   'P 1'
_cell_length_a   16.21832028
_cell_length_b   16.21709403
_cell_length_c   27.10273510
_cell_angle_alpha   90.14705205
_cell_angle_beta   90.21267320
_cell_angle_gamma   90.01599253
_symmetry_Int_Tables_number   1
_chemical_formula_structural   La9Ce10Pr6Nd4Sm3(BiS2)32
_chemical_formula_sum   'La18 Ce20 Pr12 Nd8 Sm6 Bi64 S128'
_cell_volume   7128.32656542
_cell_formula_units_Z   2
loop_
 _symmetry_equiv_pos_site_id
 _symmetry_equiv_pos_as_xyz
  1  'x, y, z'
loop_
 _atom_type_symbol
 _atom_type_oxidation_number
  La3+  3.0
  Ce3+  3.0
  Pr3+  3.0
  Nd3+  3.0
  Sm3+  3.0
  Bi2+  2.0
  S2-  -2.0
loop_
 _atom_site_type_symbol
 _atom_site_label
 _atom_site_symmetry_multiplicity
 _atom_site_fract_x
 _atom_site_fract_y
 _atom_site_fract_z
 _atom_site_occupancy
  La3+  La0  1  0.87051915  0.49542320  0.43155155  1
  La3+  La1  1  -0.00239175  0.36450264  0.57132044  1
  La3+  La2  1  0.74988206  0.87324850  0.57795966  1
  La3+  La3  1  0.87049873  -0.01228413  0.93790460  1
  La3+  La4  1  0.87811109  0.47844669  0.91300386  1
  La3+  La5  1  0.37121107  0.24412044  0.93463181  1
  La3+  La6  1  0.87390833  0.73645901  0.92914345  1
  La3+  La7  1  0.25095378  0.13308743  0.57143096  1
  La3+  La8  1  0.61358703  -0.01202181  0.92921340  1
  La3+  La9  1  0.50710070  0.13475575  0.58598554  1
  La3+  La10  1  0.62328264  0.74041933  0.90961049  1
  La3+  La11  1  0.49804925  0.86124173  0.06340428  1
  La3+  La12  1  0.49748608  0.36097477  0.07900403  1
  La3+  La13  1  0.60538131  0.48847657  0.92509004  1
  La3+  La14  1  0.37003370  0.73869439  0.93179791  1
  La3+  La15  1  0.36553962  0.00099935  0.44257313  1
  La3+  La16  1  0.61388084  0.23417646  0.93059747  1
  La3+  La17  1  0.48778378  0.86914736  0.58426807  1
  Ce3+  Ce18  1  0.24544867  0.11408123  0.06258946  1
  Ce3+  Ce19  1  -0.00827914  0.86465630  0.06632567  1
  Ce3+  Ce20  1  0.87249531  0.24227713  0.94582074  1
  Ce3+  Ce21  1  0.50279593  0.37568246  0.55526288  1
  Ce3+  Ce22  1  -0.00426922  0.11714983  0.06152471  1
  Ce3+  Ce23  1  0.60557909  -0.00536626  0.44063426  1
  Ce3+  Ce24  1  -0.00253046  0.87504889  0.56419825  1
  Ce3+  Ce25  1  0.25344422  0.37166260  0.55697613  1
  Ce3+  Ce26  1  0.61515362  0.24868420  0.42878900  1
  Ce3+  Ce27  1  0.12031566  0.75076603  0.44583499  1
  Ce3+  Ce28  1  0.37019893  0.49024829  0.95072772  1
  Ce3+  Ce29  1  -0.00761598  0.37249767  0.07410306  1
  Ce3+  Ce30  1  0.74627379  0.61198060  0.04505206  1
  Ce3+  Ce31  1  0.12122716  -0.00984724  0.94635454  1
  Ce3+  Ce32  1  0.11138568  0.25044124  0.43313298  1
  Ce3+  Ce33  1  0.87085791  0.75272462  0.44298506  1
  Ce3+  Ce34  1  0.11616294  0.73501023  0.93539142  1
  Ce3+  Ce35  1  0.24631658  0.62159529  0.55697805  1
  Ce3+  Ce36  1  0.74814820  0.62172768  0.55533281  1
  Ce3+  Ce37  1  0.74331692  0.12199923  0.55408191  1
  Pr3+  Pr38  1  0.74629820  0.86145094  0.06286947  1
  Pr3+  Pr39  1  0.35872061  -0.00172014  0.91891163  1
  Pr3+  Pr40  1  0.12122281  0.49553375  0.44534432  1
  Pr3+  Pr41  1  -0.00725528  0.61251617  0.06245195  1
  Pr3+  Pr42  1  -0.00217240  0.62196605  0.56025110  1
  Pr3+  Pr43  1  0.61314143  0.51120036  0.42085761  1
  Pr3+  Pr44  1  -0.00405802  0.12438893  0.55839247  1
  Pr3+  Pr45  1  0.48288562  0.10896493  0.07226245  1
  Pr3+  Pr46  1  0.74429110  0.36633095  0.05036855  1
  Pr3+  Pr47  1  0.74132329  0.11364966  0.06042357  1
  Pr3+  Pr48  1  0.12058013  0.24303905  0.94959836  1
  Pr3+  Pr49  1  0.49995824  0.62241367  0.56858344  1
  Nd3+  Nd50  1  0.24755809  0.61941464  0.06315916  1
  Nd3+  Nd51  1  0.24834261  0.36670394  0.07327389  1
  Nd3+  Nd52  1  0.86772702  -0.00546848  0.43831292  1
  Nd3+  Nd53  1  0.37353241  0.24873644  0.43350590  1
  Nd3+  Nd54  1  0.50238549  0.61389001  0.06742638  1
  Nd3+  Nd55  1  0.61823982  0.75625253  0.44071964  1
  Nd3+  Nd56  1  0.37203141  0.50183558  0.44011284  1
  Nd3+  Nd57  1  0.74665890  0.37425962  0.55482268  1
  Sm3+  Sm58  1  0.12316336  0.00125990  0.44268775  1
  Sm3+  Sm59  1  0.24303041  0.86431028  0.05146279  1
  Sm3+  Sm60  1  0.37092607  0.75149790  0.44651192  1
  Sm3+  Sm61  1  0.12010121  0.48451592  0.94211964  1
  Sm3+  Sm62  1  0.24412251  0.87936349  0.56786607  1
  Sm3+  Sm63  1  0.85841985  0.24242516  0.43257282  1
  Bi2+  Bi64  1  0.01333905  0.02995694  0.30295031  1
  Bi2+  Bi65  1  0.00745470  0.14634726  0.79322290  1
  Bi2+  Bi66  1  0.06688853  0.36615131  0.29448830  1
  Bi2+  Bi67  1  0.02557256  0.35315621  0.79633726  1
  Bi2+  Bi68  1  0.04461560  0.66768635  0.22769243  1
  Bi2+  Bi69  1  0.06818174  0.62135521  0.78757446  1
  Bi2+  Bi70  1  -0.00744262  0.83291432  0.29102882  1
  Bi2+  Bi71  1  0.00911771  0.87411339  0.79037294  1
  Bi2+  Bi72  1  0.27968930  0.13562873  0.29937996  1
  Bi2+  Bi73  1  0.20536940  0.16114092  0.80194026  1
  Bi2+  Bi74  1  0.26972309  0.44197323  0.30703992  1
  Bi2+  Bi75  1  0.27316952  0.41399428  0.79228255  1
  Bi2+  Bi76  1  0.22766601  0.61570799  0.26244917  1
  Bi2+  Bi77  1  0.23777069  0.68006044  0.82609379  1
  Bi2+  Bi78  1  0.21382787  0.87944065  0.29304861  1
  Bi2+  Bi79  1  0.20419811  0.86672808  0.80074174  1
  Bi2+  Bi80  1  0.53154818  0.13953714  0.24259764  1
  Bi2+  Bi81  1  0.49823828  0.15599062  0.79703076  1
  Bi2+  Bi82  1  0.51426056  0.38722679  0.29528551  1
  Bi2+  Bi83  1  0.57196141  0.39598937  0.78148289  1
  Bi2+  Bi84  1  0.50528230  0.64781835  0.29081061  1
  Bi2+  Bi85  1  0.47394110  0.59512145  0.78829317  1
  Bi2+  Bi86  1  0.49118918  0.89059958  0.30322115  1
  Bi2+  Bi87  1  0.50646463  0.84564364  0.77768575  1
  Bi2+  Bi88  1  0.72132148  0.16159665  0.26183868  1
  Bi2+  Bi89  1  0.81649070  0.11124155  0.77888944  1
  Bi2+  Bi90  1  0.81075924  0.36909392  0.30585954  1
  Bi2+  Bi91  1  0.75889475  0.33996554  0.78998541  1
  Bi2+  Bi92  1  0.78202563  0.63884748  0.29455674  1
  Bi2+  Bi93  1  0.72893774  0.62501240  0.77230477  1
  Bi2+  Bi94  1  0.75566156  0.91772143  0.29467433  1
  Bi2+  Bi95  1  0.75922375  0.86852908  0.77977215  1
  Bi2+  Bi96  1  0.14347810  0.01810738  0.21484102  1
  Bi2+  Bi97  1  0.09245270  0.02601506  0.71240038  1
  Bi2+  Bi98  1  0.17805957  0.21319738  0.20429296  1
  Bi2+  Bi99  1  0.14890307  0.29730693  0.71263465  1
  Bi2+  Bi100  1  0.17941044  0.40997654  0.20293702  1
  Bi2+  Bi101  1  0.15455612  0.49524409  0.71444852  1
  Bi2+  Bi102  1  0.10703922  0.83267302  0.18364636  1
  Bi2+  Bi103  1  0.10778185  0.83348537  0.68652229  1
  Bi2+  Bi104  1  0.37604909  0.02237958  0.22205021  1
  Bi2+  Bi105  1  0.35778325  -0.00254283  0.72086697  1
  Bi2+  Bi106  1  0.35247841  0.29695098  0.24415039  1
  Bi2+  Bi107  1  0.37965708  0.31642935  0.71666449  1
  Bi2+  Bi108  1  0.39735662  0.53710364  0.19189609  1
  Bi2+  Bi109  1  0.35426209  0.50531992  0.69556076  1
  Bi2+  Bi110  1  0.32564778  0.76559244  0.22241910  1
  Bi2+  Bi111  1  0.28935936  0.74856412  0.72292403  1
  Bi2+  Bi112  1  0.62592935  -0.01495744  0.19416050  1
  Bi2+  Bi113  1  0.62014692  0.03336875  0.71556059  1
  Bi2+  Bi114  1  0.62540542  0.31238860  0.21449510  1
  Bi2+  Bi115  1  0.65321614  0.28435653  0.70082954  1
  Bi2+  Bi116  1  0.64217149  0.57758235  0.21705900  1
  Bi2+  Bi117  1  0.55048518  0.52508858  0.69030708  1
  Bi2+  Bi118  1  0.66853538  0.77159359  0.23274247  1
  Bi2+  Bi119  1  0.63078955  0.72578608  0.69641363  1
  Bi2+  Bi120  1  0.86930595  -0.01683416  0.20985680  1
  Bi2+  Bi121  1  0.90482937  0.03760134  0.68486499  1
  Bi2+  Bi122  1  0.98272592  0.19682405  0.23743520  1
  Bi2+  Bi123  1  0.89251621  0.23414902  0.69902727  1
  Bi2+  Bi124  1  0.86694419  0.45096109  0.19442394  1
  Bi2+  Bi125  1  0.85520511  0.50807431  0.70245078  1
  Bi2+  Bi126  1  0.86401290  0.71243720  0.19819753  1
  Bi2+  Bi127  1  0.94187452  0.74305295  0.71313790  1
  S2-  S128  1  -0.01079916  0.07783994  0.15738895  1
  S2-  S129  1  0.03196668  0.22016956  0.64040127  1
  S2-  S130  1  -0.04078933  0.30983235  0.16870624  1
  S2-  S131  1  -0.05384004  0.39535343  0.66829503  1
  S2-  S132  1  -0.00850457  0.50709521  0.14284166  1
  S2-  S133  1  -0.01624074  0.60560568  0.66095695  1
  S2-  S134  1  -0.12747346  0.85954197  0.14052154  1
  S2-  S135  1  -0.10325694  0.87212104  0.64394226  1
  S2-  S136  1  0.32647557  0.11762357  0.14747853  1
  S2-  S137  1  0.24000109  0.06192923  0.66563603  1
  S2-  S138  1  0.36135970  0.37154690  0.15143456  1
  S2-  S139  1  0.26648369  0.27607746  0.63941660  1
  S2-  S140  1  0.23110089  0.56961853  0.15882835  1
  S2-  S141  1  0.23157984  0.62388200  0.65511472  1
  S2-  S142  1  0.27314683  0.86070005  0.14887466  1
  S2-  S143  1  0.32714004  0.86696789  0.65326079  1
  S2-  S144  1  0.52780981  0.22320201  0.14701143  1
  S2-  S145  1  0.46179439  0.11680900  0.69188536  1
  S2-  S146  1  0.53820604  0.49787584  0.14559832  1
  S2-  S147  1  0.50465951  0.29622512  0.64154247  1
  S2-  S148  1  0.43567234  0.68558047  0.15491043  1
  S2-  S149  1  0.48994675  0.72266622  0.65140505  1
  S2-  S150  1  0.48173745  0.97449182  0.14187631  1
  S2-  S151  1  0.50795010  0.93118799  0.68138901  1
  S2-  S152  1  0.75676424  0.09671074  0.16202717  1
  S2-  S153  1  0.66752394  0.13234964  0.64255435  1
  S2-  S154  1  0.75210869  0.35495752  0.15183512  1
  S2-  S155  1  0.73537644  0.40826897  0.65352772  1
  S2-  S156  1  0.76995015  0.58983210  0.14388969  1
  S2-  S157  1  0.76765376  0.64091953  0.65253591  1
  S2-  S158  1  0.63209230  0.83962244  0.14025725  1
  S2-  S159  1  0.70190989  0.89041890  0.67849970  1
  S2-  S160  1  0.23493399  -0.00303628  0.36553766  1
  S2-  S161  1  0.18673014  0.01078024  0.85632020  1
  S2-  S162  1  0.17881000  0.24689981  0.34342472  1
  S2-  S163  1  0.16190232  0.30802050  0.85774093  1
  S2-  S164  1  0.11455017  0.50351740  0.34482975  1
  S2-  S165  1  0.03044583  0.49207054  0.85618714  1
  S2-  S166  1  0.12136743  0.76578076  0.34828657  1
  S2-  S167  1  0.00483102  0.73936411  0.85691220  1
  S2-  S168  1  0.47764145  0.01054128  0.36368687  1
  S2-  S169  1  0.41428817  -0.04819515  0.82171959  1
  S2-  S170  1  0.48967679  0.25400371  0.35772106  1
  S2-  S171  1  0.34899974  0.14372414  0.85012373  1
  S2-  S172  1  0.46136363  0.51861401  0.35462074  1
  S2-  S173  1  0.43823209  0.49310208  0.86165843  1
  S2-  S174  1  0.40460384  0.76234293  0.34884545  1
  S2-  S175  1  0.47185396  0.73994987  0.84857969  1
  S2-  S176  1  0.62780108  -0.12186371  0.36536434  1
  S2-  S177  1  0.62032819  0.11120378  0.85205032  1
  S2-  S178  1  0.73451241  0.23255130  0.35460727  1
  S2-  S179  1  0.49994043  0.28592079  0.85640383  1
  S2-  S180  1  0.67153364  0.43525923  0.33245682  1
  S2-  S181  1  0.62105195  0.59805643  0.84547748  1
  S2-  S182  1  0.62580701  0.65493434  0.35628677  1
  S2-  S183  1  0.63233829  0.88575659  0.84406393  1
  S2-  S184  1  0.85178432  0.03510079  0.34093121  1
  S2-  S185  1  0.86190938  -0.03686210  0.83753406  1
  S2-  S186  1  0.94841958  0.27637937  0.35111172  1
  S2-  S187  1  0.89048258  0.31495688  0.85778354  1
  S2-  S188  1  0.88352697  0.51749159  0.33030736  1
  S2-  S189  1  0.82136558  0.50363673  0.81149907  1
  S2-  S190  1  0.84893169  0.78366114  0.34693731  1
  S2-  S191  1  0.77705646  0.74565732  0.84254691  1
  S2-  S192  1  -0.00623096  0.12048800  0.45056017  1
  S2-  S193  1  -0.00300640  0.11662651  0.95246910  1
  S2-  S194  1  -0.00632995  0.37362701  0.45830043  1
  S2-  S195  1  -0.00190330  0.36460621  0.96440482  1
  S2-  S196  1  -0.00357282  0.62362329  0.45110131  1
  S2-  S197  1  -0.00180766  0.60827500  0.95632129  1
  S2-  S198  1  -0.00066676  0.87880845  0.45466509  1
  S2-  S199  1  -0.00103273  0.86647163  0.95787428  1
  S2-  S200  1  0.24417187  0.13162467  0.45991860  1
  S2-  S201  1  0.24168368  0.11879543  0.95902988  1
  S2-  S202  1  0.25072519  0.37431713  0.45049377  1
  S2-  S203  1  0.24664619  0.36843042  0.96488875  1
  S2-  S204  1  0.24703556  0.62522634  0.44839164  1
  S2-  S205  1  0.24142164  0.61036339  0.95509444  1
  S2-  S206  1  0.24415404  0.87085526  0.46255302  1
  S2-  S207  1  0.24121151  0.86215157  0.94720856  1
  S2-  S208  1  0.49463224  0.12674814  0.46510388  1
  S2-  S209  1  0.48651115  0.11100595  0.95725677  1
  S2-  S210  1  0.49746175  0.38098801  0.45227359  1
  S2-  S211  1  0.49210570  0.36648046  0.96734333  1
  S2-  S212  1  0.49230123  0.63091655  0.46157105  1
  S2-  S213  1  0.49187779  0.61707117  0.95970045  1
  S2-  S214  1  0.48840186  0.87028697  0.46974306  1
  S2-  S215  1  0.48875821  0.86807992  0.95200144  1
  S2-  S216  1  0.73901266  0.11351953  0.45099128  1
  S2-  S217  1  0.75037056  0.11579546  0.95173107  1
  S2-  S218  1  0.74436223  0.37476240  0.44944270  1
  S2-  S219  1  0.73888010  0.36328541  0.94305983  1
  S2-  S220  1  0.74981307  0.62564345  0.45052082  1
  S2-  S221  1  0.75159422  0.60469087  0.94105867  1
  S2-  S222  1  0.74832096  0.87424445  0.46538139  1
  S2-  S223  1  0.74686645  0.86392821  0.95393364  1
  S2-  S224  1  0.11949858  -0.01136650  0.05276086  1
  S2-  S225  1  0.12221599  0.00142150  0.54884850  1
  S2-  S226  1  0.12027337  0.24375461  0.05815648  1
  S2-  S227  1  0.12519605  0.25158940  0.53791747  1
  S2-  S228  1  0.12611494  0.49050600  0.04686139  1
  S2-  S229  1  0.12249619  0.49339563  0.55301582  1
  S2-  S230  1  0.11856950  0.73847344  0.04693647  1
  S2-  S231  1  0.12280416  0.74948287  0.55211285  1
  S2-  S232  1  0.36025375  -0.01339798  0.03657377  1
  S2-  S233  1  0.37154574  0.00419405  0.55446947  1
  S2-  S234  1  0.36589626  0.24014746  0.04538541  1
  S2-  S235  1  0.38037987  0.25212807  0.53934984  1
  S2-  S236  1  0.36978419  0.49543819  0.05327749  1
  S2-  S237  1  0.37424035  0.49904483  0.54741453  1
  S2-  S238  1  0.36628096  0.74198737  0.04120685  1
  S2-  S239  1  0.36385010  0.74613395  0.55024828  1
  S2-  S240  1  0.62130457  -0.00912058  0.04078401  1
  S2-  S241  1  0.61818793  -0.00532431  0.55226062  1
  S2-  S242  1  0.62241553  0.23764620  0.04052201  1
  S2-  S243  1  0.62573059  0.25169967  0.53767124  1
  S2-  S244  1  0.62322558  0.48974811  0.03567389  1
  S2-  S245  1  0.62392101  0.50115015  0.54046480  1
  S2-  S246  1  0.62247981  0.73369823  0.03641612  1
  S2-  S247  1  0.62505485  0.74835957  0.55001803  1
  S2-  S248  1  0.87168517  -0.00686099  0.04492292  1
  S2-  S249  1  0.87175043  0.00137249  0.54496583  1
  S2-  S250  1  0.87001230  0.23841172  0.05100205  1
  S2-  S251  1  0.86747302  0.24665810  0.54116074  1
  S2-  S252  1  0.86993876  0.48811280  0.03436672  1
  S2-  S253  1  0.87409055  0.49633528  0.54357295  1
  S2-  S254  1  0.87217713  0.73614869  0.03892713  1
  S2-  S255  1  0.87472915  0.74576615  0.54734197  1
