# generated using pymatgen
data_La9Ce10Pr6Nd4Sm3(BiS2)32
_symmetry_space_group_name_H-M   'P 1'
_cell_length_a   16.16633474
_cell_length_b   16.18018841
_cell_length_c   27.36993588
_cell_angle_alpha   89.78397016
_cell_angle_beta   90.30291476
_cell_angle_gamma   90.00836920
_symmetry_Int_Tables_number   1
_chemical_formula_structural   La9Ce10Pr6Nd4Sm3(BiS2)32
_chemical_formula_sum   'La18 Ce20 Pr12 Nd8 Sm6 Bi64 S128'
_cell_volume   7159.12197171
_cell_formula_units_Z   2
loop_
 _symmetry_equiv_pos_site_id
 _symmetry_equiv_pos_as_xyz
  1  'x, y, z'
loop_
 _atom_type_symbol
 _atom_type_oxidation_number
  La3+  3.0
  Ce3+  3.0
  Pr3+  3.0
  Nd3+  3.0
  Sm3+  3.0
  Bi2+  2.0
  S2-  -2.0
loop_
 _atom_site_type_symbol
 _atom_site_label
 _atom_site_symmetry_multiplicity
 _atom_site_fract_x
 _atom_site_fract_y
 _atom_site_fract_z
 _atom_site_occupancy
  La3+  La0  1  0.25666476  0.14008099  0.08614834  1
  La3+  La1  1  0.74853180  0.88102817  0.11068810  1
  La3+  La2  1  0.39287909  0.75947206  0.42133064  1
  La3+  La3  1  0.24497026  0.63673801  0.07369063  1
  La3+  La4  1  0.88929009  0.49884794  0.43742522  1
  La3+  La5  1  0.52008973  0.86939694  0.57778709  1
  La3+  La6  1  0.87909784  0.25028400  0.42931958  1
  La3+  La7  1  0.61491102  0.26251757  0.92782399  1
  La3+  La8  1  0.12107431  0.51535024  0.93786992  1
  La3+  La9  1  0.88710852  0.75551700  0.42887626  1
  La3+  La10  1  0.01732559  0.12824012  0.55846335  1
  La3+  La11  1  0.36061438  0.77148894  0.92684083  1
  La3+  La12  1  0.64121067  0.76248576  0.41501483  1
  La3+  La13  1  0.11902771  0.23749387  0.37874787  1
  La3+  La14  1  0.86446293  0.50566830  0.91477617  1
  La3+  La15  1  0.63939428  0.50282776  0.43329638  1
  La3+  La16  1  0.36375616  0.26406673  0.93180282  1
  La3+  La17  1  0.14390897  0.50067860  0.43135198  1
  Ce3+  Ce18  1  0.49893082  0.38749957  0.05645838  1
  Ce3+  Ce19  1  0.39148075  0.00196428  0.43819589  1
  Ce3+  Ce20  1  -0.00596487  0.38618376  0.05465057  1
  Ce3+  Ce21  1  0.87029951  0.01590041  0.94289765  1
  Ce3+  Ce22  1  0.62150708  0.01036876  0.95018398  1
  Ce3+  Ce23  1  0.38088162  0.25212379  0.43929899  1
  Ce3+  Ce24  1  -0.00462684  0.13553521  0.05950611  1
  Ce3+  Ce25  1  0.12135079  0.01484897  0.95284018  1
  Ce3+  Ce26  1  0.13872668  0.74937274  0.42431381  1
  Ce3+  Ce27  1  0.24552661  0.88083974  0.07202469  1
  Ce3+  Ce28  1  0.76383073  0.12454035  0.56225743  1
  Ce3+  Ce29  1  0.01554633  0.62924850  0.55361026  1
  Ce3+  Ce30  1  0.74693542  0.38989276  0.05712039  1
  Ce3+  Ce31  1  0.62212346  0.76462784  0.94500663  1
  Ce3+  Ce32  1  0.36886227  0.00892831  0.94979542  1
  Ce3+  Ce33  1  0.63433800  0.24615882  0.43816678  1
  Ce3+  Ce34  1  0.76514709  0.63045066  0.55484883  1
  Ce3+  Ce35  1  0.49624421  0.88188331  0.06437653  1
  Ce3+  Ce36  1  -0.00815484  0.63439631  0.05516876  1
  Ce3+  Ce37  1  0.39109677  0.50513792  0.44044439  1
  Pr3+  Pr38  1  0.76968226  0.86805602  0.57368835  1
  Pr3+  Pr39  1  0.74671641  0.13670760  0.06537142  1
  Pr3+  Pr40  1  0.26647727  0.37800343  0.56273020  1
  Pr3+  Pr41  1  0.26606660  0.63326858  0.55816943  1
  Pr3+  Pr42  1  0.24851982  0.39049551  0.07192961  1
  Pr3+  Pr43  1  0.51546433  0.37704158  0.55534748  1
  Pr3+  Pr44  1  0.11593107  0.76652301  0.94481812  1
  Pr3+  Pr45  1  0.49867747  0.13971929  0.06179918  1
  Pr3+  Pr46  1  0.74971231  0.63127492  0.06479279  1
  Pr3+  Pr47  1  0.01657785  0.37610377  0.55793775  1
  Pr3+  Pr48  1  0.01982073  0.87532823  0.55348366  1
  Pr3+  Pr49  1  0.76437987  0.37554893  0.56365585  1
  Nd3+  Nd50  1  0.13949127  0.00405037  0.43462499  1
  Nd3+  Nd51  1  0.62051409  0.51645116  0.93714754  1
  Nd3+  Nd52  1  0.88797232  0.00115224  0.44330029  1
  Nd3+  Nd53  1  0.50105617  0.64469870  0.07028993  1
  Nd3+  Nd54  1  0.86865077  0.76601652  0.94286149  1
  Nd3+  Nd55  1  0.51341410  0.12584147  0.56641505  1
  Nd3+  Nd56  1  0.63698936  -0.00088034  0.44296065  1
  Nd3+  Nd57  1  0.37097530  0.52010008  0.94883478  1
  Sm3+  Sm58  1  0.51623061  0.63416058  0.55114302  1
  Sm3+  Sm59  1  0.26532983  0.12675905  0.55543695  1
  Sm3+  Sm60  1  0.86748125  0.25935533  0.93426816  1
  Sm3+  Sm61  1  -0.00916506  0.88675246  0.06644011  1
  Sm3+  Sm62  1  0.12525560  0.26169471  0.94647368  1
  Sm3+  Sm63  1  0.26850362  0.87774041  0.55021503  1
  Bi2+  Bi64  1  -0.00040784  -0.02517309  0.28930210  1
  Bi2+  Bi65  1  0.02232244  0.10692072  0.80070568  1
  Bi2+  Bi66  1  -0.02146443  0.37748837  0.28809890  1
  Bi2+  Bi67  1  0.00958173  0.29861529  0.78773787  1
  Bi2+  Bi68  1  -0.02484888  0.59549186  0.27164788  1
  Bi2+  Bi69  1  0.05190642  0.67912228  0.81589174  1
  Bi2+  Bi70  1  -0.00453085  0.78091376  0.31464917  1
  Bi2+  Bi71  1  0.00786439  0.90381461  0.80208480  1
  Bi2+  Bi72  1  0.28325090  0.00852350  0.31560911  1
  Bi2+  Bi73  1  0.23177713  0.16268038  0.76453033  1
  Bi2+  Bi74  1  0.24960425  0.36969080  0.28760617  1
  Bi2+  Bi75  1  0.28103078  0.36687564  0.80109183  1
  Bi2+  Bi76  1  0.24613352  0.59233100  0.28343861  1
  Bi2+  Bi77  1  0.28576510  0.63174434  0.80674423  1
  Bi2+  Bi78  1  0.17768611  0.84717388  0.30510977  1
  Bi2+  Bi79  1  0.18347723  0.87756089  0.74535547  1
  Bi2+  Bi80  1  0.50167130  0.14745164  0.34865559  1
  Bi2+  Bi81  1  0.43399687  0.15762617  0.77849855  1
  Bi2+  Bi82  1  0.48833093  0.30356082  0.27777526  1
  Bi2+  Bi83  1  0.58311967  0.38825414  0.80868600  1
  Bi2+  Bi84  1  0.47085283  0.58932176  0.29231755  1
  Bi2+  Bi85  1  0.56520520  0.63997592  0.79311626  1
  Bi2+  Bi86  1  0.45556738  0.94280941  0.26199695  1
  Bi2+  Bi87  1  0.48349394  0.87877274  0.80832489  1
  Bi2+  Bi88  1  0.66389916  0.11518964  0.29240382  1
  Bi2+  Bi89  1  0.79015196  0.09422348  0.76278830  1
  Bi2+  Bi90  1  0.68594965  0.32157604  0.27879277  1
  Bi2+  Bi91  1  0.76412772  0.38784935  0.78594857  1
  Bi2+  Bi92  1  0.71366153  0.59419094  0.30451694  1
  Bi2+  Bi93  1  0.75143295  0.61441588  0.72474195  1
  Bi2+  Bi94  1  0.75374663  0.88289158  0.29156126  1
  Bi2+  Bi95  1  0.71114971  0.88213727  0.79028324  1
  Bi2+  Bi96  1  0.10222761  -0.07734631  0.19572568  1
  Bi2+  Bi97  1  0.04435106  -0.00111422  0.70291548  1
  Bi2+  Bi98  1  0.09517113  0.24063084  0.18122009  1
  Bi2+  Bi99  1  0.12599081  0.25237909  0.68287288  1
  Bi2+  Bi100  1  0.10556761  0.49922883  0.20028587  1
  Bi2+  Bi101  1  0.12312733  0.44159305  0.74906189  1
  Bi2+  Bi102  1  0.12696099  0.72783814  0.21443561  1
  Bi2+  Bi103  1  0.14468695  0.69016246  0.71403719  1
  Bi2+  Bi104  1  0.29638743  -0.03913353  0.19350371  1
  Bi2+  Bi105  1  0.33491794  0.01952603  0.72118044  1
  Bi2+  Bi106  1  0.38979946  0.14188072  0.24990320  1
  Bi2+  Bi107  1  0.36726519  0.30844126  0.70864582  1
  Bi2+  Bi108  1  0.36413403  0.39956738  0.20280710  1
  Bi2+  Bi109  1  0.39856021  0.52047465  0.74525255  1
  Bi2+  Bi110  1  0.37431951  0.78548730  0.22218523  1
  Bi2+  Bi111  1  0.35581726  0.77552331  0.68751055  1
  Bi2+  Bi112  1  0.58261338  0.13054422  0.18808443  1
  Bi2+  Bi113  1  0.59726279  0.04454070  0.75598353  1
  Bi2+  Bi114  1  0.70917150  0.27284602  0.16673810  1
  Bi2+  Bi115  1  0.63008315  0.24940651  0.69269363  1
  Bi2+  Bi116  1  0.61612765  0.45826058  0.19164365  1
  Bi2+  Bi117  1  0.58367721  0.50771161  0.71091548  1
  Bi2+  Bi118  1  0.61331549  0.72002442  0.20951333  1
  Bi2+  Bi119  1  0.60453015  0.77806657  0.71376109  1
  Bi2+  Bi120  1  0.84838053  0.06112951  0.22784551  1
  Bi2+  Bi121  1  0.82089548  -0.06665897  0.70318125  1
  Bi2+  Bi122  1  0.87270338  0.24784634  0.22709078  1
  Bi2+  Bi123  1  0.88384284  0.27152556  0.69487918  1
  Bi2+  Bi124  1  0.82006251  0.49363180  0.23388062  1
  Bi2+  Bi125  1  0.93425858  0.52921005  0.72608154  1
  Bi2+  Bi126  1  0.89097893  0.75077527  0.21384236  1
  Bi2+  Bi127  1  0.89337483  0.74780045  0.71150940  1
  S2-  S128  1  -0.05003423  0.14136547  0.15326054  1
  S2-  S129  1  -0.01273239  0.14198321  0.65714820  1
  S2-  S130  1  0.00540158  0.38841621  0.15276068  1
  S2-  S131  1  -0.03256112  0.39262848  0.65472897  1
  S2-  S132  1  0.01216381  0.63315177  0.15216291  1
  S2-  S133  1  0.00485853  0.63825520  0.65138798  1
  S2-  S134  1  -0.09077460  0.87948923  0.15479321  1
  S2-  S135  1  -0.04253805  0.86881910  0.64617382  1
  S2-  S136  1  0.17037906  0.08388513  0.17004822  1
  S2-  S137  1  0.24095570  0.12375189  0.65286748  1
  S2-  S138  1  0.25102674  0.28359100  0.15165313  1
  S2-  S139  1  0.21770440  0.38551993  0.65970935  1
  S2-  S140  1  0.25056902  0.51333177  0.14878899  1
  S2-  S141  1  0.26734398  0.62490578  0.65914111  1
  S2-  S142  1  0.26314184  0.75744851  0.14742511  1
  S2-  S143  1  0.21717077  0.85124319  0.64194492  1
  S2-  S144  1  0.41334698  0.13232553  0.14922643  1
  S2-  S145  1  0.53773376  0.12347280  0.66428330  1
  S2-  S146  1  0.49621135  0.34544527  0.15111544  1
  S2-  S147  1  0.50703299  0.35211527  0.65457177  1
  S2-  S148  1  0.51951203  0.58108720  0.16701589  1
  S2-  S149  1  0.49767692  0.71194158  0.63819159  1
  S2-  S150  1  0.49098470  0.77900826  0.14356035  1
  S2-  S151  1  0.42739055  0.91333380  0.66403069  1
  S2-  S152  1  0.73895992  0.04538525  0.15347707  1
  S2-  S153  1  0.75936049  0.14862395  0.65972478  1
  S2-  S154  1  0.76589026  0.49558001  0.13589444  1
  S2-  S155  1  0.74735193  0.36837129  0.66355652  1
  S2-  S156  1  0.75248905  0.71497838  0.15503673  1
  S2-  S157  1  0.77295932  0.71460577  0.63840460  1
  S2-  S158  1  0.66221318  0.87199591  0.20516617  1
  S2-  S159  1  0.65441109  0.89520072  0.64893466  1
  S2-  S160  1  0.12096318  0.06995424  0.34338917  1
  S2-  S161  1  0.12940991  0.00105356  0.85636676  1
  S2-  S162  1  0.13684695  0.24456812  0.27047913  1
  S2-  S163  1  0.22448946  0.25349028  0.86695713  1
  S2-  S164  1  0.10977587  0.40933700  0.34655969  1
  S2-  S165  1  0.14486597  0.52603435  0.83851433  1
  S2-  S166  1  0.14615726  0.62562538  0.35528214  1
  S2-  S167  1  0.21087909  0.74818983  0.86128125  1
  S2-  S168  1  0.41098019  -0.09546180  0.35762149  1
  S2-  S169  1  0.36187261  -0.07358213  0.86347056  1
  S2-  S170  1  0.29242301  0.25491453  0.35538395  1
  S2-  S171  1  0.48083546  0.26542979  0.85498199  1
  S2-  S172  1  0.35514375  0.48640150  0.34511464  1
  S2-  S173  1  0.37951379  0.49608579  0.85053650  1
  S2-  S174  1  0.35300337  0.70198209  0.32564029  1
  S2-  S175  1  0.43394604  0.72771615  0.83721445  1
  S2-  S176  1  0.64034318  -0.08741990  0.35631682  1
  S2-  S177  1  0.58784382  0.00242147  0.85394629  1
  S2-  S178  1  0.73781308  0.23485868  0.35940412  1
  S2-  S179  1  0.69874318  0.26332168  0.83834938  1
  S2-  S180  1  0.58727084  0.49257643  0.33678678  1
  S2-  S181  1  0.71497178  0.50726142  0.85389166  1
  S2-  S182  1  0.56772692  0.70839063  0.32126898  1
  S2-  S183  1  0.66193100  0.75219963  0.84938393  1
  S2-  S184  1  0.85545863  -0.00435098  0.34573555  1
  S2-  S185  1  0.86592675  0.08251139  0.85174287  1
  S2-  S186  1  0.95361888  0.24006825  0.33800444  1
  S2-  S187  1  0.88931652  0.35752749  0.85388705  1
  S2-  S188  1  0.82068636  0.47762903  0.34616612  1
  S2-  S189  1  0.92957717  0.56733328  0.82209044  1
  S2-  S190  1  0.78161274  0.74302319  0.34809580  1
  S2-  S191  1  0.92214820  0.78023999  0.84786202  1
  S2-  S192  1  0.01204431  0.12762132  0.45073933  1
  S2-  S193  1  -0.00257471  0.14331933  0.95300390  1
  S2-  S194  1  0.01063668  0.37209150  0.45177370  1
  S2-  S195  1  0.00095745  0.38320149  0.94999552  1
  S2-  S196  1  0.01077747  0.62684766  0.44795704  1
  S2-  S197  1  -0.00820738  0.63736567  0.94965714  1
  S2-  S198  1  0.01574579  0.87948837  0.44659409  1
  S2-  S199  1  -0.00637041  0.89195559  0.96021933  1
  S2-  S200  1  0.26403397  0.12370225  0.45220956  1
  S2-  S201  1  0.24655867  0.13384052  0.96856007  1
  S2-  S202  1  0.26998194  0.38408417  0.45768144  1
  S2-  S203  1  0.24482551  0.39246758  0.96197115  1
  S2-  S204  1  0.27073856  0.63117554  0.45172403  1
  S2-  S205  1  0.24407567  0.63825150  0.96472735  1
  S2-  S206  1  0.26015906  0.87697111  0.44692507  1
  S2-  S207  1  0.23977717  0.88901903  0.96724681  1
  S2-  S208  1  0.51128730  0.12566164  0.46084756  1
  S2-  S209  1  0.49220677  0.13271820  0.95617349  1
  S2-  S210  1  0.51243889  0.37474580  0.44910582  1
  S2-  S211  1  0.49420576  0.39407972  0.95302105  1
  S2-  S212  1  0.51609285  0.63165808  0.44676306  1
  S2-  S213  1  0.49748796  0.64050063  0.95764177  1
  S2-  S214  1  0.51522151  0.87728424  0.46216735  1
  S2-  S215  1  0.49705786  0.88609114  0.96068404  1
  S2-  S216  1  0.76148081  0.12073543  0.45776634  1
  S2-  S217  1  0.74441765  0.13860212  0.95683360  1
  S2-  S218  1  0.75797467  0.37622966  0.45696148  1
  S2-  S219  1  0.74355929  0.38356105  0.95382241  1
  S2-  S220  1  0.76244474  0.62692319  0.45079319  1
  S2-  S221  1  0.74880342  0.63881421  0.95541847  1
  S2-  S222  1  0.76542473  0.87899242  0.46125808  1
  S2-  S223  1  0.74812632  0.89130032  0.94717636  1
  S2-  S224  1  0.11822343  0.00803066  0.05675396  1
  S2-  S225  1  0.14324754  0.00207688  0.54258014  1
  S2-  S226  1  0.12068349  0.26033136  0.04953124  1
  S2-  S227  1  0.14337354  0.25195552  0.54985456  1
  S2-  S228  1  0.11753441  0.51160664  0.04567414  1
  S2-  S229  1  0.14039471  0.50411287  0.54408534  1
  S2-  S230  1  0.11273855  0.76280148  0.05118712  1
  S2-  S231  1  0.14055820  0.75225622  0.53445197  1
  S2-  S232  1  0.37095099  0.00509124  0.05410456  1
  S2-  S233  1  0.38824281  0.00280435  0.54722906  1
  S2-  S234  1  0.37262179  0.26515392  0.04272736  1
  S2-  S235  1  0.38866193  0.25039599  0.54901991  1
  S2-  S236  1  0.37896871  0.51634140  0.05293728  1
  S2-  S237  1  0.39379005  0.50727797  0.55037133  1
  S2-  S238  1  0.37235164  0.76095576  0.04101492  1
  S2-  S239  1  0.38835704  0.75534085  0.53520358  1
  S2-  S240  1  0.61931428  0.00695154  0.05463235  1
  S2-  S241  1  0.63818041  0.00480007  0.54866764  1
  S2-  S242  1  0.62152357  0.26249430  0.03992647  1
  S2-  S243  1  0.63840569  0.24983097  0.54624481  1
  S2-  S244  1  0.61848522  0.51456593  0.04259330  1
  S2-  S245  1  0.63805777  0.50568642  0.54633619  1
  S2-  S246  1  0.63096101  0.76665695  0.05002471  1
  S2-  S247  1  0.64151495  0.75001239  0.53810886  1
  S2-  S248  1  0.87029747  0.01019435  0.04824824  1
  S2-  S249  1  0.88960519  0.00053993  0.54961276  1
  S2-  S250  1  0.86998202  0.26201030  0.04152998  1
  S2-  S251  1  0.88712141  0.25215753  0.54338542  1
  S2-  S252  1  0.87535785  0.50964650  0.03232226  1
  S2-  S253  1  0.88820348  0.50290878  0.54549278  1
  S2-  S254  1  0.87040547  0.76393496  0.04824727  1
  S2-  S255  1  0.89360739  0.75131909  0.53681612  1
