# generated using pymatgen
data_La9Ce10Pr6Nd4Sm3(BiS2)32
_symmetry_space_group_name_H-M   'P 1'
_cell_length_a   16.25086702
_cell_length_b   16.24540895
_cell_length_c   27.15828748
_cell_angle_alpha   90.04676467
_cell_angle_beta   89.88934310
_cell_angle_gamma   90.01396825
_symmetry_Int_Tables_number   1
_chemical_formula_structural   La9Ce10Pr6Nd4Sm3(BiS2)32
_chemical_formula_sum   'La18 Ce20 Pr12 Nd8 Sm6 Bi64 S128'
_cell_volume   7169.82571136
_cell_formula_units_Z   2
loop_
 _symmetry_equiv_pos_site_id
 _symmetry_equiv_pos_as_xyz
  1  'x, y, z'
loop_
 _atom_type_symbol
 _atom_type_oxidation_number
  La3+  3.0
  Ce3+  3.0
  Pr3+  3.0
  Nd3+  3.0
  Sm3+  3.0
  Bi2+  2.0
  S2-  -2.0
loop_
 _atom_site_type_symbol
 _atom_site_label
 _atom_site_symmetry_multiplicity
 _atom_site_fract_x
 _atom_site_fract_y
 _atom_site_fract_z
 _atom_site_occupancy
  La3+  La0  1  0.62161799  0.50962740  0.41093969  1
  La3+  La1  1  -0.01338012  0.12380486  0.56399539  1
  La3+  La2  1  0.37523793  -0.00495729  0.43065612  1
  La3+  La3  1  0.61997912  0.25151525  0.43328505  1
  La3+  La4  1  0.74685503  0.61249291  0.58390162  1
  La3+  La5  1  0.86548465  -0.01587024  0.41997764  1
  La3+  La6  1  0.88636784  0.74219758  0.93033001  1
  La3+  La7  1  0.62163303  0.00088772  0.42887733  1
  La3+  La8  1  -0.01396216  0.87758634  0.57068360  1
  La3+  La9  1  0.87150561  0.49749068  0.43025526  1
  La3+  La10  1  0.48908492  0.61740978  0.59057961  1
  La3+  La11  1  0.00343551  0.11148470  0.07620768  1
  La3+  La12  1  0.25574350  0.10973345  0.07067578  1
  La3+  La13  1  0.64248052  0.48946455  0.92304846  1
  La3+  La14  1  0.86773197  0.23741753  0.92267506  1
  La3+  La15  1  -0.00242549  0.62278201  0.56192284  1
  La3+  La16  1  0.37985737  0.73209766  0.92504140  1
  La3+  La17  1  0.11660034  -0.00866775  0.42546893  1
  Ce3+  Ce18  1  0.37768790  0.23827048  0.94489833  1
  Ce3+  Ce19  1  0.24264370  0.12010645  0.55261574  1
  Ce3+  Ce20  1  0.49695357  0.37705073  0.55409615  1
  Ce3+  Ce21  1  0.11744133  0.49809377  0.43000512  1
  Ce3+  Ce22  1  0.25344764  0.36323617  0.05461465  1
  Ce3+  Ce23  1  0.74104458  0.87416980  0.55693982  1
  Ce3+  Ce24  1  0.74415519  0.37565923  0.55562972  1
  Ce3+  Ce25  1  0.75601283  0.61528399  0.05735102  1
  Ce3+  Ce26  1  0.13004997  0.74156031  0.94606098  1
  Ce3+  Ce27  1  0.50626258  0.36717793  0.05271131  1
  Ce3+  Ce28  1  0.24532786  0.87517182  0.55645383  1
  Ce3+  Ce29  1  0.11903322  0.24447512  0.44169710  1
  Ce3+  Ce30  1  0.37872950  0.48857278  0.93668543  1
  Ce3+  Ce31  1  0.50915937  0.60965946  0.05467906  1
  Ce3+  Ce32  1  0.11869086  0.23806992  0.93765174  1
  Ce3+  Ce33  1  0.11994616  0.74912647  0.43961302  1
  Ce3+  Ce34  1  0.00424086  0.61445175  0.05700710  1
  Ce3+  Ce35  1  0.24383274  0.37490117  0.55471971  1
  Ce3+  Ce36  1  0.50440253  0.11449920  0.06133267  1
  Ce3+  Ce37  1  -0.00465140  0.37336091  0.55419319  1
  Pr3+  Pr38  1  0.37583943  0.74434798  0.44467592  1
  Pr3+  Pr39  1  0.00808048  0.86496231  0.06658670  1
  Pr3+  Pr40  1  0.75528838  0.10770449  0.06963540  1
  Pr3+  Pr41  1  0.36705650  0.24865949  0.44139827  1
  Pr3+  Pr42  1  0.62769148  0.23756266  0.94615669  1
  Pr3+  Pr43  1  0.37068508  0.49873983  0.43336529  1
  Pr3+  Pr44  1  0.62841587  -0.01042683  0.94453850  1
  Pr3+  Pr45  1  0.12767137  0.48721572  0.94148226  1
  Pr3+  Pr46  1  0.49414768  0.12517189  0.56616176  1
  Pr3+  Pr47  1  0.49547363  0.87792555  0.56716813  1
  Pr3+  Pr48  1  0.12978138  -0.00364861  0.93331741  1
  Pr3+  Pr49  1  0.26465951  0.85925383  0.06116689  1
  Nd3+  Nd50  1  0.00264691  0.36216569  0.06139347  1
  Nd3+  Nd51  1  0.75166940  0.36589458  0.06946432  1
  Nd3+  Nd52  1  0.25702812  0.61140815  0.06014482  1
  Nd3+  Nd53  1  0.50171755  0.86166672  0.05895744  1
  Nd3+  Nd54  1  0.88713335  -0.00704486  0.93474356  1
  Nd3+  Nd55  1  0.63025313  0.74092086  0.93999036  1
  Nd3+  Nd56  1  0.75740644  0.86495829  0.05468756  1
  Nd3+  Nd57  1  0.24444448  0.62357638  0.55575829  1
  Sm3+  Sm58  1  0.74724596  0.12494193  0.55431766  1
  Sm3+  Sm59  1  0.87346172  0.24374820  0.43015830  1
  Sm3+  Sm60  1  0.86772842  0.74554221  0.44590672  1
  Sm3+  Sm61  1  0.61858777  0.73728833  0.45746831  1
  Sm3+  Sm62  1  0.37819247  -0.00921701  0.93811493  1
  Sm3+  Sm63  1  0.87903405  0.48926603  0.94567833  1
  Bi2+  Bi64  1  0.00553772  0.17187885  0.29327087  1
  Bi2+  Bi65  1  0.00144191  0.12115143  0.80609262  1
  Bi2+  Bi66  1  0.00261401  0.44289340  0.26122881  1
  Bi2+  Bi67  1  0.03184273  0.38710051  0.77949691  1
  Bi2+  Bi68  1  0.00623884  0.65487452  0.29971737  1
  Bi2+  Bi69  1  -0.00621727  0.64935730  0.79737458  1
  Bi2+  Bi70  1  0.00497635  0.91645397  0.30129807  1
  Bi2+  Bi71  1  0.02508332  0.87080262  0.77692430  1
  Bi2+  Bi72  1  0.27070887  0.23842240  0.29548088  1
  Bi2+  Bi73  1  0.27437455  0.15821547  0.79916447  1
  Bi2+  Bi74  1  0.27182788  0.43388369  0.30815948  1
  Bi2+  Bi75  1  0.25898116  0.37843943  0.80036424  1
  Bi2+  Bi76  1  0.20168870  0.61058736  0.32372330  1
  Bi2+  Bi77  1  0.23371124  0.57180478  0.78867966  1
  Bi2+  Bi78  1  0.24674193  0.79136063  0.28744391  1
  Bi2+  Bi79  1  0.20584580  0.84917553  0.74878154  1
  Bi2+  Bi80  1  0.47050006  0.09764325  0.29671148  1
  Bi2+  Bi81  1  0.53044402  0.13466527  0.78821545  1
  Bi2+  Bi82  1  0.51415768  0.36498010  0.28111204  1
  Bi2+  Bi83  1  0.44999693  0.36391716  0.77625500  1
  Bi2+  Bi84  1  0.49484543  0.64628036  0.29326563  1
  Bi2+  Bi85  1  0.49569299  0.66021853  0.80036781  1
  Bi2+  Bi86  1  0.49504595  0.90257717  0.29738296  1
  Bi2+  Bi87  1  0.47199963  0.92950186  0.80121396  1
  Bi2+  Bi88  1  0.72723986  0.10318284  0.28905881  1
  Bi2+  Bi89  1  0.74042602  0.12425092  0.78539795  1
  Bi2+  Bi90  1  0.76110937  0.38021001  0.28584632  1
  Bi2+  Bi91  1  0.76054009  0.34967030  0.77977642  1
  Bi2+  Bi92  1  0.73665553  0.65373754  0.28768158  1
  Bi2+  Bi93  1  0.72542673  0.62483484  0.79125681  1
  Bi2+  Bi94  1  0.77724139  0.84756065  0.27853737  1
  Bi2+  Bi95  1  0.77773750  0.93317336  0.76646580  1
  Bi2+  Bi96  1  0.13024195  0.01727483  0.21681291  1
  Bi2+  Bi97  1  0.17583577  0.03756054  0.71922854  1
  Bi2+  Bi98  1  0.15033386  0.33347460  0.22482475  1
  Bi2+  Bi99  1  0.16169158  0.26965494  0.72597138  1
  Bi2+  Bi100  1  0.13156643  0.57825949  0.21467904  1
  Bi2+  Bi101  1  0.11141191  0.45325734  0.67954840  1
  Bi2+  Bi102  1  0.08202561  0.78515286  0.22238657  1
  Bi2+  Bi103  1  0.12365834  0.64232771  0.70094458  1
  Bi2+  Bi104  1  0.33769853  -0.03036473  0.19687595  1
  Bi2+  Bi105  1  0.38182348  0.02015503  0.71223905  1
  Bi2+  Bi106  1  0.41069377  0.25038418  0.20970672  1
  Bi2+  Bi107  1  0.43051944  0.21535076  0.69969862  1
  Bi2+  Bi108  1  0.38085238  0.44546870  0.21082368  1
  Bi2+  Bi109  1  0.36764597  0.50067716  0.70704947  1
  Bi2+  Bi110  1  0.37683915  0.71761098  0.21096578  1
  Bi2+  Bi111  1  0.37054937  0.75673794  0.70654253  1
  Bi2+  Bi112  1  0.59152228  0.01241790  0.21546675  1
  Bi2+  Bi113  1  0.64982133  0.02889728  0.69467214  1
  Bi2+  Bi114  1  0.60250418  0.21273615  0.22161020  1
  Bi2+  Bi115  1  0.62906144  0.22843914  0.68775366  1
  Bi2+  Bi116  1  0.60366718  0.52523744  0.19920627  1
  Bi2+  Bi117  1  0.62148619  0.42134051  0.71114238  1
  Bi2+  Bi118  1  0.60654966  0.78586652  0.23493221  1
  Bi2+  Bi119  1  0.61474537  0.84887369  0.73361255  1
  Bi2+  Bi120  1  0.87344976  0.01171856  0.20094049  1
  Bi2+  Bi121  1  0.91643737  0.00593017  0.69291697  1
  Bi2+  Bi122  1  0.88628423  0.26863139  0.19845220  1
  Bi2+  Bi123  1  0.82193376  0.29595872  0.67681716  1
  Bi2+  Bi124  1  0.84893735  0.53261895  0.20529892  1
  Bi2+  Bi125  1  0.87581327  0.50531617  0.76305131  1
  Bi2+  Bi126  1  0.89540527  0.73620780  0.21204272  1
  Bi2+  Bi127  1  0.86703738  0.75220596  0.69824070  1
  S2-  S128  1  0.00157302  0.16156995  0.17934178  1
  S2-  S129  1  0.04886917  0.08676189  0.65743623  1
  S2-  S130  1  0.00919299  0.37094478  0.16070610  1
  S2-  S131  1  -0.02194505  0.34049135  0.65023487  1
  S2-  S132  1  -0.01577560  0.60536173  0.15326111  1
  S2-  S133  1  -0.04422102  0.62167609  0.65963656  1
  S2-  S134  1  0.00234629  0.97204243  0.14538975  1
  S2-  S135  1  0.01119300  0.85267388  0.67018337  1
  S2-  S136  1  0.23160391  0.11562703  0.17172606  1
  S2-  S137  1  0.27818059  0.11805629  0.64810684  1
  S2-  S138  1  0.25188947  0.39453638  0.15106656  1
  S2-  S139  1  0.26323505  0.38504150  0.65215000  1
  S2-  S140  1  0.25479636  0.65165393  0.15723666  1
  S2-  S141  1  0.28480539  0.63189887  0.65227804  1
  S2-  S142  1  0.20703141  0.90638012  0.15365154  1
  S2-  S143  1  0.26550623  0.87215783  0.65391301  1
  S2-  S144  1  0.46133374  0.07094105  0.15200367  1
  S2-  S145  1  0.49848450  0.00701908  0.63965929  1
  S2-  S146  1  0.54777682  0.40607935  0.14423477  1
  S2-  S147  1  0.49530323  0.45472857  0.64142298  1
  S2-  S148  1  0.49346141  0.62729937  0.15195441  1
  S2-  S149  1  0.48518703  0.62595926  0.69872357  1
  S2-  S150  1  0.39798469  0.84874488  0.13887961  1
  S2-  S151  1  0.50422174  0.80287582  0.65994376  1
  S2-  S152  1  0.77995399  0.14699268  0.16697467  1
  S2-  S153  1  0.84531345  0.13341823  0.63678013  1
  S2-  S154  1  0.77074464  0.39009454  0.16916890  1
  S2-  S155  1  0.74923495  0.45844585  0.64322311  1
  S2-  S156  1  0.72477196  0.62210470  0.15327693  1
  S2-  S157  1  0.73184318  0.67070441  0.68336829  1
  S2-  S158  1  0.77879502  0.91808621  0.14834853  1
  S2-  S159  1  0.81397816  0.88780227  0.64315926  1
  S2-  S160  1  0.11379959  0.05018281  0.32494700  1
  S2-  S161  1  0.00904472  -0.02990163  0.85745072  1
  S2-  S162  1  0.11218134  0.27084195  0.34516137  1
  S2-  S163  1  0.14242145  0.12804638  0.86248030  1
  S2-  S164  1  0.00090964  0.49944793  0.35615242  1
  S2-  S165  1  0.09334103  0.51823971  0.84420804  1
  S2-  S166  1  0.12622555  0.84945841  0.35872889  1
  S2-  S167  1  0.08477845  0.75901128  0.85259137  1
  S2-  S168  1  0.35085181  -0.00703126  0.33000838  1
  S2-  S169  1  0.33504414  0.01020436  0.84390407  1
  S2-  S170  1  0.42179546  0.25049564  0.34634548  1
  S2-  S171  1  0.42109151  0.23417043  0.85007369  1
  S2-  S172  1  0.47514817  0.51553470  0.35162248  1
  S2-  S173  1  0.37115367  0.58602549  0.85555783  1
  S2-  S174  1  0.39252619  0.76858929  0.34460409  1
  S2-  S175  1  0.38853624  0.79142504  0.82912831  1
  S2-  S176  1  0.72285808  -0.03556434  0.34850550  1
  S2-  S177  1  0.61372272  0.01761873  0.84587415  1
  S2-  S178  1  0.61426693  0.13416495  0.35656020  1
  S2-  S179  1  0.71230337  0.25650139  0.85938777  1
  S2-  S180  1  0.63458132  0.36034803  0.35184163  1
  S2-  S181  1  0.59378229  0.52975283  0.82754152  1
  S2-  S182  1  0.62223171  0.67937472  0.36391067  1
  S2-  S183  1  0.62965123  0.74506543  0.84030459  1
  S2-  S184  1  0.89654481  0.07650881  0.33220852  1
  S2-  S185  1  0.85893654  0.09981514  0.85637110  1
  S2-  S186  1  0.86805868  0.29308449  0.33294881  1
  S2-  S187  1  0.99531181  0.26764241  0.85420547  1
  S2-  S188  1  0.76868768  0.51748109  0.34750919  1
  S2-  S189  1  0.79904882  0.48895090  0.85894967  1
  S2-  S190  1  0.89091258  0.83189051  0.36004165  1
  S2-  S191  1  0.85195228  0.72530034  0.83131381  1
  S2-  S192  1  -0.00598700  0.12070286  0.45049575  1
  S2-  S193  1  -0.00059573  0.11934484  0.96407748  1
  S2-  S194  1  -0.00411033  0.36744824  0.44986265  1
  S2-  S195  1  -0.00196162  0.36787833  0.95634966  1
  S2-  S196  1  -0.00436383  0.62893666  0.45385908  1
  S2-  S197  1  0.00260006  0.61273603  0.95222292  1
  S2-  S198  1  -0.00563098  0.86859745  0.46201827  1
  S2-  S199  1  0.00729419  0.86383363  0.96074211  1
  S2-  S200  1  0.24482465  0.11888013  0.44429909  1
  S2-  S201  1  0.25893950  0.11534595  0.96172166  1
  S2-  S202  1  0.24234359  0.37425470  0.44779456  1
  S2-  S203  1  0.25185307  0.36158689  0.94804105  1
  S2-  S204  1  0.24483210  0.62390130  0.45013568  1
  S2-  S205  1  0.24881300  0.61325208  0.95350998  1
  S2-  S206  1  0.25159386  0.87087593  0.45193265  1
  S2-  S207  1  0.25580419  0.86628075  0.94931715  1
  S2-  S208  1  0.49167439  0.12373854  0.45818567  1
  S2-  S209  1  0.50219130  0.11287492  0.95468004  1
  S2-  S210  1  0.49258025  0.37451998  0.45124091  1
  S2-  S211  1  0.50773884  0.36773737  0.94582073  1
  S2-  S212  1  0.49386810  0.61999956  0.46531345  1
  S2-  S213  1  0.51211960  0.61181125  0.94928007  1
  S2-  S214  1  0.50178430  0.86948664  0.45599221  1
  S2-  S215  1  0.50207620  0.86448130  0.95178699  1
  S2-  S216  1  0.75202436  0.12478952  0.45028938  1
  S2-  S217  1  0.75038789  0.11221984  0.96232099  1
  S2-  S218  1  0.75217400  0.37062273  0.45140926  1
  S2-  S219  1  0.75740696  0.36451884  0.96229089  1
  S2-  S220  1  0.74853056  0.62341093  0.46392906  1
  S2-  S221  1  0.75833580  0.62168166  0.95222416  1
  S2-  S222  1  0.73860239  0.86172474  0.45410299  1
  S2-  S223  1  0.75752571  0.86725811  0.94640045  1
  S2-  S224  1  0.13310865  -0.01171104  0.04242788  1
  S2-  S225  1  0.11891736  -0.00378390  0.54215082  1
  S2-  S226  1  0.12870875  0.23866529  0.05157657  1
  S2-  S227  1  0.12029463  0.24683485  0.54915667  1
  S2-  S228  1  0.12848799  0.48909880  0.04959265  1
  S2-  S229  1  0.12131953  0.49923808  0.53967608  1
  S2-  S230  1  0.13196266  0.73869540  0.05294260  1
  S2-  S231  1  0.12063402  0.75063886  0.55026377  1
  S2-  S232  1  0.38162808  -0.01035716  0.04235895  1
  S2-  S233  1  0.36910323  -0.00145581  0.53982749  1
  S2-  S234  1  0.38086617  0.24092575  0.05242887  1
  S2-  S235  1  0.36942421  0.24944033  0.54786462  1
  S2-  S236  1  0.37942573  0.48876666  0.04382615  1
  S2-  S237  1  0.36697299  0.49978735  0.54235804  1
  S2-  S238  1  0.38251702  0.73101992  0.03584368  1
  S2-  S239  1  0.37250461  0.74710642  0.55116053  1
  S2-  S240  1  0.62675270  -0.01477224  0.05214853  1
  S2-  S241  1  0.62461170  0.00340325  0.53968370  1
  S2-  S242  1  0.63067138  0.23849128  0.05420356  1
  S2-  S243  1  0.62180007  0.24726972  0.54516084  1
  S2-  S244  1  0.63487963  0.49031029  0.03762881  1
  S2-  S245  1  0.61956609  0.50002621  0.54514248  1
  S2-  S246  1  0.63024672  0.74308587  0.04742000  1
  S2-  S247  1  0.62052705  0.74175034  0.56074658  1
  S2-  S248  1  0.87991279  -0.01095962  0.04127939  1
  S2-  S249  1  0.86390319  -0.00279947  0.53491771  1
  S2-  S250  1  0.87602448  0.24057193  0.05457698  1
  S2-  S251  1  0.86903623  0.25187005  0.53549178  1
  S2-  S252  1  0.87840192  0.48868072  0.05024672  1
  S2-  S253  1  0.87484396  0.49774830  0.54244810  1
  S2-  S254  1  0.88126587  0.74194187  0.04543604  1
  S2-  S255  1  0.86594212  0.74473048  0.55037196  1
