# generated using pymatgen
data_La9Ce10Pr6Nd4Sm3(BiS2)32
_symmetry_space_group_name_H-M   'P 1'
_cell_length_a   16.03931232
_cell_length_b   16.20309407
_cell_length_c   27.03374944
_cell_angle_alpha   89.33534354
_cell_angle_beta   89.88312133
_cell_angle_gamma   90.27311691
_symmetry_Int_Tables_number   1
_chemical_formula_structural   La9Ce10Pr6Nd4Sm3(BiS2)32
_chemical_formula_sum   'La18 Ce20 Pr12 Nd8 Sm6 Bi64 S128'
_cell_volume   7025.13819881
_cell_formula_units_Z   2
loop_
 _symmetry_equiv_pos_site_id
 _symmetry_equiv_pos_as_xyz
  1  'x, y, z'
loop_
 _atom_type_symbol
 _atom_type_oxidation_number
  La3+  3.0
  Ce3+  3.0
  Pr3+  3.0
  Nd3+  3.0
  Sm3+  3.0
  Bi2+  2.0
  S2-  -2.0
loop_
 _atom_site_type_symbol
 _atom_site_label
 _atom_site_symmetry_multiplicity
 _atom_site_fract_x
 _atom_site_fract_y
 _atom_site_fract_z
 _atom_site_occupancy
  La3+  La0  1  0.90440533  0.75199319  0.89916394  1
  La3+  La1  1  0.74540071  0.88047061  0.59257703  1
  La3+  La2  1  0.49287279  0.62250793  0.57593383  1
  La3+  La3  1  0.38332296  0.00928845  0.90941135  1
  La3+  La4  1  0.10741818  0.75875305  0.41708251  1
  La3+  La5  1  0.00143761  0.61644378  0.57526582  1
  La3+  La6  1  0.24629680  0.12673076  0.56316996  1
  La3+  La7  1  0.51448994  0.11721316  0.09092476  1
  La3+  La8  1  0.49156075  0.87233084  0.58252737  1
  La3+  La9  1  0.63632254  0.74641269  0.90999042  1
  La3+  La10  1  0.14653053  0.50141341  0.93658078  1
  La3+  La11  1  0.89675179  0.49315907  0.90529444  1
  La3+  La12  1  0.75116482  0.61507850  0.59177584  1
  La3+  La13  1  0.24275556  0.87821049  0.56363213  1
  La3+  La14  1  0.52809458  0.62513501  0.06241220  1
  La3+  La15  1  0.62407008  0.25615652  0.43535699  1
  La3+  La16  1  -0.00671964  0.87431185  0.57510800  1
  La3+  La17  1  0.01091090  0.86213757  0.07344344  1
  Ce3+  Ce18  1  0.74870293  0.37482683  0.56178494  1
  Ce3+  Ce19  1  0.63646804  0.24241420  0.94364960  1
  Ce3+  Ce20  1  0.89196209  -0.00756984  0.93568922  1
  Ce3+  Ce21  1  0.37642749  0.24934320  0.42820853  1
  Ce3+  Ce22  1  0.11595414  0.50265101  0.42931021  1
  Ce3+  Ce23  1  0.37107835  0.75584709  0.44226920  1
  Ce3+  Ce24  1  -0.00594343  0.37328306  0.55815158  1
  Ce3+  Ce25  1  0.52298116  0.37085470  0.06730573  1
  Ce3+  Ce26  1  0.39092973  0.49690513  0.94201829  1
  Ce3+  Ce27  1  0.27765512  0.62432641  0.07283995  1
  Ce3+  Ce28  1  0.86934968  0.25045422  0.43095736  1
  Ce3+  Ce29  1  0.64187705  0.49370506  0.91876973  1
  Ce3+  Ce30  1  0.76367213  0.37619121  0.05555987  1
  Ce3+  Ce31  1  0.86410538  0.00237476  0.45020856  1
  Ce3+  Ce32  1  0.37157172  0.50389378  0.43855389  1
  Ce3+  Ce33  1  0.62252042  0.50796669  0.44749111  1
  Ce3+  Ce34  1  0.14216695  -0.00813039  0.94357619  1
  Ce3+  Ce35  1  -0.00293809  0.13027551  0.56257303  1
  Ce3+  Ce36  1  0.76183906  0.86779648  0.04522231  1
  Ce3+  Ce37  1  0.01358612  0.11986219  0.05759756  1
  Pr3+  Pr38  1  0.87382570  0.50638203  0.43310659  1
  Pr3+  Pr39  1  0.73699706  0.12954336  0.57746825  1
  Pr3+  Pr40  1  0.37874289  0.00568853  0.42279216  1
  Pr3+  Pr41  1  0.39208043  0.24532217  0.94611088  1
  Pr3+  Pr42  1  0.76688331  0.11928726  0.06327602  1
  Pr3+  Pr43  1  0.62091178  0.75323779  0.45670483  1
  Pr3+  Pr44  1  0.23838325  0.62723887  0.55175522  1
  Pr3+  Pr45  1  0.01879154  0.62048962  0.06607256  1
  Pr3+  Pr46  1  0.26187990  0.87899594  0.09602345  1
  Pr3+  Pr47  1  0.26471978  0.37011402  0.06977594  1
  Pr3+  Pr48  1  0.48984047  0.12513253  0.56570668  1
  Pr3+  Pr49  1  0.89343924  0.24833524  0.93895454  1
  Nd3+  Nd50  1  0.64039412  0.00794807  0.92364473  1
  Nd3+  Nd51  1  0.11983571  0.00242430  0.43429343  1
  Nd3+  Nd52  1  0.86772865  0.75014364  0.45223442  1
  Nd3+  Nd53  1  0.51503072  0.87909354  0.04879127  1
  Nd3+  Nd54  1  0.14293340  0.24546812  0.93910366  1
  Nd3+  Nd55  1  0.01682464  0.37835584  0.06612152  1
  Nd3+  Nd56  1  0.48905792  0.37726270  0.56754783  1
  Nd3+  Nd57  1  0.14430865  0.74902871  0.94592643  1
  Sm3+  Sm58  1  0.76813543  0.62241254  0.03590312  1
  Sm3+  Sm59  1  0.25888097  0.11656679  0.06742622  1
  Sm3+  Sm60  1  0.39305815  0.75107487  0.94193516  1
  Sm3+  Sm61  1  0.24385229  0.37479789  0.54752488  1
  Sm3+  Sm62  1  0.62679046  0.00055056  0.44680050  1
  Sm3+  Sm63  1  0.11507765  0.25055289  0.43102551  1
  Bi2+  Bi64  1  -0.01830219  0.07612978  0.28790278  1
  Bi2+  Bi65  1  -0.01000256  0.17678137  0.81405674  1
  Bi2+  Bi66  1  -0.07091332  0.36027409  0.28777287  1
  Bi2+  Bi67  1  0.02339489  0.38391206  0.77553791  1
  Bi2+  Bi68  1  -0.05503358  0.62570202  0.30090061  1
  Bi2+  Bi69  1  -0.00912112  0.62518634  0.73887256  1
  Bi2+  Bi70  1  -0.11816029  0.91015852  0.31464870  1
  Bi2+  Bi71  1  0.04039297  0.99082824  0.78096720  1
  Bi2+  Bi72  1  0.17702730  0.15044846  0.30208371  1
  Bi2+  Bi73  1  0.25004062  0.14841725  0.78794888  1
  Bi2+  Bi74  1  0.18197477  0.34635342  0.30334287  1
  Bi2+  Bi75  1  0.28502569  0.38658226  0.78232466  1
  Bi2+  Bi76  1  0.26052789  0.52230093  0.27312608  1
  Bi2+  Bi77  1  0.17160932  0.59723838  0.79915024  1
  Bi2+  Bi78  1  0.22799694  0.82659514  0.29820908  1
  Bi2+  Bi79  1  0.19161470  0.85112521  0.81162668  1
  Bi2+  Bi80  1  0.48540410  0.12634946  0.29378423  1
  Bi2+  Bi81  1  0.50701436  0.20055267  0.78334575  1
  Bi2+  Bi82  1  0.46221497  0.34429775  0.27073339  1
  Bi2+  Bi83  1  0.46309999  0.37551353  0.83910274  1
  Bi2+  Bi84  1  0.53528546  0.59694113  0.29965302  1
  Bi2+  Bi85  1  0.48247277  0.55119819  0.78734121  1
  Bi2+  Bi86  1  0.49120897  0.85920927  0.31567285  1
  Bi2+  Bi87  1  0.57149411  0.89662617  0.80469096  1
  Bi2+  Bi88  1  0.78052663  0.12419520  0.29599254  1
  Bi2+  Bi89  1  0.80566200  0.21280086  0.77948796  1
  Bi2+  Bi90  1  0.75338131  0.44676380  0.30048955  1
  Bi2+  Bi91  1  0.65521473  0.32766922  0.81950357  1
  Bi2+  Bi92  1  0.73855208  0.63574352  0.22107808  1
  Bi2+  Bi93  1  0.75378157  0.60933976  0.78110251  1
  Bi2+  Bi94  1  0.70391977  0.82476787  0.28497426  1
  Bi2+  Bi95  1  0.81670041  0.87852029  0.76907820  1
  Bi2+  Bi96  1  0.13535602  0.01244693  0.22120351  1
  Bi2+  Bi97  1  0.19495648  0.01664366  0.70763406  1
  Bi2+  Bi98  1  0.02148495  0.26245544  0.20180156  1
  Bi2+  Bi99  1  0.06374190  0.23867951  0.70779822  1
  Bi2+  Bi100  1  0.10026038  0.47997829  0.21085278  1
  Bi2+  Bi101  1  0.20158671  0.48824566  0.69216201  1
  Bi2+  Bi102  1  0.10224826  0.72711884  0.20898666  1
  Bi2+  Bi103  1  0.20595342  0.75274110  0.70861222  1
  Bi2+  Bi104  1  0.38788311  -0.05007035  0.21505591  1
  Bi2+  Bi105  1  0.39980110  0.02506846  0.70786906  1
  Bi2+  Bi106  1  0.29617142  0.25363158  0.22767622  1
  Bi2+  Bi107  1  0.42286317  0.32929199  0.70750871  1
  Bi2+  Bi108  1  0.35982671  0.42784870  0.18584573  1
  Bi2+  Bi109  1  0.36463688  0.60083585  0.69922030  1
  Bi2+  Bi110  1  0.38277721  0.68289161  0.23821043  1
  Bi2+  Bi111  1  0.33569423  0.71366758  0.80171573  1
  Bi2+  Bi112  1  0.69619210  -0.00190543  0.22050099  1
  Bi2+  Bi113  1  0.64863221  0.01997332  0.72705107  1
  Bi2+  Bi114  1  0.62839424  0.29926999  0.21162076  1
  Bi2+  Bi115  1  0.68176808  0.25689365  0.69356415  1
  Bi2+  Bi116  1  0.54178607  0.50822015  0.19779133  1
  Bi2+  Bi117  1  0.59630131  0.43082619  0.71953753  1
  Bi2+  Bi118  1  0.60279952  0.76865578  0.18761565  1
  Bi2+  Bi119  1  0.57713444  0.75803014  0.72864800  1
  Bi2+  Bi120  1  0.87517828  0.06756209  0.18704160  1
  Bi2+  Bi121  1  0.91226777  0.08579610  0.70947364  1
  Bi2+  Bi122  1  0.82319960  0.25696599  0.18885999  1
  Bi2+  Bi123  1  0.87968610  0.25901845  0.65277583  1
  Bi2+  Bi124  1  0.83838426  0.46951761  0.19897318  1
  Bi2+  Bi125  1  0.88461832  0.44143682  0.70184891  1
  Bi2+  Bi126  1  0.86346703  0.80976781  0.21494760  1
  Bi2+  Bi127  1  1.01295474  0.81579427  0.72098509  1
  S2-  S128  1  0.07662320  0.12841583  0.14915298  1
  S2-  S129  1  0.12022600  0.12591888  0.63963026  1
  S2-  S130  1  -0.02396426  0.49777404  0.14027657  1
  S2-  S131  1  0.02600973  0.45474393  0.64192192  1
  S2-  S132  1  -0.02559077  0.72598081  0.14717408  1
  S2-  S133  1  -0.10551401  0.62231307  0.66152612  1
  S2-  S134  1  0.10960158  0.88145600  0.16000955  1
  S2-  S135  1  0.12551404  0.88798960  0.64583925  1
  S2-  S136  1  0.26912835  0.02598478  0.15541858  1
  S2-  S137  1  0.36559522  0.13764460  0.64288082  1
  S2-  S138  1  0.13626442  0.35887876  0.14414233  1
  S2-  S139  1  0.27298455  0.35751335  0.64565552  1
  S2-  S140  1  0.16752084  0.61493340  0.15110752  1
  S2-  S141  1  0.14680109  0.63914557  0.64006542  1
  S2-  S142  1  0.30058419  0.79704963  0.18915713  1
  S2-  S143  1  0.35412426  0.91039707  0.64730404  1
  S2-  S144  1  0.46304779  0.08609827  0.19632524  1
  S2-  S145  1  0.59448447  0.12973184  0.65097528  1
  S2-  S146  1  0.50819520  0.26734722  0.14772194  1
  S2-  S147  1  0.48486770  0.48727352  0.64744873  1
  S2-  S148  1  0.42295174  0.62411937  0.14647269  1
  S2-  S149  1  0.46609188  0.72770893  0.65737690  1
  S2-  S150  1  0.51092257  0.88859072  0.15141774  1
  S2-  S151  1  0.60984134  0.88921330  0.66393477  1
  S2-  S152  1  0.66562833  0.10202631  0.14679100  1
  S2-  S153  1  0.77005535  0.02483825  0.66054009  1
  S2-  S154  1  0.65416044  0.41299853  0.13398937  1
  S2-  S155  1  0.74009858  0.45770817  0.64897230  1
  S2-  S156  1  0.68028735  0.64598197  0.12404477  1
  S2-  S157  1  0.67983874  0.65937990  0.68641637  1
  S2-  S158  1  0.74793880  0.86656509  0.14568566  1
  S2-  S159  1  0.88144032  0.85446387  0.66441921  1
  S2-  S160  1  0.11856920  -0.09666969  0.35034972  1
  S2-  S161  1  0.21809248  0.01843999  0.85474319  1
  S2-  S162  1  -0.00876468  0.25774392  0.35769607  1
  S2-  S163  1  0.18582240  0.27334222  0.84177048  1
  S2-  S164  1  0.00371019  0.50427511  0.35303171  1
  S2-  S165  1  0.05537183  0.49293682  0.84895050  1
  S2-  S166  1  0.12965090  0.68961538  0.31527012  1
  S2-  S167  1  0.07489947  0.75132881  0.85207851  1
  S2-  S168  1  0.34663997  -0.05569104  0.32285382  1
  S2-  S169  1  0.42822614  -0.02742742  0.81039117  1
  S2-  S170  1  0.34817894  0.14019612  0.35140291  1
  S2-  S171  1  0.38183889  0.16579183  0.85390998  1
  S2-  S172  1  0.39045255  0.51581728  0.34026680  1
  S2-  S173  1  0.27934443  0.50241943  0.86170310  1
  S2-  S174  1  0.36595228  0.74236335  0.34264751  1
  S2-  S175  1  0.47750786  0.76314589  0.85266913  1
  S2-  S176  1  0.53581684  0.00353005  0.35904088  1
  S2-  S177  1  0.72304988  -0.01227592  0.82719793  1
  S2-  S178  1  0.50878663  0.26470701  0.35694347  1
  S2-  S179  1  0.61308928  0.15309805  0.85943676  1
  S2-  S180  1  0.61030690  0.46839014  0.35083414  1
  S2-  S181  1  0.61254139  0.60835581  0.84080746  1
  S2-  S182  1  0.60478981  0.73443740  0.35523548  1
  S2-  S183  1  0.75894350  0.76578250  0.82866952  1
  S2-  S184  1  0.75538829  -0.00458875  0.37179902  1
  S2-  S185  1  0.92254580  -0.08639464  0.84858051  1
  S2-  S186  1  0.74761181  0.24822001  0.35763262  1
  S2-  S187  1  0.91423049  0.33192848  0.84981527  1
  S2-  S188  1  0.80693894  0.59328822  0.35010755  1
  S2-  S189  1  0.75556906  0.47184287  0.83816043  1
  S2-  S190  1  0.94492171  0.76232685  0.36023939  1
  S2-  S191  1  0.89983528  0.62165843  0.82826056  1
  S2-  S192  1  -0.00508054  0.12380438  0.45404805  1
  S2-  S193  1  0.01776919  0.11909639  0.94973088  1
  S2-  S194  1  -0.00370064  0.37669664  0.45409822  1
  S2-  S195  1  0.02203704  0.36970764  0.95849480  1
  S2-  S196  1  -0.00230284  0.62787602  0.45942929  1
  S2-  S197  1  0.01778986  0.62510802  0.95461350  1
  S2-  S198  1  -0.01057761  0.88224201  0.46210315  1
  S2-  S199  1  0.01708205  0.87104167  0.96004410  1
  S2-  S200  1  0.23847256  0.12950993  0.45261818  1
  S2-  S201  1  0.26329995  0.12033776  0.96265479  1
  S2-  S202  1  0.24399599  0.37455015  0.44093352  1
  S2-  S203  1  0.26652989  0.36760297  0.96186435  1
  S2-  S204  1  0.24180958  0.62833145  0.44350320  1
  S2-  S205  1  0.27284859  0.62950864  0.96175324  1
  S2-  S206  1  0.24698355  0.87825321  0.45100572  1
  S2-  S207  1  0.27257141  0.87340633  0.94641279  1
  S2-  S208  1  0.50145728  0.12683039  0.45818342  1
  S2-  S209  1  0.50986859  0.11704339  0.96256327  1
  S2-  S210  1  0.49419237  0.38398747  0.46031040  1
  S2-  S211  1  0.51710141  0.37087888  0.95835352  1
  S2-  S212  1  0.49335599  0.62757736  0.46170745  1
  S2-  S213  1  0.51034428  0.62081197  0.95216284  1
  S2-  S214  1  0.49618547  0.87652351  0.46392087  1
  S2-  S215  1  0.51086596  0.88801708  0.94397249  1
  S2-  S216  1  0.74323255  0.12831272  0.46831913  1
  S2-  S217  1  0.77145118  0.12141982  0.95242565  1
  S2-  S218  1  0.74891412  0.38325217  0.45545703  1
  S2-  S219  1  0.76437331  0.36688003  0.95070767  1
  S2-  S220  1  0.74524884  0.62756169  0.46901579  1
  S2-  S221  1  0.77156329  0.62450934  0.93470846  1
  S2-  S222  1  0.74719996  0.87391733  0.47436100  1
  S2-  S223  1  0.76326015  0.87539836  0.94085682  1
  S2-  S224  1  0.13809828  -0.00705643  0.04835119  1
  S2-  S225  1  0.11732385  0.00289703  0.53934373  1
  S2-  S226  1  0.13979328  0.24252335  0.04498107  1
  S2-  S227  1  0.12025322  0.25471792  0.53729956  1
  S2-  S228  1  0.14793215  0.50014524  0.04487486  1
  S2-  S229  1  0.12288166  0.49551664  0.53431413  1
  S2-  S230  1  0.15168879  0.75255410  0.05185192  1
  S2-  S231  1  0.11558778  0.75425673  0.53748632  1
  S2-  S232  1  0.38706238  -0.00343171  0.05525697  1
  S2-  S233  1  0.36967987  0.00287285  0.53629849  1
  S2-  S234  1  0.38327451  0.23996681  0.05405518  1
  S2-  S235  1  0.37028476  0.25662477  0.53680458  1
  S2-  S236  1  0.39457655  0.49311962  0.04782874  1
  S2-  S237  1  0.36281751  0.50143629  0.54451534  1
  S2-  S238  1  0.39243539  0.75550251  0.04691277  1
  S2-  S239  1  0.36520429  0.74906240  0.54815871  1
  S2-  S240  1  0.64277301  -0.00220007  0.03730607  1
  S2-  S241  1  0.61814495  -0.00119572  0.55160378  1
  S2-  S242  1  0.64328115  0.24445766  0.04703707  1
  S2-  S243  1  0.61563109  0.25868033  0.54864063  1
  S2-  S244  1  0.64329974  0.49944196  0.02697704  1
  S2-  S245  1  0.61986961  0.49897094  0.55136051  1
  S2-  S246  1  0.63801816  0.75226890  0.02186024  1
  S2-  S247  1  0.62456813  0.74657701  0.56265796  1
  S2-  S248  1  0.89022322  -0.00731809  0.04531322  1
  S2-  S249  1  0.87291736  0.00707430  0.55513677  1
  S2-  S250  1  0.89294788  0.24917256  0.04848635  1
  S2-  S251  1  0.87009471  0.24931775  0.53962055  1
  S2-  S252  1  0.88561335  0.49801443  0.03374851  1
  S2-  S253  1  0.87283848  0.49765431  0.54426501  1
  S2-  S254  1  0.88521009  0.74500177  0.03841584  1
  S2-  S255  1  0.87044691  0.74497413  0.55730934  1
