# generated using pymatgen
data_La9Ce10Pr6Nd4Sm3(BiS2)32
_symmetry_space_group_name_H-M   'P 1'
_cell_length_a   16.16430870
_cell_length_b   16.17687958
_cell_length_c   27.35872625
_cell_angle_alpha   89.88605197
_cell_angle_beta   89.74596118
_cell_angle_gamma   89.97043614
_symmetry_Int_Tables_number   1
_chemical_formula_structural   La9Ce10Pr6Nd4Sm3(BiS2)32
_chemical_formula_sum   'La18 Ce20 Pr12 Nd8 Sm6 Bi64 S128'
_cell_volume   7153.89528761
_cell_formula_units_Z   2
loop_
 _symmetry_equiv_pos_site_id
 _symmetry_equiv_pos_as_xyz
  1  'x, y, z'
loop_
 _atom_type_symbol
 _atom_type_oxidation_number
  La3+  3.0
  Ce3+  3.0
  Pr3+  3.0
  Nd3+  3.0
  Sm3+  3.0
  Bi2+  2.0
  S2-  -2.0
loop_
 _atom_site_type_symbol
 _atom_site_label
 _atom_site_symmetry_multiplicity
 _atom_site_fract_x
 _atom_site_fract_y
 _atom_site_fract_z
 _atom_site_occupancy
  La3+  La0  1  -0.00724188  0.36293512  0.55841741  1
  La3+  La1  1  0.75635641  0.62273716  0.06904225  1
  La3+  La2  1  0.11212421  0.23331272  0.42914624  1
  La3+  La3  1  0.24116524  0.60634558  0.57746288  1
  La3+  La4  1  0.24293919  0.37517034  0.10768273  1
  La3+  La5  1  0.13779719  0.51089495  0.90929567  1
  La3+  La6  1  0.37991507  0.00243109  0.94311126  1
  La3+  La7  1  0.73419832  0.85506239  0.58419541  1
  La3+  La8  1  0.23721592  0.35747259  0.57240113  1
  La3+  La9  1  0.63144072  0.00466270  0.93313685  1
  La3+  La10  1  -0.01041814  0.11079358  0.56711419  1
  La3+  La11  1  0.62811067  0.50984141  0.92545096  1
  La3+  La12  1  0.49090163  0.36097388  0.56683466  1
  La3+  La13  1  0.13239089  0.48399352  0.39557151  1
  La3+  La14  1  0.50164109  0.62453707  0.06456435  1
  La3+  La15  1  -0.00551161  0.85874375  0.56315976  1
  La3+  La16  1  0.36340607  0.73282088  0.44283408  1
  La3+  La17  1  0.87570315  0.25837980  0.91210112  1
  Ce3+  Ce18  1  0.49435378  0.86029169  0.55904455  1
  Ce3+  Ce19  1  0.88232227  0.50081258  0.93988486  1
  Ce3+  Ce20  1  0.01516147  0.37698770  0.04373777  1
  Ce3+  Ce21  1  0.00552693  0.13405566  0.04693154  1
  Ce3+  Ce22  1  0.61902748  -0.01917180  0.44532663  1
  Ce3+  Ce23  1  0.50850418  0.88070624  0.06082497  1
  Ce3+  Ce24  1  0.36236771  0.48087349  0.44640121  1
  Ce3+  Ce25  1  0.61708117  0.72792785  0.43343670  1
  Ce3+  Ce26  1  0.12872666  0.00437103  0.94224792  1
  Ce3+  Ce27  1  0.62938876  0.25439364  0.93636196  1
  Ce3+  Ce28  1  0.86203839  -0.01730130  0.44653533  1
  Ce3+  Ce29  1  -0.00372922  0.88184373  0.06791315  1
  Ce3+  Ce30  1  0.49329355  0.10847025  0.56382743  1
  Ce3+  Ce31  1  0.37655399  0.25864771  0.94550482  1
  Ce3+  Ce32  1  0.12959616  0.75448659  0.93962361  1
  Ce3+  Ce33  1  0.11569906  -0.00878764  0.43715169  1
  Ce3+  Ce34  1  0.74199859  0.36732690  0.55925652  1
  Ce3+  Ce35  1  0.61752809  0.48744570  0.43768096  1
  Ce3+  Ce36  1  0.88167669  0.75300011  0.95048956  1
  Ce3+  Ce37  1  0.75158395  0.37725837  0.05542121  1
  Pr3+  Pr38  1  0.50523411  0.37482185  0.06653759  1
  Pr3+  Pr39  1  0.25379935  0.62823600  0.06195489  1
  Pr3+  Pr40  1  0.37997437  0.50308840  0.93805308  1
  Pr3+  Pr41  1  0.00961040  0.62316813  0.06055751  1
  Pr3+  Pr42  1  0.50415679  0.12889220  0.05981980  1
  Pr3+  Pr43  1  0.14189354  0.24646570  0.91801170  1
  Pr3+  Pr44  1  0.86020124  0.23009319  0.43400924  1
  Pr3+  Pr45  1  0.11772006  0.73377475  0.43790493  1
  Pr3+  Pr46  1  0.76256369  0.13527473  0.05882395  1
  Pr3+  Pr47  1  0.74859993  0.11215068  0.57672869  1
  Pr3+  Pr48  1  0.61431700  0.23422976  0.44713282  1
  Pr3+  Pr49  1  0.25012620  0.87639558  0.07146420  1
  Nd3+  Nd50  1  -0.00657786  0.61048344  0.55258908  1
  Nd3+  Nd51  1  0.74814871  0.88240350  0.07015678  1
  Nd3+  Nd52  1  0.86933653  0.48541044  0.43466216  1
  Nd3+  Nd53  1  0.86519110  0.73283043  0.44098734  1
  Nd3+  Nd54  1  0.36487606  0.23054313  0.44128446  1
  Nd3+  Nd55  1  0.87830489  0.00098656  0.93614592  1
  Nd3+  Nd56  1  0.23692228  0.11108677  0.57351106  1
  Nd3+  Nd57  1  0.63465034  0.75270013  0.94190709  1
  Sm3+  Sm58  1  0.36716884  -0.01065312  0.44694794  1
  Sm3+  Sm59  1  0.49261431  0.61235631  0.55668920  1
  Sm3+  Sm60  1  0.24173011  0.86173353  0.55163825  1
  Sm3+  Sm61  1  0.25147405  0.13025483  0.06267860  1
  Sm3+  Sm62  1  0.73969970  0.60767553  0.56571619  1
  Sm3+  Sm63  1  0.37914610  0.75418966  0.94301251  1
  Bi2+  Bi64  1  0.03762769  0.02961492  0.27860430  1
  Bi2+  Bi65  1  0.02644929  0.08343383  0.78117187  1
  Bi2+  Bi66  1  -0.03685205  0.29693811  0.25009473  1
  Bi2+  Bi67  1  -0.01867758  0.36150647  0.77711220  1
  Bi2+  Bi68  1  -0.02938040  0.62804863  0.30644582  1
  Bi2+  Bi69  1  -0.03767457  0.65660079  0.75459460  1
  Bi2+  Bi70  1  0.01036289  0.83954593  0.29023720  1
  Bi2+  Bi71  1  -0.01749803  0.84643616  0.79748788  1
  Bi2+  Bi72  1  0.25841977  0.08748279  0.28931047  1
  Bi2+  Bi73  1  0.29199898  0.11986784  0.79576806  1
  Bi2+  Bi74  1  0.29898952  0.34106836  0.30605741  1
  Bi2+  Bi75  1  0.23993153  0.38587892  0.79518610  1
  Bi2+  Bi76  1  0.26791519  0.63501175  0.28929495  1
  Bi2+  Bi77  1  0.25674262  0.65182362  0.78891035  1
  Bi2+  Bi78  1  0.19786841  0.89685862  0.29643389  1
  Bi2+  Bi79  1  0.17566624  0.86523770  0.79291679  1
  Bi2+  Bi80  1  0.51871079  0.14058348  0.31378062  1
  Bi2+  Bi81  1  0.55457255  0.19346052  0.81310125  1
  Bi2+  Bi82  1  0.51087479  0.39823226  0.26167065  1
  Bi2+  Bi83  1  0.49556330  0.37366345  0.77719911  1
  Bi2+  Bi84  1  0.52723168  0.59154469  0.26531327  1
  Bi2+  Bi85  1  0.50810146  0.61845148  0.79631043  1
  Bi2+  Bi86  1  0.47006207  0.85610713  0.29173128  1
  Bi2+  Bi87  1  0.51867971  1.00463337  0.81623092  1
  Bi2+  Bi88  1  0.81451083  0.17880338  0.29499323  1
  Bi2+  Bi89  1  0.77232443  0.10829511  0.80035099  1
  Bi2+  Bi90  1  0.69498627  0.36709128  0.29280191  1
  Bi2+  Bi91  1  0.68608552  0.43492266  0.77501674  1
  Bi2+  Bi92  1  0.73195581  0.68206210  0.30670692  1
  Bi2+  Bi93  1  0.82075338  0.56119260  0.80986595  1
  Bi2+  Bi94  1  0.74665700  0.95304226  0.28740027  1
  Bi2+  Bi95  1  0.70838323  0.79737780  0.80606489  1
  Bi2+  Bi96  1  0.19765256  -0.00624288  0.18868694  1
  Bi2+  Bi97  1  0.20599210  0.01180278  0.71342477  1
  Bi2+  Bi98  1  0.10019995  0.16759101  0.20580465  1
  Bi2+  Bi99  1  0.13149544  0.23520387  0.70702445  1
  Bi2+  Bi100  1  0.09919791  0.49452912  0.20744749  1
  Bi2+  Bi101  1  0.12164006  0.51138519  0.69490713  1
  Bi2+  Bi102  1  0.14725422  0.74561701  0.22340023  1
  Bi2+  Bi103  1  0.10089421  0.77797378  0.69373463  1
  Bi2+  Bi104  1  0.39027069  -0.02963950  0.19659444  1
  Bi2+  Bi105  1  0.40377639  -0.00553109  0.71439971  1
  Bi2+  Bi106  1  0.39387974  0.24141405  0.20827199  1
  Bi2+  Bi107  1  0.38844002  0.24262203  0.71810087  1
  Bi2+  Bi108  1  0.36529126  0.52006016  0.21188718  1
  Bi2+  Bi109  1  0.40733198  0.50765262  0.70777599  1
  Bi2+  Bi110  1  0.38727534  0.77685734  0.20365425  1
  Bi2+  Bi111  1  0.35371664  0.81096112  0.75010988  1
  Bi2+  Bi112  1  0.57819779  -0.01540770  0.22734472  1
  Bi2+  Bi113  1  0.61472724  -0.02462495  0.71526582  1
  Bi2+  Bi114  1  0.66700627  0.23217369  0.20252600  1
  Bi2+  Bi115  1  0.65832471  0.17342193  0.71435011  1
  Bi2+  Bi116  1  0.66790200  0.51580169  0.19744530  1
  Bi2+  Bi117  1  0.66146719  0.59654763  0.70804820  1
  Bi2+  Bi118  1  0.66367507  0.80318566  0.22492628  1
  Bi2+  Bi119  1  0.55113759  0.78224319  0.74020301  1
  Bi2+  Bi120  1  0.85851469  0.03249656  0.20474796  1
  Bi2+  Bi121  1  0.88680724  0.02955855  0.70833577  1
  Bi2+  Bi122  1  0.83561394  0.29286986  0.16437616  1
  Bi2+  Bi123  1  0.77342180  0.32422932  0.69260407  1
  Bi2+  Bi124  1  0.83978020  0.45065213  0.23277320  1
  Bi2+  Bi125  1  0.86961438  0.49162999  0.70439431  1
  Bi2+  Bi126  1  0.90519626  0.74415743  0.19038822  1
  Bi2+  Bi127  1  0.83335332  0.79428726  0.71781189  1
  S2-  S128  1  -0.02991729  0.12970986  0.14319250  1
  S2-  S129  1  0.10593737  0.10322679  0.64386915  1
  S2-  S130  1  0.06983407  0.38158509  0.13677331  1
  S2-  S131  1  0.06016464  0.35849444  0.65370004  1
  S2-  S132  1  -0.02168757  0.60849079  0.16108365  1
  S2-  S133  1  -0.00186987  0.61431758  0.65182473  1
  S2-  S134  1  0.04634219  0.82838180  0.15686274  1
  S2-  S135  1  -0.03481647  0.88627901  0.66131093  1
  S2-  S136  1  0.25048609  0.21106240  0.14963635  1
  S2-  S137  1  0.26386785  0.23650760  0.64827869  1
  S2-  S138  1  0.22118753  0.38868671  0.22525890  1
  S2-  S139  1  0.26110269  0.46568625  0.65319664  1
  S2-  S140  1  0.23211700  0.53879900  0.14861005  1
  S2-  S141  1  0.21543070  0.65610496  0.67530855  1
  S2-  S142  1  0.25618475  0.74851424  0.14123669  1
  S2-  S143  1  0.20961337  0.87230906  0.64659380  1
  S2-  S144  1  0.51524979  0.18260476  0.15580780  1
  S2-  S145  1  0.47177488  0.12673362  0.66022956  1
  S2-  S146  1  0.40625618  0.38400063  0.15140955  1
  S2-  S147  1  0.48960114  0.36805869  0.66708459  1
  S2-  S148  1  0.48070145  0.63936895  0.16422590  1
  S2-  S149  1  0.50433659  0.60532979  0.65492360  1
  S2-  S150  1  0.61152313  0.88254435  0.13995566  1
  S2-  S151  1  0.57577162  0.85034910  0.64371317  1
  S2-  S152  1  0.72583141  0.08800913  0.15348953  1
  S2-  S153  1  0.88265041  0.15150309  0.64576071  1
  S2-  S154  1  0.64070025  0.38673881  0.13482149  1
  S2-  S155  1  0.72958899  0.47786239  0.63621763  1
  S2-  S156  1  0.74719106  0.67687499  0.16489621  1
  S2-  S157  1  0.74694639  0.71042997  0.64632777  1
  S2-  S158  1  0.86104768  0.89380725  0.14481624  1
  S2-  S159  1  0.74709096  0.98785500  0.65268378  1
  S2-  S160  1  0.12385803  0.09904254  0.36019086  1
  S2-  S161  1  0.14485424  0.08496856  0.85630980  1
  S2-  S162  1  0.15806206  0.32793454  0.34932791  1
  S2-  S163  1  0.10960586  0.28316611  0.81795492  1
  S2-  S164  1  0.03668797  0.48265129  0.30715829  1
  S2-  S165  1  0.09140873  0.47706006  0.80389504  1
  S2-  S166  1  0.13013792  0.65127453  0.35021003  1
  S2-  S167  1  0.13696364  0.67042487  0.85356932  1
  S2-  S168  1  0.37824002  0.06067356  0.35685634  1
  S2-  S169  1  0.35612139  -0.02160350  0.84513208  1
  S2-  S170  1  0.44424001  0.26695246  0.35452815  1
  S2-  S171  1  0.31250311  0.25738567  0.85427702  1
  S2-  S172  1  0.30161406  0.49787125  0.35487465  1
  S2-  S173  1  0.28685986  0.51189372  0.84828312  1
  S2-  S174  1  0.36820581  0.74232718  0.34225113  1
  S2-  S175  1  0.38816917  0.72975249  0.84531593  1
  S2-  S176  1  0.61488243  0.01646894  0.34978063  1
  S2-  S177  1  0.70515046  -0.03732841  0.84492198  1
  S2-  S178  1  0.66587651  0.22307807  0.35152140  1
  S2-  S179  1  0.71836965  0.24547879  0.85245246  1
  S2-  S180  1  0.61415841  0.58852891  0.35865240  1
  S2-  S181  1  0.49689296  0.48559995  0.85908220  1
  S2-  S182  1  0.61697593  0.79566305  0.34368317  1
  S2-  S183  1  0.63590495  0.65494249  0.85929826  1
  S2-  S184  1  0.85115551  0.03789715  0.35440574  1
  S2-  S185  1  0.92244189  -0.01091600  0.83922517  1
  S2-  S186  1  0.94149937  0.25123433  0.34620441  1
  S2-  S187  1  0.91502975  0.20287046  0.81453694  1
  S2-  S188  1  0.83812574  0.54917539  0.34302821  1
  S2-  S189  1  0.87874955  0.41388071  0.85426655  1
  S2-  S190  1  0.86982090  0.77003631  0.34277770  1
  S2-  S191  1  0.85741583  0.76619005  0.85569460  1
  S2-  S192  1  -0.01481045  0.10851466  0.45877711  1
  S2-  S193  1  0.00119161  0.12983026  0.94327170  1
  S2-  S194  1  -0.00528624  0.36797574  0.44948105  1
  S2-  S195  1  0.01695756  0.37725504  0.93960919  1
  S2-  S196  1  -0.00658659  0.60797328  0.44772298  1
  S2-  S197  1  0.00450343  0.62617142  0.95162783  1
  S2-  S198  1  -0.00757984  0.85925557  0.45248850  1
  S2-  S199  1  0.00509529  0.87968060  0.95635938  1
  S2-  S200  1  0.24368550  0.10833896  0.46412395  1
  S2-  S201  1  0.25727548  0.12681604  0.95912252  1
  S2-  S202  1  0.24429196  0.35733042  0.46077758  1
  S2-  S203  1  0.25221343  0.38041112  0.94580984  1
  S2-  S204  1  0.24011984  0.60822872  0.46143834  1
  S2-  S205  1  0.25834803  0.63426129  0.95562755  1
  S2-  S206  1  0.24214289  0.86483690  0.44711990  1
  S2-  S207  1  0.25358238  0.87692238  0.95789737  1
  S2-  S208  1  0.49320168  0.10799655  0.46007245  1
  S2-  S209  1  0.50294086  0.13035074  0.95209841  1
  S2-  S210  1  0.49350701  0.36335489  0.45880338  1
  S2-  S211  1  0.50651012  0.37434332  0.95857180  1
  S2-  S212  1  0.48617429  0.60761852  0.45360191  1
  S2-  S213  1  0.50172729  0.63441204  0.95785878  1
  S2-  S214  1  0.48825245  0.86124510  0.45366697  1
  S2-  S215  1  0.50739803  0.87481480  0.95196350  1
  S2-  S216  1  0.73914452  0.10896540  0.46454108  1
  S2-  S217  1  0.75808942  0.12705634  0.95127855  1
  S2-  S218  1  0.74171860  0.36303548  0.45094646  1
  S2-  S219  1  0.74967234  0.38323720  0.95118125  1
  S2-  S220  1  0.74400806  0.60825413  0.46032811  1
  S2-  S221  1  0.76014832  0.62638802  0.95984259  1
  S2-  S222  1  0.74106977  0.85567463  0.45579364  1
  S2-  S223  1  0.75578305  0.87638859  0.96181983  1
  S2-  S224  1  0.12870439  0.00425604  0.04921218  1
  S2-  S225  1  0.11836631  -0.01726366  0.54268531  1
  S2-  S226  1  0.13451016  0.24993541  0.03641576  1
  S2-  S227  1  0.11418855  0.23479465  0.54126667  1
  S2-  S228  1  0.13224654  0.50454009  0.03589659  1
  S2-  S229  1  0.11645824  0.48871945  0.55146566  1
  S2-  S230  1  0.12469109  0.75556923  0.04357850  1
  S2-  S231  1  0.12052763  0.73547632  0.54483901  1
  S2-  S232  1  0.37681697  0.00330504  0.05157139  1
  S2-  S233  1  0.36540139  -0.01498993  0.55253491  1
  S2-  S234  1  0.37644227  0.25164468  0.04830418  1
  S2-  S235  1  0.37105291  0.23314512  0.54682829  1
  S2-  S236  1  0.37896086  0.50156231  0.04640002  1
  S2-  S237  1  0.37050399  0.48789145  0.55043215  1
  S2-  S238  1  0.38403780  0.75957389  0.04641932  1
  S2-  S239  1  0.36618255  0.73627186  0.55278896  1
  S2-  S240  1  0.63061487  0.00846684  0.04088963  1
  S2-  S241  1  0.61763217  -0.01270670  0.54990640  1
  S2-  S242  1  0.63083669  0.24931071  0.04075316  1
  S2-  S243  1  0.62034672  0.23715509  0.55550270  1
  S2-  S244  1  0.62884361  0.50667890  0.03766895  1
  S2-  S245  1  0.61204757  0.48929935  0.54234951  1
  S2-  S246  1  0.63067292  0.74850996  0.04697634  1
  S2-  S247  1  0.61486245  0.73114483  0.54118443  1
  S2-  S248  1  0.87957528  0.00760149  0.04098598  1
  S2-  S249  1  0.86518079  -0.01970543  0.55040619  1
  S2-  S250  1  0.88238595  0.25901435  0.02955893  1
  S2-  S251  1  0.86298515  0.24334950  0.54030346  1
  S2-  S252  1  0.88265244  0.49831294  0.04779560  1
  S2-  S253  1  0.86816292  0.48922566  0.54190792  1
  S2-  S254  1  0.87953553  0.74943178  0.05314082  1
  S2-  S255  1  0.86775661  0.73510325  0.54666075  1
