# generated using pymatgen
data_La9Ce10Pr6Nd4Sm3(BiS2)32
_symmetry_space_group_name_H-M   'P 1'
_cell_length_a   16.24730869
_cell_length_b   16.23653411
_cell_length_c   27.01622704
_cell_angle_alpha   90.03712588
_cell_angle_beta   89.99898528
_cell_angle_gamma   90.04516199
_symmetry_Int_Tables_number   1
_chemical_formula_structural   La9Ce10Pr6Nd4Sm3(BiS2)32
_chemical_formula_sum   'La18 Ce20 Pr12 Nd8 Sm6 Bi64 S128'
_cell_volume   7126.87648783
_cell_formula_units_Z   2
loop_
 _symmetry_equiv_pos_site_id
 _symmetry_equiv_pos_as_xyz
  1  'x, y, z'
loop_
 _atom_type_symbol
 _atom_type_oxidation_number
  La3+  3.0
  Ce3+  3.0
  Pr3+  3.0
  Nd3+  3.0
  Sm3+  3.0
  Bi2+  2.0
  S2-  -2.0
loop_
 _atom_site_type_symbol
 _atom_site_label
 _atom_site_symmetry_multiplicity
 _atom_site_fract_x
 _atom_site_fract_y
 _atom_site_fract_z
 _atom_site_occupancy
  La3+  La0  1  0.62602679  0.75646900  0.92229508  1
  La3+  La1  1  0.87501362  -0.00569601  0.42445163  1
  La3+  La2  1  0.23475464  0.87211218  0.10646007  1
  La3+  La3  1  0.50310474  0.36568860  0.59101488  1
  La3+  La4  1  0.25274621  0.12784102  0.07147476  1
  La3+  La5  1  0.87558836  0.74880031  0.93953473  1
  La3+  La6  1  0.37384032  0.75206279  0.93852331  1
  La3+  La7  1  0.36682222  0.49593267  0.92581589  1
  La3+  La8  1  -0.01596712  0.12695960  0.58786201  1
  La3+  La9  1  0.63058693  0.48526725  0.90521974  1
  La3+  La10  1  0.12019288  0.24770785  0.44325420  1
  La3+  La11  1  0.75509882  0.11357523  0.08703004  1
  La3+  La12  1  0.37394491  0.23961907  0.92734643  1
  La3+  La13  1  0.25205425  0.13206473  0.57597028  1
  La3+  La14  1  0.35844253  -0.01023950  0.41329910  1
  La3+  La15  1  0.74209947  0.38293436  0.07917256  1
  La3+  La16  1  0.62737971  0.26046648  0.41830031  1
  La3+  La17  1  0.36326853  0.25086516  0.42698366  1
  Ce3+  Ce18  1  0.49719926  0.13161610  0.54627651  1
  Ce3+  Ce19  1  0.25377240  0.37159150  0.06227104  1
  Ce3+  Ce20  1  0.37179861  0.50087982  0.44948012  1
  Ce3+  Ce21  1  0.74718208  0.12789613  0.54739448  1
  Ce3+  Ce22  1  0.74352768  0.62368713  0.05495735  1
  Ce3+  Ce23  1  0.87243204  0.75201780  0.43689064  1
  Ce3+  Ce24  1  0.74593480  0.62502325  0.55644973  1
  Ce3+  Ce25  1  0.12650847  0.49655679  0.94310564  1
  Ce3+  Ce26  1  -0.00163887  0.37484043  0.05777377  1
  Ce3+  Ce27  1  0.74874954  0.88061995  0.55736660  1
  Ce3+  Ce28  1  0.00112310  0.12212156  0.05875260  1
  Ce3+  Ce29  1  0.24764715  0.37535332  0.56606175  1
  Ce3+  Ce30  1  0.49819767  0.87288994  0.06065665  1
  Ce3+  Ce31  1  0.87083652  0.24907012  0.95409118  1
  Ce3+  Ce32  1  0.62761045  0.00075797  0.94599203  1
  Ce3+  Ce33  1  0.12469985  -0.00010939  0.45933530  1
  Ce3+  Ce34  1  0.50115154  0.37433248  0.04909215  1
  Ce3+  Ce35  1  0.25075343  0.62577153  0.05884929  1
  Ce3+  Ce36  1  0.62043369  0.49741492  0.44242706  1
  Ce3+  Ce37  1  -0.00329372  0.37401333  0.56492572  1
  Pr3+  Pr38  1  0.26144305  0.87623587  0.57774398  1
  Pr3+  Pr39  1  0.12425522  0.75469733  0.44819341  1
  Pr3+  Pr40  1  0.62095301  0.75146370  0.44513884  1
  Pr3+  Pr41  1  0.12521991  0.75094227  0.93532021  1
  Pr3+  Pr42  1  0.00188395  0.62507734  0.05194003  1
  Pr3+  Pr43  1  0.87317916  0.50043931  0.44250974  1
  Pr3+  Pr44  1  0.36829925  0.73953087  0.43410229  1
  Pr3+  Pr45  1  -0.00257810  0.62800634  0.56007259  1
  Pr3+  Pr46  1  0.37223785  0.00043182  0.94458858  1
  Pr3+  Pr47  1  0.87359993  0.00336140  0.93474245  1
  Pr3+  Pr48  1  0.74840664  0.37331572  0.56269699  1
  Pr3+  Pr49  1  0.50032298  0.62317111  0.04681085  1
  Nd3+  Nd50  1  0.12352386  0.24860679  0.94156260  1
  Nd3+  Nd51  1  0.49780385  0.87973181  0.55268972  1
  Nd3+  Nd52  1  0.24894208  0.62514961  0.56669283  1
  Nd3+  Nd53  1  -0.00031200  0.87447144  0.06094194  1
  Nd3+  Nd54  1  0.74670003  0.86999974  0.06504994  1
  Nd3+  Nd55  1  -0.01113803  0.87412589  0.57652262  1
  Nd3+  Nd56  1  0.87415990  0.24875851  0.43148493  1
  Nd3+  Nd57  1  0.61907257  0.00229515  0.43321607  1
  Sm3+  Sm58  1  0.12010519  0.50034331  0.44854170  1
  Sm3+  Sm59  1  0.12362850  -0.00016277  0.93690370  1
  Sm3+  Sm60  1  0.49892364  0.62555455  0.56366571  1
  Sm3+  Sm61  1  0.62950668  0.25027412  0.94442746  1
  Sm3+  Sm62  1  0.50134375  0.12429203  0.06164246  1
  Sm3+  Sm63  1  0.87211758  0.49678779  0.94087009  1
  Bi2+  Bi64  1  0.06303949  0.18578365  0.30072494  1
  Bi2+  Bi65  1  -0.07176371  0.13165412  0.78595753  1
  Bi2+  Bi66  1  0.00158216  0.41483699  0.29315198  1
  Bi2+  Bi67  1  0.00264995  0.38925344  0.79464705  1
  Bi2+  Bi68  1  -0.04773675  0.67395029  0.29001186  1
  Bi2+  Bi69  1  0.01813832  0.58270295  0.78568205  1
  Bi2+  Bi70  1  0.00603512  0.87472876  0.26564905  1
  Bi2+  Bi71  1  -0.02392111  0.84517308  0.79039675  1
  Bi2+  Bi72  1  0.26351558  0.12613751  0.30091456  1
  Bi2+  Bi73  1  0.25285751  0.12207096  0.79627543  1
  Bi2+  Bi74  1  0.25768475  0.40589609  0.29831572  1
  Bi2+  Bi75  1  0.22457516  0.36414024  0.79069397  1
  Bi2+  Bi76  1  0.25598578  0.62078530  0.28824534  1
  Bi2+  Bi77  1  0.20345661  0.63337930  0.78997401  1
  Bi2+  Bi78  1  0.22666141  0.86656152  0.30282074  1
  Bi2+  Bi79  1  0.29392336  0.86606618  0.77543733  1
  Bi2+  Bi80  1  0.50155644  0.12759764  0.26575270  1
  Bi2+  Bi81  1  0.52511211  0.08886487  0.79770394  1
  Bi2+  Bi82  1  0.50509864  0.40544701  0.27984122  1
  Bi2+  Bi83  1  0.50124277  0.37056697  0.78615058  1
  Bi2+  Bi84  1  0.48195763  0.59704387  0.28657148  1
  Bi2+  Bi85  1  0.49209092  0.63277680  0.79172085  1
  Bi2+  Bi86  1  0.51068918  0.79488945  0.28204627  1
  Bi2+  Bi87  1  0.48712580  0.88903342  0.80150856  1
  Bi2+  Bi88  1  0.74094489  0.12094983  0.28936778  1
  Bi2+  Bi89  1  0.73134021  0.13836289  0.80847360  1
  Bi2+  Bi90  1  0.75517355  0.38591848  0.28529267  1
  Bi2+  Bi91  1  0.80323175  0.37212102  0.77895238  1
  Bi2+  Bi92  1  0.75271135  0.64983560  0.27930502  1
  Bi2+  Bi93  1  0.83101067  0.62434698  0.79157636  1
  Bi2+  Bi94  1  0.75403567  0.85593923  0.30679896  1
  Bi2+  Bi95  1  0.74562828  0.94759753  0.78460049  1
  Bi2+  Bi96  1  0.09086268  0.04086418  0.22345515  1
  Bi2+  Bi97  1  0.12759166  -0.02989795  0.73206303  1
  Bi2+  Bi98  1  0.12892205  0.28858328  0.20791078  1
  Bi2+  Bi99  1  0.09691384  0.27567702  0.71587693  1
  Bi2+  Bi100  1  0.14035796  0.48762465  0.21695752  1
  Bi2+  Bi101  1  0.10567633  0.46530044  0.68898981  1
  Bi2+  Bi102  1  0.10196683  0.72376972  0.21150322  1
  Bi2+  Bi103  1  0.11368989  0.71904970  0.69793624  1
  Bi2+  Bi104  1  0.38238063  0.00700174  0.20122209  1
  Bi2+  Bi105  1  0.42327140  -0.00097474  0.71145088  1
  Bi2+  Bi106  1  0.36839495  0.31564869  0.21815946  1
  Bi2+  Bi107  1  0.36220726  0.20888091  0.70617016  1
  Bi2+  Bi108  1  0.33126358  0.50315596  0.19566613  1
  Bi2+  Bi109  1  0.29862829  0.48285922  0.71165477  1
  Bi2+  Bi110  1  0.38309186  0.71520677  0.20794648  1
  Bi2+  Bi111  1  0.39550521  0.74277665  0.70576452  1
  Bi2+  Bi112  1  0.63639890  -0.08737976  0.22022962  1
  Bi2+  Bi113  1  0.62255083  -0.02474216  0.69156299  1
  Bi2+  Bi114  1  0.61268580  0.27081774  0.19347394  1
  Bi2+  Bi115  1  0.62434977  0.17258703  0.71363760  1
  Bi2+  Bi116  1  0.60746372  0.52727857  0.20477093  1
  Bi2+  Bi117  1  0.62321316  0.51468980  0.69677634  1
  Bi2+  Bi118  1  0.66865433  0.73262826  0.17855203  1
  Bi2+  Bi119  1  0.64041291  0.79471272  0.73586629  1
  Bi2+  Bi120  1  0.88155895  0.00598811  0.22428298  1
  Bi2+  Bi121  1  0.88115148  0.00801831  0.70733043  1
  Bi2+  Bi122  1  0.93400643  0.26946123  0.22886434  1
  Bi2+  Bi123  1  0.80761773  0.27523193  0.68339127  1
  Bi2+  Bi124  1  0.87990796  0.55342592  0.20881309  1
  Bi2+  Bi125  1  0.90259733  0.47559985  0.70255056  1
  Bi2+  Bi126  1  0.85541991  0.76877602  0.20286979  1
  Bi2+  Bi127  1  0.82265121  0.74031730  0.70227202  1
  S2-  S128  1  -0.03161347  0.09448565  0.15429912  1
  S2-  S129  1  0.04380439  0.08293400  0.68423192  1
  S2-  S130  1  -0.01013492  0.37260910  0.15562224  1
  S2-  S131  1  -0.02572591  0.27687490  0.64635810  1
  S2-  S132  1  0.00317565  0.62096974  0.15293787  1
  S2-  S133  1  -0.02773866  0.67615998  0.65622235  1
  S2-  S134  1  0.07438968  0.85998992  0.15090066  1
  S2-  S135  1  0.03608622  0.86985281  0.67812591  1
  S2-  S136  1  0.23169518  0.03371551  0.15606388  1
  S2-  S137  1  0.27678644  0.07276093  0.67232689  1
  S2-  S138  1  0.26201330  0.26452555  0.14144049  1
  S2-  S139  1  0.25571664  0.27492292  0.64632659  1
  S2-  S140  1  0.23797714  0.70229311  0.14614766  1
  S2-  S141  1  0.27284517  0.64062403  0.66531643  1
  S2-  S142  1  0.29908604  0.86764847  0.20633911  1
  S2-  S143  1  0.22595812  0.85298906  0.67890204  1
  S2-  S144  1  0.47087520  0.14791456  0.15858241  1
  S2-  S145  1  0.49773413  0.20251096  0.63773603  1
  S2-  S146  1  0.54088997  0.40591504  0.14217487  1
  S2-  S147  1  0.44491401  0.41452080  0.68569858  1
  S2-  S148  1  0.51964902  0.65235097  0.14707394  1
  S2-  S149  1  0.51230020  0.63434810  0.66273670  1
  S2-  S150  1  0.50400685  0.90802233  0.15737354  1
  S2-  S151  1  0.41799956  0.86205208  0.64009477  1
  S2-  S152  1  0.69937239  0.13895937  0.18367647  1
  S2-  S153  1  0.82001301  0.11912260  0.63737954  1
  S2-  S154  1  0.75801211  0.33577496  0.18038618  1
  S2-  S155  1  0.65617555  0.36940766  0.64926267  1
  S2-  S156  1  0.74541586  0.53253879  0.13885506  1
  S2-  S157  1  0.73982214  0.60476032  0.65449287  1
  S2-  S158  1  0.77052953  0.95889040  0.14974534  1
  S2-  S159  1  0.84259158  0.87870331  0.63891836  1
  S2-  S160  1  0.19118922  -0.00155383  0.36667179  1
  S2-  S161  1  0.16998179  0.00274602  0.83971498  1
  S2-  S162  1  0.21269929  0.25782397  0.35838990  1
  S2-  S163  1  0.14628722  0.22936652  0.84263548  1
  S2-  S164  1  0.12378830  0.48432975  0.35037827  1
  S2-  S165  1  0.21323164  0.50492656  0.85771650  1
  S2-  S166  1  0.16100550  0.73543673  0.34916308  1
  S2-  S167  1  0.10750141  0.76681802  0.83430741  1
  S2-  S168  1  0.39908431  0.01780117  0.31141904  1
  S2-  S169  1  0.37560810  0.09394820  0.85903049  1
  S2-  S170  1  0.39550802  0.21938863  0.32626248  1
  S2-  S171  1  0.36920918  0.30289793  0.83166147  1
  S2-  S172  1  0.36421638  0.59876644  0.36641165  1
  S2-  S173  1  0.41949150  0.50305371  0.82899851  1
  S2-  S174  1  0.36219212  0.83716227  0.35140158  1
  S2-  S175  1  0.37232324  0.74630074  0.83679934  1
  S2-  S176  1  0.65278612  -0.01080690  0.33495999  1
  S2-  S177  1  0.63002095  -0.09203923  0.86194277  1
  S2-  S178  1  0.60174211  0.20665632  0.32236621  1
  S2-  S179  1  0.61863747  0.32475934  0.85550822  1
  S2-  S180  1  0.62850582  0.42255046  0.35281747  1
  S2-  S181  1  0.60467589  0.50911790  0.79806540  1
  S2-  S182  1  0.63217469  0.73742721  0.34425986  1
  S2-  S183  1  0.63625666  0.70142480  0.82549091  1
  S2-  S184  1  0.87561116  0.06457562  0.32857897  1
  S2-  S185  1  0.95398640  -0.00527333  0.84406629  1
  S2-  S186  1  0.78872569  0.26213562  0.34439958  1
  S2-  S187  1  0.85903643  0.24077436  0.85562989  1
  S2-  S188  1  0.85631409  0.47447316  0.34224683  1
  S2-  S189  1  0.78963383  0.49325275  0.85479368  1
  S2-  S190  1  0.90394277  0.85226414  0.35936294  1
  S2-  S191  1  0.85459704  0.78008285  0.84088083  1
  S2-  S192  1  -0.00294861  0.12226053  0.44730952  1
  S2-  S193  1  0.00051540  0.12460214  0.95163493  1
  S2-  S194  1  -0.00330732  0.37533181  0.45419909  1
  S2-  S195  1  -0.00250845  0.37461226  0.94937508  1
  S2-  S196  1  -0.00101845  0.62662070  0.45085890  1
  S2-  S197  1  -0.00076847  0.61971601  0.94351779  1
  S2-  S198  1  0.00100491  0.87513012  0.46694602  1
  S2-  S199  1  0.00065022  0.87656951  0.95253520  1
  S2-  S200  1  0.24849369  0.12365820  0.46370014  1
  S2-  S201  1  0.24302833  0.12280742  0.95996013  1
  S2-  S202  1  0.24385596  0.38125718  0.45988181  1
  S2-  S203  1  0.24927510  0.36771543  0.95505958  1
  S2-  S204  1  0.23981128  0.62172597  0.46179254  1
  S2-  S205  1  0.24849852  0.62789731  0.95305854  1
  S2-  S206  1  0.24963703  0.87364285  0.46815056  1
  S2-  S207  1  0.24733543  0.87790177  0.94428128  1
  S2-  S208  1  0.49135050  0.12190911  0.43960252  1
  S2-  S209  1  0.50759319  0.12539679  0.95574635  1
  S2-  S210  1  0.49130535  0.37618512  0.44574443  1
  S2-  S211  1  0.49703958  0.37223636  0.94587637  1
  S2-  S212  1  0.50145173  0.62384457  0.45767967  1
  S2-  S213  1  0.50095057  0.62239354  0.93889951  1
  S2-  S214  1  0.49567471  0.87622407  0.44716580  1
  S2-  S215  1  0.49710653  0.87789667  0.95422478  1
  S2-  S216  1  0.74699254  0.12441766  0.44256031  1
  S2-  S217  1  0.74896092  0.12429940  0.96233253  1
  S2-  S218  1  0.75122684  0.37735381  0.45580402  1
  S2-  S219  1  0.75098308  0.37311731  0.96257057  1
  S2-  S220  1  0.74657176  0.62472466  0.44807707  1
  S2-  S221  1  0.74917534  0.62493580  0.94822745  1
  S2-  S222  1  0.74370293  0.87691616  0.45191872  1
  S2-  S223  1  0.75532994  0.87654509  0.95794805  1
  S2-  S224  1  0.12416470  -0.00357982  0.04568792  1
  S2-  S225  1  0.12065053  -0.00024584  0.56461518  1
  S2-  S226  1  0.12044246  0.24997219  0.04820339  1
  S2-  S227  1  0.11645790  0.24695189  0.55070503  1
  S2-  S228  1  0.12758196  0.49760617  0.05073215  1
  S2-  S229  1  0.12170440  0.50129182  0.55389952  1
  S2-  S230  1  0.12537392  0.75216601  0.04213763  1
  S2-  S231  1  0.12527592  0.75323160  0.55732184  1
  S2-  S232  1  0.37670695  0.00050656  0.05140674  1
  S2-  S233  1  0.37637551  0.00582492  0.54750488  1
  S2-  S234  1  0.38159701  0.24753647  0.03906750  1
  S2-  S235  1  0.37547871  0.25834625  0.53921875  1
  S2-  S236  1  0.37414978  0.49899441  0.04014842  1
  S2-  S237  1  0.37675969  0.49999952  0.55720156  1
  S2-  S238  1  0.37292948  0.75274099  0.04722965  1
  S2-  S239  1  0.37499869  0.74356729  0.54340434  1
  S2-  S240  1  0.62464039  -0.00014773  0.05265327  1
  S2-  S241  1  0.62142129  0.00369755  0.54184074  1
  S2-  S242  1  0.62792829  0.24499722  0.05239114  1
  S2-  S243  1  0.62389562  0.25242590  0.53396607  1
  S2-  S244  1  0.62224669  0.50023613  0.03327104  1
  S2-  S245  1  0.61801648  0.49900736  0.54830037  1
  S2-  S246  1  0.62363476  0.75191440  0.03562900  1
  S2-  S247  1  0.62137197  0.75291289  0.55357603  1
  S2-  S248  1  0.87662391  -0.00314752  0.04345580  1
  S2-  S249  1  0.87261362  0.00305675  0.53703605  1
  S2-  S250  1  0.87152881  0.24789964  0.06024253  1
  S2-  S251  1  0.87252956  0.25062530  0.53719047  1
  S2-  S252  1  0.87637034  0.50090679  0.04472689  1
  S2-  S253  1  0.87321724  0.50080016  0.55079877  1
  S2-  S254  1  0.87439722  0.74905107  0.04898819  1
  S2-  S255  1  0.86913740  0.74824683  0.54196684  1
