# generated using pymatgen
data_La9Ce10Pr6Nd4Sm3(BiS2)32
_symmetry_space_group_name_H-M   'P 1'
_cell_length_a   16.24044185
_cell_length_b   16.22881185
_cell_length_c   26.99208804
_cell_angle_alpha   90.16971993
_cell_angle_beta   89.99890053
_cell_angle_gamma   89.98329116
_symmetry_Int_Tables_number   1
_chemical_formula_structural   La9Ce10Pr6Nd4Sm3(BiS2)32
_chemical_formula_sum   'La18 Ce20 Pr12 Nd8 Sm6 Bi64 S128'
_cell_volume   7114.08621491
_cell_formula_units_Z   2
loop_
 _symmetry_equiv_pos_site_id
 _symmetry_equiv_pos_as_xyz
  1  'x, y, z'
loop_
 _atom_type_symbol
 _atom_type_oxidation_number
  La3+  3.0
  Ce3+  3.0
  Pr3+  3.0
  Nd3+  3.0
  Sm3+  3.0
  Bi2+  2.0
  S2-  -2.0
loop_
 _atom_site_type_symbol
 _atom_site_label
 _atom_site_symmetry_multiplicity
 _atom_site_fract_x
 _atom_site_fract_y
 _atom_site_fract_z
 _atom_site_occupancy
  La3+  La0  1  0.25505042  0.86606825  0.10528125  1
  La3+  La1  1  0.75846798  0.37558734  0.10485949  1
  La3+  La2  1  0.24192830  0.13152714  0.07834310  1
  La3+  La3  1  0.38421121  0.23573777  0.91950141  1
  La3+  La4  1  0.00060764  0.12405674  0.56650801  1
  La3+  La5  1  0.38257080  0.74744937  0.41374528  1
  La3+  La6  1  0.12015250  0.49498512  0.91371655  1
  La3+  La7  1  0.50222318  0.13805150  0.58857793  1
  La3+  La8  1  0.48693360  0.86753821  0.58365140  1
  La3+  La9  1  0.63164234  -0.00730263  0.92640078  1
  La3+  La10  1  0.25189560  0.36116046  0.57805747  1
  La3+  La11  1  0.11544189  0.73879019  0.41338013  1
  La3+  La12  1  -0.00582505  0.38330081  0.58622336  1
  La3+  La13  1  0.50626854  0.87751205  0.07037010  1
  La3+  La14  1  0.87370007  0.25058780  0.92781460  1
  La3+  La15  1  0.49676034  0.13318813  0.07699269  1
  La3+  La16  1  0.36417787  0.24364721  0.41993724  1
  La3+  La17  1  0.37179839  0.49276717  0.44144414  1
  Ce3+  Ce18  1  0.74944808  0.87701542  0.06810845  1
  Ce3+  Ce19  1  0.49418203  0.62419682  0.55791996  1
  Ce3+  Ce20  1  0.00163117  0.86617497  0.55912690  1
  Ce3+  Ce21  1  0.37483361  0.75376646  0.93918164  1
  Ce3+  Ce22  1  0.75082765  0.62016631  0.06303714  1
  Ce3+  Ce23  1  0.61684583  0.00152431  0.44650451  1
  Ce3+  Ce24  1  0.37384351  0.49754631  0.94294534  1
  Ce3+  Ce25  1  0.49938934  0.62394254  0.05702248  1
  Ce3+  Ce26  1  0.74388540  0.12452212  0.55996830  1
  Ce3+  Ce27  1  0.24852427  0.62463257  0.54936869  1
  Ce3+  Ce28  1  0.87391368  0.24862084  0.44271898  1
  Ce3+  Ce29  1  0.49790140  0.37315556  0.06236279  1
  Ce3+  Ce30  1  0.12916467  -0.00093900  0.94478125  1
  Ce3+  Ce31  1  0.25221707  0.12139944  0.55610835  1
  Ce3+  Ce32  1  0.25279803  0.86952344  0.54261025  1
  Ce3+  Ce33  1  0.00139949  0.62980317  0.56618651  1
  Ce3+  Ce34  1  0.87250661  0.49539341  0.44678925  1
  Ce3+  Ce35  1  0.11858995  0.24704840  0.44050009  1
  Ce3+  Ce36  1  0.87486170  -0.00584932  0.94309965  1
  Ce3+  Ce37  1  0.24942533  0.37015029  0.04633710  1
  Pr3+  Pr38  1  0.12967905  0.23739626  0.92635504  1
  Pr3+  Pr39  1  0.12116211  0.49449286  0.44121612  1
  Pr3+  Pr40  1  0.62340083  0.49511445  0.43910233  1
  Pr3+  Pr41  1  0.00090613  0.37457360  0.05510914  1
  Pr3+  Pr42  1  0.74448304  0.37285641  0.57050823  1
  Pr3+  Pr43  1  0.12269016  -0.00534228  0.43933088  1
  Pr3+  Pr44  1  0.00065246  0.87691101  0.06972054  1
  Pr3+  Pr45  1  0.24726606  0.62633591  0.05658041  1
  Pr3+  Pr46  1  0.74278571  0.87488603  0.56045243  1
  Pr3+  Pr47  1  0.86975701  0.74792142  0.43497747  1
  Pr3+  Pr48  1  0.62651721  0.74685346  0.94010856  1
  Pr3+  Pr49  1  0.63160884  0.24920438  0.42077720  1
  Nd3+  Nd50  1  0.00183990  0.62140553  0.05541229  1
  Nd3+  Nd51  1  0.75000115  0.12883729  0.06048621  1
  Nd3+  Nd52  1  0.87182988  -0.00278937  0.44775262  1
  Nd3+  Nd53  1  0.87676974  0.74700766  0.94868108  1
  Nd3+  Nd54  1  0.12564045  0.75308227  0.93774071  1
  Nd3+  Nd55  1  0.74396776  0.62592161  0.55688578  1
  Nd3+  Nd56  1  0.62314602  0.24909908  0.94524655  1
  Nd3+  Nd57  1  0.62296704  0.75098671  0.43592613  1
  Sm3+  Sm58  1  0.62572490  0.49653953  0.95009503  1
  Sm3+  Sm59  1  0.37725671  -0.00017831  0.43929709  1
  Sm3+  Sm60  1  0.87299800  0.49882548  0.93911480  1
  Sm3+  Sm61  1  0.49822082  0.36958277  0.54830313  1
  Sm3+  Sm62  1  0.37689823  -0.00394962  0.95162330  1
  Sm3+  Sm63  1  0.00040637  0.12688008  0.05362153  1
  Bi2+  Bi64  1  -0.01815148  0.20217028  0.32714365  1
  Bi2+  Bi65  1  0.01805100  0.05675136  0.78291421  1
  Bi2+  Bi66  1  0.00446249  0.38555447  0.29085346  1
  Bi2+  Bi67  1  0.00950606  0.38914928  0.78738171  1
  Bi2+  Bi68  1  -0.06536601  0.62979997  0.28841419  1
  Bi2+  Bi69  1  -0.04755191  0.64504656  0.78769557  1
  Bi2+  Bi70  1  -0.02729121  0.89783586  0.28628546  1
  Bi2+  Bi71  1  0.03915887  0.87610160  0.82111253  1
  Bi2+  Bi72  1  0.14726354  0.13485834  0.28222273  1
  Bi2+  Bi73  1  0.24877610  0.04984396  0.78968155  1
  Bi2+  Bi74  1  0.19826804  0.39713422  0.30520326  1
  Bi2+  Bi75  1  0.25831245  0.39196823  0.78631459  1
  Bi2+  Bi76  1  0.21663381  0.59393819  0.28243141  1
  Bi2+  Bi77  1  0.33256984  0.61024962  0.78051611  1
  Bi2+  Bi78  1  0.24538965  0.90983176  0.29032090  1
  Bi2+  Bi79  1  0.23366822  0.84851630  0.80771065  1
  Bi2+  Bi80  1  0.48632864  0.10090144  0.30362658  1
  Bi2+  Bi81  1  0.47863632  0.13880947  0.79102164  1
  Bi2+  Bi82  1  0.50941021  0.37429711  0.29427838  1
  Bi2+  Bi83  1  0.52308828  0.38492911  0.78503847  1
  Bi2+  Bi84  1  0.47932133  0.60746547  0.28318058  1
  Bi2+  Bi85  1  0.51920860  0.66454587  0.78655960  1
  Bi2+  Bi86  1  0.57702915  0.87095647  0.29230995  1
  Bi2+  Bi87  1  0.51664057  0.88206162  0.78857478  1
  Bi2+  Bi88  1  0.81270550  0.11347882  0.28682829  1
  Bi2+  Bi89  1  0.75592137  0.11941848  0.78701855  1
  Bi2+  Bi90  1  0.76694051  0.37809471  0.29089182  1
  Bi2+  Bi91  1  0.74040714  0.39986660  0.78950165  1
  Bi2+  Bi92  1  0.74027577  0.64017325  0.29776062  1
  Bi2+  Bi93  1  0.70583761  0.59816890  0.79003917  1
  Bi2+  Bi94  1  0.76419506  0.83045953  0.31415049  1
  Bi2+  Bi95  1  0.77092865  0.85580277  0.79419753  1
  Bi2+  Bi96  1  0.03136912  0.02236907  0.20724042  1
  Bi2+  Bi97  1  0.13884710  -0.04668160  0.70984238  1
  Bi2+  Bi98  1  0.11903148  0.28105635  0.20731306  1
  Bi2+  Bi99  1  0.11028828  0.21091470  0.71675944  1
  Bi2+  Bi100  1  0.14403415  0.48078968  0.19503902  1
  Bi2+  Bi101  1  0.14263189  0.51937159  0.69639168  1
  Bi2+  Bi102  1  0.12125011  0.73225775  0.21342726  1
  Bi2+  Bi103  1  0.11524201  0.76121642  0.72657837  1
  Bi2+  Bi104  1  0.41076218  0.00211620  0.21180645  1
  Bi2+  Bi105  1  0.36350649  -0.03083909  0.71229093  1
  Bi2+  Bi106  1  0.36421087  0.26389687  0.21131287  1
  Bi2+  Bi107  1  0.36156272  0.26606131  0.70328994  1
  Bi2+  Bi108  1  0.33298902  0.46648275  0.22218506  1
  Bi2+  Bi109  1  0.46691894  0.51840099  0.70982568  1
  Bi2+  Bi110  1  0.38552694  0.72973615  0.21891532  1
  Bi2+  Bi111  1  0.35795050  0.73799792  0.70093758  1
  Bi2+  Bi112  1  0.68749983  -0.00846623  0.22230531  1
  Bi2+  Bi113  1  0.67345168  0.00149480  0.70793514  1
  Bi2+  Bi114  1  0.62605722  0.22355069  0.20990301  1
  Bi2+  Bi115  1  0.64830014  0.27092221  0.71895458  1
  Bi2+  Bi116  1  0.62570662  0.55252450  0.21219455  1
  Bi2+  Bi117  1  0.64914263  0.46122368  0.68580638  1
  Bi2+  Bi118  1  0.65811667  0.74758748  0.20947896  1
  Bi2+  Bi119  1  0.64909693  0.71569443  0.70320123  1
  Bi2+  Bi120  1  0.86140529  -0.04769517  0.17424490  1
  Bi2+  Bi121  1  0.86770280  -0.00432249  0.71625110  1
  Bi2+  Bi122  1  0.90218234  0.22776330  0.21709601  1
  Bi2+  Bi123  1  0.85150258  0.24811924  0.72575135  1
  Bi2+  Bi124  1  0.91997851  0.50278274  0.20364020  1
  Bi2+  Bi125  1  0.84204435  0.51062409  0.71056010  1
  Bi2+  Bi126  1  0.86043136  0.76730605  0.21289631  1
  Bi2+  Bi127  1  0.91414230  0.80203270  0.72117465  1
  S2-  S128  1  0.08253514  0.14023510  0.14082209  1
  S2-  S129  1  -0.02028069  0.16132468  0.66530097  1
  S2-  S130  1  -0.07957025  0.36314913  0.14585404  1
  S2-  S131  1  0.07927115  0.35491065  0.67773307  1
  S2-  S132  1  0.03740035  0.61201141  0.15348513  1
  S2-  S133  1  0.00164753  0.53722816  0.65029585  1
  S2-  S134  1  0.09630578  0.85581332  0.15425431  1
  S2-  S135  1  0.01466670  0.75928414  0.63583569  1
  S2-  S136  1  0.36599142  0.13243902  0.15159677  1
  S2-  S137  1  0.23771846  0.20149901  0.64293533  1
  S2-  S138  1  0.24724604  0.29439041  0.13482452  1
  S2-  S139  1  0.27999061  0.41516840  0.67559814  1
  S2-  S140  1  0.25661600  0.70182384  0.15029401  1
  S2-  S141  1  0.23971271  0.63592986  0.64807977  1
  S2-  S142  1  0.25565717  0.97559716  0.18990509  1
  S2-  S143  1  0.31960062  0.86122620  0.63277546  1
  S2-  S144  1  0.56677324  0.07709178  0.16957459  1
  S2-  S145  1  0.43663687  0.11460892  0.68483995  1
  S2-  S146  1  0.50010511  0.28902902  0.14884499  1
  S2-  S147  1  0.47510483  0.30122515  0.63685943  1
  S2-  S148  1  0.49525187  0.62768105  0.15570477  1
  S2-  S149  1  0.49637493  0.71674775  0.64157770  1
  S2-  S150  1  0.41403331  0.85710519  0.15717889  1
  S2-  S151  1  0.52064469  0.92567570  0.68108937  1
  S2-  S152  1  0.76395412  0.20927606  0.15002906  1
  S2-  S153  1  0.65725525  0.14241301  0.64452907  1
  S2-  S154  1  0.67709268  0.38145407  0.19902183  1
  S2-  S155  1  0.85511438  0.36287621  0.65042383  1
  S2-  S156  1  0.77488782  0.54438781  0.15017804  1
  S2-  S157  1  0.77980275  0.63906284  0.65481957  1
  S2-  S158  1  0.63804276  0.87393928  0.14420814  1
  S2-  S159  1  0.71760760  0.85408089  0.65954719  1
  S2-  S160  1  0.10742893  -0.00961576  0.33827492  1
  S2-  S161  1  0.13440335  0.09603415  0.86085877  1
  S2-  S162  1  0.21202515  0.24508850  0.35761228  1
  S2-  S163  1  0.12730830  0.31167267  0.83324541  1
  S2-  S164  1  0.10230934  0.58269571  0.35444409  1
  S2-  S165  1  0.13378320  0.50790220  0.81024434  1
  S2-  S166  1  0.16301768  0.77932045  0.31342019  1
  S2-  S167  1  0.09258731  0.71213272  0.84137525  1
  S2-  S168  1  0.35474560  0.02851099  0.34090082  1
  S2-  S169  1  0.37494410  0.07822890  0.86372623  1
  S2-  S170  1  0.40059641  0.25035071  0.31712060  1
  S2-  S171  1  0.33837056  0.26076653  0.81399488  1
  S2-  S172  1  0.40346480  0.49277317  0.34168677  1
  S2-  S173  1  0.37485501  0.48246739  0.84491944  1
  S2-  S174  1  0.35876495  0.80519291  0.31456393  1
  S2-  S175  1  0.38980397  0.83723959  0.85261156  1
  S2-  S176  1  0.61883731  0.01233989  0.34755854  1
  S2-  S177  1  0.57173565  0.03082248  0.83042302  1
  S2-  S178  1  0.59552185  0.23659009  0.31695450  1
  S2-  S179  1  0.53811548  0.25427709  0.85736483  1
  S2-  S180  1  0.63972485  0.44110050  0.34307268  1
  S2-  S181  1  0.61778508  0.48823742  0.85087711  1
  S2-  S182  1  0.53381184  0.72755470  0.35140208  1
  S2-  S183  1  0.63262497  0.84459783  0.85637141  1
  S2-  S184  1  0.86707982  -0.01139108  0.34687850  1
  S2-  S185  1  0.79297386  -0.00473698  0.85695200  1
  S2-  S186  1  0.78069629  0.25672706  0.35906989  1
  S2-  S187  1  0.91441221  0.26275415  0.82851887  1
  S2-  S188  1  0.87644194  0.47250335  0.34838051  1
  S2-  S189  1  0.92985377  0.50700650  0.84552292  1
  S2-  S190  1  0.96842811  0.75793836  0.35188029  1
  S2-  S191  1  0.84741232  0.73323828  0.84999465  1
  S2-  S192  1  -0.00228529  0.11812823  0.45738218  1
  S2-  S193  1  -0.00598205  0.12145440  0.94916093  1
  S2-  S194  1  -0.00331284  0.37210603  0.45732497  1
  S2-  S195  1  -0.00079866  0.37510505  0.94646487  1
  S2-  S196  1  -0.00823431  0.62103123  0.45883704  1
  S2-  S197  1  0.00041214  0.62176771  0.94954267  1
  S2-  S198  1  -0.00375815  0.87348187  0.45356222  1
  S2-  S199  1  -0.00082738  0.87263232  0.95919642  1
  S2-  S200  1  0.24635563  0.11631579  0.45218905  1
  S2-  S201  1  0.25346833  0.12064253  0.96442742  1
  S2-  S202  1  0.24612099  0.37187774  0.45932473  1
  S2-  S203  1  0.25077429  0.37090922  0.94074122  1
  S2-  S204  1  0.25309486  0.62351241  0.44106403  1
  S2-  S205  1  0.24728588  0.62454406  0.94573090  1
  S2-  S206  1  0.25241591  0.87299501  0.43759399  1
  S2-  S207  1  0.25029623  0.87560712  0.95239763  1
  S2-  S208  1  0.49716706  0.12709515  0.44249991  1
  S2-  S209  1  0.50752343  0.11921346  0.96295023  1
  S2-  S210  1  0.49899546  0.36625251  0.44401227  1
  S2-  S211  1  0.50022160  0.37793487  0.95622325  1
  S2-  S212  1  0.49944716  0.61807799  0.45217541  1
  S2-  S213  1  0.50102418  0.62262693  0.94895292  1
  S2-  S214  1  0.49657064  0.87530708  0.44935052  1
  S2-  S215  1  0.50233876  0.87404149  0.96084467  1
  S2-  S216  1  0.74776504  0.12031219  0.45456536  1
  S2-  S217  1  0.74929121  0.12734644  0.95249971  1
  S2-  S218  1  0.74788967  0.37406089  0.46177942  1
  S2-  S219  1  0.74947218  0.37664557  0.94315212  1
  S2-  S220  1  0.74488027  0.62330125  0.44869941  1
  S2-  S221  1  0.75049936  0.62058693  0.95400307  1
  S2-  S222  1  0.74479071  0.87554159  0.45277425  1
  S2-  S223  1  0.75361513  0.86904871  0.96259106  1
  S2-  S224  1  0.12355965  -0.00060696  0.05033152  1
  S2-  S225  1  0.12593780  -0.00539387  0.54990880  1
  S2-  S226  1  0.11990060  0.25099272  0.03365108  1
  S2-  S227  1  0.11811208  0.25062999  0.54760070  1
  S2-  S228  1  0.12606750  0.49835463  0.03544039  1
  S2-  S229  1  0.12860290  0.49557827  0.54891567  1
  S2-  S230  1  0.12272553  0.74866515  0.04429719  1
  S2-  S231  1  0.12875660  0.74912851  0.52955719  1
  S2-  S232  1  0.37141190  -0.00401377  0.05565279  1
  S2-  S233  1  0.38001618  0.00393232  0.54597842  1
  S2-  S234  1  0.37749798  0.25335349  0.03581255  1
  S2-  S235  1  0.37436793  0.24399087  0.53502540  1
  S2-  S236  1  0.37168815  0.49939311  0.05157852  1
  S2-  S237  1  0.37412746  0.49345672  0.55033560  1
  S2-  S238  1  0.37511104  0.74788424  0.04507272  1
  S2-  S239  1  0.37407436  0.74476346  0.52922660  1
  S2-  S240  1  0.63131427  0.00392555  0.04436001  1
  S2-  S241  1  0.61364093  -0.00259259  0.55304508  1
  S2-  S242  1  0.63282822  0.25886598  0.04995451  1
  S2-  S243  1  0.62335217  0.25049639  0.53752361  1
  S2-  S244  1  0.62587565  0.49493566  0.05518358  1
  S2-  S245  1  0.61892069  0.49797534  0.54735091  1
  S2-  S246  1  0.62746608  0.74226022  0.04689782  1
  S2-  S247  1  0.61960901  0.75038414  0.54216008  1
  S2-  S248  1  0.87684589  0.00427247  0.04835544  1
  S2-  S249  1  0.87335254  -0.00403649  0.55578221  1
  S2-  S250  1  0.87754720  0.24918916  0.03824082  1
  S2-  S251  1  0.87077426  0.24543101  0.54948681  1
  S2-  S252  1  0.87567122  0.49759338  0.04261597  1
  S2-  S253  1  0.86766405  0.50217041  0.55100923  1
  S2-  S254  1  0.87639153  0.74647262  0.05644506  1
  S2-  S255  1  0.86698913  0.75066888  0.54331542  1
