# generated using pymatgen
data_La9Ce10Pr6Nd4Sm3(BiS2)32
_symmetry_space_group_name_H-M   'P 1'
_cell_length_a   16.18308364
_cell_length_b   16.16839858
_cell_length_c   27.06715809
_cell_angle_alpha   89.69887860
_cell_angle_beta   89.98566111
_cell_angle_gamma   90.03149278
_symmetry_Int_Tables_number   1
_chemical_formula_structural   La9Ce10Pr6Nd4Sm3(BiS2)32
_chemical_formula_sum   'La18 Ce20 Pr12 Nd8 Sm6 Bi64 S128'
_cell_volume   7082.14587109
_cell_formula_units_Z   2
loop_
 _symmetry_equiv_pos_site_id
 _symmetry_equiv_pos_as_xyz
  1  'x, y, z'
loop_
 _atom_type_symbol
 _atom_type_oxidation_number
  La3+  3.0
  Ce3+  3.0
  Pr3+  3.0
  Nd3+  3.0
  Sm3+  3.0
  Bi2+  2.0
  S2-  -2.0
loop_
 _atom_site_type_symbol
 _atom_site_label
 _atom_site_symmetry_multiplicity
 _atom_site_fract_x
 _atom_site_fract_y
 _atom_site_fract_z
 _atom_site_occupancy
  La3+  La0  1  0.00167944  0.12275145  0.56988250  1
  La3+  La1  1  0.62756969  0.73453233  0.91267638  1
  La3+  La2  1  0.88903078  0.73460051  0.92835604  1
  La3+  La3  1  0.13622405  0.75286222  0.42195691  1
  La3+  La4  1  0.26463956  0.60495208  0.08248603  1
  La3+  La5  1  0.75074685  0.12752928  0.57155586  1
  La3+  La6  1  0.38704743  0.74672096  0.42217583  1
  La3+  La7  1  0.63149364  0.01055954  0.40617564  1
  La3+  La8  1  0.24969445  0.37074790  0.60282082  1
  La3+  La9  1  0.38331419  0.48952219  0.93460485  1
  La3+  La10  1  0.25151913  0.62486965  0.57059013  1
  La3+  La11  1  0.39486598  -0.01381310  0.93755541  1
  La3+  La12  1  0.49927350  0.63923058  0.58237214  1
  La3+  La13  1  -0.00322568  0.37819686  0.57227124  1
  La3+  La14  1  0.38400998  0.23811819  0.93718406  1
  La3+  La15  1  0.00092494  0.63170253  0.56210699  1
  La3+  La16  1  0.25882804  0.11152237  0.58969695  1
  La3+  La17  1  0.12169019  0.25435378  0.88986212  1
  Ce3+  Ce18  1  0.14072406  -0.00532616  0.94108036  1
  Ce3+  Ce19  1  0.88994530  0.23778564  0.94450577  1
  Ce3+  Ce20  1  0.00915835  0.85278298  0.07137456  1
  Ce3+  Ce21  1  0.89183762  -0.00972349  0.94541960  1
  Ce3+  Ce22  1  0.62810192  0.25235520  0.44017668  1
  Ce3+  Ce23  1  0.87679038  0.75235705  0.42484036  1
  Ce3+  Ce24  1  0.13816205  0.73886676  0.94276356  1
  Ce3+  Ce25  1  0.49714875  0.12678867  0.55291710  1
  Ce3+  Ce26  1  0.37535288  0.25317572  0.44185005  1
  Ce3+  Ce27  1  0.87877739  0.25781802  0.43909793  1
  Ce3+  Ce28  1  0.13080329  0.25685453  0.45225950  1
  Ce3+  Ce29  1  0.51051353  0.36424543  0.06105426  1
  Ce3+  Ce30  1  0.75359298  0.37721127  0.56671326  1
  Ce3+  Ce31  1  0.37827141  0.50540645  0.44661975  1
  Ce3+  Ce32  1  0.12997755  0.50253910  0.44614838  1
  Ce3+  Ce33  1  0.87756549  0.01653979  0.42889755  1
  Ce3+  Ce34  1  0.51304247  0.61334484  0.06110851  1
  Ce3+  Ce35  1  0.12786983  0.01085443  0.43749308  1
  Ce3+  Ce36  1  0.63805715  -0.01373293  0.93674774  1
  Ce3+  Ce37  1  0.76189533  0.36419491  0.05944499  1
  Pr3+  Pr38  1  0.38738410  0.74118163  0.94589117  1
  Pr3+  Pr39  1  0.36791499  0.01484108  0.41387844  1
  Pr3+  Pr40  1  0.52104578  0.86175972  0.07274600  1
  Pr3+  Pr41  1  0.00146269  0.87693795  0.54493962  1
  Pr3+  Pr42  1  0.49951091  0.37445333  0.56895295  1
  Pr3+  Pr43  1  0.62478272  0.50382835  0.45230959  1
  Pr3+  Pr44  1  0.63728513  0.48821748  0.93384353  1
  Pr3+  Pr45  1  0.76517956  0.86007233  0.06072380  1
  Pr3+  Pr46  1  0.13537748  0.49605296  0.93470229  1
  Pr3+  Pr47  1  0.75293553  0.87899791  0.55449421  1
  Pr3+  Pr48  1  0.87843932  0.50360948  0.43227507  1
  Pr3+  Pr49  1  0.01644716  0.11776973  0.07209671  1
  Nd3+  Nd50  1  0.49931410  0.88110177  0.55047962  1
  Nd3+  Nd51  1  0.76241751  0.11336805  0.05969559  1
  Nd3+  Nd52  1  0.51484452  0.11109039  0.06737525  1
  Nd3+  Nd53  1  0.63381532  0.24012959  0.93665102  1
  Nd3+  Nd54  1  0.26347630  0.11077889  0.06298241  1
  Nd3+  Nd55  1  0.25607466  0.87631561  0.55021148  1
  Nd3+  Nd56  1  0.75118049  0.62981593  0.55529201  1
  Nd3+  Nd57  1  0.01813907  0.36336241  0.06541558  1
  Sm3+  Sm58  1  0.88859997  0.48554861  0.93817033  1
  Sm3+  Sm59  1  0.26858625  0.36089478  0.06333244  1
  Sm3+  Sm60  1  0.26219987  0.86222597  0.06472570  1
  Sm3+  Sm61  1  0.62544423  0.75617982  0.43825698  1
  Sm3+  Sm62  1  0.76146504  0.61269879  0.05086937  1
  Sm3+  Sm63  1  0.01007989  0.60795061  0.06662851  1
  Bi2+  Bi64  1  0.03120107  0.12451840  0.29015931  1
  Bi2+  Bi65  1  -0.02996288  0.10212961  0.79642350  1
  Bi2+  Bi66  1  0.00346874  0.34663045  0.28523144  1
  Bi2+  Bi67  1  -0.11888621  0.39767932  0.80047158  1
  Bi2+  Bi68  1  -0.02132063  0.54118062  0.28772624  1
  Bi2+  Bi69  1  0.01499113  0.65731112  0.79284956  1
  Bi2+  Bi70  1  -0.07006821  0.94274944  0.29906495  1
  Bi2+  Bi71  1  0.01998789  0.87253109  0.78238266  1
  Bi2+  Bi72  1  0.22807705  0.16638603  0.29294538  1
  Bi2+  Bi73  1  0.23573686  0.10780211  0.78561234  1
  Bi2+  Bi74  1  0.27799424  0.38511895  0.28390789  1
  Bi2+  Bi75  1  0.26112184  0.36869685  0.79045456  1
  Bi2+  Bi76  1  0.21776133  0.64171444  0.30069996  1
  Bi2+  Bi77  1  0.22149970  0.68817750  0.75779815  1
  Bi2+  Bi78  1  0.24200720  0.90561234  0.27799798  1
  Bi2+  Bi79  1  0.20396602  0.84624709  0.82188863  1
  Bi2+  Bi80  1  0.49962904  0.18162496  0.28202045  1
  Bi2+  Bi81  1  0.52040774  0.11471136  0.78681965  1
  Bi2+  Bi82  1  0.46435168  0.36436392  0.31609906  1
  Bi2+  Bi83  1  0.49863263  0.37074829  0.79783011  1
  Bi2+  Bi84  1  0.50290681  0.57625470  0.30222317  1
  Bi2+  Bi85  1  0.51285320  0.62221980  0.78358756  1
  Bi2+  Bi86  1  0.49462992  0.83326053  0.27917225  1
  Bi2+  Bi87  1  0.40961618  0.87842550  0.80717114  1
  Bi2+  Bi88  1  0.77176230  0.14478129  0.29044321  1
  Bi2+  Bi89  1  0.71618970  0.17868681  0.78779450  1
  Bi2+  Bi90  1  0.74736184  0.38206390  0.29124648  1
  Bi2+  Bi91  1  0.69308711  0.36442643  0.82883284  1
  Bi2+  Bi92  1  0.73517841  0.60456639  0.29277072  1
  Bi2+  Bi93  1  0.76825731  0.66375038  0.79102393  1
  Bi2+  Bi94  1  0.79535057  0.79214094  0.29587111  1
  Bi2+  Bi95  1  0.73244851  0.97469105  0.77641380  1
  Bi2+  Bi96  1  0.04895347  0.01807351  0.19381411  1
  Bi2+  Bi97  1  0.16913321  -0.04874499  0.71979279  1
  Bi2+  Bi98  1  0.14751180  0.32535398  0.20341607  1
  Bi2+  Bi99  1  0.07607817  0.21268395  0.69269007  1
  Bi2+  Bi100  1  0.10194206  0.53217447  0.20341252  1
  Bi2+  Bi101  1  0.10591434  0.50416897  0.72452089  1
  Bi2+  Bi102  1  0.06556723  0.83874956  0.24453442  1
  Bi2+  Bi103  1  0.08557772  0.75343407  0.68538912  1
  Bi2+  Bi104  1  0.36750305  0.00047271  0.20479155  1
  Bi2+  Bi105  1  0.45076778  -0.01382813  0.71143402  1
  Bi2+  Bi106  1  0.34524157  0.24557312  0.20765909  1
  Bi2+  Bi107  1  0.40275281  0.24449594  0.71527242  1
  Bi2+  Bi108  1  0.40311920  0.48649848  0.21687568  1
  Bi2+  Bi109  1  0.38575136  0.52995039  0.71059416  1
  Bi2+  Bi110  1  0.35093988  0.74266677  0.20169812  1
  Bi2+  Bi111  1  0.36843808  0.80080480  0.70162533  1
  Bi2+  Bi112  1  0.62783933  -0.00751488  0.20827453  1
  Bi2+  Bi113  1  0.63963772  0.07735370  0.69009505  1
  Bi2+  Bi114  1  0.59791009  0.32385089  0.22662776  1
  Bi2+  Bi115  1  0.65390645  0.26860666  0.66830087  1
  Bi2+  Bi116  1  0.61524530  0.51715883  0.20839431  1
  Bi2+  Bi117  1  0.63194284  0.44005585  0.72382317  1
  Bi2+  Bi118  1  0.66963082  0.72627322  0.21116031  1
  Bi2+  Bi119  1  0.60588332  0.83363544  0.73406080  1
  Bi2+  Bi120  1  0.85670961  0.01823092  0.19641843  1
  Bi2+  Bi121  1  0.90262279  -0.00495117  0.71289793  1
  Bi2+  Bi122  1  0.89280314  0.23275025  0.21564753  1
  Bi2+  Bi123  1  0.84202495  0.26501470  0.71227986  1
  Bi2+  Bi124  1  0.83695337  0.47661587  0.20167129  1
  Bi2+  Bi125  1  0.81476674  0.51814012  0.71781554  1
  Bi2+  Bi126  1  0.89819132  0.73172784  0.20414658  1
  Bi2+  Bi127  1  0.83640475  0.77741644  0.70114802  1
  S2-  S128  1  0.02030462  0.24687072  0.14600607  1
  S2-  S129  1  0.10803249  0.07208402  0.64924844  1
  S2-  S130  1  -0.01212243  0.48341227  0.14008267  1
  S2-  S131  1  0.08786640  0.37867092  0.66178815  1
  S2-  S132  1  0.02332978  0.72172928  0.14198867  1
  S2-  S133  1  0.00562368  0.60354326  0.66266910  1
  S2-  S134  1  -0.12056666  0.86815683  0.14126506  1
  S2-  S135  1  -0.04250418  0.86527502  0.64320265  1
  S2-  S136  1  0.25953507  0.11021907  0.16423521  1
  S2-  S137  1  0.24965638  0.22947554  0.66743533  1
  S2-  S138  1  0.22274109  0.45229539  0.14366874  1
  S2-  S139  1  0.23251686  0.51745148  0.66076680  1
  S2-  S140  1  0.22136328  0.65892978  0.17896477  1
  S2-  S141  1  0.35994471  0.66225891  0.64746491  1
  S2-  S142  1  0.25435775  0.87768067  0.16468605  1
  S2-  S143  1  0.28201471  0.94077812  0.64299039  1
  S2-  S144  1  0.50012765  0.08542917  0.16707708  1
  S2-  S145  1  0.42194902  0.11746164  0.64260989  1
  S2-  S146  1  0.41431003  0.35861817  0.14252499  1
  S2-  S147  1  0.40830562  0.38024793  0.65768091  1
  S2-  S148  1  0.42615506  0.61787728  0.14724569  1
  S2-  S149  1  0.53976282  0.57670716  0.68045474  1
  S2-  S150  1  0.46217988  0.86558971  0.17085907  1
  S2-  S151  1  0.51277079  0.80319835  0.64232744  1
  S2-  S152  1  0.71298725  0.10064105  0.15669341  1
  S2-  S153  1  0.87671376  0.12247208  0.64670957  1
  S2-  S154  1  0.78429839  0.33595227  0.15534269  1
  S2-  S155  1  0.86357999  0.39398280  0.64418306  1
  S2-  S156  1  0.78331768  0.62653360  0.14945967  1
  S2-  S157  1  0.76185770  0.64995275  0.65515934  1
  S2-  S158  1  0.65980217  0.86088998  0.14503193  1
  S2-  S159  1  0.72689069  0.87293651  0.65635545  1
  S2-  S160  1  0.20289415  0.01632563  0.34855311  1
  S2-  S161  1  0.10786847  0.08339887  0.85671275  1
  S2-  S162  1  0.11763304  0.25941241  0.35204725  1
  S2-  S163  1  0.13513760  0.24744752  0.77938960  1
  S2-  S164  1  0.12545948  0.51979668  0.34760056  1
  S2-  S165  1  0.13468944  0.41565470  0.84368875  1
  S2-  S166  1  0.07669211  0.73244531  0.32436843  1
  S2-  S167  1  0.12875066  0.63569091  0.86309943  1
  S2-  S168  1  0.39648142  -0.04564896  0.31375129  1
  S2-  S169  1  0.29305819  -0.00454665  0.85267292  1
  S2-  S170  1  0.37194509  0.16606811  0.35450409  1
  S2-  S171  1  0.28983753  0.23546440  0.85042772  1
  S2-  S172  1  0.36229939  0.58712246  0.35857013  1
  S2-  S173  1  0.37708413  0.49073452  0.83168398  1
  S2-  S174  1  0.27060139  0.77293034  0.34699542  1
  S2-  S175  1  0.46526499  0.72688273  0.85367603  1
  S2-  S176  1  0.60424621  -0.06588042  0.30960624  1
  S2-  S177  1  0.52549367  -0.01396237  0.86123124  1
  S2-  S178  1  0.63119463  0.16930239  0.35156291  1
  S2-  S179  1  0.51103503  0.23373417  0.86172291  1
  S2-  S180  1  0.64501313  0.48868934  0.35202825  1
  S2-  S181  1  0.63488648  0.59069317  0.84650563  1
  S2-  S182  1  0.53228992  0.72722987  0.35629702  1
  S2-  S183  1  0.67387359  0.81640143  0.82270156  1
  S2-  S184  1  0.77893090  0.00242953  0.34792220  1
  S2-  S185  1  0.86028745  0.00784977  0.84861269  1
  S2-  S186  1  0.89852100  0.15562292  0.35954110  1
  S2-  S187  1  0.94969203  0.25129196  0.85184248  1
  S2-  S188  1  0.87559957  0.37559106  0.36039448  1
  S2-  S189  1  0.89473615  0.56384703  0.84948519  1
  S2-  S190  1  0.88246525  0.62587236  0.35539878  1
  S2-  S191  1  0.89043982  0.77619211  0.82873644  1
  S2-  S192  1  0.00747376  0.13254782  0.46090968  1
  S2-  S193  1  0.01104919  0.11592599  0.96388525  1
  S2-  S194  1  0.00539043  0.38125944  0.46140364  1
  S2-  S195  1  0.01143845  0.36537852  0.95577313  1
  S2-  S196  1  0.00717015  0.63175727  0.45332065  1
  S2-  S197  1  0.00671018  0.61234257  0.96125702  1
  S2-  S198  1  0.00332003  0.87983406  0.43763465  1
  S2-  S199  1  0.01426367  0.86418810  0.95382722  1
  S2-  S200  1  0.25044699  0.13154712  0.45818885  1
  S2-  S201  1  0.26792815  0.10847804  0.95880311  1
  S2-  S202  1  0.25606176  0.38035853  0.44670637  1
  S2-  S203  1  0.25951619  0.36625615  0.95585836  1
  S2-  S204  1  0.25138778  0.62746632  0.46025028  1
  S2-  S205  1  0.26576526  0.61657146  0.96022733  1
  S2-  S206  1  0.25456787  0.88460413  0.44634023  1
  S2-  S207  1  0.26227264  0.86373854  0.95927401  1
  S2-  S208  1  0.50364114  0.12604101  0.44917588  1
  S2-  S209  1  0.51688518  0.11360403  0.96191360  1
  S2-  S210  1  0.50239934  0.37628406  0.45948904  1
  S2-  S211  1  0.51238184  0.36792736  0.95594518  1
  S2-  S212  1  0.50505624  0.62738422  0.46645388  1
  S2-  S213  1  0.51167795  0.61074385  0.95615545  1
  S2-  S214  1  0.50695025  0.88686149  0.44320830  1
  S2-  S215  1  0.51912388  0.85800563  0.96180973  1
  S2-  S216  1  0.74996897  0.13053944  0.45938483  1
  S2-  S217  1  0.75935931  0.11681892  0.95169119  1
  S2-  S218  1  0.74850111  0.37836252  0.46047027  1
  S2-  S219  1  0.76331678  0.36305474  0.95301130  1
  S2-  S220  1  0.74689488  0.63222724  0.44962953  1
  S2-  S221  1  0.76099314  0.61293695  0.94786913  1
  S2-  S222  1  0.74964589  0.87736766  0.44647835  1
  S2-  S223  1  0.76270620  0.86155511  0.94904943  1
  S2-  S224  1  0.13642284  -0.01502635  0.05208957  1
  S2-  S225  1  0.12911793  -0.00248772  0.54109102  1
  S2-  S226  1  0.14752374  0.23940145  0.05244961  1
  S2-  S227  1  0.12997898  0.25061037  0.55693628  1
  S2-  S228  1  0.13614689  0.49085312  0.04201154  1
  S2-  S229  1  0.12488307  0.50055740  0.55126362  1
  S2-  S230  1  0.14433880  0.73618491  0.04776620  1
  S2-  S231  1  0.12990108  0.75446854  0.54049966  1
  S2-  S232  1  0.39011916  -0.01588810  0.05084693  1
  S2-  S233  1  0.37778149  0.00268152  0.53237969  1
  S2-  S234  1  0.38911471  0.23326858  0.04659569  1
  S2-  S235  1  0.37198954  0.25391884  0.54750241  1
  S2-  S236  1  0.38864895  0.48911828  0.04329834  1
  S2-  S237  1  0.37691648  0.50064927  0.55232665  1
  S2-  S238  1  0.38614860  0.74230911  0.05187344  1
  S2-  S239  1  0.37769488  0.75589287  0.53509697  1
  S2-  S240  1  0.63959593  -0.00994976  0.04376304  1
  S2-  S241  1  0.62522113  0.00338890  0.54859509  1
  S2-  S242  1  0.63547355  0.23875379  0.04816636  1
  S2-  S243  1  0.62464050  0.25131820  0.54585985  1
  S2-  S244  1  0.63691932  0.48803509  0.04642883  1
  S2-  S245  1  0.62711441  0.50234960  0.55978734  1
  S2-  S246  1  0.63859149  0.73221595  0.04331511  1
  S2-  S247  1  0.62809462  0.75435161  0.54215518  1
  S2-  S248  1  0.89048857  -0.00650892  0.04883952  1
  S2-  S249  1  0.87620770  0.00152898  0.53826276  1
  S2-  S250  1  0.88575480  0.23920880  0.04916966  1
  S2-  S251  1  0.87388234  0.25261165  0.54558656  1
  S2-  S252  1  0.88207533  0.48770754  0.04099111  1
  S2-  S253  1  0.87500702  0.50914222  0.54106209  1
  S2-  S254  1  0.88563328  0.73257949  0.03857035  1
  S2-  S255  1  0.87458539  0.75280677  0.53551709  1
