# generated using pymatgen
data_La9Ce10Pr6Nd4Sm3(BiS2)32
_symmetry_space_group_name_H-M   'P 1'
_cell_length_a   16.14502037
_cell_length_b   16.20114646
_cell_length_c   27.16023805
_cell_angle_alpha   89.59920871
_cell_angle_beta   89.93148133
_cell_angle_gamma   90.04723474
_symmetry_Int_Tables_number   1
_chemical_formula_structural   La9Ce10Pr6Nd4Sm3(BiS2)32
_chemical_formula_sum   'La18 Ce20 Pr12 Nd8 Sm6 Bi64 S128'
_cell_volume   7104.06343592
_cell_formula_units_Z   2
loop_
 _symmetry_equiv_pos_site_id
 _symmetry_equiv_pos_as_xyz
  1  'x, y, z'
loop_
 _atom_type_symbol
 _atom_type_oxidation_number
  La3+  3.0
  Ce3+  3.0
  Pr3+  3.0
  Nd3+  3.0
  Sm3+  3.0
  Bi2+  2.0
  S2-  -2.0
loop_
 _atom_site_type_symbol
 _atom_site_label
 _atom_site_symmetry_multiplicity
 _atom_site_fract_x
 _atom_site_fract_y
 _atom_site_fract_z
 _atom_site_occupancy
  La3+  La0  1  0.13177922  0.25013988  0.42418086  1
  La3+  La1  1  0.25062841  0.12524560  0.56905144  1
  La3+  La2  1  0.48665437  0.62653647  0.06656413  1
  La3+  La3  1  0.25166424  0.86693672  0.55866336  1
  La3+  La4  1  0.60723641  0.50789867  0.91381376  1
  La3+  La5  1  0.11070427  0.49148158  0.92139052  1
  La3+  La6  1  0.85399274  0.25878776  0.91164631  1
  La3+  La7  1  0.75306250  0.61783917  0.56410539  1
  La3+  La8  1  0.10358430  0.76233897  0.93203260  1
  La3+  La9  1  0.87798754  0.75551615  0.42099351  1
  La3+  La10  1  0.49418144  0.37135247  0.57295247  1
  La3+  La11  1  0.49940928  0.63570357  0.59950923  1
  La3+  La12  1  0.61987795  0.75167060  0.40752077  1
  La3+  La13  1  -0.01574289  0.87213409  0.08766297  1
  La3+  La14  1  0.86243464  0.50276431  0.41434907  1
  La3+  La15  1  0.74621849  0.37079758  0.57166709  1
  La3+  La16  1  0.12768249  0.74886813  0.42942987  1
  La3+  La17  1  0.86785464  -0.00589875  0.93623976  1
  Ce3+  Ce18  1  0.12324520  0.49490944  0.42894839  1
  Ce3+  Ce19  1  0.73597163  0.87526184  0.07088152  1
  Ce3+  Ce20  1  0.35755044  0.75365966  0.93920422  1
  Ce3+  Ce21  1  -0.01439846  0.37557751  0.06127798  1
  Ce3+  Ce22  1  0.23457170  0.62649831  0.05361034  1
  Ce3+  Ce23  1  -0.01049775  0.62963800  0.05518369  1
  Ce3+  Ce24  1  0.86129532  0.75374381  0.94257772  1
  Ce3+  Ce25  1  0.12413333  0.00166130  0.44087523  1
  Ce3+  Ce26  1  0.86181581  0.50085657  0.94180140  1
  Ce3+  Ce27  1  -0.00116429  0.86955153  0.55804210  1
  Ce3+  Ce28  1  0.10978460  0.00597383  0.95265064  1
  Ce3+  Ce29  1  0.37950284  0.74685597  0.43526329  1
  Ce3+  Ce30  1  0.23815327  0.12830213  0.06274299  1
  Ce3+  Ce31  1  0.62672190  0.50096171  0.44876955  1
  Ce3+  Ce32  1  0.49945903  0.11956424  0.56581198  1
  Ce3+  Ce33  1  -0.00001010  0.61843142  0.54937323  1
  Ce3+  Ce34  1  0.87364621  0.00046963  0.44057454  1
  Ce3+  Ce35  1  0.73527118  0.62796229  0.05657371  1
  Ce3+  Ce36  1  0.48909708  0.38567012  0.06419339  1
  Ce3+  Ce37  1  0.25061134  0.61957495  0.55334078  1
  Pr3+  Pr38  1  0.62389309  0.00065647  0.93103826  1
  Pr3+  Pr39  1  0.36534021  0.00164160  0.94054955  1
  Pr3+  Pr40  1  0.73741488  0.12789015  0.06238362  1
  Pr3+  Pr41  1  0.75766354  0.12119704  0.57664477  1
  Pr3+  Pr42  1  0.74879707  0.86646492  0.55852041  1
  Pr3+  Pr43  1  0.48957180  0.87261556  0.07450678  1
  Pr3+  Pr44  1  0.48891028  0.12646806  0.05502021  1
  Pr3+  Pr45  1  0.87923234  0.24818525  0.43078635  1
  Pr3+  Pr46  1  0.36618997  0.25372861  0.94501413  1
  Pr3+  Pr47  1  0.62567365  0.24668209  0.44033625  1
  Pr3+  Pr48  1  0.60608754  0.75373747  0.93395406  1
  Pr3+  Pr49  1  0.00325166  0.12807031  0.57196888  1
  Nd3+  Nd50  1  0.23569986  0.37920265  0.05998447  1
  Nd3+  Nd51  1  0.23486274  0.87720258  0.06103428  1
  Nd3+  Nd52  1  0.37947682  0.24982425  0.43188355  1
  Nd3+  Nd53  1  0.11029791  0.24959583  0.94072592  1
  Nd3+  Nd54  1  0.50468792  0.87003197  0.55820761  1
  Nd3+  Nd55  1  0.37714856  -0.00035238  0.44224284  1
  Nd3+  Nd56  1  -0.00092874  0.37223810  0.55486404  1
  Nd3+  Nd57  1  0.73745029  0.37974363  0.05575109  1
  Sm3+  Sm58  1  0.61452322  0.25512908  0.94376904  1
  Sm3+  Sm59  1  -0.01557961  0.13031228  0.05699727  1
  Sm3+  Sm60  1  0.38153142  0.49951095  0.44347979  1
  Sm3+  Sm61  1  0.25238795  0.37423922  0.55752638  1
  Sm3+  Sm62  1  0.35767393  0.50422672  0.93370169  1
  Sm3+  Sm63  1  0.62736202  -0.00237289  0.43931066  1
  Bi2+  Bi64  1  -0.05890858  0.12919405  0.27771971  1
  Bi2+  Bi65  1  0.05861944  0.14342850  0.79750771  1
  Bi2+  Bi66  1  0.00271922  0.37262099  0.29736901  1
  Bi2+  Bi67  1  0.06455655  0.44979417  0.77916213  1
  Bi2+  Bi68  1  -0.01913997  0.63626035  0.27864501  1
  Bi2+  Bi69  1  -0.03237234  0.61858192  0.79070369  1
  Bi2+  Bi70  1  0.00625125  0.90866572  0.28986271  1
  Bi2+  Bi71  1  0.06966207  0.86244910  0.79755128  1
  Bi2+  Bi72  1  0.33435566  0.12107939  0.27142499  1
  Bi2+  Bi73  1  0.20996378  0.17971816  0.73132585  1
  Bi2+  Bi74  1  0.27105729  0.34693865  0.28896475  1
  Bi2+  Bi75  1  0.25432646  0.35566922  0.79600399  1
  Bi2+  Bi76  1  0.23076777  0.62183237  0.30734235  1
  Bi2+  Bi77  1  0.24254650  0.63480328  0.77941306  1
  Bi2+  Bi78  1  0.20407971  0.81450457  0.30601815  1
  Bi2+  Bi79  1  0.33731096  0.88487482  0.80071795  1
  Bi2+  Bi80  1  0.57572682  0.11643990  0.31508968  1
  Bi2+  Bi81  1  0.49752651  0.10709458  0.79036399  1
  Bi2+  Bi82  1  0.52770570  0.38294182  0.29419655  1
  Bi2+  Bi83  1  0.50947690  0.36660932  0.79528179  1
  Bi2+  Bi84  1  0.42510123  0.59038322  0.28947946  1
  Bi2+  Bi85  1  0.50098500  0.64237253  0.78821208  1
  Bi2+  Bi86  1  0.39343276  0.87005627  0.29345911  1
  Bi2+  Bi87  1  0.54579044  0.91299953  0.77359200  1
  Bi2+  Bi88  1  0.76836403  0.11935613  0.34141231  1
  Bi2+  Bi89  1  0.69542655  0.10990314  0.78087350  1
  Bi2+  Bi90  1  0.73536077  0.30131631  0.29018909  1
  Bi2+  Bi91  1  0.78109678  0.34862936  0.78868244  1
  Bi2+  Bi92  1  0.74370404  0.56242255  0.27630912  1
  Bi2+  Bi93  1  0.77926542  0.67063644  0.78954793  1
  Bi2+  Bi94  1  0.75723476  0.83494045  0.29175099  1
  Bi2+  Bi95  1  0.78486460  0.86019997  0.81212978  1
  Bi2+  Bi96  1  0.20394962  -0.00592492  0.22228095  1
  Bi2+  Bi97  1  0.16798974  -0.01290667  0.71859930  1
  Bi2+  Bi98  1  0.10601172  0.24728189  0.19079232  1
  Bi2+  Bi99  1  0.17444540  0.35821344  0.68296431  1
  Bi2+  Bi100  1  0.17002183  0.51432926  0.22037354  1
  Bi2+  Bi101  1  0.17822031  0.55216592  0.67960934  1
  Bi2+  Bi102  1  0.12843506  0.77547488  0.19608109  1
  Bi2+  Bi103  1  0.07557812  0.71389578  0.70899940  1
  Bi2+  Bi104  1  0.42052947  -0.01174202  0.20131556  1
  Bi2+  Bi105  1  0.41851693  0.00117335  0.70220392  1
  Bi2+  Bi106  1  0.41618550  0.27784089  0.21415408  1
  Bi2+  Bi107  1  0.42253710  0.26158893  0.71068126  1
  Bi2+  Bi108  1  0.36143217  0.46834384  0.20160606  1
  Bi2+  Bi109  1  0.37208040  0.49183319  0.74689328  1
  Bi2+  Bi110  1  0.34390048  0.72053032  0.21851711  1
  Bi2+  Bi111  1  0.34471527  0.76285913  0.71198798  1
  Bi2+  Bi112  1  0.60273203  -0.04666980  0.25234927  1
  Bi2+  Bi113  1  0.60524940  0.05073257  0.67943628  1
  Bi2+  Bi114  1  0.60537216  0.21947570  0.21410329  1
  Bi2+  Bi115  1  0.62147427  0.24384239  0.70818563  1
  Bi2+  Bi116  1  0.63018418  0.44667906  0.20791649  1
  Bi2+  Bi117  1  0.66470770  0.50896991  0.71001566  1
  Bi2+  Bi118  1  0.60188993  0.75087343  0.20650659  1
  Bi2+  Bi119  1  0.63556160  0.78493585  0.70607595  1
  Bi2+  Bi120  1  0.79327795  0.02154234  0.23770813  1
  Bi2+  Bi121  1  0.97459969  -0.00455412  0.73112251  1
  Bi2+  Bi122  1  0.85853936  0.25307171  0.19967153  1
  Bi2+  Bi123  1  0.89850647  0.22162280  0.70816831  1
  Bi2+  Bi124  1  0.90785065  0.49073410  0.21961978  1
  Bi2+  Bi125  1  0.92809865  0.48344087  0.70393277  1
  Bi2+  Bi126  1  0.85116307  0.75177710  0.20330965  1
  Bi2+  Bi127  1  0.87010486  0.79416433  0.71459614  1
  S2-  S128  1  -0.01011018  0.14869026  0.15586652  1
  S2-  S129  1  -0.10908494  0.08748214  0.65042417  1
  S2-  S130  1  -0.00647733  0.37899941  0.16128699  1
  S2-  S131  1  -0.00239357  0.30049462  0.64839048  1
  S2-  S132  1  -0.00678420  0.70946387  0.14348603  1
  S2-  S133  1  -0.03171020  0.61920384  0.64672116  1
  S2-  S134  1  0.05796098  0.92127915  0.18155635  1
  S2-  S135  1  0.00263933  0.86880143  0.65654797  1
  S2-  S136  1  0.22013557  0.14100477  0.16080698  1
  S2-  S137  1  0.13234675  0.11363673  0.64470643  1
  S2-  S138  1  0.21375278  0.37716120  0.15965329  1
  S2-  S139  1  0.35211176  0.36609445  0.64139731  1
  S2-  S140  1  0.22566004  0.63947597  0.15208869  1
  S2-  S141  1  0.32319176  0.63713317  0.64110194  1
  S2-  S142  1  0.27532316  0.88430119  0.15848046  1
  S2-  S143  1  0.24655828  0.87043840  0.66012272  1
  S2-  S144  1  0.50415634  0.11357514  0.15464121  1
  S2-  S145  1  0.38246040  0.13507887  0.64140891  1
  S2-  S146  1  0.49869662  0.49854330  0.14049695  1
  S2-  S147  1  0.60868090  0.38558426  0.65113446  1
  S2-  S148  1  0.47346253  0.73705269  0.14724926  1
  S2-  S149  1  0.49868337  0.55247002  0.69366836  1
  S2-  S150  1  0.61948820  0.88492985  0.14573554  1
  S2-  S151  1  0.48755284  0.79504169  0.64967851  1
  S2-  S152  1  0.74467428  0.13383947  0.16424819  1
  S2-  S153  1  0.76921325  0.25060293  0.64829667  1
  S2-  S154  1  0.75795583  0.37818733  0.15523698  1
  S2-  S155  1  0.79286347  0.48978948  0.64483732  1
  S2-  S156  1  0.72269552  0.65757937  0.15392468  1
  S2-  S157  1  0.66482840  0.65217083  0.65173831  1
  S2-  S158  1  0.84251638  0.88870479  0.15083265  1
  S2-  S159  1  0.75231171  0.88302791  0.66038561  1
  S2-  S160  1  0.11230246  -0.00232381  0.34132795  1
  S2-  S161  1  0.10533021  0.00630909  0.85493644  1
  S2-  S162  1  0.00554384  0.21968678  0.35209948  1
  S2-  S163  1  0.10269778  0.33921080  0.85530791  1
  S2-  S164  1  0.14873037  0.38303606  0.35149024  1
  S2-  S165  1  0.24300350  0.51156207  0.85495182  1
  S2-  S166  1  0.02816970  0.76330839  0.34491408  1
  S2-  S167  1  0.19057900  0.76672049  0.84418520  1
  S2-  S168  1  0.40718438  0.02609603  0.34436930  1
  S2-  S169  1  0.35541757  0.03312620  0.84063474  1
  S2-  S170  1  0.26919344  0.21822647  0.35341995  1
  S2-  S171  1  0.38215753  0.27844758  0.84566274  1
  S2-  S172  1  0.38662521  0.44771717  0.34807422  1
  S2-  S173  1  0.46131055  0.50473081  0.85261714  1
  S2-  S174  1  0.46172784  0.74428998  0.34877887  1
  S2-  S175  1  0.42591968  0.75181211  0.84934329  1
  S2-  S176  1  0.62952883  -0.09189563  0.35261093  1
  S2-  S177  1  0.62278181  -0.12542747  0.85988397  1
  S2-  S178  1  0.50974506  0.25205824  0.36156076  1
  S2-  S179  1  0.69328680  0.24584750  0.85552409  1
  S2-  S180  1  0.68716317  0.48867812  0.35679105  1
  S2-  S181  1  0.66278939  0.45356153  0.81450605  1
  S2-  S182  1  0.65241386  0.69959920  0.30648907  1
  S2-  S183  1  0.62594040  0.65287708  0.84900155  1
  S2-  S184  1  0.87681785  -0.09422527  0.35643109  1
  S2-  S185  1  0.76699971  0.02004957  0.85519886  1
  S2-  S186  1  0.85416937  0.36111891  0.35006253  1
  S2-  S187  1  0.90800146  0.20481382  0.81688986  1
  S2-  S188  1  1.00855808  0.51485872  0.34964912  1
  S2-  S189  1  0.87270385  0.41769481  0.85646500  1
  S2-  S190  1  0.85090558  0.64096410  0.34465790  1
  S2-  S191  1  0.93243688  0.84505674  0.86896614  1
  S2-  S192  1  0.00047562  0.11938078  0.46012299  1
  S2-  S193  1  -0.01820563  0.13178294  0.95083727  1
  S2-  S194  1  0.00104414  0.37342884  0.45098155  1
  S2-  S195  1  -0.01564559  0.37336112  0.95709697  1
  S2-  S196  1  0.00072453  0.62727602  0.44756675  1
  S2-  S197  1  -0.01146651  0.62529165  0.94631060  1
  S2-  S198  1  0.00416731  0.87581678  0.45447835  1
  S2-  S199  1  -0.00868066  0.88144354  0.97576761  1
  S2-  S200  1  0.25189174  0.11905680  0.45894724  1
  S2-  S201  1  0.23895617  0.12946823  0.95435023  1
  S2-  S202  1  0.25877823  0.37665803  0.45546361  1
  S2-  S203  1  0.23853010  0.37351134  0.95509795  1
  S2-  S204  1  0.25356449  0.62069270  0.44628235  1
  S2-  S205  1  0.23087082  0.62972784  0.95026813  1
  S2-  S206  1  0.25282955  0.87448848  0.44892431  1
  S2-  S207  1  0.23523250  0.88297057  0.95420560  1
  S2-  S208  1  0.50254739  0.11823971  0.45972057  1
  S2-  S209  1  0.49462633  0.12750839  0.94773739  1
  S2-  S210  1  0.50269079  0.37661647  0.46164358  1
  S2-  S211  1  0.49004783  0.37844749  0.95652231  1
  S2-  S212  1  0.50315022  0.62185972  0.44469376  1
  S2-  S213  1  0.47976745  0.62714094  0.95708600  1
  S2-  S214  1  0.50138633  0.87566343  0.45279004  1
  S2-  S215  1  0.48519679  0.87901411  0.96085382  1
  S2-  S216  1  0.74841119  0.12093351  0.46273260  1
  S2-  S217  1  0.73997359  0.13259846  0.95696298  1
  S2-  S218  1  0.74596807  0.36982458  0.46133435  1
  S2-  S219  1  0.73170387  0.38265634  0.95108512  1
  S2-  S220  1  0.74417795  0.63289208  0.45255946  1
  S2-  S221  1  0.73977752  0.62665466  0.95054699  1
  S2-  S222  1  0.74696036  0.87247614  0.45290184  1
  S2-  S223  1  0.74131923  0.87454601  0.96270750  1
  S2-  S224  1  0.11100569  0.00683542  0.05815075  1
  S2-  S225  1  0.12544667  -0.00801703  0.54700604  1
  S2-  S226  1  0.11212876  0.25203925  0.04696906  1
  S2-  S227  1  0.12927625  0.25347517  0.53963782  1
  S2-  S228  1  0.11016217  0.50081643  0.04203699  1
  S2-  S229  1  0.12689981  0.49455341  0.54033214  1
  S2-  S230  1  0.11443241  0.75264716  0.04223015  1
  S2-  S231  1  0.12504864  0.74393069  0.54273277  1
  S2-  S232  1  0.36273962  0.00174505  0.04920616  1
  S2-  S233  1  0.37641383  -0.00797623  0.54828364  1
  S2-  S234  1  0.36445071  0.25614305  0.05336310  1
  S2-  S235  1  0.37499503  0.24771110  0.53770933  1
  S2-  S236  1  0.35764836  0.50165931  0.04131667  1
  S2-  S237  1  0.37881687  0.50383093  0.54689724  1
  S2-  S238  1  0.35710437  0.75433256  0.04551102  1
  S2-  S239  1  0.37920237  0.74594433  0.53973560  1
  S2-  S240  1  0.61322766  0.00377828  0.04151906  1
  S2-  S241  1  0.62745634  -0.00344520  0.54563314  1
  S2-  S242  1  0.61162596  0.25632082  0.04979651  1
  S2-  S243  1  0.62196439  0.24008676  0.54900251  1
  S2-  S244  1  0.61611617  0.50340257  0.03858890  1
  S2-  S245  1  0.61478468  0.50588713  0.55210801  1
  S2-  S246  1  0.61202134  0.75019741  0.04219029  1
  S2-  S247  1  0.62284285  0.74657561  0.54381795  1
  S2-  S248  1  0.86392065  0.00757609  0.04821385  1
  S2-  S249  1  0.87483053  -0.00698187  0.54530671  1
  S2-  S250  1  0.86137087  0.25356866  0.04661255  1
  S2-  S251  1  0.87769896  0.24598384  0.54026206  1
  S2-  S252  1  0.86371668  0.50450883  0.04953258  1
  S2-  S253  1  0.87780466  0.49564042  0.53319216  1
  S2-  S254  1  0.86082039  0.74882293  0.04600149  1
  S2-  S255  1  0.87644949  0.74613560  0.54182013  1
