# generated using pymatgen
data_La9Ce10Pr6Nd4Sm3(BiS2)32
_symmetry_space_group_name_H-M   'P 1'
_cell_length_a   16.15163955
_cell_length_b   16.14915325
_cell_length_c   27.12425389
_cell_angle_alpha   89.87787982
_cell_angle_beta   90.01918438
_cell_angle_gamma   90.07049711
_symmetry_Int_Tables_number   1
_chemical_formula_structural   La9Ce10Pr6Nd4Sm3(BiS2)32
_chemical_formula_sum   'La18 Ce20 Pr12 Nd8 Sm6 Bi64 S128'
_cell_volume   7074.94114474
_cell_formula_units_Z   2
loop_
 _symmetry_equiv_pos_site_id
 _symmetry_equiv_pos_as_xyz
  1  'x, y, z'
loop_
 _atom_type_symbol
 _atom_type_oxidation_number
  La3+  3.0
  Ce3+  3.0
  Pr3+  3.0
  Nd3+  3.0
  Sm3+  3.0
  Bi2+  2.0
  S2-  -2.0
loop_
 _atom_site_type_symbol
 _atom_site_label
 _atom_site_symmetry_multiplicity
 _atom_site_fract_x
 _atom_site_fract_y
 _atom_site_fract_z
 _atom_site_occupancy
  La3+  La0  1  -0.02766486  0.13350687  0.57085527  1
  La3+  La1  1  0.09900171  0.00262900  0.43220550  1
  La3+  La2  1  0.74454494  0.62176680  0.07421265  1
  La3+  La3  1  0.09350235  0.25473295  0.43531907  1
  La3+  La4  1  0.74408439  0.13336031  0.05785974  1
  La3+  La5  1  0.37433350  0.24932266  0.91674992  1
  La3+  La6  1  0.47821042  0.64192845  0.57438717  1
  La3+  La7  1  0.34288872  0.01866610  0.41916831  1
  La3+  La8  1  0.37018629  0.75862943  0.94578205  1
  La3+  La9  1  -0.02567386  0.63742240  0.57259280  1
  La3+  La10  1  0.22422845  0.12434736  0.58482615  1
  La3+  La11  1  0.35012131  0.74800210  0.42251728  1
  La3+  La12  1  0.84788583  0.51065131  0.42818921  1
  La3+  La13  1  0.12060100  0.24843888  0.91381223  1
  La3+  La14  1  0.00071789  0.62470419  0.08234865  1
  La3+  La15  1  0.62206768  0.00348862  0.93475617  1
  La3+  La16  1  0.50004864  0.88209336  0.10638263  1
  La3+  La17  1  0.71917884  0.38577595  0.57174415  1
  Ce3+  Ce18  1  0.72665213  0.64087094  0.57386911  1
  Ce3+  Ce19  1  0.47044787  0.88473086  0.54609189  1
  Ce3+  Ce20  1  0.24866448  0.63645423  0.07514215  1
  Ce3+  Ce21  1  0.24960394  0.12580160  0.06012182  1
  Ce3+  Ce22  1  0.12250955  0.50520778  0.94515930  1
  Ce3+  Ce23  1  0.60583259  0.25679609  0.43649174  1
  Ce3+  Ce24  1  0.21789911  0.63322429  0.56445763  1
  Ce3+  Ce25  1  -0.02274638  0.87863438  0.55440760  1
  Ce3+  Ce26  1  0.87142813  0.26388566  0.92306081  1
  Ce3+  Ce27  1  0.22164057  0.38266148  0.55726656  1
  Ce3+  Ce28  1  0.85368684  0.00694254  0.43605346  1
  Ce3+  Ce29  1  0.87231269  0.00317561  0.94087073  1
  Ce3+  Ce30  1  0.62278336  0.50494585  0.94503704  1
  Ce3+  Ce31  1  -0.02646419  0.38634221  0.56097229  1
  Ce3+  Ce32  1  0.60289768  0.50416932  0.43787894  1
  Ce3+  Ce33  1  0.74299168  0.87470489  0.06134552  1
  Ce3+  Ce34  1  0.72765964  0.12938419  0.56748904  1
  Ce3+  Ce35  1  0.87307826  0.74817084  0.94716979  1
  Ce3+  Ce36  1  0.36711332  0.00438701  0.93702160  1
  Ce3+  Ce37  1  0.62243428  0.25780916  0.93022297  1
  Pr3+  Pr38  1  0.12132232  0.75315494  0.94732379  1
  Pr3+  Pr39  1  0.24436398  0.88458475  0.07870988  1
  Pr3+  Pr40  1  0.35205007  0.50643619  0.44422317  1
  Pr3+  Pr41  1  0.10109953  0.75070146  0.42660812  1
  Pr3+  Pr42  1  0.24852741  0.37077379  0.06130528  1
  Pr3+  Pr43  1  0.09331813  0.50775397  0.42854305  1
  Pr3+  Pr44  1  0.49588702  0.13597070  0.06255617  1
  Pr3+  Pr45  1  0.87272020  0.50939068  0.93784008  1
  Pr3+  Pr46  1  0.60028006  0.75398335  0.43374890  1
  Pr3+  Pr47  1  -0.00403295  0.88156606  0.06457566  1
  Pr3+  Pr48  1  0.47155361  0.37933821  0.56139265  1
  Pr3+  Pr49  1  0.37074871  0.50468329  0.94553770  1
  Nd3+  Nd50  1  -0.00149631  0.12968887  0.04978056  1
  Nd3+  Nd51  1  0.84827958  0.75281942  0.43382249  1
  Nd3+  Nd52  1  0.34125535  0.25849598  0.43832293  1
  Nd3+  Nd53  1  0.22968941  0.87634328  0.55852422  1
  Nd3+  Nd54  1  0.84803413  0.25497718  0.43775371  1
  Nd3+  Nd55  1  0.60132939  0.00874356  0.43782179  1
  Nd3+  Nd56  1  0.72422814  0.88181007  0.55408234  1
  Nd3+  Nd57  1  -0.00094276  0.37320290  0.05432898  1
  Sm3+  Sm58  1  0.61986819  0.75322564  0.94245563  1
  Sm3+  Sm59  1  0.49496990  0.37616675  0.05552974  1
  Sm3+  Sm60  1  0.49599540  0.63190622  0.06432775  1
  Sm3+  Sm61  1  0.47373004  0.13006044  0.55514823  1
  Sm3+  Sm62  1  0.75336934  0.37637838  0.06827485  1
  Sm3+  Sm63  1  0.12820266  -0.00016651  0.93192503  1
  Bi2+  Bi64  1  -0.05180278  0.12286116  0.28344024  1
  Bi2+  Bi65  1  -0.01930618  0.11300883  0.78084262  1
  Bi2+  Bi66  1  0.06033102  0.35171364  0.29819139  1
  Bi2+  Bi67  1  -0.01314669  0.39398743  0.78669450  1
  Bi2+  Bi68  1  -0.01184852  0.60209003  0.28900989  1
  Bi2+  Bi69  1  0.01531862  0.59828994  0.80207800  1
  Bi2+  Bi70  1  -0.01467997  0.86201124  0.29393644  1
  Bi2+  Bi71  1  0.04778906  0.86036998  0.79526606  1
  Bi2+  Bi72  1  0.24633436  0.16204178  0.28499904  1
  Bi2+  Bi73  1  0.25201541  0.09139201  0.79574196  1
  Bi2+  Bi74  1  0.33505729  0.38635314  0.31247172  1
  Bi2+  Bi75  1  0.30941016  0.38378043  0.78523426  1
  Bi2+  Bi76  1  0.24063534  0.54957609  0.28482155  1
  Bi2+  Bi77  1  0.25773736  0.63889570  0.79509120  1
  Bi2+  Bi78  1  0.25844016  0.91798740  0.28327198  1
  Bi2+  Bi79  1  0.35137688  0.86887366  0.78927188  1
  Bi2+  Bi80  1  0.52253799  0.19415179  0.29735975  1
  Bi2+  Bi81  1  0.49993079  0.14055367  0.77941645  1
  Bi2+  Bi82  1  0.53173851  0.38508246  0.32699096  1
  Bi2+  Bi83  1  0.57334027  0.32400167  0.75191347  1
  Bi2+  Bi84  1  0.51406685  0.58148232  0.30927957  1
  Bi2+  Bi85  1  0.51359458  0.61134202  0.81448401  1
  Bi2+  Bi86  1  0.51127939  0.87966717  0.30502415  1
  Bi2+  Bi87  1  0.57240871  0.88243514  0.77126462  1
  Bi2+  Bi88  1  0.76490032  0.08305650  0.31900686  1
  Bi2+  Bi89  1  0.73417889  0.09411072  0.78185069  1
  Bi2+  Bi90  1  0.70308867  0.32554237  0.26991449  1
  Bi2+  Bi91  1  0.73931572  0.28052919  0.81283860  1
  Bi2+  Bi92  1  0.72723873  0.60227654  0.28727037  1
  Bi2+  Bi93  1  0.77369883  0.66859829  0.78875648  1
  Bi2+  Bi94  1  0.78687967  0.88654429  0.28990722  1
  Bi2+  Bi95  1  0.85157386  0.86104762  0.79282209  1
  Bi2+  Bi96  1  0.11862671  0.01340005  0.20181293  1
  Bi2+  Bi97  1  0.09671485  -0.02899769  0.70558279  1
  Bi2+  Bi98  1  0.11184774  0.24006415  0.20539455  1
  Bi2+  Bi99  1  0.13581739  0.25392913  0.70720523  1
  Bi2+  Bi100  1  0.15080018  0.43124990  0.20983703  1
  Bi2+  Bi101  1  0.17250471  0.51680772  0.72020889  1
  Bi2+  Bi102  1  0.14255077  0.74198023  0.21193221  1
  Bi2+  Bi103  1  0.19152218  0.79041681  0.72653124  1
  Bi2+  Bi104  1  0.39718580  0.12859448  0.21660737  1
  Bi2+  Bi105  1  0.39678523  -0.04595387  0.69312563  1
  Bi2+  Bi106  1  0.35718493  0.33562978  0.19952257  1
  Bi2+  Bi107  1  0.39864371  0.31568411  0.69555485  1
  Bi2+  Bi108  1  0.40253311  0.52494834  0.20537430  1
  Bi2+  Bi109  1  0.37518659  0.52876632  0.71356928  1
  Bi2+  Bi110  1  0.39373916  0.72497722  0.22614225  1
  Bi2+  Bi111  1  0.39109106  0.72072400  0.70057607  1
  Bi2+  Bi112  1  0.72086380  0.02594728  0.21157095  1
  Bi2+  Bi113  1  0.69034272  -0.04639933  0.68763170  1
  Bi2+  Bi114  1  0.60548400  0.18268055  0.19355528  1
  Bi2+  Bi115  1  0.62532135  0.14605583  0.68772891  1
  Bi2+  Bi116  1  0.59801803  0.48143077  0.22034669  1
  Bi2+  Bi117  1  0.75839388  0.47450498  0.77020300  1
  Bi2+  Bi118  1  0.63809218  0.77107180  0.21879771  1
  Bi2+  Bi119  1  0.63522807  0.72475990  0.71460651  1
  Bi2+  Bi120  1  0.90142415  -0.04704090  0.19550044  1
  Bi2+  Bi121  1  0.89570737  -0.00802090  0.70335253  1
  Bi2+  Bi122  1  0.86096093  0.25140404  0.21470896  1
  Bi2+  Bi123  1  0.83473019  0.27348004  0.70851575  1
  Bi2+  Bi124  1  0.85412524  0.45446920  0.21780300  1
  Bi2+  Bi125  1  0.96224754  0.50439247  0.69163896  1
  Bi2+  Bi126  1  0.89721321  0.75533821  0.21009984  1
  Bi2+  Bi127  1  0.92143521  0.72690927  0.71588731  1
  S2-  S128  1  0.01386876  0.13012281  0.14969449  1
  S2-  S129  1  0.08258858  0.12936692  0.65100657  1
  S2-  S130  1  -0.07594534  0.36709072  0.14526793  1
  S2-  S131  1  -0.02502614  0.33445457  0.65713540  1
  S2-  S132  1  -0.06557827  0.59639553  0.17895398  1
  S2-  S133  1  0.10282372  0.59878736  0.64162035  1
  S2-  S134  1  0.09433912  0.87256374  0.14975012  1
  S2-  S135  1  -0.00606480  0.79598638  0.63881158  1
  S2-  S136  1  0.25044476  0.02243558  0.14500334  1
  S2-  S137  1  0.27368181  0.18307796  0.68677017  1
  S2-  S138  1  0.24600489  0.24736960  0.13380504  1
  S2-  S139  1  0.19825782  0.37775006  0.65480434  1
  S2-  S140  1  0.13631520  0.61705728  0.15300936  1
  S2-  S141  1  0.25413103  0.75183541  0.63513813  1
  S2-  S142  1  0.27521300  0.76020492  0.15370477  1
  S2-  S143  1  0.24609908  0.97584800  0.64369392  1
  S2-  S144  1  0.49532408  0.04910308  0.15199097  1
  S2-  S145  1  0.46739417  0.09026198  0.65254283  1
  S2-  S146  1  0.49233802  0.27974529  0.13674704  1
  S2-  S147  1  0.53840725  0.38427882  0.65491088  1
  S2-  S148  1  0.51867219  0.70600995  0.15323799  1
  S2-  S149  1  0.60578563  0.61497188  0.64495009  1
  S2-  S150  1  0.44974472  0.87503050  0.20943724  1
  S2-  S151  1  0.47410408  0.81722800  0.63670284  1
  S2-  S152  1  0.74306820  0.24514849  0.13612636  1
  S2-  S153  1  0.84331623  0.13150153  0.64412984  1
  S2-  S154  1  0.73318026  0.48553074  0.14668391  1
  S2-  S155  1  0.75550943  0.40118277  0.67226484  1
  S2-  S156  1  0.74936544  0.71228527  0.16115550  1
  S2-  S157  1  0.84979241  0.61230742  0.64691980  1
  S2-  S158  1  0.66036136  0.89596459  0.14815844  1
  S2-  S159  1  0.73194423  0.80028666  0.64268471  1
  S2-  S160  1  0.19767911  0.03743080  0.34881359  1
  S2-  S161  1  0.11223704  0.09429647  0.84550189  1
  S2-  S162  1  0.19935405  0.28503053  0.35270341  1
  S2-  S163  1  0.24757558  0.26129242  0.84113670  1
  S2-  S164  1  0.11457517  0.62397450  0.34909025  1
  S2-  S165  1  0.10832469  0.47191104  0.84873353  1
  S2-  S166  1  0.13075647  0.83300388  0.33393241  1
  S2-  S167  1  0.12018133  0.72055988  0.84741361  1
  S2-  S168  1  0.39463362  -0.01491340  0.32078864  1
  S2-  S169  1  0.25363845  -0.05013644  0.85937154  1
  S2-  S170  1  0.37837721  0.17335242  0.35384768  1
  S2-  S171  1  0.38579099  0.10186933  0.85201080  1
  S2-  S172  1  0.35839422  0.59901227  0.35769931  1
  S2-  S173  1  0.41092566  0.49232387  0.84687875  1
  S2-  S174  1  0.35785233  0.79392072  0.32203878  1
  S2-  S175  1  0.38086796  0.71734526  0.84661644  1
  S2-  S176  1  0.60244065  0.01802285  0.33745498  1
  S2-  S177  1  0.60030359  0.02006729  0.83355324  1
  S2-  S178  1  0.72665230  0.24606341  0.36187664  1
  S2-  S179  1  0.51725789  0.26580768  0.84960385  1
  S2-  S180  1  0.71332281  0.49581460  0.35898521  1
  S2-  S181  1  0.63723197  0.51357038  0.84632653  1
  S2-  S182  1  0.60842191  0.73404864  0.33147971  1
  S2-  S183  1  0.61042208  0.75137766  0.84253360  1
  S2-  S184  1  0.96778353  0.00808797  0.35833506  1
  S2-  S185  1  0.86622893  0.02498689  0.84295183  1
  S2-  S186  1  0.96645032  0.24519628  0.35786894  1
  S2-  S187  1  0.98320305  0.25021176  0.84345981  1
  S2-  S188  1  0.96703060  0.47592006  0.34937884  1
  S2-  S189  1  0.85192538  0.41020952  0.85305542  1
  S2-  S190  1  0.85492574  0.65995206  0.34798997  1
  S2-  S191  1  0.88414160  0.64336790  0.86771354  1
  S2-  S192  1  -0.02913684  0.12925729  0.46256875  1
  S2-  S193  1  -0.00484108  0.12462936  0.94648531  1
  S2-  S194  1  -0.03000535  0.38156364  0.45715164  1
  S2-  S195  1  -0.00118128  0.38113474  0.95002865  1
  S2-  S196  1  -0.02643566  0.63372707  0.45675831  1
  S2-  S197  1  0.00143426  0.62755914  0.96900285  1
  S2-  S198  1  -0.02671512  0.87310468  0.44959441  1
  S2-  S199  1  -0.00388669  0.87832619  0.95318256  1
  S2-  S200  1  0.22056605  0.13548648  0.45975022  1
  S2-  S201  1  0.24376795  0.12614133  0.95256170  1
  S2-  S202  1  0.22261225  0.38784799  0.45362929  1
  S2-  S203  1  0.24699222  0.37980415  0.95230949  1
  S2-  S204  1  0.22395636  0.62728561  0.45675724  1
  S2-  S205  1  0.24689623  0.62920764  0.96288783  1
  S2-  S206  1  0.22957157  0.87862770  0.44774727  1
  S2-  S207  1  0.24301124  0.87668207  0.96808593  1
  S2-  S208  1  0.47971163  0.13396148  0.45242035  1
  S2-  S209  1  0.50255962  0.12954630  0.95404621  1
  S2-  S210  1  0.47399731  0.37724085  0.45445572  1
  S2-  S211  1  0.49694687  0.38194324  0.95275641  1
  S2-  S212  1  0.48075058  0.62933990  0.45838258  1
  S2-  S213  1  0.49730588  0.63020748  0.95908821  1
  S2-  S214  1  0.47509098  0.88330680  0.43995215  1
  S2-  S215  1  0.49792329  0.87841982  0.93976378  1
  S2-  S216  1  0.72643176  0.12624479  0.46190816  1
  S2-  S217  1  0.74923352  0.13224652  0.94754800  1
  S2-  S218  1  0.72330885  0.37933031  0.46212916  1
  S2-  S219  1  0.74548820  0.38253622  0.95988852  1
  S2-  S220  1  0.72206783  0.63395672  0.45880359  1
  S2-  S221  1  0.74212742  0.63111164  0.96317759  1
  S2-  S222  1  0.72552859  0.88149332  0.44463329  1
  S2-  S223  1  0.74743773  0.87383194  0.95054007  1
  S2-  S224  1  0.11850808  0.00392527  0.03951031  1
  S2-  S225  1  0.10058151  0.00152738  0.54336908  1
  S2-  S226  1  0.12102345  0.25094617  0.03348814  1
  S2-  S227  1  0.09953789  0.25850598  0.54611129  1
  S2-  S228  1  0.12491687  0.49732354  0.05202456  1
  S2-  S229  1  0.09824973  0.50277000  0.53786844  1
  S2-  S230  1  0.12003552  0.75362179  0.05190650  1
  S2-  S231  1  0.10332101  0.75795504  0.53471554  1
  S2-  S232  1  0.37976983  -0.00044550  0.04430906  1
  S2-  S233  1  0.35099734  0.00958938  0.53529382  1
  S2-  S234  1  0.37277221  0.25452788  0.03114859  1
  S2-  S235  1  0.34706088  0.25242703  0.54865836  1
  S2-  S236  1  0.37261862  0.50405304  0.05470989  1
  S2-  S237  1  0.35055582  0.50992116  0.55355450  1
  S2-  S238  1  0.38167602  0.76098597  0.05246357  1
  S2-  S239  1  0.35402631  0.75481674  0.53165617  1
  S2-  S240  1  0.62259964  0.00470738  0.04324577  1
  S2-  S241  1  0.59876489  0.00666875  0.54563053  1
  S2-  S242  1  0.62199525  0.26093364  0.03596159  1
  S2-  S243  1  0.59885672  0.25265632  0.54780279  1
  S2-  S244  1  0.61319275  0.50150816  0.05096115  1
  S2-  S245  1  0.59550762  0.50581606  0.54379848  1
  S2-  S246  1  0.61794256  0.75503647  0.04679472  1
  S2-  S247  1  0.59927271  0.76158436  0.53891216  1
  S2-  S248  1  0.86934054  0.00448163  0.04848956  1
  S2-  S249  1  0.85022649  0.00104486  0.54382087  1
  S2-  S250  1  0.87409973  0.25366522  0.03457126  1
  S2-  S251  1  0.84601617  0.26171140  0.54591425  1
  S2-  S252  1  0.87643716  0.50345089  0.04635470  1
  S2-  S253  1  0.84719940  0.50626857  0.54316355  1
  S2-  S254  1  0.87435691  0.75283221  0.05363924  1
  S2-  S255  1  0.84886251  0.75930525  0.53851025  1
