# generated using pymatgen
data_La9Ce10Pr6Nd4Sm3(BiS2)32
_symmetry_space_group_name_H-M   'P 1'
_cell_length_a   16.25564197
_cell_length_b   16.25049667
_cell_length_c   27.16533934
_cell_angle_alpha   89.80666234
_cell_angle_beta   90.14903053
_cell_angle_gamma   90.02628936
_symmetry_Int_Tables_number   1
_chemical_formula_structural   La9Ce10Pr6Nd4Sm3(BiS2)32
_chemical_formula_sum   'La18 Ce20 Pr12 Nd8 Sm6 Bi64 S128'
_cell_volume   7175.99145890
_cell_formula_units_Z   2
loop_
 _symmetry_equiv_pos_site_id
 _symmetry_equiv_pos_as_xyz
  1  'x, y, z'
loop_
 _atom_type_symbol
 _atom_type_oxidation_number
  La3+  3.0
  Ce3+  3.0
  Pr3+  3.0
  Nd3+  3.0
  Sm3+  3.0
  Bi2+  2.0
  S2-  -2.0
loop_
 _atom_site_type_symbol
 _atom_site_label
 _atom_site_symmetry_multiplicity
 _atom_site_fract_x
 _atom_site_fract_y
 _atom_site_fract_z
 _atom_site_occupancy
  La3+  La0  1  0.75610925  0.12973200  0.05631048  1
  La3+  La1  1  0.01026378  0.37493127  0.06890484  1
  La3+  La2  1  0.75861806  0.12512867  0.56879038  1
  La3+  La3  1  0.13372277  0.51411673  0.93409131  1
  La3+  La4  1  0.51709941  0.38702070  0.08177993  1
  La3+  La5  1  0.63020388  0.75099043  0.43530985  1
  La3+  La6  1  0.25523595  0.12684707  0.55121020  1
  La3+  La7  1  0.37892382  0.01269634  0.93428810  1
  La3+  La8  1  0.01491097  0.63084747  0.57653185  1
  La3+  La9  1  0.00342477  0.61787766  0.10761624  1
  La3+  La10  1  0.75658507  0.87268297  0.56219398  1
  La3+  La11  1  0.01266706  0.11750882  0.57527221  1
  La3+  La12  1  0.26722145  0.14193889  0.08237963  1
  La3+  La13  1  0.50409996  0.36434337  0.57387503  1
  La3+  La14  1  0.64248671  0.26903825  0.91035056  1
  La3+  La15  1  0.11643404  0.26243654  0.42364083  1
  La3+  La16  1  0.38582285  0.26402260  0.41500795  1
  La3+  La17  1  0.01058752  0.38428992  0.59214188  1
  Ce3+  Ce18  1  0.38037039  0.49759699  0.45068633  1
  Ce3+  Ce19  1  0.50396437  0.87837791  0.55453205  1
  Ce3+  Ce20  1  0.12954731  0.50213671  0.44448733  1
  Ce3+  Ce21  1  0.63163504  0.25281422  0.44138717  1
  Ce3+  Ce22  1  0.13583482  0.01231137  0.95312454  1
  Ce3+  Ce23  1  0.63470163  0.01095399  0.93270441  1
  Ce3+  Ce24  1  0.38152903  0.74883696  0.44410713  1
  Ce3+  Ce25  1  0.88463484  0.74944008  0.44246868  1
  Ce3+  Ce26  1  0.75751660  0.88332493  0.05056789  1
  Ce3+  Ce27  1  0.50565669  0.13651642  0.04902069  1
  Ce3+  Ce28  1  0.01049633  0.87809828  0.55479140  1
  Ce3+  Ce29  1  0.01008088  0.13209617  0.06638390  1
  Ce3+  Ce30  1  0.88820129  0.75743269  0.94529989  1
  Ce3+  Ce31  1  0.25707161  0.38313228  0.05797725  1
  Ce3+  Ce32  1  0.25751719  0.62591974  0.56354831  1
  Ce3+  Ce33  1  0.50819638  0.88372160  0.05282783  1
  Ce3+  Ce34  1  0.37232431  0.00059375  0.42543940  1
  Ce3+  Ce35  1  0.50279700  0.12722553  0.54797720  1
  Ce3+  Ce36  1  0.51555481  0.63346994  0.06741105  1
  Ce3+  Ce37  1  0.37942609  0.26297768  0.93737182  1
  Pr3+  Pr38  1  0.63165485  0.51186927  0.93268758  1
  Pr3+  Pr39  1  0.38652770  0.51261308  0.94300479  1
  Pr3+  Pr40  1  0.63455412  0.76002608  0.93540688  1
  Pr3+  Pr41  1  0.00879121  0.87942241  0.06461902  1
  Pr3+  Pr42  1  0.25745818  0.63324708  0.06970455  1
  Pr3+  Pr43  1  0.63134751  0.00417560  0.44031543  1
  Pr3+  Pr44  1  0.12556111  0.01250276  0.42363211  1
  Pr3+  Pr45  1  0.88225602  0.00394149  0.43583731  1
  Pr3+  Pr46  1  0.88784805  0.50885989  0.94730705  1
  Pr3+  Pr47  1  0.25304855  0.36907924  0.56588271  1
  Pr3+  Pr48  1  0.13759814  0.26139810  0.92626205  1
  Pr3+  Pr49  1  0.89248628  0.25742439  0.93331023  1
  Nd3+  Nd50  1  0.75684300  0.62288067  0.55630875  1
  Nd3+  Nd51  1  0.63061360  0.49813617  0.44352173  1
  Nd3+  Nd52  1  0.75728475  0.37956611  0.05653415  1
  Nd3+  Nd53  1  0.88602530  0.50032434  0.44459332  1
  Nd3+  Nd54  1  0.13224479  0.74962844  0.43769207  1
  Nd3+  Nd55  1  0.88928488  0.00916124  0.93750668  1
  Nd3+  Nd56  1  0.38352802  0.75853005  0.94299563  1
  Nd3+  Nd57  1  0.50679366  0.62471729  0.55961925  1
  Sm3+  Sm58  1  0.13310558  0.75486035  0.94394896  1
  Sm3+  Sm59  1  0.75792308  0.37646497  0.56029937  1
  Sm3+  Sm60  1  0.26023625  0.88058117  0.05763446  1
  Sm3+  Sm61  1  0.25915879  0.87784467  0.55145731  1
  Sm3+  Sm62  1  0.88529611  0.25392775  0.45589442  1
  Sm3+  Sm63  1  0.75574958  0.63257031  0.05275284  1
  Bi2+  Bi64  1  0.01026917  0.12092296  0.27675131  1
  Bi2+  Bi65  1  0.00641301  0.10640589  0.79190266  1
  Bi2+  Bi66  1  -0.00484300  0.37696525  0.29912575  1
  Bi2+  Bi67  1  -0.01090880  0.37913097  0.79934531  1
  Bi2+  Bi68  1  -0.02121431  0.62216273  0.29398247  1
  Bi2+  Bi69  1  0.00205385  0.62467692  0.79900243  1
  Bi2+  Bi70  1  -0.03103741  0.86936366  0.29604706  1
  Bi2+  Bi71  1  -0.03183026  0.86434719  0.78896357  1
  Bi2+  Bi72  1  0.25378850  0.07918086  0.29026864  1
  Bi2+  Bi73  1  0.24139412  0.08785005  0.79552388  1
  Bi2+  Bi74  1  0.26282850  0.37154518  0.29377693  1
  Bi2+  Bi75  1  0.24329059  0.34702177  0.78564490  1
  Bi2+  Bi76  1  0.26088274  0.62708849  0.29768313  1
  Bi2+  Bi77  1  0.26731788  0.60717292  0.79585778  1
  Bi2+  Bi78  1  0.26926749  0.84714340  0.26354379  1
  Bi2+  Bi79  1  0.21263772  0.79311736  0.78302372  1
  Bi2+  Bi80  1  0.61279362  0.13191023  0.29914554  1
  Bi2+  Bi81  1  0.41852073  0.11813635  0.76395880  1
  Bi2+  Bi82  1  0.51798679  0.39309848  0.29452041  1
  Bi2+  Bi83  1  0.43378536  0.39481375  0.77298259  1
  Bi2+  Bi84  1  0.52680092  0.62580737  0.29653279  1
  Bi2+  Bi85  1  0.54004930  0.55591886  0.79862396  1
  Bi2+  Bi86  1  0.45651191  0.85738779  0.29386715  1
  Bi2+  Bi87  1  0.44780506  0.83829883  0.79389626  1
  Bi2+  Bi88  1  0.80506678  0.10341984  0.29131133  1
  Bi2+  Bi89  1  0.73483458  0.12606772  0.79624181  1
  Bi2+  Bi90  1  0.73350639  0.36646477  0.27232947  1
  Bi2+  Bi91  1  0.74060795  0.36891829  0.77502955  1
  Bi2+  Bi92  1  0.71848058  0.71900572  0.24398710  1
  Bi2+  Bi93  1  0.70295333  0.65877941  0.79596049  1
  Bi2+  Bi94  1  0.77269389  0.91283479  0.30192064  1
  Bi2+  Bi95  1  0.75175162  0.84616631  0.77277370  1
  Bi2+  Bi96  1  0.07350413  -0.04143590  0.21154419  1
  Bi2+  Bi97  1  0.12571782  -0.06752333  0.72320797  1
  Bi2+  Bi98  1  0.12809010  0.23609313  0.20985529  1
  Bi2+  Bi99  1  0.12368583  0.25215587  0.70333791  1
  Bi2+  Bi100  1  0.17335991  0.49626270  0.22530501  1
  Bi2+  Bi101  1  0.11067358  0.53172973  0.71560405  1
  Bi2+  Bi102  1  0.12184665  0.76168123  0.21434654  1
  Bi2+  Bi103  1  0.05579065  0.74952710  0.70054980  1
  Bi2+  Bi104  1  0.45807566  0.01394657  0.22342491  1
  Bi2+  Bi105  1  0.38904067  -0.03746302  0.69186759  1
  Bi2+  Bi106  1  0.36447173  0.22575100  0.20875531  1
  Bi2+  Bi107  1  0.34392167  0.26848155  0.69547426  1
  Bi2+  Bi108  1  0.37061099  0.52434118  0.22447498  1
  Bi2+  Bi109  1  0.37690241  0.54846137  0.70781643  1
  Bi2+  Bi110  1  0.34564635  0.71009085  0.18981737  1
  Bi2+  Bi111  1  0.34616436  0.74465777  0.70432439  1
  Bi2+  Bi112  1  0.64790378  0.00096637  0.21600137  1
  Bi2+  Bi113  1  0.55981663  -0.01351157  0.73882794  1
  Bi2+  Bi114  1  0.61589498  0.25525420  0.20649367  1
  Bi2+  Bi115  1  0.59262549  0.23005837  0.70896054  1
  Bi2+  Bi116  1  0.64598130  0.51810397  0.20506027  1
  Bi2+  Bi117  1  0.66337534  0.49846568  0.69850659  1
  Bi2+  Bi118  1  0.53753667  0.75542234  0.20378016  1
  Bi2+  Bi119  1  0.54462352  0.73421970  0.71381920  1
  Bi2+  Bi120  1  0.91632612  0.04583189  0.18246441  1
  Bi2+  Bi121  1  0.88689573  -0.01680005  0.70913425  1
  Bi2+  Bi122  1  0.85557735  0.24644487  0.21257587  1
  Bi2+  Bi123  1  0.85143837  0.23771486  0.70247779  1
  Bi2+  Bi124  1  0.87846143  0.44771817  0.20911756  1
  Bi2+  Bi125  1  0.85372660  0.58139079  0.73033943  1
  Bi2+  Bi126  1  0.85301676  0.84329309  0.20184053  1
  Bi2+  Bi127  1  0.85884395  0.77251760  0.68786616  1
  S2-  S128  1  0.00897017  0.24081938  0.14225223  1
  S2-  S129  1  -0.01649841  0.14991642  0.67576846  1
  S2-  S130  1  0.02475507  0.45793806  0.15789836  1
  S2-  S131  1  -0.02705819  0.34306734  0.69496291  1
  S2-  S132  1  -0.08288620  0.61113946  0.20346821  1
  S2-  S133  1  -0.02732598  0.53187083  0.65647092  1
  S2-  S134  1  -0.00127639  0.78095203  0.14782374  1
  S2-  S135  1  0.01710688  0.96391571  0.63834055  1
  S2-  S136  1  0.21779375  0.10217666  0.18110767  1
  S2-  S137  1  0.22654599  0.15960171  0.65032332  1
  S2-  S138  1  0.24914708  0.30218050  0.14448489  1
  S2-  S139  1  0.16343021  0.39363832  0.65229467  1
  S2-  S140  1  0.15951352  0.62577819  0.15468625  1
  S2-  S141  1  0.16153060  0.63853729  0.64517352  1
  S2-  S142  1  0.25997597  0.85610990  0.15507240  1
  S2-  S143  1  0.24644507  0.92355291  0.64552945  1
  S2-  S144  1  0.42795661  0.12561848  0.13769657  1
  S2-  S145  1  0.47839343  0.20001991  0.63479787  1
  S2-  S146  1  0.46547077  0.33261842  0.17661120  1
  S2-  S147  1  0.56008546  0.38199474  0.66958981  1
  S2-  S148  1  0.51067788  0.53220131  0.14713949  1
  S2-  S149  1  0.52640354  0.59745873  0.65703524  1
  S2-  S150  1  0.49770385  0.90043840  0.14992693  1
  S2-  S151  1  0.53979936  0.88286357  0.65089860  1
  S2-  S152  1  0.73618799  0.17928667  0.15210035  1
  S2-  S153  1  0.71408015  0.13832280  0.66666934  1
  S2-  S154  1  0.66993010  0.38740279  0.14169346  1
  S2-  S155  1  0.77031661  0.37801670  0.65886172  1
  S2-  S156  1  0.70322291  0.64283596  0.14579903  1
  S2-  S157  1  0.74752653  0.64398926  0.65453386  1
  S2-  S158  1  0.74117798  0.93668120  0.14319034  1
  S2-  S159  1  0.76408154  0.92130209  0.65899098  1
  S2-  S160  1  0.21288648  -0.04897245  0.34315506  1
  S2-  S161  1  0.12307332  0.02367755  0.85509398  1
  S2-  S162  1  0.13850158  0.15745499  0.34226314  1
  S2-  S163  1  0.01125118  0.23237892  0.85338150  1
  S2-  S164  1  0.12822009  0.40979975  0.36029178  1
  S2-  S165  1  0.12012362  0.40447141  0.85413152  1
  S2-  S166  1  0.12362346  0.68460128  0.34489698  1
  S2-  S167  1  0.13184312  0.64983904  0.86375316  1
  S2-  S168  1  0.40980548  0.01717041  0.32906388  1
  S2-  S169  1  0.35897561  -0.01949179  0.83575429  1
  S2-  S170  1  0.34242101  0.22858216  0.31558337  1
  S2-  S171  1  0.27476962  0.22884295  0.85995325  1
  S2-  S172  1  0.38668259  0.42612881  0.36190913  1
  S2-  S173  1  0.33784135  0.47093368  0.84847900  1
  S2-  S174  1  0.39859144  0.71474691  0.34846545  1
  S2-  S175  1  0.38826240  0.70660920  0.84859166  1
  S2-  S176  1  0.62758366  -0.03094802  0.34238163  1
  S2-  S177  1  0.63294570  0.01845223  0.83393270  1
  S2-  S178  1  0.54617756  0.26961128  0.35585724  1
  S2-  S179  1  0.60180434  0.22195534  0.81416770  1
  S2-  S180  1  0.61824859  0.50380099  0.34359295  1
  S2-  S181  1  0.64219974  0.42584893  0.84526649  1
  S2-  S182  1  0.64163522  0.72965528  0.33565375  1
  S2-  S183  1  0.62813667  0.80259083  0.83732849  1
  S2-  S184  1  0.98980503  0.00594252  0.35686228  1
  S2-  S185  1  0.87872448  0.04449165  0.83931436  1
  S2-  S186  1  0.95207744  0.27099689  0.36645932  1
  S2-  S187  1  0.79547203  0.26756429  0.84762417  1
  S2-  S188  1  0.89958547  0.50159756  0.34426790  1
  S2-  S189  1  0.90322261  0.49212970  0.84633690  1
  S2-  S190  1  0.88812428  0.73063516  0.34499968  1
  S2-  S191  1  0.89898745  0.74700782  0.84795963  1
  S2-  S192  1  0.00225650  0.12939359  0.46357630  1
  S2-  S193  1  0.01026250  0.13036990  0.96075265  1
  S2-  S194  1  0.00372061  0.38170045  0.47046530  1
  S2-  S195  1  0.00927602  0.38384527  0.96009856  1
  S2-  S196  1  0.00773630  0.62678352  0.46162284  1
  S2-  S197  1  0.00748202  0.63596632  0.96129536  1
  S2-  S198  1  0.00788134  0.87268938  0.45049318  1
  S2-  S199  1  0.01255021  0.88218671  0.95522951  1
  S2-  S200  1  0.25683564  0.13348443  0.44355090  1
  S2-  S201  1  0.25986157  0.13255045  0.96566901  1
  S2-  S202  1  0.25320314  0.37691887  0.45925909  1
  S2-  S203  1  0.25959442  0.38760319  0.95527327  1
  S2-  S204  1  0.25715210  0.62461528  0.45649688  1
  S2-  S205  1  0.26158576  0.63655700  0.96199430  1
  S2-  S206  1  0.25789701  0.87041197  0.44805609  1
  S2-  S207  1  0.25616151  0.87957352  0.95099818  1
  S2-  S208  1  0.50280158  0.12498044  0.44423737  1
  S2-  S209  1  0.50747633  0.13727578  0.94047357  1
  S2-  S210  1  0.50973911  0.37776012  0.46431989  1
  S2-  S211  1  0.50722024  0.38410559  0.94426128  1
  S2-  S212  1  0.50663764  0.62210536  0.45378798  1
  S2-  S213  1  0.51084648  0.63706586  0.95613844  1
  S2-  S214  1  0.50425815  0.87773795  0.44764317  1
  S2-  S215  1  0.50694220  0.88517126  0.94534241  1
  S2-  S216  1  0.75923027  0.13036396  0.45466093  1
  S2-  S217  1  0.76065868  0.13163156  0.94789938  1
  S2-  S218  1  0.75916721  0.37634585  0.45304688  1
  S2-  S219  1  0.76113145  0.38684545  0.95241907  1
  S2-  S220  1  0.75661855  0.62348476  0.44969857  1
  S2-  S221  1  0.75953137  0.63404081  0.94705701  1
  S2-  S222  1  0.75753830  0.87645562  0.45231512  1
  S2-  S223  1  0.76224136  0.88513321  0.94391321  1
  S2-  S224  1  0.13659930  0.00519279  0.05895976  1
  S2-  S225  1  0.13604064  -0.00148997  0.53389023  1
  S2-  S226  1  0.13748053  0.25481284  0.04053624  1
  S2-  S227  1  0.12517769  0.25104793  0.54800034  1
  S2-  S228  1  0.13366091  0.50726814  0.04794285  1
  S2-  S229  1  0.13433356  0.50278791  0.54861233  1
  S2-  S230  1  0.13712010  0.76021491  0.04713988  1
  S2-  S231  1  0.13638481  0.75726965  0.54441552  1
  S2-  S232  1  0.38077667  0.00397672  0.04272954  1
  S2-  S233  1  0.38102933  0.00124084  0.53679518  1
  S2-  S234  1  0.38916640  0.26692610  0.04247811  1
  S2-  S235  1  0.37776276  0.25212928  0.53321701  1
  S2-  S236  1  0.38324538  0.50839063  0.05040181  1
  S2-  S237  1  0.38110553  0.49748851  0.55785700  1
  S2-  S238  1  0.38569211  0.75731555  0.04984651  1
  S2-  S239  1  0.38203059  0.75154120  0.55135534  1
  S2-  S240  1  0.62792334  0.00934913  0.03959201  1
  S2-  S241  1  0.63095669  0.00337020  0.54749175  1
  S2-  S242  1  0.63024832  0.25886513  0.03696420  1
  S2-  S243  1  0.63672957  0.25068129  0.54744429  1
  S2-  S244  1  0.63481516  0.50969538  0.03865643  1
  S2-  S245  1  0.63179608  0.49747928  0.55024334  1
  S2-  S246  1  0.63471471  0.76012720  0.04283238  1
  S2-  S247  1  0.63009983  0.74853241  0.54485728  1
  S2-  S248  1  0.88550393  0.00520567  0.04419345  1
  S2-  S249  1  0.87944693  0.00053866  0.54347941  1
  S2-  S250  1  0.87867339  0.25523861  0.04274720  1
  S2-  S251  1  0.88374808  0.25344031  0.56039474  1
  S2-  S252  1  0.87873627  0.50930202  0.05521175  1
  S2-  S253  1  0.87888485  0.50027993  0.55106501  1
  S2-  S254  1  0.87729512  0.75543031  0.05015520  1
  S2-  S255  1  0.88384129  0.74869498  0.54944875  1
