# generated using pymatgen
data_La9Ce10Pr6Nd4Sm3(BiS2)32
_symmetry_space_group_name_H-M   'P 1'
_cell_length_a   16.20153339
_cell_length_b   16.17184499
_cell_length_c   27.33339040
_cell_angle_alpha   89.73703235
_cell_angle_beta   89.82886996
_cell_angle_gamma   89.97400255
_symmetry_Int_Tables_number   1
_chemical_formula_structural   La9Ce10Pr6Nd4Sm3(BiS2)32
_chemical_formula_sum   'La18 Ce20 Pr12 Nd8 Sm6 Bi64 S128'
_cell_volume   7161.47765312
_cell_formula_units_Z   2
loop_
 _symmetry_equiv_pos_site_id
 _symmetry_equiv_pos_as_xyz
  1  'x, y, z'
loop_
 _atom_type_symbol
 _atom_type_oxidation_number
  La3+  3.0
  Ce3+  3.0
  Pr3+  3.0
  Nd3+  3.0
  Sm3+  3.0
  Bi2+  2.0
  S2-  -2.0
loop_
 _atom_site_type_symbol
 _atom_site_label
 _atom_site_symmetry_multiplicity
 _atom_site_fract_x
 _atom_site_fract_y
 _atom_site_fract_z
 _atom_site_occupancy
  La3+  La0  1  0.13163618  0.49557244  0.40177620  1
  La3+  La1  1  0.24047718  0.11478787  0.57184806  1
  La3+  La2  1  0.63536836  0.50863398  0.91596214  1
  La3+  La3  1  0.87653101  0.23732519  0.41520897  1
  La3+  La4  1  0.75116679  0.86677940  0.55965684  1
  La3+  La5  1  0.62999409  0.25036628  0.93641682  1
  La3+  La6  1  0.74635374  0.36529484  0.55533642  1
  La3+  La7  1  0.75438548  0.86622237  0.07200623  1
  La3+  La8  1  -0.01448232  0.12343257  0.57458426  1
  La3+  La9  1  0.87252242  0.00588388  0.90392261  1
  La3+  La10  1  0.37677913  0.49386608  0.43265677  1
  La3+  La11  1  -0.00298304  0.37845241  0.08360536  1
  La3+  La12  1  0.00368555  0.86650014  0.61352015  1
  La3+  La13  1  0.75486433  0.11784862  0.08118000  1
  La3+  La14  1  0.87348569  0.74317049  0.43277865  1
  La3+  La15  1  0.36895834  -0.00263381  0.43615496  1
  La3+  La16  1  0.37265200  0.50981321  0.90518768  1
  La3+  La17  1  0.49449200  0.62675392  0.06774883  1
  Ce3+  Ce18  1  0.50166391  0.38087814  0.04739603  1
  Ce3+  Ce19  1  0.49411745  0.86676567  0.55738795  1
  Ce3+  Ce20  1  0.62142153  0.74184362  0.44772238  1
  Ce3+  Ce21  1  0.63343787  -0.00016765  0.94409964  1
  Ce3+  Ce22  1  0.74869136  0.62270664  0.06056303  1
  Ce3+  Ce23  1  0.50022046  0.87690411  0.05354009  1
  Ce3+  Ce24  1  0.88022337  0.24865746  0.95044657  1
  Ce3+  Ce25  1  0.37719934  0.00338076  0.93951246  1
  Ce3+  Ce26  1  0.12666108  0.00478487  0.94644832  1
  Ce3+  Ce27  1  0.25216576  0.12580814  0.06132431  1
  Ce3+  Ce28  1  0.88024894  0.49769245  0.94193143  1
  Ce3+  Ce29  1  0.36950228  0.24381227  0.44984345  1
  Ce3+  Ce30  1  0.87551329  -0.00500837  0.44066842  1
  Ce3+  Ce31  1  0.24278170  0.86449758  0.55953661  1
  Ce3+  Ce32  1  0.62067006  -0.00573577  0.44651068  1
  Ce3+  Ce33  1  0.74653485  0.11846945  0.55331976  1
  Ce3+  Ce34  1  0.74880324  0.61522145  0.55215549  1
  Ce3+  Ce35  1  0.62834142  0.74948424  0.94360285  1
  Ce3+  Ce36  1  0.12678778  0.75085732  0.94502340  1
  Ce3+  Ce37  1  0.12744605  0.49905053  0.94196579  1
  Pr3+  Pr38  1  0.25047296  0.62307554  0.06588045  1
  Pr3+  Pr39  1  0.37164050  0.74071113  0.44456304  1
  Pr3+  Pr40  1  0.12304445  0.74231660  0.43507497  1
  Pr3+  Pr41  1  0.62180913  0.49172002  0.43227257  1
  Pr3+  Pr42  1  0.49054112  0.36555843  0.57047779  1
  Pr3+  Pr43  1  0.50313875  0.12664297  0.05714094  1
  Pr3+  Pr44  1  0.24581923  0.61556374  0.56281866  1
  Pr3+  Pr45  1  0.49460319  0.11753916  0.57355606  1
  Pr3+  Pr46  1  0.61777568  0.24000093  0.43534730  1
  Pr3+  Pr47  1  0.25335591  0.37423047  0.06323442  1
  Pr3+  Pr48  1  0.00058873  0.62418839  0.06555415  1
  Pr3+  Pr49  1  0.25003282  0.87609745  0.05637590  1
  Nd3+  Nd50  1  -0.00176962  0.61666663  0.55625520  1
  Nd3+  Nd51  1  0.87743491  0.75329755  0.93842234  1
  Nd3+  Nd52  1  -0.00311251  0.12162015  0.06788215  1
  Nd3+  Nd53  1  0.74709254  0.37476671  0.06047244  1
  Nd3+  Nd54  1  0.87797558  0.48906049  0.43258467  1
  Nd3+  Nd55  1  0.37747044  0.74970035  0.93679671  1
  Nd3+  Nd56  1  -0.00311869  0.36565218  0.55537051  1
  Nd3+  Nd57  1  0.49921445  0.60860771  0.57261071  1
  Sm3+  Sm58  1  0.11802421  -0.00614271  0.45080592  1
  Sm3+  Sm59  1  0.12787692  0.25253916  0.95094904  1
  Sm3+  Sm60  1  0.37697985  0.25392320  0.94029837  1
  Sm3+  Sm61  1  0.24289502  0.36554573  0.56033282  1
  Sm3+  Sm62  1  -0.00031202  0.87605596  0.05587063  1
  Sm3+  Sm63  1  0.12253690  0.24617474  0.43373587  1
  Bi2+  Bi64  1  0.00231210  0.09063385  0.28729018  1
  Bi2+  Bi65  1  0.01931860  0.15460845  0.81750352  1
  Bi2+  Bi66  1  0.00403454  0.34590739  0.29045127  1
  Bi2+  Bi67  1  0.00317033  0.41625812  0.84061624  1
  Bi2+  Bi68  1  0.02457776  0.59494319  0.27578003  1
  Bi2+  Bi69  1  0.02618230  0.57969392  0.77775612  1
  Bi2+  Bi70  1  -0.01994412  0.84064961  0.28089806  1
  Bi2+  Bi71  1  0.03737174  0.88569205  0.80954538  1
  Bi2+  Bi72  1  0.25507699  0.11382816  0.30970109  1
  Bi2+  Bi73  1  0.26736422  0.16000225  0.80003847  1
  Bi2+  Bi74  1  0.24248658  0.39156302  0.26633584  1
  Bi2+  Bi75  1  0.16162490  0.42759270  0.76879189  1
  Bi2+  Bi76  1  0.26947164  0.63164687  0.28448296  1
  Bi2+  Bi77  1  0.24061297  0.65076807  0.79398918  1
  Bi2+  Bi78  1  0.22491169  0.90198437  0.29463226  1
  Bi2+  Bi79  1  0.27411634  0.92310092  0.75933189  1
  Bi2+  Bi80  1  0.51748462  0.15239747  0.30340979  1
  Bi2+  Bi81  1  0.48494357  0.06228319  0.77836023  1
  Bi2+  Bi82  1  0.51083663  0.39466956  0.28761629  1
  Bi2+  Bi83  1  0.51331522  0.32994782  0.78541020  1
  Bi2+  Bi84  1  0.49306199  0.68268712  0.28524651  1
  Bi2+  Bi85  1  0.51419257  0.59707652  0.78996401  1
  Bi2+  Bi86  1  0.53211781  0.87072704  0.25018985  1
  Bi2+  Bi87  1  0.53302045  0.86582899  0.79116280  1
  Bi2+  Bi88  1  0.72897078  0.07445137  0.29266042  1
  Bi2+  Bi89  1  0.69593589  0.12058090  0.77994188  1
  Bi2+  Bi90  1  0.78286940  0.47511890  0.30208161  1
  Bi2+  Bi91  1  0.83827398  0.37343747  0.78942844  1
  Bi2+  Bi92  1  0.76226517  0.67236603  0.30319517  1
  Bi2+  Bi93  1  0.77036812  0.64852928  0.79650442  1
  Bi2+  Bi94  1  0.79560881  0.88893556  0.30525478  1
  Bi2+  Bi95  1  0.72972579  0.84860636  0.80064767  1
  Bi2+  Bi96  1  0.14167407  0.01569124  0.21334998  1
  Bi2+  Bi97  1  0.16550660  0.06175037  0.71351400  1
  Bi2+  Bi98  1  0.12603104  0.20782079  0.22314969  1
  Bi2+  Bi99  1  0.02736921  0.29470496  0.73473883  1
  Bi2+  Bi100  1  0.15604275  0.56930513  0.19033419  1
  Bi2+  Bi101  1  0.04842764  0.47057456  0.67800707  1
  Bi2+  Bi102  1  0.13725233  0.76031294  0.21746533  1
  Bi2+  Bi103  1  0.14365321  0.71810685  0.70806020  1
  Bi2+  Bi104  1  0.33737261  0.05158386  0.21012923  1
  Bi2+  Bi105  1  0.35934745  0.05724145  0.68569621  1
  Bi2+  Bi106  1  0.38472534  0.26069980  0.24766497  1
  Bi2+  Bi107  1  0.33042281  0.25207768  0.70534010  1
  Bi2+  Bi108  1  0.41030694  0.50427597  0.18460699  1
  Bi2+  Bi109  1  0.38097233  0.51966245  0.70222032  1
  Bi2+  Bi110  1  0.36791262  0.79298770  0.20403862  1
  Bi2+  Bi111  1  0.39820757  0.79742403  0.71669197  1
  Bi2+  Bi112  1  0.60526927  0.04394685  0.20854309  1
  Bi2+  Bi113  1  0.62242968  -0.01767873  0.70580872  1
  Bi2+  Bi114  1  0.63357216  0.33411338  0.20484724  1
  Bi2+  Bi115  1  0.62048653  0.17160170  0.68277158  1
  Bi2+  Bi116  1  0.62932214  0.54988224  0.24859614  1
  Bi2+  Bi117  1  0.65229273  0.47576469  0.70932259  1
  Bi2+  Bi118  1  0.70478340  0.81313169  0.21402117  1
  Bi2+  Bi119  1  0.63105357  0.72488917  0.72962423  1
  Bi2+  Bi120  1  0.87164850  -0.00229889  0.21438450  1
  Bi2+  Bi121  1  0.87283534  -0.00766433  0.71002714  1
  Bi2+  Bi122  1  0.84881329  0.25538236  0.21112428  1
  Bi2+  Bi123  1  0.83202744  0.24531085  0.70371869  1
  Bi2+  Bi124  1  0.86545209  0.56839439  0.21029392  1
  Bi2+  Bi125  1  0.86616160  0.51081206  0.70778344  1
  Bi2+  Bi126  1  0.94887918  0.74270036  0.18170548  1
  Bi2+  Bi127  1  0.87118333  0.72500593  0.70909062  1
  S2-  S128  1  -0.10360528  0.13043481  0.15061838  1
  S2-  S129  1  0.01392945  0.02705797  0.65903759  1
  S2-  S130  1  0.00099411  0.31112669  0.18105118  1
  S2-  S131  1  -0.03401077  0.26896383  0.63733309  1
  S2-  S132  1  -0.00253418  0.51880494  0.14736533  1
  S2-  S133  1  -0.00016653  0.69465816  0.64533548  1
  S2-  S134  1  -0.02244250  0.90328478  0.15161993  1
  S2-  S135  1  -0.01696114  0.85504414  0.72189067  1
  S2-  S136  1  0.25661131  0.17715477  0.15325812  1
  S2-  S137  1  0.19166375  0.20290230  0.65421341  1
  S2-  S138  1  0.24595571  0.42695936  0.15983488  1
  S2-  S139  1  0.30957852  0.39295537  0.65008645  1
  S2-  S140  1  0.36014481  0.64474313  0.14339558  1
  S2-  S141  1  0.24274014  0.60706149  0.66412982  1
  S2-  S142  1  0.24200946  0.86911164  0.15585146  1
  S2-  S143  1  0.17575379  0.84898256  0.64882897  1
  S2-  S144  1  0.47247029  0.09578711  0.15504274  1
  S2-  S145  1  0.48312424  0.24406536  0.64701544  1
  S2-  S146  1  0.49048291  0.36575935  0.14487648  1
  S2-  S147  1  0.51949237  0.47778723  0.64678682  1
  S2-  S148  1  0.55191516  0.58659172  0.16141815  1
  S2-  S149  1  0.45263439  0.66562048  0.66500760  1
  S2-  S150  1  0.50415585  0.83448326  0.14716286  1
  S2-  S151  1  0.49732475  0.89426929  0.65245022  1
  S2-  S152  1  0.68992279  0.19596973  0.16862125  1
  S2-  S153  1  0.82112643  0.10969017  0.64042796  1
  S2-  S154  1  0.78189111  0.38839434  0.15818513  1
  S2-  S155  1  0.71189874  0.34981064  0.65460211  1
  S2-  S156  1  0.76096245  0.71938044  0.14087991  1
  S2-  S157  1  0.73678527  0.58910959  0.64786066  1
  S2-  S158  1  0.73602898  0.97371203  0.15000668  1
  S2-  S159  1  0.82320964  0.85775622  0.65016866  1
  S2-  S160  1  0.12676922  0.00980992  0.35195799  1
  S2-  S161  1  0.11965410  0.01810923  0.84986071  1
  S2-  S162  1  0.01856255  0.21734792  0.35474150  1
  S2-  S163  1  0.15814258  0.25187634  0.85357098  1
  S2-  S164  1  0.15363620  0.34704649  0.34547158  1
  S2-  S165  1  0.21611595  0.50878729  0.85717559  1
  S2-  S166  1  0.13891788  0.65255774  0.34877338  1
  S2-  S167  1  0.14594907  0.75882727  0.84726803  1
  S2-  S168  1  0.35800630  -0.02103570  0.33610245  1
  S2-  S169  1  0.35800690  -0.00116201  0.84250700  1
  S2-  S170  1  0.37444674  0.22892755  0.35327037  1
  S2-  S171  1  0.39202994  0.24732078  0.84263533  1
  S2-  S172  1  0.28663274  0.49641642  0.34397316  1
  S2-  S173  1  0.40449186  0.46200959  0.80323890  1
  S2-  S174  1  0.36521846  0.73574963  0.34388845  1
  S2-  S175  1  0.38103932  0.66667539  0.84945370  1
  S2-  S176  1  0.59156781  0.01889516  0.35177472  1
  S2-  S177  1  0.71432596  0.00160816  0.85800336  1
  S2-  S178  1  0.61900858  0.27028876  0.33556671  1
  S2-  S179  1  0.63095651  0.24664892  0.83595861  1
  S2-  S180  1  0.50418296  0.50759737  0.35978464  1
  S2-  S181  1  0.60273281  0.45347988  0.81666765  1
  S2-  S182  1  0.61391785  0.73244489  0.35114336  1
  S2-  S183  1  0.62295008  0.66095851  0.85999895  1
  S2-  S184  1  0.86782900  0.08175620  0.35487216  1
  S2-  S185  1  0.92607375  0.01918457  0.80145160  1
  S2-  S186  1  0.84279546  0.31068493  0.31603854  1
  S2-  S187  1  0.87363125  0.17873775  0.86281812  1
  S2-  S188  1  0.97867158  0.48382462  0.34980135  1
  S2-  S189  1  0.79369127  0.50634809  0.85708498  1
  S2-  S190  1  0.92429606  0.70731005  0.33871299  1
  S2-  S191  1  0.88456934  0.84072564  0.85268590  1
  S2-  S192  1  0.00030939  0.11613215  0.46131278  1
  S2-  S193  1  0.00518267  0.12700382  0.96188838  1
  S2-  S194  1  0.00061017  0.36783247  0.45141297  1
  S2-  S195  1  0.00424904  0.37317979  0.96786309  1
  S2-  S196  1  0.00005588  0.61424520  0.45198869  1
  S2-  S197  1  0.00204634  0.62622269  0.95323332  1
  S2-  S198  1  -0.00088829  0.86946705  0.43876113  1
  S2-  S199  1  0.00329833  0.88041707  0.95244040  1
  S2-  S200  1  0.24211449  0.11865014  0.45908785  1
  S2-  S201  1  0.25394001  0.12961742  0.95496469  1
  S2-  S202  1  0.24701508  0.36959362  0.45645703  1
  S2-  S203  1  0.25472360  0.37430931  0.95521720  1
  S2-  S204  1  0.24713475  0.61557537  0.45573024  1
  S2-  S205  1  0.25195202  0.62812353  0.95883122  1
  S2-  S206  1  0.24497366  0.86893994  0.45230714  1
  S2-  S207  1  0.25283994  0.87663829  0.94953756  1
  S2-  S208  1  0.49415485  0.11807570  0.46218006  1
  S2-  S209  1  0.50201422  0.12602108  0.94903977  1
  S2-  S210  1  0.49754409  0.36463286  0.45872720  1
  S2-  S211  1  0.50021186  0.38142808  0.94053156  1
  S2-  S212  1  0.49922503  0.62094871  0.46373158  1
  S2-  S213  1  0.49769158  0.62312372  0.95589591  1
  S2-  S214  1  0.49510645  0.86801823  0.45062609  1
  S2-  S215  1  0.50243338  0.87559589  0.94606293  1
  S2-  S216  1  0.74372295  0.11794952  0.45004096  1
  S2-  S217  1  0.75339414  0.12473041  0.96346858  1
  S2-  S218  1  0.74722925  0.36661609  0.44501516  1
  S2-  S219  1  0.75387035  0.37459188  0.95318015  1
  S2-  S220  1  0.74879297  0.61418347  0.44613504  1
  S2-  S221  1  0.75676441  0.62906689  0.95755165  1
  S2-  S222  1  0.74623214  0.86936739  0.45110268  1
  S2-  S223  1  0.75290619  0.87285648  0.95993696  1
  S2-  S224  1  0.12433439  0.00165663  0.05352390  1
  S2-  S225  1  0.11769515  -0.01144668  0.55315554  1
  S2-  S226  1  0.12273762  0.25034326  0.05607698  1
  S2-  S227  1  0.12132482  0.24476906  0.54021853  1
  S2-  S228  1  0.12704272  0.49852043  0.04706508  1
  S2-  S229  1  0.12204152  0.48937870  0.55156447  1
  S2-  S230  1  0.12438866  0.75051806  0.05226763  1
  S2-  S231  1  0.12115025  0.74138320  0.54135365  1
  S2-  S232  1  0.37535614  0.00098922  0.04641421  1
  S2-  S233  1  0.36888211  -0.00839489  0.54647317  1
  S2-  S234  1  0.37806807  0.25098870  0.04521000  1
  S2-  S235  1  0.36454710  0.23940684  0.55136307  1
  S2-  S236  1  0.37353616  0.49883141  0.04399693  1
  S2-  S237  1  0.37067245  0.49240787  0.54387222  1
  S2-  S238  1  0.37360224  0.75516560  0.04076874  1
  S2-  S239  1  0.37058108  0.74189191  0.55082952  1
  S2-  S240  1  0.62447073  -0.00125129  0.04773113  1
  S2-  S241  1  0.62101001  -0.00660434  0.55216317  1
  S2-  S242  1  0.62576867  0.25110798  0.04474284  1
  S2-  S243  1  0.61967569  0.24056433  0.54304957  1
  S2-  S244  1  0.62715685  0.50129262  0.04249597  1
  S2-  S245  1  0.62371345  0.49105810  0.53868758  1
  S2-  S246  1  0.62265335  0.74872498  0.04657981  1
  S2-  S247  1  0.62102967  0.74055994  0.55481791  1
  S2-  S248  1  0.87866768  -0.00410616  0.04800318  1
  S2-  S249  1  0.87605897  -0.01209964  0.54392051  1
  S2-  S250  1  0.87516326  0.25366534  0.05409462  1
  S2-  S251  1  0.86707510  0.24372232  0.53023171  1
  S2-  S252  1  0.87277770  0.50060104  0.04732700  1
  S2-  S253  1  0.87354095  0.49097655  0.54182811  1
  S2-  S254  1  0.88245090  0.74867008  0.04276626  1
  S2-  S255  1  0.87262609  0.73924887  0.54040896  1
