# generated using pymatgen
data_La9Ce10Pr6Nd4Sm3(BiS2)32
_symmetry_space_group_name_H-M   'P 1'
_cell_length_a   16.13669589
_cell_length_b   16.13927834
_cell_length_c   27.05552266
_cell_angle_alpha   89.73003293
_cell_angle_beta   90.19561889
_cell_angle_gamma   90.06995486
_symmetry_Int_Tables_number   1
_chemical_formula_structural   La9Ce10Pr6Nd4Sm3(BiS2)32
_chemical_formula_sum   'La18 Ce20 Pr12 Nd8 Sm6 Bi64 S128'
_cell_volume   7046.07053854
_cell_formula_units_Z   2
loop_
 _symmetry_equiv_pos_site_id
 _symmetry_equiv_pos_as_xyz
  1  'x, y, z'
loop_
 _atom_type_symbol
 _atom_type_oxidation_number
  La3+  3.0
  Ce3+  3.0
  Pr3+  3.0
  Nd3+  3.0
  Sm3+  3.0
  Bi2+  2.0
  S2-  -2.0
loop_
 _atom_site_type_symbol
 _atom_site_label
 _atom_site_symmetry_multiplicity
 _atom_site_fract_x
 _atom_site_fract_y
 _atom_site_fract_z
 _atom_site_occupancy
  La3+  La0  1  0.11407891  -0.00540037  0.93186460  1
  La3+  La1  1  0.76078204  0.64015378  0.56916203  1
  La3+  La2  1  0.49142683  0.61977633  0.07586199  1
  La3+  La3  1  0.76113831  0.88801000  0.57365486  1
  La3+  La4  1  0.38615489  0.77005004  0.43083415  1
  La3+  La5  1  0.88326065  0.27283362  0.43488050  1
  La3+  La6  1  0.85961835  0.74875164  0.91670989  1
  La3+  La7  1  0.25765709  0.64400165  0.56135671  1
  La3+  La8  1  0.64285994  0.02440063  0.42138723  1
  La3+  La9  1  0.49862897  0.11536688  0.07086345  1
  La3+  La10  1  0.50520752  0.13563714  0.57214698  1
  La3+  La11  1  0.75186949  0.14049665  0.57607959  1
  La3+  La12  1  0.73588289  0.38030441  0.09268625  1
  La3+  La13  1  0.13034133  0.26662974  0.40585963  1
  La3+  La14  1  0.01013084  0.39441051  0.55550536  1
  La3+  La15  1  0.13764728  0.52629403  0.40796391  1
  La3+  La16  1  0.50987587  0.39574673  0.57776947  1
  La3+  La17  1  0.38489381  0.02936662  0.42475421  1
  Ce3+  Ce18  1  0.75394816  0.39469637  0.56715076  1
  Ce3+  Ce19  1  0.63563522  0.76656958  0.44211373  1
  Ce3+  Ce20  1  0.38903401  0.26886549  0.44123733  1
  Ce3+  Ce21  1  0.50645977  0.64117912  0.55613492  1
  Ce3+  Ce22  1  0.24140594  0.86974864  0.06060015  1
  Ce3+  Ce23  1  0.49489120  0.36655837  0.05884284  1
  Ce3+  Ce24  1  0.74771016  0.61971714  0.05983645  1
  Ce3+  Ce25  1  0.11448705  0.74632382  0.93871655  1
  Ce3+  Ce26  1  0.25788907  0.89674620  0.55503048  1
  Ce3+  Ce27  1  0.36417150  0.23724346  0.92855792  1
  Ce3+  Ce28  1  0.24169598  0.12096928  0.06412701  1
  Ce3+  Ce29  1  0.38389513  0.51373031  0.43439996  1
  Ce3+  Ce30  1  0.50890643  0.89768856  0.54997392  1
  Ce3+  Ce31  1  0.00679200  0.14119809  0.55934053  1
  Ce3+  Ce32  1  0.49551971  0.86955088  0.06904478  1
  Ce3+  Ce33  1  0.88249325  0.01740704  0.44534877  1
  Ce3+  Ce34  1  0.61764022  0.74608356  0.94511245  1
  Ce3+  Ce35  1  0.74369192  0.12336147  0.05771739  1
  Ce3+  Ce36  1  0.63068294  0.51317798  0.43768681  1
  Ce3+  Ce37  1  0.36897260  0.74616195  0.94372294  1
  Pr3+  Pr38  1  0.11361244  0.49993650  0.92826652  1
  Pr3+  Pr39  1  0.12888824  0.01914947  0.43206410  1
  Pr3+  Pr40  1  -0.00940486  0.12166728  0.07142071  1
  Pr3+  Pr41  1  0.23970785  0.61797214  0.06714596  1
  Pr3+  Pr42  1  0.24508560  0.36303279  0.06512938  1
  Pr3+  Pr43  1  0.25825175  0.39212760  0.55337860  1
  Pr3+  Pr44  1  0.13115507  0.77243894  0.43218529  1
  Pr3+  Pr45  1  -0.00846864  0.87109472  0.06628868  1
  Pr3+  Pr46  1  0.11428518  0.24666554  0.93713801  1
  Pr3+  Pr47  1  0.36165171  0.49428912  0.93450597  1
  Pr3+  Pr48  1  -0.00048948  0.37410683  0.07773674  1
  Pr3+  Pr49  1  0.88452116  0.77101162  0.43951706  1
  Nd3+  Nd50  1  0.63788118  0.27066136  0.43488811  1
  Nd3+  Nd51  1  0.86573488  -0.00381292  0.93640921  1
  Nd3+  Nd52  1  0.01007366  0.64471157  0.55604695  1
  Nd3+  Nd53  1  0.37028709  -0.00293988  0.94411292  1
  Nd3+  Nd54  1  0.02040836  0.90088517  0.58074465  1
  Nd3+  Nd55  1  0.74736088  0.86747362  0.06223772  1
  Nd3+  Nd56  1  0.87941831  0.52506597  0.43036817  1
  Nd3+  Nd57  1  0.25737180  0.14319785  0.55629094  1
  Sm3+  Sm58  1  0.61237812  0.24965103  0.93259031  1
  Sm3+  Sm59  1  0.87034949  0.24978914  0.94605920  1
  Sm3+  Sm60  1  0.61037651  0.49795020  0.93320791  1
  Sm3+  Sm61  1  -0.00382824  0.61634870  0.06745666  1
  Sm3+  Sm62  1  0.86854557  0.49296518  0.94433704  1
  Sm3+  Sm63  1  0.61948774  0.00088990  0.93937113  1
  Bi2+  Bi64  1  0.00400672  0.05512761  0.28415250  1
  Bi2+  Bi65  1  0.01747429  0.08468868  0.81334408  1
  Bi2+  Bi66  1  -0.04873388  0.37610921  0.28069210  1
  Bi2+  Bi67  1  0.04880447  0.35718973  0.79915438  1
  Bi2+  Bi68  1  -0.02682267  0.70225011  0.28791223  1
  Bi2+  Bi69  1  0.01021170  0.58278188  0.78500811  1
  Bi2+  Bi70  1  -0.00045049  0.89545211  0.35310073  1
  Bi2+  Bi71  1  0.03840769  0.88843610  0.76777078  1
  Bi2+  Bi72  1  0.25466595  0.15511427  0.27716775  1
  Bi2+  Bi73  1  0.21365301  0.07331003  0.81128005  1
  Bi2+  Bi74  1  0.23960719  0.35397095  0.29637098  1
  Bi2+  Bi75  1  0.22085977  0.27898756  0.76084955  1
  Bi2+  Bi76  1  0.24444247  0.65257382  0.27829228  1
  Bi2+  Bi77  1  0.26038876  0.60732179  0.80127797  1
  Bi2+  Bi78  1  0.14330559  0.90177487  0.27228067  1
  Bi2+  Bi79  1  0.25201505  0.87173377  0.79632119  1
  Bi2+  Bi80  1  0.49031918  0.09640746  0.29458521  1
  Bi2+  Bi81  1  0.51720304  0.13175590  0.80286823  1
  Bi2+  Bi82  1  0.45231738  0.36618114  0.30975610  1
  Bi2+  Bi83  1  0.53460549  0.40898624  0.79315998  1
  Bi2+  Bi84  1  0.44936706  0.56035067  0.30082880  1
  Bi2+  Bi85  1  0.52982239  0.63712928  0.77653640  1
  Bi2+  Bi86  1  0.48843930  0.84983292  0.29017591  1
  Bi2+  Bi87  1  0.48995511  0.90356583  0.77954823  1
  Bi2+  Bi88  1  0.74657016  0.13559774  0.29436989  1
  Bi2+  Bi89  1  0.81251815  0.12342250  0.79439011  1
  Bi2+  Bi90  1  0.72221746  0.38712526  0.28539276  1
  Bi2+  Bi91  1  0.81514337  0.32467211  0.79047548  1
  Bi2+  Bi92  1  0.64584069  0.59321833  0.30817213  1
  Bi2+  Bi93  1  0.73231918  0.59881748  0.79228535  1
  Bi2+  Bi94  1  0.79515145  0.79624273  0.26675648  1
  Bi2+  Bi95  1  0.74105819  0.86386332  0.79233675  1
  Bi2+  Bi96  1  0.13326474  0.05156802  0.18905863  1
  Bi2+  Bi97  1  0.17440695  0.01678132  0.69733861  1
  Bi2+  Bi98  1  0.13300333  0.26956505  0.20961938  1
  Bi2+  Bi99  1  0.04774480  0.21807347  0.71944550  1
  Bi2+  Bi100  1  0.09616351  0.52345184  0.21162806  1
  Bi2+  Bi101  1  0.13116355  0.51564693  0.68462951  1
  Bi2+  Bi102  1  0.05000292  0.78469890  0.19561402  1
  Bi2+  Bi103  1  0.14726944  0.73296517  0.74588501  1
  Bi2+  Bi104  1  0.30873985  -0.01605356  0.22285634  1
  Bi2+  Bi105  1  0.36365624  -0.05985375  0.69266349  1
  Bi2+  Bi106  1  0.38352744  0.28291960  0.21190660  1
  Bi2+  Bi107  1  0.39187700  0.20159236  0.72853079  1
  Bi2+  Bi108  1  0.33358428  0.47081658  0.21691252  1
  Bi2+  Bi109  1  0.37233895  0.48034319  0.69676354  1
  Bi2+  Bi110  1  0.37090205  0.73175489  0.20955374  1
  Bi2+  Bi111  1  0.42007760  0.75489393  0.70721577  1
  Bi2+  Bi112  1  0.62394358  0.00922200  0.20798507  1
  Bi2+  Bi113  1  0.62634231  0.01899311  0.70888944  1
  Bi2+  Bi114  1  0.63136718  0.26129564  0.20944947  1
  Bi2+  Bi115  1  0.66120146  0.26807594  0.72692264  1
  Bi2+  Bi116  1  0.57644064  0.53567975  0.20613962  1
  Bi2+  Bi117  1  0.64099272  0.52248800  0.70333211  1
  Bi2+  Bi118  1  0.63198009  0.72285308  0.21967938  1
  Bi2+  Bi119  1  0.61192774  0.78882558  0.71072034  1
  Bi2+  Bi120  1  0.87253328  -0.04641996  0.21855155  1
  Bi2+  Bi121  1  0.89873136  0.00513057  0.71586713  1
  Bi2+  Bi122  1  0.87191772  0.18195796  0.21244010  1
  Bi2+  Bi123  1  0.85382336  0.22125989  0.69283963  1
  Bi2+  Bi124  1  0.85651198  0.58746546  0.21443657  1
  Bi2+  Bi125  1  0.88305723  0.45594427  0.71878601  1
  Bi2+  Bi126  1  0.87123769  0.74595686  0.14940287  1
  Bi2+  Bi127  1  0.88308965  0.71981427  0.71092171  1
  S2-  S128  1  -0.01039611  0.23940505  0.15011578  1
  S2-  S129  1  0.02388429  0.05253013  0.64499560  1
  S2-  S130  1  -0.03724709  0.50461620  0.15015114  1
  S2-  S131  1  0.00835857  0.40482925  0.65775843  1
  S2-  S132  1  0.12119462  0.63919619  0.14538008  1
  S2-  S133  1  0.00666946  0.63662178  0.65718267  1
  S2-  S134  1  -0.01646619  0.99158714  0.14407784  1
  S2-  S135  1  -0.06356105  0.85361343  0.66744466  1
  S2-  S136  1  0.26006955  0.23017314  0.14021146  1
  S2-  S137  1  0.31492285  0.12750170  0.65185838  1
  S2-  S138  1  0.14335159  0.40631102  0.14568080  1
  S2-  S139  1  0.23423189  0.39940638  0.65499727  1
  S2-  S140  1  0.35521031  0.59861957  0.14663191  1
  S2-  S141  1  0.26931121  0.61536982  0.66172734  1
  S2-  S142  1  0.27408160  0.85458212  0.15871772  1
  S2-  S143  1  0.17059131  0.87785357  0.63987563  1
  S2-  S144  1  0.49874095  0.18813826  0.16470920  1
  S2-  S145  1  0.61572622  0.15987459  0.65212790  1
  S2-  S146  1  0.57758729  0.38624908  0.14717173  1
  S2-  S147  1  0.43794495  0.34093971  0.67043009  1
  S2-  S148  1  0.50597236  0.75540089  0.14845783  1
  S2-  S149  1  0.50033365  0.55276025  0.64190040  1
  S2-  S150  1  0.50205003  0.97967362  0.14641153  1
  S2-  S151  1  0.50494455  0.98274861  0.63617396  1
  S2-  S152  1  0.72363753  0.13334430  0.15638193  1
  S2-  S153  1  0.75702712  0.00549337  0.65041145  1
  S2-  S154  1  0.79413860  0.33609487  0.18985356  1
  S2-  S155  1  0.64665248  0.37447143  0.64790083  1
  S2-  S156  1  0.73326181  0.54088604  0.14876351  1
  S2-  S157  1  0.78785775  0.51805144  0.64357980  1
  S2-  S158  1  0.72462700  0.91510692  0.16016038  1
  S2-  S159  1  0.75525356  0.75326575  0.64974160  1
  S2-  S160  1  0.13892147  0.11850502  0.34704376  1
  S2-  S161  1  0.10631405  -0.13579591  0.86005808  1
  S2-  S162  1  -0.01525517  0.26947856  0.34700015  1
  S2-  S163  1  0.23216058  0.23831507  0.85836762  1
  S2-  S164  1  0.07992288  0.46122468  0.31327272  1
  S2-  S165  1  0.24410977  0.47686753  0.85500264  1
  S2-  S166  1  0.12445055  0.67593469  0.34651112  1
  S2-  S167  1  0.11944514  0.64273691  0.85863257  1
  S2-  S168  1  0.37773433  -0.03195055  0.32717153  1
  S2-  S169  1  0.37410366  0.07443144  0.85429263  1
  S2-  S170  1  0.38529202  0.17522379  0.35731101  1
  S2-  S171  1  0.48209325  0.27500067  0.85621490  1
  S2-  S172  1  0.28984379  0.53138701  0.35157877  1
  S2-  S173  1  0.47998523  0.52020224  0.85636655  1
  S2-  S174  1  0.35123565  0.75631876  0.33108322  1
  S2-  S175  1  0.34442297  0.74628248  0.84552186  1
  S2-  S176  1  0.59736217  -0.03822245  0.31904814  1
  S2-  S177  1  0.61754159  -0.05126066  0.84389309  1
  S2-  S178  1  0.60372115  0.16074968  0.35374922  1
  S2-  S179  1  0.66128404  0.16595121  0.84775572  1
  S2-  S180  1  0.60542055  0.39807680  0.36122881  1
  S2-  S181  1  0.67760019  0.46161031  0.84118096  1
  S2-  S182  1  0.58833519  0.74770947  0.34793485  1
  S2-  S183  1  0.69605511  0.73707952  0.85699326  1
  S2-  S184  1  0.79704468  0.02517146  0.35994277  1
  S2-  S185  1  0.86274323  -0.10284832  0.85286694  1
  S2-  S186  1  0.77100704  0.26933913  0.35420968  1
  S2-  S187  1  0.98270829  0.24146952  0.86585296  1
  S2-  S188  1  0.84845907  0.47274288  0.33503833  1
  S2-  S189  1  0.97042053  0.47465393  0.86302133  1
  S2-  S190  1  0.83976996  0.69488329  0.35102388  1
  S2-  S191  1  0.89263790  0.68067406  0.81934137  1
  S2-  S192  1  0.00780738  0.14489804  0.45344069  1
  S2-  S193  1  -0.01185175  0.11681065  0.96271526  1
  S2-  S194  1  0.01422413  0.40075506  0.44591620  1
  S2-  S195  1  -0.00952017  0.36958158  0.96775960  1
  S2-  S196  1  0.00855209  0.64239270  0.44906896  1
  S2-  S197  1  -0.01644660  0.62462475  0.95832919  1
  S2-  S198  1  0.00872296  0.89511870  0.46645851  1
  S2-  S199  1  -0.01378037  0.87196911  0.95915586  1
  S2-  S200  1  0.25229390  0.15016362  0.45173948  1
  S2-  S201  1  0.23941900  0.11508466  0.95985842  1
  S2-  S202  1  0.25350380  0.38744567  0.44569166  1
  S2-  S203  1  0.24235194  0.36616734  0.95910435  1
  S2-  S204  1  0.25935465  0.64720757  0.45261895  1
  S2-  S205  1  0.24606172  0.62497394  0.95984228  1
  S2-  S206  1  0.25779875  0.89639127  0.44433294  1
  S2-  S207  1  0.24606737  0.87274523  0.95477771  1
  S2-  S208  1  0.51022944  0.14549628  0.46162343  1
  S2-  S209  1  0.49883275  0.11944026  0.95849849  1
  S2-  S210  1  0.50409330  0.39388443  0.46371976  1
  S2-  S211  1  0.49296794  0.37362491  0.95601805  1
  S2-  S212  1  0.50655882  0.64004352  0.45025999  1
  S2-  S213  1  0.49380091  0.62425298  0.96204718  1
  S2-  S214  1  0.51134038  0.89710337  0.44424261  1
  S2-  S215  1  0.49596353  0.87392113  0.95577369  1
  S2-  S216  1  0.76274023  0.14506588  0.46416211  1
  S2-  S217  1  0.74590112  0.12373972  0.95285510  1
  S2-  S218  1  0.76032632  0.40026655  0.45902772  1
  S2-  S219  1  0.74367602  0.36847377  0.94694461  1
  S2-  S220  1  0.75439096  0.64104922  0.45864278  1
  S2-  S221  1  0.74285892  0.61395142  0.95281725  1
  S2-  S222  1  0.75810925  0.88926959  0.45805430  1
  S2-  S223  1  0.73950503  0.87359306  0.95678046  1
  S2-  S224  1  0.11936354  -0.00569931  0.04373993  1
  S2-  S225  1  0.13566648  0.02099667  0.53939496  1
  S2-  S226  1  0.11671735  0.24066120  0.04491811  1
  S2-  S227  1  0.13264478  0.26504164  0.55223298  1
  S2-  S228  1  0.11741072  0.49857061  0.03828397  1
  S2-  S229  1  0.13463415  0.52036974  0.54216303  1
  S2-  S230  1  0.11525416  0.74879293  0.04482556  1
  S2-  S231  1  0.13339511  0.76817919  0.54054280  1
  S2-  S232  1  0.36525890  -0.00481348  0.05037894  1
  S2-  S233  1  0.37916551  0.01788539  0.53482234  1
  S2-  S234  1  0.37453861  0.24034669  0.03934633  1
  S2-  S235  1  0.38347981  0.26662036  0.54815622  1
  S2-  S236  1  0.36911347  0.48908094  0.04507054  1
  S2-  S237  1  0.38043052  0.51819010  0.54089148  1
  S2-  S238  1  0.36655069  0.74723487  0.04820452  1
  S2-  S239  1  0.38420196  0.77140793  0.54427054  1
  S2-  S240  1  0.62473594  -0.00736827  0.04400775  1
  S2-  S241  1  0.63694981  0.01495293  0.53795480  1
  S2-  S242  1  0.62277183  0.24877015  0.04313296  1
  S2-  S243  1  0.63177508  0.26716495  0.54309579  1
  S2-  S244  1  0.61743542  0.49706389  0.04135770  1
  S2-  S245  1  0.63238513  0.51999536  0.54271474  1
  S2-  S246  1  0.62324598  0.74345955  0.05002693  1
  S2-  S247  1  0.62828278  0.76755910  0.54835508  1
  S2-  S248  1  0.86376499  -0.00346894  0.04399760  1
  S2-  S249  1  0.88430539  0.01611145  0.55024120  1
  S2-  S250  1  0.86002459  0.25367347  0.05031449  1
  S2-  S251  1  0.88186284  0.26878828  0.55000764  1
  S2-  S252  1  0.86458133  0.49183016  0.04687198  1
  S2-  S253  1  0.88845009  0.51930239  0.53862668  1
  S2-  S254  1  0.87008187  0.74281395  0.03746779  1
  S2-  S255  1  0.88929133  0.76848778  0.54728138  1
