# generated using pymatgen
data_La9Ce10Pr6Nd4Sm3(BiS2)32
_symmetry_space_group_name_H-M   'P 1'
_cell_length_a   16.24135071
_cell_length_b   16.20929300
_cell_length_c   27.12361790
_cell_angle_alpha   89.59971908
_cell_angle_beta   90.18259508
_cell_angle_gamma   90.01114994
_symmetry_Int_Tables_number   1
_chemical_formula_structural   La9Ce10Pr6Nd4Sm3(BiS2)32
_chemical_formula_sum   'La18 Ce20 Pr12 Nd8 Sm6 Bi64 S128'
_cell_volume   7140.37505749
_cell_formula_units_Z   2
loop_
 _symmetry_equiv_pos_site_id
 _symmetry_equiv_pos_as_xyz
  1  'x, y, z'
loop_
 _atom_type_symbol
 _atom_type_oxidation_number
  La3+  3.0
  Ce3+  3.0
  Pr3+  3.0
  Nd3+  3.0
  Sm3+  3.0
  Bi2+  2.0
  S2-  -2.0
loop_
 _atom_site_type_symbol
 _atom_site_label
 _atom_site_symmetry_multiplicity
 _atom_site_fract_x
 _atom_site_fract_y
 _atom_site_fract_z
 _atom_site_occupancy
  La3+  La0  1  0.62475116  0.00691761  0.41794323  1
  La3+  La1  1  0.00047267  0.64287314  0.05348253  1
  La3+  La2  1  0.25509105  0.39616380  0.07166389  1
  La3+  La3  1  0.36432603  0.28181760  0.92377637  1
  La3+  La4  1  0.25193369  0.63484435  0.58297069  1
  La3+  La5  1  0.51386773  0.12002128  0.56795612  1
  La3+  La6  1  0.62254045  0.52259299  0.92600965  1
  La3+  La7  1  0.74714288  0.90446799  0.07134685  1
  La3+  La8  1  0.51144173  0.62537398  0.57494718  1
  La3+  La9  1  0.00483501  0.61772019  0.57530997  1
  La3+  La10  1  -0.01497173  0.40231030  0.08318130  1
  La3+  La11  1  0.11609457  0.50390188  0.90764864  1
  La3+  La12  1  0.25866865  0.36550798  0.58927482  1
  La3+  La13  1  0.61245134  0.02357493  0.92969606  1
  La3+  La14  1  0.88718705  -0.01016328  0.40791854  1
  La3+  La15  1  0.86023690  0.02246828  0.92564487  1
  La3+  La16  1  0.51286679  0.37158418  0.58673380  1
  La3+  La17  1  0.11502186  0.02748042  0.92559605  1
  Ce3+  Ce18  1  0.88211837  0.75031259  0.44321317  1
  Ce3+  Ce19  1  0.75768775  0.87727294  0.55308668  1
  Ce3+  Ce20  1  0.73939490  0.14597689  0.06293317  1
  Ce3+  Ce21  1  0.00510122  0.12196958  0.55051993  1
  Ce3+  Ce22  1  0.61976872  0.77400174  0.94318041  1
  Ce3+  Ce23  1  0.38080218  0.25492305  0.45067889  1
  Ce3+  Ce24  1  0.36799368  0.76744423  0.92698342  1
  Ce3+  Ce25  1  0.38073405  0.00464491  0.43904260  1
  Ce3+  Ce26  1  0.87313576  0.52821896  0.92541727  1
  Ce3+  Ce27  1  0.37945447  0.49801822  0.45858896  1
  Ce3+  Ce28  1  -0.00048296  0.89796364  0.05465513  1
  Ce3+  Ce29  1  0.24514066  0.14376600  0.05305636  1
  Ce3+  Ce30  1  0.25320004  0.12405392  0.56116095  1
  Ce3+  Ce31  1  0.88181794  0.25236047  0.43810823  1
  Ce3+  Ce32  1  0.75598417  0.62488485  0.55521914  1
  Ce3+  Ce33  1  0.51172879  0.87756598  0.56121819  1
  Ce3+  Ce34  1  0.37027980  0.02300913  0.93587791  1
  Ce3+  Ce35  1  0.11703249  0.77499059  0.92597715  1
  Ce3+  Ce36  1  0.49611377  0.14666144  0.05576931  1
  Ce3+  Ce37  1  0.62085617  0.27445062  0.94030015  1
  Pr3+  Pr38  1  0.00455590  0.87605620  0.56287219  1
  Pr3+  Pr39  1  0.25480127  0.87527511  0.55398275  1
  Pr3+  Pr40  1  0.63217589  0.75531803  0.43624466  1
  Pr3+  Pr41  1  0.74638688  0.64488593  0.05778176  1
  Pr3+  Pr42  1  0.38218419  0.74755359  0.44650407  1
  Pr3+  Pr43  1  0.62760459  0.25412396  0.43426194  1
  Pr3+  Pr44  1  0.13088052  0.74593205  0.43699285  1
  Pr3+  Pr45  1  0.86855851  0.77562560  0.93759530  1
  Pr3+  Pr46  1  0.13316869  0.49983051  0.44395602  1
  Pr3+  Pr47  1  0.00684646  0.37240520  0.56882420  1
  Pr3+  Pr48  1  0.87696408  0.26817167  0.94054478  1
  Pr3+  Pr49  1  -0.00335050  0.13326575  0.07891980  1
  Nd3+  Nd50  1  0.13063925  0.00814661  0.42897422  1
  Nd3+  Nd51  1  0.36866910  0.52661861  0.92820597  1
  Nd3+  Nd52  1  0.49397399  0.89435383  0.06063098  1
  Nd3+  Nd53  1  0.75994693  0.12114127  0.55093919  1
  Nd3+  Nd54  1  0.13060347  0.25701946  0.43376507  1
  Nd3+  Nd55  1  0.75407357  0.37221864  0.56360213  1
  Nd3+  Nd56  1  0.62770407  0.49760814  0.43873549  1
  Nd3+  Nd57  1  0.24550598  0.64309676  0.04783476  1
  Sm3+  Sm58  1  0.74579663  0.39661854  0.05130436  1
  Sm3+  Sm59  1  0.11851290  0.27612340  0.95739562  1
  Sm3+  Sm60  1  0.49696135  0.64556228  0.05106804  1
  Sm3+  Sm61  1  0.88092302  0.50032716  0.44455779  1
  Sm3+  Sm62  1  0.24718269  0.89357128  0.04736805  1
  Sm3+  Sm63  1  0.49734086  0.39937093  0.05556693  1
  Bi2+  Bi64  1  -0.00583334  0.12130698  0.29065857  1
  Bi2+  Bi65  1  0.04505572  0.08498518  0.79279080  1
  Bi2+  Bi66  1  -0.00962437  0.37468452  0.29382853  1
  Bi2+  Bi67  1  -0.03762840  0.35071708  0.79543036  1
  Bi2+  Bi68  1  0.04663594  0.62891636  0.28903305  1
  Bi2+  Bi69  1  -0.11513229  0.61154881  0.76267039  1
  Bi2+  Bi70  1  0.10437888  0.83099576  0.30891982  1
  Bi2+  Bi71  1  -0.03207615  0.81030151  0.80148189  1
  Bi2+  Bi72  1  0.24643466  0.07539020  0.29454165  1
  Bi2+  Bi73  1  0.23879910  0.08205153  0.79818045  1
  Bi2+  Bi74  1  0.25457132  0.40697242  0.29719160  1
  Bi2+  Bi75  1  0.22587828  0.36323306  0.78970865  1
  Bi2+  Bi76  1  0.25461198  0.61609980  0.25371093  1
  Bi2+  Bi77  1  0.26273180  0.68091764  0.78922502  1
  Bi2+  Bi78  1  0.28856440  0.88154867  0.29753914  1
  Bi2+  Bi79  1  0.27320665  0.88662212  0.79765150  1
  Bi2+  Bi80  1  0.48039234  0.10858924  0.28131179  1
  Bi2+  Bi81  1  0.48887651  0.05054113  0.75870071  1
  Bi2+  Bi82  1  0.45058607  0.38578483  0.31453885  1
  Bi2+  Bi83  1  0.49262508  0.34001839  0.80082054  1
  Bi2+  Bi84  1  0.57103804  0.56780383  0.27962976  1
  Bi2+  Bi85  1  0.52877812  0.69041588  0.77850136  1
  Bi2+  Bi86  1  0.52247486  0.84911040  0.30236464  1
  Bi2+  Bi87  1  0.46724759  0.86449303  0.81387732  1
  Bi2+  Bi88  1  0.72871947  0.14835275  0.27501361  1
  Bi2+  Bi89  1  0.81960279  0.11573616  0.78123323  1
  Bi2+  Bi90  1  0.71537547  0.40024537  0.27797102  1
  Bi2+  Bi91  1  0.76572961  0.30773016  0.80893683  1
  Bi2+  Bi92  1  0.77912638  0.58143768  0.30655637  1
  Bi2+  Bi93  1  0.73912509  0.50248193  0.81120785  1
  Bi2+  Bi94  1  0.75409005  0.77353832  0.29642479  1
  Bi2+  Bi95  1  0.71215181  0.88422970  0.79903991  1
  Bi2+  Bi96  1  0.15607543  -0.00236829  0.19643118  1
  Bi2+  Bi97  1  0.14571279  0.07287253  0.68854093  1
  Bi2+  Bi98  1  0.12279820  0.24423306  0.20543033  1
  Bi2+  Bi99  1  0.04887479  0.24037996  0.71790157  1
  Bi2+  Bi100  1  0.11827598  0.50727803  0.19527014  1
  Bi2+  Bi101  1  0.11451474  0.54683810  0.71392351  1
  Bi2+  Bi102  1  0.13903620  0.75936804  0.20150588  1
  Bi2+  Bi103  1  0.12923851  0.81550912  0.71196511  1
  Bi2+  Bi104  1  0.36748184  -0.00367701  0.21628747  1
  Bi2+  Bi105  1  0.32808709  0.00317242  0.69847229  1
  Bi2+  Bi106  1  0.34527633  0.24801104  0.25575315  1
  Bi2+  Bi107  1  0.37847576  0.21763282  0.71644402  1
  Bi2+  Bi108  1  0.42416772  0.50008485  0.20528819  1
  Bi2+  Bi109  1  0.36769106  0.48772083  0.72151841  1
  Bi2+  Bi110  1  0.41071112  0.73031876  0.23939762  1
  Bi2+  Bi111  1  0.39013923  0.80361918  0.70913973  1
  Bi2+  Bi112  1  0.63487178  -0.01308768  0.19376501  1
  Bi2+  Bi113  1  0.63669667  -0.03002300  0.70448597  1
  Bi2+  Bi114  1  0.59546843  0.26041879  0.21080743  1
  Bi2+  Bi115  1  0.65116324  0.22717317  0.71012862  1
  Bi2+  Bi116  1  0.60671681  0.44747226  0.17963599  1
  Bi2+  Bi117  1  0.64065847  0.50377056  0.71346451  1
  Bi2+  Bi118  1  0.60560157  0.69745324  0.19920267  1
  Bi2+  Bi119  1  0.57094751  0.76901451  0.67668687  1
  Bi2+  Bi120  1  0.86911878  -0.03805107  0.21057645  1
  Bi2+  Bi121  1  0.88127912  -0.01385677  0.70322857  1
  Bi2+  Bi122  1  0.79165462  0.27273934  0.20152149  1
  Bi2+  Bi123  1  0.85765974  0.25237377  0.69541658  1
  Bi2+  Bi124  1  0.85709208  0.53344552  0.20831051  1
  Bi2+  Bi125  1  0.86179103  0.44466542  0.70580673  1
  Bi2+  Bi126  1  0.94202342  0.77612223  0.24793195  1
  Bi2+  Bi127  1  0.75334446  0.73845083  0.72142879  1
  S2-  S128  1  -0.01129337  0.16350330  0.18369148  1
  S2-  S129  1  -0.03444089  0.09622954  0.64444683  1
  S2-  S130  1  0.01726256  0.36670514  0.18703119  1
  S2-  S131  1  0.00005319  0.48033383  0.64918329  1
  S2-  S132  1  -0.02619950  0.56516590  0.14280883  1
  S2-  S133  1  0.05436008  0.68138005  0.66561111  1
  S2-  S134  1  0.00187150  0.97387540  0.14227710  1
  S2-  S135  1  0.00555576  0.88704661  0.66533025  1
  S2-  S136  1  0.22778321  0.13317005  0.15092496  1
  S2-  S137  1  0.24738306  0.20507643  0.64883671  1
  S2-  S138  1  0.21033371  0.38285798  0.17096199  1
  S2-  S139  1  0.20222565  0.41385284  0.68666882  1
  S2-  S140  1  0.22150401  0.63471901  0.14787758  1
  S2-  S141  1  0.27450617  0.60373596  0.68414412  1
  S2-  S142  1  0.24191671  0.87805733  0.14625117  1
  S2-  S143  1  0.24559863  0.79602696  0.64392802  1
  S2-  S144  1  0.57308586  0.12892238  0.14318108  1
  S2-  S145  1  0.51749886  0.21466558  0.65512752  1
  S2-  S146  1  0.40349391  0.38637769  0.13687242  1
  S2-  S147  1  0.39165477  0.36445255  0.66102092  1
  S2-  S148  1  0.46094905  0.65238044  0.14735193  1
  S2-  S149  1  0.50567295  0.53303627  0.66338272  1
  S2-  S150  1  0.52398646  0.88999780  0.15982640  1
  S2-  S151  1  0.51302986  0.98600756  0.63698533  1
  S2-  S152  1  0.77475010  0.05167114  0.14282633  1
  S2-  S153  1  0.70958497  0.10766824  0.64790809  1
  S2-  S154  1  0.82549583  0.40447044  0.13861122  1
  S2-  S155  1  0.65979025  0.37182960  0.64899527  1
  S2-  S156  1  0.74479233  0.63493260  0.15926859  1
  S2-  S157  1  0.74914018  0.60612742  0.65281902  1
  S2-  S158  1  0.75568475  0.86253084  0.17280033  1
  S2-  S159  1  0.78560533  0.87466946  0.65164092  1
  S2-  S160  1  0.03428322  -0.01456107  0.34622493  1
  S2-  S161  1  0.07413810  -0.06691025  0.84175145  1
  S2-  S162  1  0.13154527  0.16552073  0.34570019  1
  S2-  S163  1  0.12890264  0.32473375  0.86212529  1
  S2-  S164  1  0.12749291  0.38702063  0.36057415  1
  S2-  S165  1  0.18329056  0.52442137  0.81243747  1
  S2-  S166  1  0.14529816  0.62170439  0.36751979  1
  S2-  S167  1  0.10320271  0.72125501  0.83185934  1
  S2-  S168  1  0.47137854  -0.00763631  0.35537707  1
  S2-  S169  1  0.47914568  0.02642407  0.85789217  1
  S2-  S170  1  0.39714327  0.22381557  0.35372238  1
  S2-  S171  1  0.36685675  0.22261934  0.82473352  1
  S2-  S172  1  0.36041093  0.50685466  0.36024575  1
  S2-  S173  1  0.35922482  0.41760284  0.85051186  1
  S2-  S174  1  0.38050101  0.75626650  0.34501552  1
  S2-  S175  1  0.38109618  0.65045867  0.85105342  1
  S2-  S176  1  0.66293066  -0.09551499  0.33489896  1
  S2-  S177  1  0.71625649  0.03191976  0.84930439  1
  S2-  S178  1  0.62605268  0.14936364  0.35091322  1
  S2-  S179  1  0.60511045  0.24572444  0.84299131  1
  S2-  S180  1  0.61278550  0.38167454  0.36354024  1
  S2-  S181  1  0.56569110  0.48845064  0.83170343  1
  S2-  S182  1  0.59684428  0.70211889  0.34274322  1
  S2-  S183  1  0.64273227  0.73971538  0.84674084  1
  S2-  S184  1  0.84564311  0.03575217  0.30923020  1
  S2-  S185  1  0.85955497  -0.10888852  0.85454108  1
  S2-  S186  1  0.91033084  0.25364470  0.33943941  1
  S2-  S187  1  0.91700710  0.15218377  0.86326740  1
  S2-  S188  1  0.91553676  0.48485971  0.34793189  1
  S2-  S189  1  0.97259167  0.49070227  0.84880019  1
  S2-  S190  1  0.88278894  0.82254845  0.35371972  1
  S2-  S191  1  0.87570600  0.68076984  0.85204612  1
  S2-  S192  1  0.00467502  0.12737787  0.44659250  1
  S2-  S193  1  0.00476218  0.14878660  0.96817876  1
  S2-  S194  1  0.00233950  0.37744938  0.46196430  1
  S2-  S195  1  -0.00519168  0.39452840  0.96367621  1
  S2-  S196  1  0.00112262  0.62249863  0.46221989  1
  S2-  S197  1  0.00277721  0.64373163  0.94809305  1
  S2-  S198  1  0.00995731  0.87335835  0.45535111  1
  S2-  S199  1  -0.00474029  0.89813562  0.95233492  1
  S2-  S200  1  0.25405634  0.12829536  0.45387831  1
  S2-  S201  1  0.24285332  0.15020540  0.94609389  1
  S2-  S202  1  0.25644758  0.37405289  0.46638470  1
  S2-  S203  1  0.24263714  0.40136433  0.96004444  1
  S2-  S204  1  0.25896467  0.62710818  0.47118381  1
  S2-  S205  1  0.23559024  0.64179311  0.94310696  1
  S2-  S206  1  0.25403545  0.87643714  0.44705249  1
  S2-  S207  1  0.24587666  0.89866513  0.94179275  1
  S2-  S208  1  0.50307489  0.12813034  0.45866684  1
  S2-  S209  1  0.49091119  0.15520820  0.95188680  1
  S2-  S210  1  0.50317493  0.37636954  0.47098186  1
  S2-  S211  1  0.49629712  0.39979553  0.95170708  1
  S2-  S212  1  0.50794460  0.62338290  0.46126607  1
  S2-  S213  1  0.49881722  0.64699819  0.94814986  1
  S2-  S214  1  0.50462576  0.87341388  0.45505177  1
  S2-  S215  1  0.48961253  0.89070717  0.95439911  1
  S2-  S216  1  0.76412748  0.12361549  0.44442457  1
  S2-  S217  1  0.74209440  0.15164615  0.95573301  1
  S2-  S218  1  0.75941158  0.37760331  0.45565652  1
  S2-  S219  1  0.74970173  0.39579256  0.94704883  1
  S2-  S220  1  0.75541357  0.62313075  0.44825266  1
  S2-  S221  1  0.74348147  0.64771043  0.95171930  1
  S2-  S222  1  0.75820300  0.87658141  0.44886349  1
  S2-  S223  1  0.73973022  0.89586663  0.96018651  1
  S2-  S224  1  0.12693132  0.01723440  0.03808518  1
  S2-  S225  1  0.13029339  -0.00103987  0.54098157  1
  S2-  S226  1  0.11743369  0.26898373  0.06101066  1
  S2-  S227  1  0.12665350  0.24886009  0.54553184  1
  S2-  S228  1  0.12365027  0.51588029  0.05078773  1
  S2-  S229  1  0.13620831  0.49702449  0.55419579  1
  S2-  S230  1  0.12415194  0.77224745  0.03792649  1
  S2-  S231  1  0.12600717  0.75060116  0.54422105  1
  S2-  S232  1  0.37055481  0.01881858  0.04493380  1
  S2-  S233  1  0.37698533  -0.00072574  0.54401680  1
  S2-  S234  1  0.37114635  0.26717459  0.03806448  1
  S2-  S235  1  0.38189780  0.24352371  0.55328609  1
  S2-  S236  1  0.37504766  0.52579175  0.03739540  1
  S2-  S237  1  0.37798834  0.50402797  0.56274685  1
  S2-  S238  1  0.37052389  0.76842326  0.03850549  1
  S2-  S239  1  0.38737450  0.75187135  0.55341031  1
  S2-  S240  1  0.61530563  0.01901274  0.03923294  1
  S2-  S241  1  0.63679825  -0.00168215  0.53265045  1
  S2-  S242  1  0.61938704  0.27706875  0.04794859  1
  S2-  S243  1  0.63750101  0.24685672  0.54163161  1
  S2-  S244  1  0.62116038  0.52087159  0.03901870  1
  S2-  S245  1  0.63361479  0.50079466  0.54550090  1
  S2-  S246  1  0.61982351  0.77112481  0.05100797  1
  S2-  S247  1  0.63434112  0.75044754  0.54418799  1
  S2-  S248  1  0.87309611  0.02117682  0.03766869  1
  S2-  S249  1  0.88220233  -0.00222117  0.53652256  1
  S2-  S250  1  0.86947172  0.26472951  0.04942388  1
  S2-  S251  1  0.88066472  0.25102385  0.54709129  1
  S2-  S252  1  0.86617980  0.52204904  0.03469437  1
  S2-  S253  1  0.87625232  0.49612469  0.54877734  1
  S2-  S254  1  0.87273391  0.77177385  0.05036791  1
  S2-  S255  1  0.88213666  0.74827718  0.55121038  1
