# generated using pymatgen
data_La9Ce10Pr6Nd4Sm3(BiS2)32
_symmetry_space_group_name_H-M   'P 1'
_cell_length_a   16.13791610
_cell_length_b   16.19646232
_cell_length_c   27.14597785
_cell_angle_alpha   90.26151610
_cell_angle_beta   90.02566126
_cell_angle_gamma   90.08979117
_symmetry_Int_Tables_number   1
_chemical_formula_structural   La9Ce10Pr6Nd4Sm3(BiS2)32
_chemical_formula_sum   'La18 Ce20 Pr12 Nd8 Sm6 Bi64 S128'
_cell_volume   7095.25496747
_cell_formula_units_Z   2
loop_
 _symmetry_equiv_pos_site_id
 _symmetry_equiv_pos_as_xyz
  1  'x, y, z'
loop_
 _atom_type_symbol
 _atom_type_oxidation_number
  La3+  3.0
  Ce3+  3.0
  Pr3+  3.0
  Nd3+  3.0
  Sm3+  3.0
  Bi2+  2.0
  S2-  -2.0
loop_
 _atom_site_type_symbol
 _atom_site_label
 _atom_site_symmetry_multiplicity
 _atom_site_fract_x
 _atom_site_fract_y
 _atom_site_fract_z
 _atom_site_occupancy
  La3+  La0  1  0.76127930  0.11969514  0.57819226  1
  La3+  La1  1  0.49875108  0.12474369  0.57374817  1
  La3+  La2  1  0.75789343  0.36584818  0.09143444  1
  La3+  La3  1  0.00011931  0.86939142  0.56555476  1
  La3+  La4  1  0.26389889  0.86694871  0.08292871  1
  La3+  La5  1  0.37799987  0.73931661  0.93542269  1
  La3+  La6  1  0.36910995  0.23637701  0.92115666  1
  La3+  La7  1  0.63370171  0.24307148  0.92779806  1
  La3+  La8  1  0.71671380  0.85497932  0.61700440  1
  La3+  La9  1  0.00212022  0.11282022  0.07082203  1
  La3+  La10  1  0.62897152  0.24657048  0.43478381  1
  La3+  La11  1  0.89280885  0.00094904  0.89586285  1
  La3+  La12  1  0.88219812  0.72943581  0.91983766  1
  La3+  La13  1  0.76016184  0.36883352  0.56598521  1
  La3+  La14  1  0.12875801  0.24426018  0.42190886  1
  La3+  La15  1  -0.00650018  0.62716561  0.08336896  1
  La3+  La16  1  0.63000696  0.74527363  0.42782450  1
  La3+  La17  1  0.38403134  -0.00077584  0.42599266  1
  Ce3+  Ce18  1  0.25071114  0.87003988  0.56466651  1
  Ce3+  Ce19  1  0.50357290  0.13124964  0.05835285  1
  Ce3+  Ce20  1  0.25446623  0.62177553  0.07201850  1
  Ce3+  Ce21  1  0.87771556  -0.00163685  0.44402746  1
  Ce3+  Ce22  1  0.88327195  0.24186972  0.94465484  1
  Ce3+  Ce23  1  0.13189337  0.74109383  0.94182960  1
  Ce3+  Ce24  1  0.13118574  -0.00673260  0.44399201  1
  Ce3+  Ce25  1  0.88146614  0.49272677  0.95281953  1
  Ce3+  Ce26  1  -0.00163888  0.86374089  0.05677822  1
  Ce3+  Ce27  1  0.50349061  0.37358091  0.56285716  1
  Ce3+  Ce28  1  0.12891300  0.24084742  0.94724775  1
  Ce3+  Ce29  1  0.62907542  -0.00218632  0.45012325  1
  Ce3+  Ce30  1  0.25753258  0.11512888  0.06694034  1
  Ce3+  Ce31  1  0.25623466  0.12470710  0.55794901  1
  Ce3+  Ce32  1  0.49664291  0.87162034  0.55421839  1
  Ce3+  Ce33  1  0.37703493  0.74780576  0.42713392  1
  Ce3+  Ce34  1  0.37937682  -0.00584329  0.94240749  1
  Ce3+  Ce35  1  0.63013918  0.49658373  0.44876081  1
  Ce3+  Ce36  1  0.50685278  0.61705990  0.06190803  1
  Ce3+  Ce37  1  0.13035474  0.74583963  0.43742264  1
  Pr3+  Pr38  1  0.37466169  0.48763271  0.94252209  1
  Pr3+  Pr39  1  0.25417974  0.36215019  0.07770939  1
  Pr3+  Pr40  1  0.87632315  0.74614285  0.42830990  1
  Pr3+  Pr41  1  0.75061258  0.12071970  0.05772488  1
  Pr3+  Pr42  1  0.00720622  0.36258413  0.08610422  1
  Pr3+  Pr43  1  0.13944696  0.49499717  0.42463754  1
  Pr3+  Pr44  1  0.62716318  0.73881629  0.92843178  1
  Pr3+  Pr45  1  0.00564154  0.61856069  0.55686653  1
  Pr3+  Pr46  1  0.51865297  0.63320125  0.57114544  1
  Pr3+  Pr47  1  0.76497680  0.62547353  0.56128036  1
  Pr3+  Pr48  1  0.87393841  0.23603968  0.42147509  1
  Pr3+  Pr49  1  0.51293630  0.87137175  0.06652457  1
  Nd3+  Nd50  1  0.12676641  0.49366350  0.95646517  1
  Nd3+  Nd51  1  0.74647355  0.62244115  0.06657025  1
  Nd3+  Nd52  1  0.12732253  -0.01291075  0.94389421  1
  Nd3+  Nd53  1  0.63013852  -0.00613876  0.93237813  1
  Nd3+  Nd54  1  0.50356290  0.36734152  0.05272992  1
  Nd3+  Nd55  1  0.25169701  0.62044758  0.56558360  1
  Nd3+  Nd56  1  0.00792582  0.37133952  0.54808475  1
  Nd3+  Nd57  1  0.38295559  0.24462078  0.42910648  1
  Sm3+  Sm58  1  0.74956043  0.86902799  0.04909755  1
  Sm3+  Sm59  1  0.63244631  0.49007510  0.94288655  1
  Sm3+  Sm60  1  0.25561126  0.37299733  0.55423920  1
  Sm3+  Sm61  1  0.87934854  0.49260996  0.42941317  1
  Sm3+  Sm62  1  0.38146712  0.50069716  0.44845737  1
  Sm3+  Sm63  1  0.00558750  0.12646322  0.55608064  1
  Bi2+  Bi64  1  -0.00395630  0.09271130  0.29581560  1
  Bi2+  Bi65  1  0.01512455  0.21528726  0.78911531  1
  Bi2+  Bi66  1  0.04082456  0.38626196  0.30297763  1
  Bi2+  Bi67  1  0.02208611  0.40664950  0.79575879  1
  Bi2+  Bi68  1  -0.08766401  0.68183185  0.30309481  1
  Bi2+  Bi69  1  -0.00370347  0.60497413  0.78680595  1
  Bi2+  Bi70  1  -0.04562636  0.87131108  0.28314699  1
  Bi2+  Bi71  1  0.04197597  0.86409301  0.79912229  1
  Bi2+  Bi72  1  0.21308933  0.11223401  0.28695052  1
  Bi2+  Bi73  1  0.23800805  0.09452591  0.79228560  1
  Bi2+  Bi74  1  0.32154022  0.37789580  0.27467740  1
  Bi2+  Bi75  1  0.26444015  0.36510281  0.80216504  1
  Bi2+  Bi76  1  0.31745366  0.63617210  0.29490940  1
  Bi2+  Bi77  1  0.24953829  0.59542643  0.79944840  1
  Bi2+  Bi78  1  0.23089049  0.86677782  0.28584700  1
  Bi2+  Bi79  1  0.24406612  0.86317592  0.79234532  1
  Bi2+  Bi80  1  0.61404970  0.13966411  0.30663894  1
  Bi2+  Bi81  1  0.47926563  0.16307488  0.78906810  1
  Bi2+  Bi82  1  0.51602524  0.38396555  0.28637854  1
  Bi2+  Bi83  1  0.53516374  0.53539287  0.79075052  1
  Bi2+  Bi84  1  0.52401896  0.59903978  0.28324952  1
  Bi2+  Bi85  1  0.49392704  0.71830032  0.81988769  1
  Bi2+  Bi86  1  0.49807786  0.87058608  0.29592593  1
  Bi2+  Bi87  1  0.43741234  0.89220591  0.78724402  1
  Bi2+  Bi88  1  0.79083830  0.08992162  0.25771774  1
  Bi2+  Bi89  1  0.74445134  0.13608299  0.79007221  1
  Bi2+  Bi90  1  0.71563292  0.37538170  0.28436713  1
  Bi2+  Bi91  1  0.79919328  0.39550160  0.78865021  1
  Bi2+  Bi92  1  0.72241555  0.61631400  0.27631288  1
  Bi2+  Bi93  1  0.77558852  0.59425335  0.78101306  1
  Bi2+  Bi94  1  0.75755907  0.89814378  0.27903692  1
  Bi2+  Bi95  1  0.72431348  0.87237796  0.81600938  1
  Bi2+  Bi96  1  0.14066338  -0.04011683  0.20337428  1
  Bi2+  Bi97  1  0.13131983  -0.00031330  0.71004766  1
  Bi2+  Bi98  1  0.14239058  0.24578699  0.21392857  1
  Bi2+  Bi99  1  0.14623544  0.19493540  0.70489259  1
  Bi2+  Bi100  1  0.16622056  0.51402158  0.23092195  1
  Bi2+  Bi101  1  0.11441814  0.46763815  0.70198651  1
  Bi2+  Bi102  1  0.08934689  0.73967253  0.21678656  1
  Bi2+  Bi103  1  0.14565616  0.72933974  0.70741154  1
  Bi2+  Bi104  1  0.39147353  0.04773694  0.26116067  1
  Bi2+  Bi105  1  0.34331637  0.00727604  0.70655431  1
  Bi2+  Bi106  1  0.39559317  0.22380240  0.21957998  1
  Bi2+  Bi107  1  0.32569608  0.28081353  0.70326330  1
  Bi2+  Bi108  1  0.33629465  0.49694047  0.17519544  1
  Bi2+  Bi109  1  0.32342860  0.62711400  0.69825656  1
  Bi2+  Bi110  1  0.37676153  0.69999030  0.19601488  1
  Bi2+  Bi111  1  0.33833189  0.81607815  0.68525004  1
  Bi2+  Bi112  1  0.60460149  -0.01613951  0.22386667  1
  Bi2+  Bi113  1  0.60448577  -0.01514589  0.71858358  1
  Bi2+  Bi114  1  0.60962860  0.22546481  0.19631019  1
  Bi2+  Bi115  1  0.60440451  0.27506902  0.70879923  1
  Bi2+  Bi116  1  0.52932399  0.49632858  0.18440520  1
  Bi2+  Bi117  1  0.67138530  0.46702868  0.71003437  1
  Bi2+  Bi118  1  0.56301067  0.77294737  0.19396864  1
  Bi2+  Bi119  1  0.56535092  0.71994780  0.71206780  1
  Bi2+  Bi120  1  0.95711704  0.01226451  0.19347432  1
  Bi2+  Bi121  1  0.90733370  0.00565898  0.69947781  1
  Bi2+  Bi122  1  0.87583190  0.25687509  0.21805702  1
  Bi2+  Bi123  1  0.87086381  0.25808305  0.71487189  1
  Bi2+  Bi124  1  0.88866186  0.52608320  0.23213680  1
  Bi2+  Bi125  1  0.86441694  0.47217773  0.68568634  1
  Bi2+  Bi126  1  0.83372519  0.76972220  0.20568982  1
  Bi2+  Bi127  1  0.94674105  0.73689523  0.71190591  1
  S2-  S128  1  0.00402983  0.21295665  0.15508593  1
  S2-  S129  1  -0.07501484  0.13685711  0.64361517  1
  S2-  S130  1  -0.10742662  0.39284408  0.16438408  1
  S2-  S131  1  0.00207084  0.37487729  0.64835089  1
  S2-  S132  1  0.04291935  0.58146677  0.18055471  1
  S2-  S133  1  -0.10901061  0.62209202  0.63778931  1
  S2-  S134  1  -0.00688067  0.78349916  0.14459586  1
  S2-  S135  1  -0.10978075  0.85356670  0.64728046  1
  S2-  S136  1  0.26953607  0.22479316  0.14556074  1
  S2-  S137  1  0.35292719  0.13860310  0.63986367  1
  S2-  S138  1  0.13511184  0.37928647  0.15939130  1
  S2-  S139  1  0.24964636  0.40569908  0.65241702  1
  S2-  S140  1  0.22436655  0.73132127  0.14948797  1
  S2-  S141  1  0.12250993  0.60421956  0.63622542  1
  S2-  S142  1  0.26382369  1.00764405  0.14574951  1
  S2-  S143  1  0.13137174  0.86733455  0.64070457  1
  S2-  S144  1  0.55122159  0.07960991  0.14895562  1
  S2-  S145  1  0.56165019  0.12779266  0.67198829  1
  S2-  S146  1  0.48797036  0.26857313  0.13390153  1
  S2-  S147  1  0.47560566  0.34127676  0.65914838  1
  S2-  S148  1  0.61681903  0.63404658  0.13813240  1
  S2-  S149  1  0.47956294  0.58704413  0.66757756  1
  S2-  S150  1  0.41600293  0.85213859  0.15079614  1
  S2-  S151  1  0.54221879  0.87269823  0.64962918  1
  S2-  S152  1  0.75927594  0.20893496  0.14601753  1
  S2-  S153  1  0.74556612  0.01542624  0.66208465  1
  S2-  S154  1  0.67177867  0.40201930  0.17978625  1
  S2-  S155  1  0.74664382  0.25931566  0.64529438  1
  S2-  S156  1  0.84177655  0.62183358  0.15111682  1
  S2-  S157  1  0.66649190  0.68085977  0.63858466  1
  S2-  S158  1  0.65726948  0.86961323  0.13393919  1
  S2-  S159  1  0.70354437  0.83588546  0.72495299  1
  S2-  S160  1  0.13881701  -0.01435472  0.34548305  1
  S2-  S161  1  0.05509226  0.00433192  0.85158481  1
  S2-  S162  1  0.19185274  0.32085245  0.33692995  1
  S2-  S163  1  0.21466223  0.24434329  0.86056731  1
  S2-  S164  1  0.10022106  0.53084973  0.32754925  1
  S2-  S165  1  0.15198804  0.47903264  0.85576325  1
  S2-  S166  1  0.19338120  0.73587703  0.34580159  1
  S2-  S167  1  0.04041760  0.71847828  0.85919554  1
  S2-  S168  1  0.35208600  0.12135722  0.35208859  1
  S2-  S169  1  0.37774158  0.08326233  0.85680694  1
  S2-  S170  1  0.50969830  0.25884381  0.35598947  1
  S2-  S171  1  0.41571319  0.29948430  0.82692616  1
  S2-  S172  1  0.34331100  0.50516530  0.35196713  1
  S2-  S173  1  0.37656683  0.51153076  0.84183250  1
  S2-  S174  1  0.35681956  0.87481287  0.35355346  1
  S2-  S175  1  0.25364126  0.73122504  0.86253503  1
  S2-  S176  1  0.55487950  0.00517058  0.36021937  1
  S2-  S177  1  0.62821514  0.02129402  0.83117439  1
  S2-  S178  1  0.74065931  0.26476477  0.35189782  1
  S2-  S179  1  0.61624337  0.23765265  0.82623654  1
  S2-  S180  1  0.65493444  0.50134456  0.35105282  1
  S2-  S181  1  0.64434837  0.45891337  0.84511394  1
  S2-  S182  1  0.50609204  0.72486345  0.35385883  1
  S2-  S183  1  0.72767744  0.70857753  0.84707747  1
  S2-  S184  1  0.85980297  0.07868546  0.35821779  1
  S2-  S185  1  0.83712710  0.00435059  0.79219730  1
  S2-  S186  1  0.99804348  0.23624718  0.34764385  1
  S2-  S187  1  0.87848754  0.17585314  0.85291388  1
  S2-  S188  1  0.88806565  0.45113870  0.33179906  1
  S2-  S189  1  0.88427862  0.56786121  0.86341005  1
  S2-  S190  1  0.75181564  0.72736876  0.35103665  1
  S2-  S191  1  0.88388537  0.84552033  0.84405563  1
  S2-  S192  1  0.00815118  0.11904468  0.45301037  1
  S2-  S193  1  0.00362473  0.11431017  0.96039378  1
  S2-  S194  1  0.00603687  0.37474877  0.44306926  1
  S2-  S195  1  0.00556232  0.36621599  0.95768573  1
  S2-  S196  1  0.00482448  0.61793077  0.44399524  1
  S2-  S197  1  0.00502399  0.61641882  0.97007534  1
  S2-  S198  1  0.00356387  0.87054741  0.44874465  1
  S2-  S199  1  -0.00215663  0.86927020  0.95358061  1
  S2-  S200  1  0.25090434  0.12301134  0.45394421  1
  S2-  S201  1  0.24850414  0.11088754  0.95977735  1
  S2-  S202  1  0.26092001  0.37116698  0.45034890  1
  S2-  S203  1  0.24993661  0.36826728  0.96446367  1
  S2-  S204  1  0.25594974  0.62199401  0.45666231  1
  S2-  S205  1  0.25461333  0.61328468  0.96480819  1
  S2-  S206  1  0.25261710  0.86990795  0.45887052  1
  S2-  S207  1  0.25736049  0.87120414  0.96095829  1
  S2-  S208  1  0.50235341  0.12275179  0.46310695  1
  S2-  S209  1  0.50869760  0.12012034  0.94993153  1
  S2-  S210  1  0.50237874  0.37763573  0.45653399  1
  S2-  S211  1  0.50516841  0.36743115  0.94669964  1
  S2-  S212  1  0.50434252  0.61978885  0.46172075  1
  S2-  S213  1  0.50543918  0.61026183  0.95255255  1
  S2-  S214  1  0.50351671  0.87000179  0.45257654  1
  S2-  S215  1  0.50459811  0.86943342  0.94787099  1
  S2-  S216  1  0.75171651  0.12023002  0.46386073  1
  S2-  S217  1  0.75938311  0.11201678  0.95002043  1
  S2-  S218  1  0.75773532  0.37454911  0.45650164  1
  S2-  S219  1  0.75918864  0.36729328  0.94749828  1
  S2-  S220  1  0.75843235  0.61515809  0.45412259  1
  S2-  S221  1  0.74998156  0.61260462  0.95945774  1
  S2-  S222  1  0.75473393  0.87771516  0.44108546  1
  S2-  S223  1  0.75245748  0.87017231  0.94607979  1
  S2-  S224  1  0.12517504  -0.01290085  0.05093205  1
  S2-  S225  1  0.12844919  0.00275608  0.54850973  1
  S2-  S226  1  0.12782485  0.23961398  0.05031163  1
  S2-  S227  1  0.13220478  0.24844977  0.54183239  1
  S2-  S228  1  0.12860366  0.49646365  0.06066689  1
  S2-  S229  1  0.13361870  0.49261731  0.53309647  1
  S2-  S230  1  0.12809825  0.74542806  0.04619743  1
  S2-  S231  1  0.12963811  0.74469108  0.54070606  1
  S2-  S232  1  0.38889812  -0.00427670  0.04570665  1
  S2-  S233  1  0.37369929  -0.00567030  0.54449574  1
  S2-  S234  1  0.37461731  0.24431039  0.03279055  1
  S2-  S235  1  0.37752510  0.25336129  0.53820086  1
  S2-  S236  1  0.37958760  0.49184415  0.04960685  1
  S2-  S237  1  0.37905859  0.49960135  0.55281903  1
  S2-  S238  1  0.38462526  0.73965985  0.04423666  1
  S2-  S239  1  0.37641926  0.74279217  0.54755992  1
  S2-  S240  1  0.62898382  -0.00154830  0.03692534  1
  S2-  S241  1  0.62582484  -0.00549240  0.55441031  1
  S2-  S242  1  0.63501616  0.25073008  0.03734664  1
  S2-  S243  1  0.62514785  0.24885797  0.54602991  1
  S2-  S244  1  0.63340541  0.48431114  0.04703699  1
  S2-  S245  1  0.63385987  0.49688019  0.55564417  1
  S2-  S246  1  0.62643578  0.74431557  0.03371652  1
  S2-  S247  1  0.63284922  0.75902248  0.53598619  1
  S2-  S248  1  0.87112633  -0.00999153  0.05920714  1
  S2-  S249  1  0.88655065  0.00097857  0.54650690  1
  S2-  S250  1  0.88124351  0.24543526  0.04804799  1
  S2-  S251  1  0.88476940  0.24822900  0.53578649  1
  S2-  S252  1  0.87839032  0.48897964  0.05519352  1
  S2-  S253  1  0.88310250  0.49213112  0.53612647  1
  S2-  S254  1  0.86756318  0.74606689  0.04105317  1
  S2-  S255  1  0.88499500  0.74499566  0.53366084  1
