# generated using pymatgen
data_La9Ce10Pr6Nd4Sm3(BiS2)32
_symmetry_space_group_name_H-M   'P 1'
_cell_length_a   16.25244487
_cell_length_b   16.24971836
_cell_length_c   27.00315512
_cell_angle_alpha   89.97774927
_cell_angle_beta   89.85251057
_cell_angle_gamma   89.99664971
_symmetry_Int_Tables_number   1
_chemical_formula_structural   La9Ce10Pr6Nd4Sm3(BiS2)32
_chemical_formula_sum   'La18 Ce20 Pr12 Nd8 Sm6 Bi64 S128'
_cell_volume   7131.44568511
_cell_formula_units_Z   2
loop_
 _symmetry_equiv_pos_site_id
 _symmetry_equiv_pos_as_xyz
  1  'x, y, z'
loop_
 _atom_type_symbol
 _atom_type_oxidation_number
  La3+  3.0
  Ce3+  3.0
  Pr3+  3.0
  Nd3+  3.0
  Sm3+  3.0
  Bi2+  2.0
  S2-  -2.0
loop_
 _atom_site_type_symbol
 _atom_site_label
 _atom_site_symmetry_multiplicity
 _atom_site_fract_x
 _atom_site_fract_y
 _atom_site_fract_z
 _atom_site_occupancy
  La3+  La0  1  0.36899342  0.24663868  0.90695892  1
  La3+  La1  1  0.61690326  0.51302993  0.41638292  1
  La3+  La2  1  0.50066695  0.88749345  0.55545265  1
  La3+  La3  1  0.49685069  0.11475768  0.07342928  1
  La3+  La4  1  -0.00257470  0.13944370  0.56556318  1
  La3+  La5  1  -0.00064322  0.88726280  0.56142685  1
  La3+  La6  1  0.87495253  0.48405659  0.91716190  1
  La3+  La7  1  0.24989524  0.39487803  0.56690704  1
  La3+  La8  1  0.88494573  0.74834645  0.92109567  1
  La3+  La9  1  -0.01226432  0.63282298  0.57181359  1
  La3+  La10  1  0.50492310  0.39368720  0.57868063  1
  La3+  La11  1  0.13446849  0.01920017  0.40895596  1
  La3+  La12  1  0.88442265  0.51731989  0.41071461  1
  La3+  La13  1  -0.00249711  0.11496419  0.09576026  1
  La3+  La14  1  0.74487330  0.11394559  0.08171557  1
  La3+  La15  1  0.24822608  0.61160068  0.07744592  1
  La3+  La16  1  0.75402771  0.38738234  0.55836865  1
  La3+  La17  1  0.11461714  -0.00678744  0.93186106  1
  Ce3+  Ce18  1  0.87887248  0.76482569  0.43308764  1
  Ce3+  Ce19  1  -0.00148447  0.86872880  0.06874003  1
  Ce3+  Ce20  1  0.12417810  0.74140928  0.94954110  1
  Ce3+  Ce21  1  0.86912081  0.24738691  0.95305754  1
  Ce3+  Ce22  1  0.37153241  0.76229215  0.44394514  1
  Ce3+  Ce23  1  0.87298472  0.00013568  0.94701912  1
  Ce3+  Ce24  1  0.50278254  0.63827070  0.56278613  1
  Ce3+  Ce25  1  0.62540792  0.74400141  0.94026924  1
  Ce3+  Ce26  1  0.12407314  0.51272730  0.44251157  1
  Ce3+  Ce27  1  0.74665784  0.13711884  0.55667590  1
  Ce3+  Ce28  1  0.12348920  0.49780948  0.93843137  1
  Ce3+  Ce29  1  0.37562666  0.26257289  0.45124983  1
  Ce3+  Ce30  1  0.87675278  0.01081477  0.44543864  1
  Ce3+  Ce31  1  0.62630622  0.01313214  0.43801399  1
  Ce3+  Ce32  1  -0.00513405  0.36968933  0.06189419  1
  Ce3+  Ce33  1  0.24513963  0.87399684  0.05981268  1
  Ce3+  Ce34  1  0.12929960  0.25839206  0.44505742  1
  Ce3+  Ce35  1  0.75040807  0.63521746  0.54905459  1
  Ce3+  Ce36  1  0.62206495  0.24654418  0.94666382  1
  Ce3+  Ce37  1  0.50051862  0.13815246  0.56293955  1
  Pr3+  Pr38  1  -0.00565569  0.61684659  0.06238182  1
  Pr3+  Pr39  1  0.62492727  0.76238130  0.43240563  1
  Pr3+  Pr40  1  -0.00276824  0.38658872  0.54936398  1
  Pr3+  Pr41  1  0.37009247  0.49644798  0.93183991  1
  Pr3+  Pr42  1  0.24980055  0.63930806  0.56334586  1
  Pr3+  Pr43  1  0.62497735  -0.00292679  0.93409652  1
  Pr3+  Pr44  1  0.24849208  0.11992289  0.05705558  1
  Pr3+  Pr45  1  0.49723101  0.37135091  0.06408469  1
  Pr3+  Pr46  1  0.74891508  0.86995350  0.05608966  1
  Pr3+  Pr47  1  0.87506324  0.25166771  0.42399507  1
  Pr3+  Pr48  1  0.74238613  0.38085850  0.08132362  1
  Pr3+  Pr49  1  0.49749326  0.62047039  0.05548025  1
  Nd3+  Nd50  1  0.37604644  -0.00629614  0.93621585  1
  Nd3+  Nd51  1  0.24852469  0.36602870  0.05976744  1
  Nd3+  Nd52  1  0.62447826  0.26437818  0.44070716  1
  Nd3+  Nd53  1  0.62354552  0.49131187  0.93401995  1
  Nd3+  Nd54  1  0.24773947  0.88973885  0.56138175  1
  Nd3+  Nd55  1  0.25378450  0.13575204  0.57148789  1
  Nd3+  Nd56  1  0.12449496  0.24505026  0.94274935  1
  Nd3+  Nd57  1  0.12511419  0.76129789  0.44358880  1
  Sm3+  Sm58  1  0.37468541  0.51276041  0.44233321  1
  Sm3+  Sm59  1  0.74881942  0.88669851  0.55527317  1
  Sm3+  Sm60  1  0.37635826  0.01516945  0.44006142  1
  Sm3+  Sm61  1  0.49806667  0.86907460  0.05278534  1
  Sm3+  Sm62  1  0.74961289  0.61766883  0.05014261  1
  Sm3+  Sm63  1  0.37126205  0.74404675  0.94502245  1
  Bi2+  Bi64  1  0.00819721  0.12013329  0.29658826  1
  Bi2+  Bi65  1  -0.02350975  0.11704266  0.77345714  1
  Bi2+  Bi66  1  0.07964481  0.39919192  0.28363906  1
  Bi2+  Bi67  1  -0.02128407  0.35835892  0.79442948  1
  Bi2+  Bi68  1  0.02556448  0.66186250  0.29177485  1
  Bi2+  Bi69  1  0.04468182  0.60357237  0.77723421  1
  Bi2+  Bi70  1  -0.08040655  0.84889712  0.30418993  1
  Bi2+  Bi71  1  -0.01008932  0.85734471  0.79717886  1
  Bi2+  Bi72  1  0.26934482  0.15154872  0.28966779  1
  Bi2+  Bi73  1  0.24380546  0.08170957  0.78067083  1
  Bi2+  Bi74  1  0.26154723  0.43746585  0.30258519  1
  Bi2+  Bi75  1  0.24037343  0.42448229  0.79610928  1
  Bi2+  Bi76  1  0.24607888  0.65862939  0.28558470  1
  Bi2+  Bi77  1  0.24003539  0.60352803  0.83399704  1
  Bi2+  Bi78  1  0.34716087  0.90894343  0.27620284  1
  Bi2+  Bi79  1  0.27466666  0.84985406  0.80117703  1
  Bi2+  Bi80  1  0.46520782  0.11185021  0.29211517  1
  Bi2+  Bi81  1  0.49976593  0.08106243  0.75169054  1
  Bi2+  Bi82  1  0.44341352  0.36068542  0.28670433  1
  Bi2+  Bi83  1  0.51165897  0.33756161  0.78662885  1
  Bi2+  Bi84  1  0.47772956  0.62499485  0.29057855  1
  Bi2+  Bi85  1  0.42236554  0.62042532  0.78295707  1
  Bi2+  Bi86  1  0.52750689  0.83630320  0.27742615  1
  Bi2+  Bi87  1  0.53434273  0.84037172  0.79120553  1
  Bi2+  Bi88  1  0.72802556  0.05311559  0.29518494  1
  Bi2+  Bi89  1  0.78277946  0.12930529  0.79538138  1
  Bi2+  Bi90  1  0.75248061  0.33501342  0.29023733  1
  Bi2+  Bi91  1  0.73331957  0.39260468  0.80090149  1
  Bi2+  Bi92  1  0.74596260  0.60326953  0.29200392  1
  Bi2+  Bi93  1  0.73356729  0.67202270  0.77171129  1
  Bi2+  Bi94  1  0.72316426  0.84519972  0.30483692  1
  Bi2+  Bi95  1  0.71145635  0.94661238  0.80096198  1
  Bi2+  Bi96  1  0.15176855  -0.03000139  0.21594297  1
  Bi2+  Bi97  1  0.11143001  -0.02875413  0.72225727  1
  Bi2+  Bi98  1  0.20093817  0.28470783  0.22046519  1
  Bi2+  Bi99  1  0.12884744  0.24777579  0.76763864  1
  Bi2+  Bi100  1  0.13232343  0.53738395  0.20642647  1
  Bi2+  Bi101  1  0.09889229  0.44369104  0.71782295  1
  Bi2+  Bi102  1  0.03336585  0.80502706  0.21068964  1
  Bi2+  Bi103  1  0.18181177  0.71652796  0.73937752  1
  Bi2+  Bi104  1  0.38863204  0.04882966  0.19276750  1
  Bi2+  Bi105  1  0.38114508  -0.09650508  0.70943863  1
  Bi2+  Bi106  1  0.38040924  0.25668904  0.17415377  1
  Bi2+  Bi107  1  0.35060941  0.23389973  0.70302282  1
  Bi2+  Bi108  1  0.37713518  0.49022169  0.21016476  1
  Bi2+  Bi109  1  0.37353424  0.47601932  0.70038284  1
  Bi2+  Bi110  1  0.38005653  0.74733632  0.21435965  1
  Bi2+  Bi111  1  0.36119767  0.70684859  0.68471669  1
  Bi2+  Bi112  1  0.61194237  -0.00960098  0.20827026  1
  Bi2+  Bi113  1  0.67116179  -0.01586287  0.68499367  1
  Bi2+  Bi114  1  0.55614703  0.24354776  0.22347659  1
  Bi2+  Bi115  1  0.65143026  0.17548072  0.71477385  1
  Bi2+  Bi116  1  0.62332522  0.49547518  0.20665064  1
  Bi2+  Bi117  1  0.60227494  0.54473454  0.73104683  1
  Bi2+  Bi118  1  0.65534331  0.72858604  0.21375843  1
  Bi2+  Bi119  1  0.56721071  0.72568958  0.69760809  1
  Bi2+  Bi120  1  0.85982174  -0.01046872  0.21701174  1
  Bi2+  Bi121  1  0.85371913  -0.01062491  0.72062783  1
  Bi2+  Bi122  1  0.93347190  0.25954220  0.21477501  1
  Bi2+  Bi123  1  0.89690564  0.26406618  0.70358816  1
  Bi2+  Bi124  1  0.88094528  0.49205349  0.20276473  1
  Bi2+  Bi125  1  0.84142058  0.49877091  0.70320129  1
  Bi2+  Bi126  1  0.84165084  0.77463002  0.20364868  1
  Bi2+  Bi127  1  0.90578751  0.75158122  0.69373551  1
  S2-  S128  1  0.06389330  0.18088811  0.18559598  1
  S2-  S129  1  -0.00016199  0.14942716  0.66660025  1
  S2-  S130  1  0.00207170  0.39279099  0.15995661  1
  S2-  S131  1  -0.03152655  0.41958395  0.64804751  1
  S2-  S132  1  -0.00789548  0.60867461  0.16450396  1
  S2-  S133  1  0.03724951  0.66796899  0.66962110  1
  S2-  S134  1  0.00785170  0.96257901  0.15354817  1
  S2-  S135  1  -0.00054557  0.88776038  0.66364939  1
  S2-  S136  1  0.23516613  0.07934280  0.15567998  1
  S2-  S137  1  0.22971603  0.14146427  0.67207928  1
  S2-  S138  1  0.25089518  0.46629015  0.14160026  1
  S2-  S139  1  0.25907959  0.35562623  0.66526246  1
  S2-  S140  1  0.23889598  0.66801814  0.17529798  1
  S2-  S141  1  0.25808179  0.56513596  0.65467687  1
  S2-  S142  1  0.24025806  0.87580480  0.15801197  1
  S2-  S143  1  0.23336581  0.91551677  0.66107454  1
  S2-  S144  1  0.61460181  0.13234735  0.15071844  1
  S2-  S145  1  0.44418128  0.11221343  0.65436401  1
  S2-  S146  1  0.59703261  0.37161007  0.14872688  1
  S2-  S147  1  0.49004776  0.33677436  0.67858034  1
  S2-  S148  1  0.49778093  0.56770719  0.15234893  1
  S2-  S149  1  0.51598043  0.53477918  0.64124877  1
  S2-  S150  1  0.49811720  0.92973601  0.14441008  1
  S2-  S151  1  0.53211860  0.88798595  0.65495415  1
  S2-  S152  1  0.85788020  0.13103982  0.16069484  1
  S2-  S153  1  0.77756641  0.20260621  0.64518086  1
  S2-  S154  1  0.79259869  0.34873173  0.18129406  1
  S2-  S155  1  0.72410064  0.42741570  0.65681371  1
  S2-  S156  1  0.75041460  0.54567567  0.14079799  1
  S2-  S157  1  0.83553058  0.62407208  0.63671724  1
  S2-  S158  1  0.74267417  0.95265014  0.14540060  1
  S2-  S159  1  0.77491653  0.85224376  0.65133543  1
  S2-  S160  1  0.07495338  -0.02249599  0.31421745  1
  S2-  S161  1  0.14529949  -0.02381602  0.83113996  1
  S2-  S162  1  0.13407832  0.17943127  0.35678735  1
  S2-  S163  1  0.21110422  0.22901222  0.85454085  1
  S2-  S164  1  0.04717713  0.52072911  0.35481399  1
  S2-  S165  1  0.02397340  0.49664124  0.85661006  1
  S2-  S166  1  0.13793943  0.75350733  0.34252463  1
  S2-  S167  1  0.04568060  0.74972562  0.86222526  1
  S2-  S168  1  0.28900368  0.00144698  0.35480281  1
  S2-  S169  1  0.34599050  -0.00501124  0.83665933  1
  S2-  S170  1  0.37987779  0.23760184  0.35342805  1
  S2-  S171  1  0.42290687  0.20107951  0.80930262  1
  S2-  S172  1  0.46126897  0.49733562  0.35787694  1
  S2-  S173  1  0.38778970  0.39377905  0.84954713  1
  S2-  S174  1  0.36818025  0.72493291  0.34883466  1
  S2-  S175  1  0.40108528  0.76472902  0.84728202  1
  S2-  S176  1  0.57514910  0.01891356  0.34403741  1
  S2-  S177  1  0.55701946  -0.00017356  0.84111168  1
  S2-  S178  1  0.65667436  0.24020702  0.34256908  1
  S2-  S179  1  0.62647629  0.27098223  0.84702044  1
  S2-  S180  1  0.65502478  0.45876100  0.31436393  1
  S2-  S181  1  0.59827930  0.48353820  0.83371387  1
  S2-  S182  1  0.61343831  0.65652425  0.35236635  1
  S2-  S183  1  0.62645444  0.72855671  0.84268976  1
  S2-  S184  1  0.87066091  0.07027501  0.35332543  1
  S2-  S185  1  0.94370195  -0.03162921  0.86161324  1
  S2-  S186  1  0.90831751  0.26673729  0.32321841  1
  S2-  S187  1  0.85513850  0.32434200  0.86415589  1
  S2-  S188  1  0.85537428  0.47409311  0.30877029  1
  S2-  S189  1  0.81082998  0.53098435  0.82143181  1
  S2-  S190  1  0.87911955  0.67006022  0.35057080  1
  S2-  S191  1  0.84530687  0.76572912  0.82075858  1
  S2-  S192  1  0.00378643  0.13271659  0.45610086  1
  S2-  S193  1  -0.00307455  0.12670739  0.94906734  1
  S2-  S194  1  0.00147902  0.37806529  0.44325128  1
  S2-  S195  1  0.00161955  0.36673990  0.95663495  1
  S2-  S196  1  0.00247313  0.64067494  0.45883779  1
  S2-  S197  1  -0.00423533  0.61840382  0.95601635  1
  S2-  S198  1  0.00755186  0.89234374  0.45069483  1
  S2-  S199  1  -0.00110350  0.86774978  0.96414359  1
  S2-  S200  1  0.25344854  0.13472935  0.46253432  1
  S2-  S201  1  0.24983300  0.11482636  0.95062140  1
  S2-  S202  1  0.25097414  0.38879873  0.45551658  1
  S2-  S203  1  0.24684925  0.37092385  0.95380527  1
  S2-  S204  1  0.24940993  0.63465602  0.45436489  1
  S2-  S205  1  0.24985290  0.62132950  0.96431033  1
  S2-  S206  1  0.24787278  0.88852493  0.45496785  1
  S2-  S207  1  0.24784890  0.86820941  0.95094387  1
  S2-  S208  1  0.50027963  0.13699274  0.45517692  1
  S2-  S209  1  0.49350705  0.12224161  0.95153654  1
  S2-  S210  1  0.49900658  0.38562400  0.46091453  1
  S2-  S211  1  0.49731579  0.37112820  0.95501994  1
  S2-  S212  1  0.49474828  0.63988520  0.45717402  1
  S2-  S213  1  0.49647873  0.62026013  0.94708759  1
  S2-  S214  1  0.49712730  0.88736455  0.44626795  1
  S2-  S215  1  0.49838994  0.86672870  0.94892546  1
  S2-  S216  1  0.74735520  0.13655426  0.45146021  1
  S2-  S217  1  0.74691595  0.12134892  0.95545976  1
  S2-  S218  1  0.75203497  0.38530043  0.44242942  1
  S2-  S219  1  0.74312936  0.37267171  0.96338777  1
  S2-  S220  1  0.75109984  0.63725518  0.44594045  1
  S2-  S221  1  0.75219478  0.61884479  0.94471085  1
  S2-  S222  1  0.75042249  0.88751836  0.44799270  1
  S2-  S223  1  0.75165178  0.86952832  0.94757765  1
  S2-  S224  1  0.12014880  -0.00124266  0.04361000  1
  S2-  S225  1  0.12548567  0.01527804  0.55639048  1
  S2-  S226  1  0.12143276  0.24327258  0.05120644  1
  S2-  S227  1  0.12703110  0.26355975  0.55396728  1
  S2-  S228  1  0.11993745  0.49305082  0.04598904  1
  S2-  S229  1  0.12033529  0.51434702  0.55032946  1
  S2-  S230  1  0.12226260  0.74277887  0.05670342  1
  S2-  S231  1  0.12436208  0.76222530  0.55243777  1
  S2-  S232  1  0.37365793  -0.00712828  0.04310885  1
  S2-  S233  1  0.37372020  0.01122443  0.54625197  1
  S2-  S234  1  0.37377990  0.24403523  0.04666990  1
  S2-  S235  1  0.37603266  0.26454163  0.55661744  1
  S2-  S236  1  0.37498204  0.49401746  0.04096467  1
  S2-  S237  1  0.37632091  0.51519625  0.54609404  1
  S2-  S238  1  0.37182512  0.74729340  0.05191405  1
  S2-  S239  1  0.37376396  0.76436006  0.55110034  1
  S2-  S240  1  0.61961385  -0.00739885  0.04052182  1
  S2-  S241  1  0.62587205  0.01214401  0.54521498  1
  S2-  S242  1  0.62265205  0.24447526  0.04992778  1
  S2-  S243  1  0.62329893  0.26413180  0.54964296  1
  S2-  S244  1  0.62129246  0.49967992  0.04041303  1
  S2-  S245  1  0.62902503  0.51273687  0.53475947  1
  S2-  S246  1  0.62442185  0.74462614  0.04957818  1
  S2-  S247  1  0.62809420  0.76250220  0.54194301  1
  S2-  S248  1  0.87538538  -0.00436167  0.04978937  1
  S2-  S249  1  0.87100304  0.01147856  0.55345809  1
  S2-  S250  1  0.87110978  0.24550313  0.05728760  1
  S2-  S251  1  0.87491721  0.26133605  0.53529040  1
  S2-  S252  1  0.87230225  0.49357800  0.04158244  1
  S2-  S253  1  0.87452872  0.50912485  0.52940074  1
  S2-  S254  1  0.87107269  0.74305406  0.04680911  1
  S2-  S255  1  0.87279155  0.76587053  0.53959612  1
