# generated using pymatgen
data_La9Ce10Pr6Nd4Sm3(BiS2)32
_symmetry_space_group_name_H-M   'P 1'
_cell_length_a   16.21988699
_cell_length_b   16.16921732
_cell_length_c   27.26161939
_cell_angle_alpha   90.58991137
_cell_angle_beta   89.83152253
_cell_angle_gamma   90.06970557
_symmetry_Int_Tables_number   1
_chemical_formula_structural   La9Ce10Pr6Nd4Sm3(BiS2)32
_chemical_formula_sum   'La18 Ce20 Pr12 Nd8 Sm6 Bi64 S128'
_cell_volume   7149.29585900
_cell_formula_units_Z   2
loop_
 _symmetry_equiv_pos_site_id
 _symmetry_equiv_pos_as_xyz
  1  'x, y, z'
loop_
 _atom_type_symbol
 _atom_type_oxidation_number
  La3+  3.0
  Ce3+  3.0
  Pr3+  3.0
  Nd3+  3.0
  Sm3+  3.0
  Bi2+  2.0
  S2-  -2.0
loop_
 _atom_site_type_symbol
 _atom_site_label
 _atom_site_symmetry_multiplicity
 _atom_site_fract_x
 _atom_site_fract_y
 _atom_site_fract_z
 _atom_site_occupancy
  La3+  La0  1  0.88537164  0.00149684  0.42680149  1
  La3+  La1  1  0.12844783  0.24745633  0.93282074  1
  La3+  La2  1  0.14005015  0.24302699  0.42989940  1
  La3+  La3  1  0.74559430  0.63053694  0.07857014  1
  La3+  La4  1  0.51274900  0.13783749  0.58345060  1
  La3+  La5  1  0.62348493  0.73605023  0.92606040  1
  La3+  La6  1  0.88655903  0.74794334  0.44398528  1
  La3+  La7  1  -0.00374972  0.36577760  0.07233619  1
  La3+  La8  1  0.63313149  0.49678490  0.42788500  1
  La3+  La9  1  0.12024593  0.74167896  0.93463109  1
  La3+  La10  1  0.38642596  0.24355959  0.43832412  1
  La3+  La11  1  0.26342122  0.88978148  0.57267996  1
  La3+  La12  1  0.48894169  0.13176843  0.07490415  1
  La3+  La13  1  0.76513009  0.60902333  0.60517859  1
  La3+  La14  1  0.63390595  0.24249880  0.43216103  1
  La3+  La15  1  -0.00297147  0.62478557  0.10819118  1
  La3+  La16  1  0.49749766  0.62995279  0.07147324  1
  La3+  La17  1  0.14242685  0.51102467  0.41972920  1
  Ce3+  Ce18  1  0.38826660  0.00862516  0.44924080  1
  Ce3+  Ce19  1  0.49572716  0.87165515  0.05337287  1
  Ce3+  Ce20  1  0.76087868  0.37940544  0.54686547  1
  Ce3+  Ce21  1  0.11829197  0.49667317  0.95056958  1
  Ce3+  Ce22  1  0.62472388  0.49572129  0.94164292  1
  Ce3+  Ce23  1  0.12254221  -0.00525266  0.94111872  1
  Ce3+  Ce24  1  0.38406351  0.49990338  0.44469149  1
  Ce3+  Ce25  1  0.24276877  0.86878815  0.06093241  1
  Ce3+  Ce26  1  0.25601498  0.37878513  0.55508330  1
  Ce3+  Ce27  1  0.01659724  0.63144089  0.57694499  1
  Ce3+  Ce28  1  0.24621151  0.12368858  0.05921206  1
  Ce3+  Ce29  1  0.61746725  0.24346448  0.93707083  1
  Ce3+  Ce30  1  0.88779804  0.24642420  0.43853080  1
  Ce3+  Ce31  1  0.36977420  0.50141255  0.93710622  1
  Ce3+  Ce32  1  0.37093291  0.23939460  0.92585045  1
  Ce3+  Ce33  1  0.51184531  0.62867990  0.55598006  1
  Ce3+  Ce34  1  0.74597621  0.87216216  0.05092603  1
  Ce3+  Ce35  1  0.61790820  -0.00247693  0.94378540  1
  Ce3+  Ce36  1  0.49239741  0.37150248  0.04613250  1
  Ce3+  Ce37  1  0.00590250  0.12978478  0.56387484  1
  Pr3+  Pr38  1  0.51254735  0.38194597  0.56247806  1
  Pr3+  Pr39  1  0.87998363  0.24527990  0.91577373  1
  Pr3+  Pr40  1  0.00904466  0.38504754  0.54846365  1
  Pr3+  Pr41  1  0.37094374  -0.01002740  0.93156102  1
  Pr3+  Pr42  1  0.87096006  -0.00343104  0.93174774  1
  Pr3+  Pr43  1  0.24772986  0.38300041  0.06738641  1
  Pr3+  Pr44  1  0.88886134  0.50450040  0.43448497  1
  Pr3+  Pr45  1  0.76051225  0.12871103  0.56610225  1
  Pr3+  Pr46  1  0.63765937  0.75184786  0.44703951  1
  Pr3+  Pr47  1  0.00476384  0.87753314  0.56580479  1
  Pr3+  Pr48  1  0.13966613  0.75559937  0.44630299  1
  Pr3+  Pr49  1  0.26004838  0.63309501  0.56968085  1
  Nd3+  Nd50  1  0.64040704  0.00124940  0.44262278  1
  Nd3+  Nd51  1  0.74571374  0.36909777  0.05638208  1
  Nd3+  Nd52  1  0.76207592  0.87270948  0.57231472  1
  Nd3+  Nd53  1  0.24441964  0.62909147  0.06775531  1
  Nd3+  Nd54  1  0.37015671  0.74421954  0.93107133  1
  Nd3+  Nd55  1  0.87228997  0.49513577  0.95024653  1
  Nd3+  Nd56  1  0.24770864  0.14232269  0.58129689  1
  Nd3+  Nd57  1  0.13787463  0.00245351  0.44714591  1
  Sm3+  Sm58  1  -0.00720982  0.87011110  0.05353629  1
  Sm3+  Sm59  1  0.51445707  0.87735676  0.55988593  1
  Sm3+  Sm60  1  -0.00596599  0.12485821  0.05515836  1
  Sm3+  Sm61  1  0.74544920  0.12328350  0.04884443  1
  Sm3+  Sm62  1  0.87021592  0.74226928  0.94231387  1
  Sm3+  Sm63  1  0.38623116  0.75200036  0.44409654  1
  Bi2+  Bi64  1  0.01924134  0.10116814  0.29503531  1
  Bi2+  Bi65  1  -0.03121902  0.19167804  0.76526862  1
  Bi2+  Bi66  1  -0.06892792  0.34590468  0.26011326  1
  Bi2+  Bi67  1  -0.01665853  0.41339867  0.81797822  1
  Bi2+  Bi68  1  0.00176440  0.62549743  0.29642984  1
  Bi2+  Bi69  1  -0.01667958  0.57297220  0.74858264  1
  Bi2+  Bi70  1  0.00102466  0.90883084  0.31056648  1
  Bi2+  Bi71  1  -0.06169805  0.94160939  0.78924499  1
  Bi2+  Bi72  1  0.26316793  0.17887250  0.30266384  1
  Bi2+  Bi73  1  0.26202971  0.13276350  0.78867663  1
  Bi2+  Bi74  1  0.28456266  0.40746786  0.29742701  1
  Bi2+  Bi75  1  0.32438586  0.40911673  0.81296644  1
  Bi2+  Bi76  1  0.25826571  0.64734597  0.29807609  1
  Bi2+  Bi77  1  0.24467497  0.67107101  0.79468783  1
  Bi2+  Bi78  1  0.19604865  0.91872522  0.29220365  1
  Bi2+  Bi79  1  0.22756868  0.89082310  0.80432364  1
  Bi2+  Bi80  1  0.50194631  0.20194053  0.30685695  1
  Bi2+  Bi81  1  0.51504167  0.09043052  0.77973554  1
  Bi2+  Bi82  1  0.46101608  0.41654999  0.22352641  1
  Bi2+  Bi83  1  0.47403253  0.28189457  0.80169302  1
  Bi2+  Bi84  1  0.48891102  0.69683406  0.28839025  1
  Bi2+  Bi85  1  0.49374309  0.64960723  0.79077964  1
  Bi2+  Bi86  1  0.50663322  0.91464361  0.26003195  1
  Bi2+  Bi87  1  0.54945779  0.89431163  0.75980924  1
  Bi2+  Bi88  1  0.74373540  0.09564402  0.30025508  1
  Bi2+  Bi89  1  0.75266988  0.06918662  0.78148001  1
  Bi2+  Bi90  1  0.75394111  0.29771590  0.29191319  1
  Bi2+  Bi91  1  0.70473495  0.37808347  0.79111062  1
  Bi2+  Bi92  1  0.75683418  0.64782981  0.31658427  1
  Bi2+  Bi93  1  0.75366224  0.61879373  0.79743966  1
  Bi2+  Bi94  1  0.72042859  0.86319990  0.27990869  1
  Bi2+  Bi95  1  0.76393904  0.85424224  0.79792690  1
  Bi2+  Bi96  1  0.14566253  0.00136389  0.18797158  1
  Bi2+  Bi97  1  0.05256604  0.03391657  0.71617126  1
  Bi2+  Bi98  1  0.12331224  0.18868694  0.20757388  1
  Bi2+  Bi99  1  0.12791009  0.28955301  0.71041137  1
  Bi2+  Bi100  1  0.13685454  0.46845897  0.21009713  1
  Bi2+  Bi101  1  0.16600828  0.47251795  0.74924316  1
  Bi2+  Bi102  1  0.11913040  0.79644667  0.21564505  1
  Bi2+  Bi103  1  0.13451802  0.72454636  0.70949072  1
  Bi2+  Bi104  1  0.33854975  -0.00449807  0.22148121  1
  Bi2+  Bi105  1  0.36371017  -0.06092502  0.70351327  1
  Bi2+  Bi106  1  0.34546017  0.26172042  0.20040117  1
  Bi2+  Bi107  1  0.36682152  0.21115724  0.70782333  1
  Bi2+  Bi108  1  0.38002714  0.59013465  0.20919528  1
  Bi2+  Bi109  1  0.35141290  0.46850395  0.70571926  1
  Bi2+  Bi110  1  0.36209846  0.80119352  0.20688944  1
  Bi2+  Bi111  1  0.36698647  0.66169320  0.70179882  1
  Bi2+  Bi112  1  0.65994483  -0.00025368  0.21028059  1
  Bi2+  Bi113  1  0.71339666  -0.05494436  0.69629938  1
  Bi2+  Bi114  1  0.63881832  0.24694050  0.19695750  1
  Bi2+  Bi115  1  0.64385772  0.29948295  0.69455509  1
  Bi2+  Bi116  1  0.63727711  0.49224697  0.22762800  1
  Bi2+  Bi117  1  0.52497840  0.46061329  0.76337463  1
  Bi2+  Bi118  1  0.61378758  0.74117511  0.20524696  1
  Bi2+  Bi119  1  0.61307222  0.72142168  0.69659084  1
  Bi2+  Bi120  1  0.93883291  -0.02425139  0.20985006  1
  Bi2+  Bi121  1  0.89042971  0.00554204  0.65255194  1
  Bi2+  Bi122  1  0.88186877  0.17868511  0.21051382  1
  Bi2+  Bi123  1  0.82120897  0.18168847  0.69204377  1
  Bi2+  Bi124  1  0.83394280  0.48672374  0.21531949  1
  Bi2+  Bi125  1  0.88569320  0.42480583  0.70225831  1
  Bi2+  Bi126  1  0.86402271  0.78596366  0.21141280  1
  Bi2+  Bi127  1  0.90352090  0.77682951  0.72886019  1
  S2-  S128  1  -0.00684997  0.22440910  0.13660895  1
  S2-  S129  1  0.09871678  0.15246460  0.64570228  1
  S2-  S130  1  -0.00247627  0.46082432  0.15887392  1
  S2-  S131  1  0.01304952  0.36467972  0.64982124  1
  S2-  S132  1  0.08230902  0.63014913  0.20134797  1
  S2-  S133  1  -0.08243988  0.57791372  0.65383259  1
  S2-  S134  1  -0.00878159  0.79830040  0.14374782  1
  S2-  S135  1  0.01213126  0.78248681  0.65181192  1
  S2-  S136  1  0.34516730  0.12720737  0.14005489  1
  S2-  S137  1  0.26084723  0.01547014  0.65058893  1
  S2-  S138  1  0.19426422  0.32068395  0.15836211  1
  S2-  S139  1  0.25523475  0.29282372  0.64143196  1
  S2-  S140  1  0.26112645  0.51701890  0.14525684  1
  S2-  S141  1  0.14585427  0.59921093  0.64297371  1
  S2-  S142  1  0.23724738  0.76154073  0.13875956  1
  S2-  S143  1  0.27288594  0.79990408  0.66012997  1
  S2-  S144  1  0.55196921  0.11583363  0.17269189  1
  S2-  S145  1  0.46133245  0.07319875  0.67804586  1
  S2-  S146  1  0.48145732  0.31278804  0.13701831  1
  S2-  S147  1  0.49712716  0.29102724  0.64780958  1
  S2-  S148  1  0.61555358  0.60150708  0.14722884  1
  S2-  S149  1  0.51593460  0.59991350  0.65093051  1
  S2-  S150  1  0.49107546  0.78173503  0.13606173  1
  S2-  S151  1  0.50126504  0.85211945  0.65775506  1
  S2-  S152  1  0.75375782  0.16354102  0.14410952  1
  S2-  S153  1  0.65726113  0.14944063  0.64751535  1
  S2-  S154  1  0.72476009  0.38749832  0.15529326  1
  S2-  S155  1  0.74522917  0.42191338  0.64084419  1
  S2-  S156  1  0.84909501  0.62846681  0.16400900  1
  S2-  S157  1  0.70888803  0.59207929  0.70676536  1
  S2-  S158  1  0.73860636  0.80615006  0.13979323  1
  S2-  S159  1  0.76614021  0.77065513  0.65587653  1
  S2-  S160  1  0.15474170  0.09828668  0.36458894  1
  S2-  S161  1  0.15014091  0.02993615  0.84626969  1
  S2-  S162  1  0.16382675  0.30210542  0.33401845  1
  S2-  S163  1  0.02859450  0.25546893  0.85088488  1
  S2-  S164  1  0.12052031  0.50472040  0.31697330  1
  S2-  S165  1  0.12634171  0.49930691  0.85344937  1
  S2-  S166  1  0.13202306  0.69694502  0.35092301  1
  S2-  S167  1  0.11525256  0.76980769  0.83443311  1
  S2-  S168  1  0.38800739  0.10618966  0.36655760  1
  S2-  S169  1  0.38777239  0.10188328  0.85256959  1
  S2-  S170  1  0.39643985  0.32187421  0.34601546  1
  S2-  S171  1  0.24815460  0.26360160  0.85478128  1
  S2-  S172  1  0.35586541  0.53576330  0.35133532  1
  S2-  S173  1  0.37076785  0.61509983  0.86066381  1
  S2-  S174  1  0.36261371  0.76155393  0.34636265  1
  S2-  S175  1  0.36030125  0.86530823  0.85439488  1
  S2-  S176  1  0.60661655  0.10787698  0.36182943  1
  S2-  S177  1  0.60552943  0.00683263  0.84663369  1
  S2-  S178  1  0.60892310  0.32310719  0.34292604  1
  S2-  S179  1  0.63507630  0.24199118  0.83954561  1
  S2-  S180  1  0.64086470  0.53822932  0.32927242  1
  S2-  S181  1  0.62226933  0.58654801  0.85942634  1
  S2-  S182  1  0.63175388  0.75267208  0.34622487  1
  S2-  S183  1  0.59445571  0.78531412  0.82882477  1
  S2-  S184  1  0.75210142  -0.03991484  0.36456384  1
  S2-  S185  1  0.87281626  0.09602137  0.84915330  1
  S2-  S186  1  0.88880201  0.14151805  0.35934622  1
  S2-  S187  1  0.84096062  0.30736792  0.82090462  1
  S2-  S188  1  0.88351991  0.52872229  0.33398061  1
  S2-  S189  1  0.84677545  0.50994385  0.85116750  1
  S2-  S190  1  0.90010937  0.74762293  0.34252823  1
  S2-  S191  1  0.86090381  0.73542799  0.84338787  1
  S2-  S192  1  0.01107822  0.12374625  0.45942066  1
  S2-  S193  1  -0.00273457  0.11942105  0.95242115  1
  S2-  S194  1  0.01316114  0.37775127  0.43926744  1
  S2-  S195  1  -0.00441089  0.37044283  0.96046031  1
  S2-  S196  1  0.01583775  0.62668181  0.45540855  1
  S2-  S197  1  -0.00788834  0.62147227  0.94505793  1
  S2-  S198  1  0.01148288  0.87819211  0.45698842  1
  S2-  S199  1  -0.00739109  0.87032430  0.94761164  1
  S2-  S200  1  0.26016499  0.12276594  0.47300899  1
  S2-  S201  1  0.24808414  0.11496381  0.95539997  1
  S2-  S202  1  0.25858545  0.37881049  0.44987428  1
  S2-  S203  1  0.24759001  0.38033397  0.95948819  1
  S2-  S204  1  0.26423702  0.63164215  0.45979333  1
  S2-  S205  1  0.24407358  0.62140130  0.96024788  1
  S2-  S206  1  0.26544263  0.88011812  0.45823077  1
  S2-  S207  1  0.24185547  0.86889049  0.95619787  1
  S2-  S208  1  0.51318622  0.12388517  0.47144666  1
  S2-  S209  1  0.49649111  0.12089777  0.95922679  1
  S2-  S210  1  0.50911437  0.37747965  0.45598786  1
  S2-  S211  1  0.49474733  0.37300488  0.94069383  1
  S2-  S212  1  0.50886534  0.62805360  0.44901803  1
  S2-  S213  1  0.49735358  0.62021632  0.96069077  1
  S2-  S214  1  0.51019094  0.87770826  0.45316109  1
  S2-  S215  1  0.50002518  0.86739390  0.94934641  1
  S2-  S216  1  0.76335974  0.12651137  0.45985902  1
  S2-  S217  1  0.74456637  0.12182516  0.94636677  1
  S2-  S218  1  0.76514151  0.37564883  0.44094278  1
  S2-  S219  1  0.74694470  0.36754474  0.94904116  1
  S2-  S220  1  0.75855597  0.62458757  0.44475774  1
  S2-  S221  1  0.74941924  0.62029258  0.96253736  1
  S2-  S222  1  0.76313169  0.87177978  0.46671964  1
  S2-  S223  1  0.74689323  0.87104112  0.94483528  1
  S2-  S224  1  0.11542096  -0.00323992  0.04800144  1
  S2-  S225  1  0.12682223  0.00266765  0.55125792  1
  S2-  S226  1  0.12420582  0.24462176  0.04098347  1
  S2-  S227  1  0.12940218  0.25868617  0.53795262  1
  S2-  S228  1  0.11404403  0.50563323  0.05470227  1
  S2-  S229  1  0.13714621  0.50414011  0.53438212  1
  S2-  S230  1  0.11146938  0.74554040  0.04247122  1
  S2-  S231  1  0.13934044  0.75969149  0.55020574  1
  S2-  S232  1  0.36981830  -0.00835463  0.04345181  1
  S2-  S233  1  0.39677021  0.00349824  0.55326940  1
  S2-  S234  1  0.36423770  0.25155798  0.03550285  1
  S2-  S235  1  0.38326669  0.25699785  0.54551034  1
  S2-  S236  1  0.37670163  0.50247656  0.04421101  1
  S2-  S237  1  0.38282247  0.50354439  0.55123752  1
  S2-  S238  1  0.36887552  0.74906164  0.03782183  1
  S2-  S239  1  0.38854987  0.75542945  0.54880248  1
  S2-  S240  1  0.62040109  -0.00036901  0.05122840  1
  S2-  S241  1  0.63830331  -0.00280110  0.55117968  1
  S2-  S242  1  0.62101696  0.24577524  0.04251791  1
  S2-  S243  1  0.63813007  0.25882856  0.54102312  1
  S2-  S244  1  0.62001588  0.49184477  0.04506872  1
  S2-  S245  1  0.63835416  0.50692734  0.54121701  1
  S2-  S246  1  0.62212624  0.75028112  0.03619620  1
  S2-  S247  1  0.63656572  0.75015665  0.55231664  1
  S2-  S248  1  0.87178865  -0.00087055  0.04365392  1
  S2-  S249  1  0.88302827  0.00184628  0.53991532  1
  S2-  S250  1  0.86810801  0.24348412  0.03498244  1
  S2-  S251  1  0.88566916  0.25553542  0.54485067  1
  S2-  S252  1  0.86873113  0.49714990  0.05559531  1
  S2-  S253  1  0.88209758  0.50759399  0.54025705  1
  S2-  S254  1  0.87276823  0.74757775  0.04445635  1
  S2-  S255  1  0.88301049  0.74485106  0.55091336  1
