# generated using pymatgen
data_La9Ce10Pr6Nd4Sm3(BiS2)32
_symmetry_space_group_name_H-M   'P 1'
_cell_length_a   16.13869505
_cell_length_b   16.15306239
_cell_length_c   27.15260778
_cell_angle_alpha   90.27584725
_cell_angle_beta   90.18755931
_cell_angle_gamma   90.09798942
_symmetry_Int_Tables_number   1
_chemical_formula_structural   La9Ce10Pr6Nd4Sm3(BiS2)32
_chemical_formula_sum   'La18 Ce20 Pr12 Nd8 Sm6 Bi64 S128'
_cell_volume   7078.26511639
_cell_formula_units_Z   2
loop_
 _symmetry_equiv_pos_site_id
 _symmetry_equiv_pos_as_xyz
  1  'x, y, z'
loop_
 _atom_type_symbol
 _atom_type_oxidation_number
  La3+  3.0
  Ce3+  3.0
  Pr3+  3.0
  Nd3+  3.0
  Sm3+  3.0
  Bi2+  2.0
  S2-  -2.0
loop_
 _atom_site_type_symbol
 _atom_site_label
 _atom_site_symmetry_multiplicity
 _atom_site_fract_x
 _atom_site_fract_y
 _atom_site_fract_z
 _atom_site_occupancy
  La3+  La0  1  0.87342519  0.74856382  0.93362214  1
  La3+  La1  1  0.13927252  -0.00708104  0.43044083  1
  La3+  La2  1  0.00346791  0.12847167  0.06888631  1
  La3+  La3  1  0.76669987  0.87283662  0.58087371  1
  La3+  La4  1  0.74525261  0.63439428  0.07868421  1
  La3+  La5  1  0.13402906  0.48838234  0.42367675  1
  La3+  La6  1  0.36622463  0.75656357  0.90197046  1
  La3+  La7  1  0.63757755  0.74452003  0.44106996  1
  La3+  La8  1  0.38647961  0.73866589  0.43388020  1
  La3+  La9  1  0.13650079  0.74047362  0.43645699  1
  La3+  La10  1  0.00365235  0.64110158  0.08610123  1
  La3+  La11  1  0.87004002  0.50364539  0.93680182  1
  La3+  La12  1  0.26510014  0.61778275  0.57334032  1
  La3+  La13  1  0.88015951  0.74081325  0.42792072  1
  La3+  La14  1  0.26682266  0.36381157  0.57939474  1
  La3+  La15  1  0.50533139  0.12712891  0.07398512  1
  La3+  La16  1  0.63057679  0.01367801  0.92012658  1
  La3+  La17  1  0.74529204  0.38663115  0.08318044  1
  Ce3+  Ce18  1  0.25241665  0.87986726  0.05472009  1
  Ce3+  Ce19  1  0.12451225  0.74153064  0.93382452  1
  Ce3+  Ce20  1  0.12549449  0.25782178  0.95060280  1
  Ce3+  Ce21  1  0.88932946  -0.01256201  0.42796591  1
  Ce3+  Ce22  1  0.87361359  0.00682215  0.94008644  1
  Ce3+  Ce23  1  0.50961713  0.11448425  0.55210769  1
  Ce3+  Ce24  1  0.25239992  0.13247118  0.08366972  1
  Ce3+  Ce25  1  0.00579570  0.86595961  0.55622898  1
  Ce3+  Ce26  1  0.62589855  0.25544742  0.94497887  1
  Ce3+  Ce27  1  -0.00185943  0.38397231  0.07086295  1
  Ce3+  Ce28  1  0.12584179  0.50960140  0.95547957  1
  Ce3+  Ce29  1  0.75637424  0.13086815  0.06816019  1
  Ce3+  Ce30  1  0.14170845  0.24097214  0.44037377  1
  Ce3+  Ce31  1  0.51570714  0.61836675  0.56109374  1
  Ce3+  Ce32  1  0.00011177  0.87439599  0.05210856  1
  Ce3+  Ce33  1  0.75958940  0.11742792  0.55557775  1
  Ce3+  Ce34  1  0.25227014  0.63476312  0.06794731  1
  Ce3+  Ce35  1  0.51037356  0.86698580  0.56509775  1
  Ce3+  Ce36  1  0.87592120  0.26234039  0.94526724  1
  Ce3+  Ce37  1  0.50125417  0.38255677  0.06321156  1
  Pr3+  Pr38  1  0.00967995  0.11745065  0.55442396  1
  Pr3+  Pr39  1  0.88332696  0.24044232  0.42832997  1
  Pr3+  Pr40  1  0.37313510  0.50727977  0.93421208  1
  Pr3+  Pr41  1  0.62572615  0.75618725  0.92982688  1
  Pr3+  Pr42  1  0.51192153  0.36829692  0.55930804  1
  Pr3+  Pr43  1  0.38933312  0.24241903  0.43311935  1
  Pr3+  Pr44  1  0.25979291  0.86527446  0.56741253  1
  Pr3+  Pr45  1  0.74149276  0.88143811  0.06612861  1
  Pr3+  Pr46  1  0.77287229  0.60819810  0.57379146  1
  Pr3+  Pr47  1  0.87852921  0.48887425  0.40381244  1
  Pr3+  Pr48  1  0.49743219  0.63310382  0.06020453  1
  Pr3+  Pr49  1  0.00849308  0.36986092  0.55202866  1
  Nd3+  Nd50  1  0.63422843  0.23782065  0.43287603  1
  Nd3+  Nd51  1  0.62276055  0.50580722  0.94103951  1
  Nd3+  Nd52  1  0.50275494  0.88315446  0.04635082  1
  Nd3+  Nd53  1  0.12553566  0.00544980  0.94224928  1
  Nd3+  Nd54  1  0.26115130  0.11303543  0.56616998  1
  Nd3+  Nd55  1  0.37299140  0.01057307  0.93779292  1
  Nd3+  Nd56  1  0.25241462  0.38301015  0.07305540  1
  Nd3+  Nd57  1  0.37211943  0.25606437  0.95166782  1
  Sm3+  Sm58  1  0.63462568  0.49932379  0.42832131  1
  Sm3+  Sm59  1  0.63811679  -0.01529333  0.43939417  1
  Sm3+  Sm60  1  0.38284446  0.49419955  0.43481651  1
  Sm3+  Sm61  1  0.00689889  0.61246837  0.54642525  1
  Sm3+  Sm62  1  0.38337372  -0.01266932  0.42930966  1
  Sm3+  Sm63  1  0.76035124  0.36845187  0.54858790  1
  Bi2+  Bi64  1  -0.11460988  0.10727048  0.31438474  1
  Bi2+  Bi65  1  -0.07038300  0.13267715  0.81116737  1
  Bi2+  Bi66  1  0.00263686  0.26642222  0.30015404  1
  Bi2+  Bi67  1  0.01177629  0.38719995  0.80266663  1
  Bi2+  Bi68  1  0.01832660  0.61313976  0.28281725  1
  Bi2+  Bi69  1  0.01274508  0.60761114  0.78302002  1
  Bi2+  Bi70  1  0.01459178  0.85786687  0.29407780  1
  Bi2+  Bi71  1  -0.00350983  0.93812670  0.79484317  1
  Bi2+  Bi72  1  0.26157425  0.10915289  0.27670997  1
  Bi2+  Bi73  1  0.24832911  0.12887302  0.80562190  1
  Bi2+  Bi74  1  0.29979144  0.31121277  0.31535829  1
  Bi2+  Bi75  1  0.32815013  0.39729449  0.82042722  1
  Bi2+  Bi76  1  0.27928445  0.58163269  0.26984546  1
  Bi2+  Bi77  1  0.24475169  0.56822723  0.79298559  1
  Bi2+  Bi78  1  0.26459658  0.85529380  0.29793389  1
  Bi2+  Bi79  1  0.24597463  0.88879735  0.78724600  1
  Bi2+  Bi80  1  0.50868035  0.07698963  0.27650261  1
  Bi2+  Bi81  1  0.53208341  0.20781580  0.77569706  1
  Bi2+  Bi82  1  0.46490421  0.42391164  0.31062175  1
  Bi2+  Bi83  1  0.53779177  0.38892618  0.82315116  1
  Bi2+  Bi84  1  0.48687380  0.66627996  0.28505224  1
  Bi2+  Bi85  1  0.51719218  0.56686579  0.77830702  1
  Bi2+  Bi86  1  0.52107623  0.88105822  0.28138611  1
  Bi2+  Bi87  1  0.47248453  0.94978361  0.76039263  1
  Bi2+  Bi88  1  0.68532838  0.09757869  0.32784498  1
  Bi2+  Bi89  1  0.74549285  0.20735082  0.78713868  1
  Bi2+  Bi90  1  0.65344634  0.37285355  0.27276917  1
  Bi2+  Bi91  1  0.74877614  0.40392042  0.78669860  1
  Bi2+  Bi92  1  0.73618812  0.61482624  0.28598602  1
  Bi2+  Bi93  1  0.76541544  0.65491181  0.80163551  1
  Bi2+  Bi94  1  0.74426747  0.90273824  0.28725589  1
  Bi2+  Bi95  1  0.74087452  0.91054077  0.78558943  1
  Bi2+  Bi96  1  0.09524492  0.01596797  0.24181429  1
  Bi2+  Bi97  1  0.12039737  -0.04499708  0.70215644  1
  Bi2+  Bi98  1  0.00935753  0.20988076  0.19582318  1
  Bi2+  Bi99  1  0.08758195  0.21379729  0.75973563  1
  Bi2+  Bi100  1  0.18281972  0.42611692  0.21940105  1
  Bi2+  Bi101  1  0.12136048  0.46760671  0.72222665  1
  Bi2+  Bi102  1  0.19326315  0.76222347  0.20796370  1
  Bi2+  Bi103  1  0.07009408  0.77933125  0.74186920  1
  Bi2+  Bi104  1  0.37004229  -0.02206164  0.21273812  1
  Bi2+  Bi105  1  0.34080142  0.09708883  0.70348423  1
  Bi2+  Bi106  1  0.38674316  0.32940758  0.21222942  1
  Bi2+  Bi107  1  0.33873896  0.28992724  0.72437519  1
  Bi2+  Bi108  1  0.35235245  0.51734405  0.16571353  1
  Bi2+  Bi109  1  0.37071601  0.50047357  0.70864861  1
  Bi2+  Bi110  1  0.38097319  0.70976773  0.18946815  1
  Bi2+  Bi111  1  0.36339885  0.74690651  0.70556140  1
  Bi2+  Bi112  1  0.70980701  -0.01332933  0.18988781  1
  Bi2+  Bi113  1  0.64370664  0.10847206  0.70166310  1
  Bi2+  Bi114  1  0.55073621  0.22894977  0.20619225  1
  Bi2+  Bi115  1  0.72494735  0.28595099  0.67190464  1
  Bi2+  Bi116  1  0.54835800  0.51171341  0.21418422  1
  Bi2+  Bi117  1  0.59557552  0.42312646  0.71193203  1
  Bi2+  Bi118  1  0.62228229  0.77259041  0.20364859  1
  Bi2+  Bi119  1  0.60017945  0.74191560  0.71767482  1
  Bi2+  Bi120  1  0.90580058  -0.00736115  0.21334634  1
  Bi2+  Bi121  1  0.90469595  0.03714116  0.70889559  1
  Bi2+  Bi122  1  0.76549100  0.21738874  0.25054565  1
  Bi2+  Bi123  1  0.91575091  0.25164858  0.70321668  1
  Bi2+  Bi124  1  0.87337112  0.44624532  0.21185197  1
  Bi2+  Bi125  1  0.89334940  0.48822019  0.70274233  1
  Bi2+  Bi126  1  0.89527854  0.76214194  0.21239442  1
  Bi2+  Bi127  1  0.84848481  0.73948926  0.69541534  1
  S2-  S128  1  -0.11950919  0.11949799  0.14263529  1
  S2-  S129  1  0.03817694  0.08602151  0.65296406  1
  S2-  S130  1  0.02992273  0.38779886  0.17033892  1
  S2-  S131  1  0.00767746  0.37315485  0.65438997  1
  S2-  S132  1  -0.05012703  0.60294527  0.18508341  1
  S2-  S133  1  -0.07076153  0.61535050  0.63647478  1
  S2-  S134  1  0.00037964  0.80818230  0.14221115  1
  S2-  S135  1  -0.08345273  0.85346124  0.64086044  1
  S2-  S136  1  0.12395865  0.11076251  0.15148545  1
  S2-  S137  1  0.24793428  0.22481477  0.64645410  1
  S2-  S138  1  0.23701771  0.29883418  0.16202652  1
  S2-  S139  1  0.22819518  0.49587970  0.64463911  1
  S2-  S140  1  0.15342892  0.63797246  0.14872090  1
  S2-  S141  1  0.24128807  0.74705540  0.64614151  1
  S2-  S142  1  0.24781592  0.90144231  0.15266910  1
  S2-  S143  1  0.26300176  0.99025009  0.64074253  1
  S2-  S144  1  0.38118464  0.11039578  0.15005846  1
  S2-  S145  1  0.49422914  0.12418364  0.65026923  1
  S2-  S146  1  0.58891564  0.37645926  0.14795392  1
  S2-  S147  1  0.41632920  0.36870834  0.64358291  1
  S2-  S148  1  0.59347522  0.64057152  0.14575739  1
  S2-  S149  1  0.42752816  0.62716788  0.64531061  1
  S2-  S150  1  0.58481251  0.90196307  0.13532599  1
  S2-  S151  1  0.48199852  0.86081628  0.66474851  1
  S2-  S152  1  0.64028355  0.12605235  0.14375823  1
  S2-  S153  1  0.77139316  0.03493676  0.64087316  1
  S2-  S154  1  0.80965886  0.31310156  0.17101554  1
  S2-  S155  1  0.78389254  0.45458937  0.63425194  1
  S2-  S156  1  0.76321388  0.51678158  0.15967604  1
  S2-  S157  1  0.69799952  0.64524519  0.66924145  1
  S2-  S158  1  0.76897650  0.76985786  0.14756857  1
  S2-  S159  1  0.70963209  0.84850289  0.68391165  1
  S2-  S160  1  0.03486481  -0.00431009  0.34675481  1
  S2-  S161  1  0.13805638  0.00683939  0.84229094  1
  S2-  S162  1  0.15602942  0.20931324  0.34334227  1
  S2-  S163  1  0.12706515  0.28718137  0.85349480  1
  S2-  S164  1  0.22246984  0.46080899  0.33365059  1
  S2-  S165  1  0.11960886  0.58499954  0.86730580  1
  S2-  S166  1  0.12426782  0.72739097  0.33502599  1
  S2-  S167  1  0.20957849  0.77315282  0.85002421  1
  S2-  S168  1  0.25821145  -0.00692594  0.35383355  1
  S2-  S169  1  0.36681447  0.01286460  0.83672908  1
  S2-  S170  1  0.38996467  0.15643605  0.34182077  1
  S2-  S171  1  0.36212298  0.23234456  0.85242389  1
  S2-  S172  1  0.37545479  0.61453042  0.35735251  1
  S2-  S173  1  0.38878604  0.60682731  0.84888199  1
  S2-  S174  1  0.39885389  0.85485147  0.35670929  1
  S2-  S175  1  0.40455902  0.81336149  0.80290739  1
  S2-  S176  1  0.63420648  -0.13241415  0.36277103  1
  S2-  S177  1  0.58658894  -0.05428044  0.82544809  1
  S2-  S178  1  0.56857358  0.29523481  0.34626632  1
  S2-  S179  1  0.61664615  0.16475316  0.85954171  1
  S2-  S180  1  0.73018576  0.48399226  0.34348350  1
  S2-  S181  1  0.72282601  0.51900122  0.85897349  1
  S2-  S182  1  0.61696576  0.64366853  0.35460182  1
  S2-  S183  1  0.62310560  0.72443920  0.82763257  1
  S2-  S184  1  0.87061777  -0.13333637  0.35535537  1
  S2-  S185  1  0.78120341  0.01099154  0.85623356  1
  S2-  S186  1  0.87151964  0.33368820  0.34264588  1
  S2-  S187  1  0.87890430  0.36469895  0.86425149  1
  S2-  S188  1  1.01933136  0.49042814  0.34000131  1
  S2-  S189  1  0.90381208  0.61968266  0.86127883  1
  S2-  S190  1  0.87194376  0.64339912  0.33755297  1
  S2-  S191  1  0.82979956  0.80481500  0.83388278  1
  S2-  S192  1  0.01028554  0.12081230  0.44839314  1
  S2-  S193  1  0.00107003  0.13146262  0.95627592  1
  S2-  S194  1  0.01217830  0.36000205  0.44599148  1
  S2-  S195  1  0.00438319  0.38413591  0.96429746  1
  S2-  S196  1  0.00864047  0.61566874  0.44409302  1
  S2-  S197  1  0.00059915  0.62857377  0.97124841  1
  S2-  S198  1  0.01204035  0.86446667  0.45171080  1
  S2-  S199  1  0.00221711  0.87733270  0.94444911  1
  S2-  S200  1  0.26662631  0.11712143  0.45746967  1
  S2-  S201  1  0.24782457  0.13098944  0.96313750  1
  S2-  S202  1  0.26578373  0.36702748  0.45313191  1
  S2-  S203  1  0.25025502  0.38345501  0.96285281  1
  S2-  S204  1  0.25717455  0.61325490  0.45661264  1
  S2-  S205  1  0.25728079  0.63335045  0.95996515  1
  S2-  S206  1  0.26049088  0.86425127  0.45847945  1
  S2-  S207  1  0.25222221  0.88207203  0.94906967  1
  S2-  S208  1  0.51212660  0.10876250  0.44581056  1
  S2-  S209  1  0.49606266  0.13233103  0.95978315  1
  S2-  S210  1  0.51066191  0.37318123  0.45331345  1
  S2-  S211  1  0.49761194  0.38015477  0.95611991  1
  S2-  S212  1  0.51039229  0.61327428  0.45751443  1
  S2-  S213  1  0.49982142  0.63385983  0.95125755  1
  S2-  S214  1  0.50919285  0.87026088  0.46068111  1
  S2-  S215  1  0.49360097  0.87835024  0.94021455  1
  S2-  S216  1  0.75958625  0.11378549  0.45073285  1
  S2-  S217  1  0.75731955  0.13742153  0.95986898  1
  S2-  S218  1  0.75205339  0.36479648  0.44645726  1
  S2-  S219  1  0.74467578  0.37995008  0.96460937  1
  S2-  S220  1  0.75802087  0.61376147  0.45466611  1
  S2-  S221  1  0.74429060  0.63169013  0.96222313  1
  S2-  S222  1  0.76224814  0.87077209  0.46420811  1
  S2-  S223  1  0.74939498  0.87909500  0.95423385  1
  S2-  S224  1  0.12547750  0.00051731  0.04721519  1
  S2-  S225  1  0.13184269  -0.00989513  0.54001925  1
  S2-  S226  1  0.12725910  0.25946690  0.05435363  1
  S2-  S227  1  0.13499963  0.24382573  0.54588303  1
  S2-  S228  1  0.12710185  0.50392879  0.05895759  1
  S2-  S229  1  0.13134472  0.49290832  0.53747127  1
  S2-  S230  1  0.13040036  0.75672951  0.04087329  1
  S2-  S231  1  0.12717509  0.73804718  0.54458025  1
  S2-  S232  1  0.37581879  0.00492581  0.04391911  1
  S2-  S233  1  0.38740481  -0.01002380  0.53999189  1
  S2-  S234  1  0.37728009  0.25843947  0.05682318  1
  S2-  S235  1  0.38851138  0.23928181  0.54064456  1
  S2-  S236  1  0.37542633  0.50529731  0.04294410  1
  S2-  S237  1  0.38792037  0.49354050  0.53981584  1
  S2-  S238  1  0.37802053  0.75995731  0.05040458  1
  S2-  S239  1  0.38921106  0.74396312  0.54277492  1
  S2-  S240  1  0.62825945  0.00901542  0.03240975  1
  S2-  S241  1  0.63398424  -0.00937045  0.54549052  1
  S2-  S242  1  0.62707730  0.25666375  0.04776721  1
  S2-  S243  1  0.63469496  0.24218307  0.54021627  1
  S2-  S244  1  0.62146317  0.50766451  0.04564544  1
  S2-  S245  1  0.63649749  0.49257264  0.54231566  1
  S2-  S246  1  0.62154355  0.75689900  0.03751470  1
  S2-  S247  1  0.63889794  0.74408455  0.55233758  1
  S2-  S248  1  0.87573052  -0.00307549  0.04448393  1
  S2-  S249  1  0.88795677  -0.00519165  0.53747627  1
  S2-  S250  1  0.87790046  0.26146488  0.04927629  1
  S2-  S251  1  0.88248029  0.24324124  0.54103037  1
  S2-  S252  1  0.87740421  0.50820818  0.05341245  1
  S2-  S253  1  0.88604740  0.48826428  0.52739588  1
  S2-  S254  1  0.87248106  0.75622372  0.04255240  1
  S2-  S255  1  0.88406708  0.73870054  0.53709589  1
