# generated using pymatgen
data_La9Ce10Pr6Nd4Sm3(BiS2)32
_symmetry_space_group_name_H-M   'P 1'
_cell_length_a   16.16559813
_cell_length_b   16.13875559
_cell_length_c   27.16831451
_cell_angle_alpha   89.87351379
_cell_angle_beta   90.12947163
_cell_angle_gamma   89.77637760
_symmetry_Int_Tables_number   1
_chemical_formula_structural   La9Ce10Pr6Nd4Sm3(BiS2)32
_chemical_formula_sum   'La18 Ce20 Pr12 Nd8 Sm6 Bi64 S128'
_cell_volume   7087.92373128
_cell_formula_units_Z   2
loop_
 _symmetry_equiv_pos_site_id
 _symmetry_equiv_pos_as_xyz
  1  'x, y, z'
loop_
 _atom_type_symbol
 _atom_type_oxidation_number
  La3+  3.0
  Ce3+  3.0
  Pr3+  3.0
  Nd3+  3.0
  Sm3+  3.0
  Bi2+  2.0
  S2-  -2.0
loop_
 _atom_site_type_symbol
 _atom_site_label
 _atom_site_symmetry_multiplicity
 _atom_site_fract_x
 _atom_site_fract_y
 _atom_site_fract_z
 _atom_site_occupancy
  La3+  La0  1  0.37499036  0.25624424  0.93306152  1
  La3+  La1  1  0.00056053  0.37376402  0.58083520  1
  La3+  La2  1  0.10877941  0.50980707  0.43488591  1
  La3+  La3  1  0.63171328  0.74841760  0.94781906  1
  La3+  La4  1  0.24340536  0.63038991  0.56235685  1
  La3+  La5  1  0.61022659  0.75523118  0.40000927  1
  La3+  La6  1  0.23890621  0.88184172  0.58809660  1
  La3+  La7  1  0.75848199  0.62656955  0.09152162  1
  La3+  La8  1  0.24896768  0.37302126  0.07018498  1
  La3+  La9  1  0.87214498  0.50502481  0.91322937  1
  La3+  La10  1  0.13272099  -0.00617611  0.91785434  1
  La3+  La11  1  0.87120651  0.71758652  0.37730109  1
  La3+  La12  1  0.75771596  0.87870085  0.08460129  1
  La3+  La13  1  0.61910683  0.50122108  0.42903325  1
  La3+  La14  1  0.75202588  0.37952128  0.06928176  1
  La3+  La15  1  0.12412140  0.49665924  0.92347310  1
  La3+  La16  1  0.11487789  0.25564492  0.42812388  1
  La3+  La17  1  0.11501650  0.76579905  0.43695707  1
  Ce3+  Ce18  1  0.37896811  0.49550938  0.94679395  1
  Ce3+  Ce19  1  0.49749566  0.87733639  0.56154590  1
  Ce3+  Ce20  1  0.86832219  0.25063937  0.44016840  1
  Ce3+  Ce21  1  -0.00189382  0.38204976  0.05329292  1
  Ce3+  Ce22  1  0.61823331  0.00103940  0.43323803  1
  Ce3+  Ce23  1  0.50379878  0.61554373  0.07066851  1
  Ce3+  Ce24  1  -0.00931101  0.87950100  0.56905235  1
  Ce3+  Ce25  1  0.24233004  0.37632545  0.55756222  1
  Ce3+  Ce26  1  0.24676151  0.61859346  0.06741075  1
  Ce3+  Ce27  1  0.24972209  0.87804722  0.05764344  1
  Ce3+  Ce28  1  0.24508656  0.12581043  0.07040619  1
  Ce3+  Ce29  1  0.87350504  0.25127396  0.93882948  1
  Ce3+  Ce30  1  0.87681558  -0.00418254  0.93440174  1
  Ce3+  Ce31  1  0.37830878  0.74584220  0.95129937  1
  Ce3+  Ce32  1  0.61217356  0.25265991  0.42117225  1
  Ce3+  Ce33  1  0.24143843  0.12780097  0.56477543  1
  Ce3+  Ce34  1  0.49472961  0.12879913  0.55462381  1
  Ce3+  Ce35  1  0.49738798  0.12504172  0.06025336  1
  Ce3+  Ce36  1  0.36601016  0.50403525  0.44282419  1
  Ce3+  Ce37  1  0.36397727  0.25312943  0.43420345  1
  Pr3+  Pr38  1  0.13421263  0.74205883  0.92580245  1
  Pr3+  Pr39  1  0.75352556  0.12223076  0.06464372  1
  Pr3+  Pr40  1  0.00529571  0.62933710  0.05600029  1
  Pr3+  Pr41  1  0.62646285  0.25053420  0.93827324  1
  Pr3+  Pr42  1  0.49925783  0.87611343  0.06970739  1
  Pr3+  Pr43  1  0.62617354  -0.00113129  0.93645373  1
  Pr3+  Pr44  1  -0.00798559  0.62828554  0.56268041  1
  Pr3+  Pr45  1  0.74337280  0.62828010  0.55508080  1
  Pr3+  Pr46  1  0.74213571  0.12691143  0.55913410  1
  Pr3+  Pr47  1  0.36803994  0.75564876  0.44540806  1
  Pr3+  Pr48  1  0.36608720  -0.00077805  0.44380501  1
  Pr3+  Pr49  1  0.86652025  -0.00697578  0.42924228  1
  Nd3+  Nd50  1  0.86479979  0.50133632  0.45072162  1
  Nd3+  Nd51  1  0.62994335  0.49493056  0.93705936  1
  Nd3+  Nd52  1  0.74435240  0.87448974  0.54812127  1
  Nd3+  Nd53  1  0.50467323  0.36289258  0.07709423  1
  Nd3+  Nd54  1  0.01121268  0.87644297  0.05597780  1
  Nd3+  Nd55  1  0.38013150  0.00186760  0.93025168  1
  Nd3+  Nd56  1  0.49437480  0.37594606  0.55725778  1
  Nd3+  Nd57  1  0.00451185  0.12312618  0.05466192  1
  Sm3+  Sm58  1  0.87688448  0.75332077  0.93918562  1
  Sm3+  Sm59  1  -0.00726670  0.12804652  0.55507309  1
  Sm3+  Sm60  1  0.74044460  0.37501429  0.56043386  1
  Sm3+  Sm61  1  0.12480861  0.24787071  0.94109456  1
  Sm3+  Sm62  1  0.11938162  0.00057092  0.44856046  1
  Sm3+  Sm63  1  0.49837788  0.62675454  0.55796701  1
  Bi2+  Bi64  1  -0.02038507  0.14025677  0.27971709  1
  Bi2+  Bi65  1  -0.06670190  0.10532590  0.77225385  1
  Bi2+  Bi66  1  0.04345809  0.34767132  0.28218948  1
  Bi2+  Bi67  1  -0.01536584  0.35757254  0.78520100  1
  Bi2+  Bi68  1  0.01217120  0.56944891  0.29397681  1
  Bi2+  Bi69  1  0.01894346  0.64171525  0.79217351  1
  Bi2+  Bi70  1  0.03528909  0.86567150  0.29298083  1
  Bi2+  Bi71  1  -0.01325057  0.89697606  0.79087048  1
  Bi2+  Bi72  1  0.23822884  0.11547799  0.28724939  1
  Bi2+  Bi73  1  0.26905244  0.14836858  0.79496464  1
  Bi2+  Bi74  1  0.30822987  0.36320978  0.28793542  1
  Bi2+  Bi75  1  0.23395113  0.37543300  0.79058312  1
  Bi2+  Bi76  1  0.26195703  0.66455871  0.28906608  1
  Bi2+  Bi77  1  0.30384167  0.60603081  0.79114787  1
  Bi2+  Bi78  1  0.30097859  0.84726035  0.32457529  1
  Bi2+  Bi79  1  0.25950977  0.87255372  0.78278219  1
  Bi2+  Bi80  1  0.57678195  0.13301881  0.30285944  1
  Bi2+  Bi81  1  0.57181445  0.13510368  0.81509338  1
  Bi2+  Bi82  1  0.49135807  0.37131506  0.28702464  1
  Bi2+  Bi83  1  0.47993792  0.39312102  0.78800981  1
  Bi2+  Bi84  1  0.47790647  0.65341893  0.27485800  1
  Bi2+  Bi85  1  0.50308462  0.58629475  0.79256374  1
  Bi2+  Bi86  1  0.45547358  0.93688045  0.27149322  1
  Bi2+  Bi87  1  0.52301068  0.94678906  0.75910289  1
  Bi2+  Bi88  1  0.76760528  0.14186767  0.34075226  1
  Bi2+  Bi89  1  0.76043221  0.09161398  0.83331239  1
  Bi2+  Bi90  1  0.76673644  0.32710590  0.29644212  1
  Bi2+  Bi91  1  0.72359872  0.39778480  0.79141161  1
  Bi2+  Bi92  1  0.73856055  0.58541114  0.28837017  1
  Bi2+  Bi93  1  0.68933863  0.65998121  0.78268827  1
  Bi2+  Bi94  1  0.73845503  0.97031376  0.29458687  1
  Bi2+  Bi95  1  0.71060119  0.90030824  0.80700556  1
  Bi2+  Bi96  1  0.16910651  -0.01119551  0.21070437  1
  Bi2+  Bi97  1  0.11238866  0.03586686  0.70685654  1
  Bi2+  Bi98  1  0.12922440  0.22146060  0.21058790  1
  Bi2+  Bi99  1  0.15923543  0.22875785  0.70660351  1
  Bi2+  Bi100  1  0.08152027  0.53020434  0.18831604  1
  Bi2+  Bi101  1  0.09898770  0.50785233  0.69959845  1
  Bi2+  Bi102  1  0.15481576  0.77414190  0.21779745  1
  Bi2+  Bi103  1  0.15892337  0.75170263  0.71143069  1
  Bi2+  Bi104  1  0.35276743  -0.02151785  0.16523840  1
  Bi2+  Bi105  1  0.38335466  0.06189820  0.71652503  1
  Bi2+  Bi106  1  0.37478126  0.16726426  0.20998767  1
  Bi2+  Bi107  1  0.35447398  0.26397390  0.70945295  1
  Bi2+  Bi108  1  0.35576831  0.56803145  0.20439016  1
  Bi2+  Bi109  1  0.34712680  0.46509813  0.71257409  1
  Bi2+  Bi110  1  0.37062858  0.78832662  0.20568354  1
  Bi2+  Bi111  1  0.41673595  0.75762655  0.75852096  1
  Bi2+  Bi112  1  0.60493429  0.02387500  0.20806989  1
  Bi2+  Bi113  1  0.70551797  0.00346630  0.70779824  1
  Bi2+  Bi114  1  0.67336867  0.22114133  0.21598521  1
  Bi2+  Bi115  1  0.59406074  0.22175408  0.71236110  1
  Bi2+  Bi116  1  0.61616400  0.48251426  0.20189619  1
  Bi2+  Bi117  1  0.61528668  0.49720321  0.68641431  1
  Bi2+  Bi118  1  0.64059242  0.76311642  0.22242024  1
  Bi2+  Bi119  1  0.61592742  0.74832518  0.68566648  1
  Bi2+  Bi120  1  0.88537943  0.00538174  0.21818380  1
  Bi2+  Bi121  1  0.88500842  -0.07081819  0.69488198  1
  Bi2+  Bi122  1  0.86615661  0.19830475  0.18941851  1
  Bi2+  Bi123  1  0.79027682  0.23241617  0.74736682  1
  Bi2+  Bi124  1  0.88307864  0.39404657  0.21483583  1
  Bi2+  Bi125  1  0.85526710  0.51944193  0.70491895  1
  Bi2+  Bi126  1  0.93936376  0.75213672  0.19032404  1
  Bi2+  Bi127  1  0.86365447  0.74991949  0.75452270  1
  S2-  S128  1  0.10515810  0.10163138  0.13706654  1
  S2-  S129  1  0.02363000  0.15045750  0.65172518  1
  S2-  S130  1  0.02767280  0.37605709  0.15073835  1
  S2-  S131  1  -0.04605728  0.39052495  0.68174710  1
  S2-  S132  1  -0.07432385  0.60985209  0.14777269  1
  S2-  S133  1  -0.01141150  0.61509374  0.66451643  1
  S2-  S134  1  -0.07856495  0.90376998  0.14164588  1
  S2-  S135  1  0.08852048  0.87332529  0.65268989  1
  S2-  S136  1  0.26131820  0.25097567  0.14585667  1
  S2-  S137  1  0.24875630  0.03182116  0.64908469  1
  S2-  S138  1  0.23295651  0.48990574  0.14704063  1
  S2-  S139  1  0.15137116  0.36929348  0.64077776  1
  S2-  S140  1  0.12663214  0.66189729  0.13634540  1
  S2-  S141  1  0.21496776  0.60483340  0.66150797  1
  S2-  S142  1  0.13706811  0.87878208  0.13223637  1
  S2-  S143  1  0.29824484  0.80733418  0.67643015  1
  S2-  S144  1  0.48535829  0.21262352  0.14497313  1
  S2-  S145  1  0.51135224  0.11410581  0.65246967  1
  S2-  S146  1  0.46194144  0.45811694  0.15950830  1
  S2-  S147  1  0.54280211  0.36266404  0.65332348  1
  S2-  S148  1  0.59662692  0.63331815  0.15511436  1
  S2-  S149  1  0.50082445  0.62548776  0.65648382  1
  S2-  S150  1  0.59238833  0.87103890  0.15680887  1
  S2-  S151  1  0.51583228  0.87078883  0.65972283  1
  S2-  S152  1  0.74777390  0.02204382  0.14851186  1
  S2-  S153  1  0.74009098  0.16268137  0.65767044  1
  S2-  S154  1  0.63940673  0.34442311  0.14777647  1
  S2-  S155  1  0.74837015  0.40984209  0.65798064  1
  S2-  S156  1  0.77109013  0.48581921  0.15595920  1
  S2-  S157  1  0.74083921  0.62304287  0.65658555  1
  S2-  S158  1  0.76947625  0.75867572  0.16276401  1
  S2-  S159  1  0.73642243  0.86445160  0.64964319  1
  S2-  S160  1  0.14285699  -0.09228197  0.36600418  1
  S2-  S161  1  0.05250191  0.04586353  0.82935927  1
  S2-  S162  1  0.24447178  0.25272688  0.35642473  1
  S2-  S163  1  0.11512913  0.29244494  0.84422141  1
  S2-  S164  1  0.13247054  0.45829174  0.33944315  1
  S2-  S165  1  0.16418078  0.61846435  0.84989429  1
  S2-  S166  1  0.04747555  0.70590425  0.34927310  1
  S2-  S167  1  0.12282177  0.83941549  0.84003493  1
  S2-  S168  1  0.36110348  0.01867293  0.34235018  1
  S2-  S169  1  0.27093865  -0.00401331  0.85053484  1
  S2-  S170  1  0.47134038  0.24242340  0.35521037  1
  S2-  S171  1  0.41351120  0.18355610  0.84237845  1
  S2-  S172  1  0.38141809  0.47924961  0.34466190  1
  S2-  S173  1  0.36371292  0.39962856  0.86357181  1
  S2-  S174  1  0.44757488  0.75510323  0.35438709  1
  S2-  S175  1  0.35430339  0.76514311  0.85397884  1
  S2-  S176  1  0.59789854  -0.07997544  0.34621395  1
  S2-  S177  1  0.50847905  -0.01536207  0.85870599  1
  S2-  S178  1  0.62955349  0.38251768  0.35008184  1
  S2-  S179  1  0.60498534  0.36215094  0.85992950  1
  S2-  S180  1  0.59960221  0.59626501  0.34303236  1
  S2-  S181  1  0.72685449  0.52615453  0.85136033  1
  S2-  S182  1  0.72233859  0.74534005  0.32082579  1
  S2-  S183  1  0.61909182  0.76909695  0.84606521  1
  S2-  S184  1  0.89664815  -0.11018742  0.34684522  1
  S2-  S185  1  0.85677951  -0.12243274  0.86366705  1
  S2-  S186  1  0.97624804  0.26392812  0.36175190  1
  S2-  S187  1  0.86282955  0.33731592  0.85229627  1
  S2-  S188  1  0.87000560  0.53217651  0.35242089  1
  S2-  S189  1  1.00445804  0.48878856  0.84085029  1
  S2-  S190  1  0.88546889  0.67741385  0.27094366  1
  S2-  S191  1  0.88834227  0.66592826  0.84896172  1
  S2-  S192  1  -0.00794348  0.11861067  0.45047687  1
  S2-  S193  1  -0.00082864  0.12692558  0.94776715  1
  S2-  S194  1  -0.00841000  0.38100544  0.46330369  1
  S2-  S195  1  -0.00109574  0.37217653  0.95007209  1
  S2-  S196  1  -0.01721615  0.63306442  0.45628750  1
  S2-  S197  1  0.00176463  0.62681878  0.94908082  1
  S2-  S198  1  -0.00614038  0.88400380  0.46355629  1
  S2-  S199  1  0.00600598  0.87356694  0.94950407  1
  S2-  S200  1  0.24051730  0.12401540  0.45735188  1
  S2-  S201  1  0.25077363  0.12949164  0.95149738  1
  S2-  S202  1  0.23928877  0.38377049  0.45415938  1
  S2-  S203  1  0.24286608  0.37422166  0.95864590  1
  S2-  S204  1  0.24041552  0.63215712  0.45132888  1
  S2-  S205  1  0.25840724  0.61899470  0.95917228  1
  S2-  S206  1  0.24514559  0.87915604  0.47329581  1
  S2-  S207  1  0.25810620  0.87207640  0.95344481  1
  S2-  S208  1  0.49216525  0.12395275  0.45143473  1
  S2-  S209  1  0.50249727  0.12658557  0.95611469  1
  S2-  S210  1  0.48841665  0.37893599  0.45276470  1
  S2-  S211  1  0.50365589  0.37446671  0.96675831  1
  S2-  S212  1  0.49181053  0.62678197  0.45391550  1
  S2-  S213  1  0.50351663  0.62043338  0.95679681  1
  S2-  S214  1  0.49514541  0.87806001  0.45578530  1
  S2-  S215  1  0.49994489  0.87247842  0.96234346  1
  S2-  S216  1  0.74268144  0.12637603  0.45330516  1
  S2-  S217  1  0.75144765  0.12479568  0.95671092  1
  S2-  S218  1  0.74520872  0.37253611  0.45501504  1
  S2-  S219  1  0.75276330  0.37403993  0.95943204  1
  S2-  S220  1  0.74435375  0.63220177  0.44717656  1
  S2-  S221  1  0.75489078  0.62697214  0.95625600  1
  S2-  S222  1  0.73963083  0.87347093  0.44441694  1
  S2-  S223  1  0.74916711  0.87793959  0.96519872  1
  S2-  S224  1  0.13042629  0.00282067  0.02893968  1
  S2-  S225  1  0.11431250  0.00627702  0.55048708  1
  S2-  S226  1  0.12141939  0.25208949  0.04346774  1
  S2-  S227  1  0.11719268  0.24860601  0.53926817  1
  S2-  S228  1  0.12423568  0.49923366  0.03581604  1
  S2-  S229  1  0.11789723  0.50492606  0.54406386  1
  S2-  S230  1  0.13431028  0.75170445  0.03118353  1
  S2-  S231  1  0.11640628  0.75248258  0.54905670  1
  S2-  S232  1  0.37378850  0.00293326  0.04131758  1
  S2-  S233  1  0.37235958  0.00294045  0.55111496  1
  S2-  S234  1  0.37403542  0.24812777  0.04124417  1
  S2-  S235  1  0.36772030  0.25275948  0.54698170  1
  S2-  S236  1  0.37772199  0.49684587  0.04902429  1
  S2-  S237  1  0.37048152  0.50329085  0.55164032  1
  S2-  S238  1  0.37621931  0.74611104  0.05847942  1
  S2-  S239  1  0.37330047  0.75049851  0.55348228  1
  S2-  S240  1  0.62263183  0.00094697  0.04560813  1
  S2-  S241  1  0.62037569  0.00215831  0.54377866  1
  S2-  S242  1  0.62919391  0.24258688  0.04396560  1
  S2-  S243  1  0.61950559  0.25356371  0.53975305  1
  S2-  S244  1  0.62669924  0.50079901  0.04651134  1
  S2-  S245  1  0.61958009  0.49979773  0.54135195  1
  S2-  S246  1  0.62613939  0.74850457  0.05305946  1
  S2-  S247  1  0.61818759  0.75077507  0.54621621  1
  S2-  S248  1  0.88084116  0.00343888  0.03943384  1
  S2-  S249  1  0.86788650  0.00447262  0.54437549  1
  S2-  S250  1  0.87760613  0.24819275  0.04752162  1
  S2-  S251  1  0.86887449  0.25383425  0.55095092  1
  S2-  S252  1  0.87676459  0.50273637  0.04138596  1
  S2-  S253  1  0.86840135  0.49715887  0.55560129  1
  S2-  S254  1  0.87891389  0.75497385  0.04448035  1
  S2-  S255  1  0.86865206  0.75317467  0.55885399  1
