# generated using pymatgen
data_La9Ce10Pr6Nd4Sm3(BiS2)32
_symmetry_space_group_name_H-M   'P 1'
_cell_length_a   16.23781903
_cell_length_b   16.21356262
_cell_length_c   27.07020244
_cell_angle_alpha   90.04771940
_cell_angle_beta   89.92385174
_cell_angle_gamma   90.07785984
_symmetry_Int_Tables_number   1
_chemical_formula_structural   La9Ce10Pr6Nd4Sm3(BiS2)32
_chemical_formula_sum   'La18 Ce20 Pr12 Nd8 Sm6 Bi64 S128'
_cell_volume   7126.83524564
_cell_formula_units_Z   2
loop_
 _symmetry_equiv_pos_site_id
 _symmetry_equiv_pos_as_xyz
  1  'x, y, z'
loop_
 _atom_type_symbol
 _atom_type_oxidation_number
  La3+  3.0
  Ce3+  3.0
  Pr3+  3.0
  Nd3+  3.0
  Sm3+  3.0
  Bi2+  2.0
  S2-  -2.0
loop_
 _atom_site_type_symbol
 _atom_site_label
 _atom_site_symmetry_multiplicity
 _atom_site_fract_x
 _atom_site_fract_y
 _atom_site_fract_z
 _atom_site_occupancy
  La3+  La0  1  0.86699441  0.75894380  0.91522831  1
  La3+  La1  1  0.89776244  0.23858409  0.41395561  1
  La3+  La2  1  0.51584526  0.37756668  0.59858755  1
  La3+  La3  1  0.00831224  0.36840929  0.57061728  1
  La3+  La4  1  0.14259682  0.74436591  0.42008643  1
  La3+  La5  1  0.87979704  0.00598067  0.93919715  1
  La3+  La6  1  0.11637566  0.24084884  0.91809567  1
  La3+  La7  1  0.38078032  0.25315545  0.91303564  1
  La3+  La8  1  0.75560581  0.88231468  0.06625136  1
  La3+  La9  1  -0.00432536  0.14151411  0.08270461  1
  La3+  La10  1  0.26033268  0.37983130  0.58142078  1
  La3+  La11  1  0.63177816  0.23702348  0.43089758  1
  La3+  La12  1  0.00739888  0.86611901  0.07849473  1
  La3+  La13  1  0.75741306  0.64128374  0.07502555  1
  La3+  La14  1  0.62579495  0.51437636  0.94020826  1
  La3+  La15  1  0.25843541  0.11291712  0.58377032  1
  La3+  La16  1  0.49042808  0.63800691  0.08345940  1
  La3+  La17  1  0.12640777  0.50674380  0.92568026  1
  Ce3+  Ce18  1  0.62744748  0.00670646  0.94685236  1
  Ce3+  Ce19  1  0.13653390  0.24529839  0.44826322  1
  Ce3+  Ce20  1  0.38693960  0.74467935  0.43773315  1
  Ce3+  Ce21  1  0.25008768  0.37493841  0.04560214  1
  Ce3+  Ce22  1  0.75395400  0.13613676  0.06070918  1
  Ce3+  Ce23  1  0.88603735  0.74715241  0.43992408  1
  Ce3+  Ce24  1  0.13767554  -0.00377594  0.44152234  1
  Ce3+  Ce25  1  0.87298137  0.25907537  0.93624095  1
  Ce3+  Ce26  1  0.75621671  0.36794413  0.55506658  1
  Ce3+  Ce27  1  0.87500020  0.50919999  0.94654500  1
  Ce3+  Ce28  1  0.50164394  0.13552448  0.05101474  1
  Ce3+  Ce29  1  0.37779286  0.51487173  0.93229041  1
  Ce3+  Ce30  1  0.00455156  0.63325087  0.04906020  1
  Ce3+  Ce31  1  0.88905984  -0.00638141  0.43961995  1
  Ce3+  Ce32  1  0.38765297  0.49162556  0.44649042  1
  Ce3+  Ce33  1  0.37723817  0.76138241  0.94142402  1
  Ce3+  Ce34  1  0.25088941  0.63121680  0.05211783  1
  Ce3+  Ce35  1  0.51338214  0.61924859  0.55204549  1
  Ce3+  Ce36  1  0.24954988  0.88913396  0.06797646  1
  Ce3+  Ce37  1  0.00460866  0.38158996  0.05326093  1
  Pr3+  Pr38  1  0.01473832  0.62447353  0.55953575  1
  Pr3+  Pr39  1  0.75948149  0.62100800  0.56485359  1
  Pr3+  Pr40  1  0.62737873  0.25847670  0.93641129  1
  Pr3+  Pr41  1  0.63802674  0.74741153  0.43343689  1
  Pr3+  Pr42  1  0.01456169  0.86612834  0.55870545  1
  Pr3+  Pr43  1  0.51117093  0.87016948  0.56746988  1
  Pr3+  Pr44  1  0.88594371  0.49489976  0.44474314  1
  Pr3+  Pr45  1  0.25598833  0.13628974  0.06817920  1
  Pr3+  Pr46  1  0.38662471  -0.00415847  0.44476026  1
  Pr3+  Pr47  1  0.49847017  0.38236777  0.05450646  1
  Pr3+  Pr48  1  0.51509302  0.11721113  0.57348412  1
  Pr3+  Pr49  1  0.50001486  0.88380301  0.06555911  1
  Nd3+  Nd50  1  0.76322380  0.87081051  0.56311436  1
  Nd3+  Nd51  1  0.13662867  0.49416936  0.44366629  1
  Nd3+  Nd52  1  0.74939890  0.38603918  0.06245307  1
  Nd3+  Nd53  1  0.12571912  0.76420761  0.93039443  1
  Nd3+  Nd54  1  0.63566588  0.48656583  0.43062053  1
  Nd3+  Nd55  1  0.37321793  0.00703702  0.93448209  1
  Nd3+  Nd56  1  0.76143069  0.12235141  0.55341751  1
  Nd3+  Nd57  1  0.38503200  0.24727847  0.45614014  1
  Sm3+  Sm58  1  0.12335941  0.00803465  0.95478061  1
  Sm3+  Sm59  1  0.00847519  0.11948637  0.56198587  1
  Sm3+  Sm60  1  0.62342662  0.75864472  0.94602959  1
  Sm3+  Sm61  1  0.26069837  0.86732312  0.56259610  1
  Sm3+  Sm62  1  0.63632092  -0.00423618  0.43915436  1
  Sm3+  Sm63  1  0.26247783  0.62383924  0.56201703  1
  Bi2+  Bi64  1  0.02699746  0.12799516  0.29041735  1
  Bi2+  Bi65  1  -0.05296053  0.09101279  0.75157298  1
  Bi2+  Bi66  1  0.01455527  0.39816803  0.29824324  1
  Bi2+  Bi67  1  -0.09204332  0.35232172  0.80064548  1
  Bi2+  Bi68  1  0.04472602  0.67114331  0.27126397  1
  Bi2+  Bi69  1  -0.01799366  0.59410908  0.79352717  1
  Bi2+  Bi70  1  -0.13229915  0.89826425  0.31369039  1
  Bi2+  Bi71  1  0.04473659  0.91255458  0.81831099  1
  Bi2+  Bi72  1  0.26953288  0.14167963  0.24564492  1
  Bi2+  Bi73  1  0.21549314  0.10426888  0.78972902  1
  Bi2+  Bi74  1  0.27193345  0.32074773  0.29103988  1
  Bi2+  Bi75  1  0.23751096  0.41066495  0.78375988  1
  Bi2+  Bi76  1  0.22868179  0.61072368  0.29484759  1
  Bi2+  Bi77  1  0.21500399  0.70885463  0.76738622  1
  Bi2+  Bi78  1  0.22863879  0.89227620  0.30954120  1
  Bi2+  Bi79  1  0.24811037  0.89481063  0.80772467  1
  Bi2+  Bi80  1  0.47646285  0.13056274  0.29755925  1
  Bi2+  Bi81  1  0.49074748  0.05284930  0.79112986  1
  Bi2+  Bi82  1  0.49432927  0.40991185  0.31192726  1
  Bi2+  Bi83  1  0.48866138  0.39765023  0.79792143  1
  Bi2+  Bi84  1  0.42908039  0.61497232  0.26690599  1
  Bi2+  Bi85  1  0.50939113  0.66085995  0.77838597  1
  Bi2+  Bi86  1  0.48592685  0.84639570  0.31983194  1
  Bi2+  Bi87  1  0.44406440  0.86517635  0.82090495  1
  Bi2+  Bi88  1  0.72280459  0.13058708  0.28151547  1
  Bi2+  Bi89  1  0.78647142  0.08192004  0.81301688  1
  Bi2+  Bi90  1  0.74637389  0.40399223  0.29835827  1
  Bi2+  Bi91  1  0.73064199  0.26980173  0.81930834  1
  Bi2+  Bi92  1  0.82597345  0.61894022  0.26942740  1
  Bi2+  Bi93  1  0.73727816  0.61473397  0.79704625  1
  Bi2+  Bi94  1  0.67421129  0.89810873  0.31617149  1
  Bi2+  Bi95  1  0.63706071  0.85463986  0.78092070  1
  Bi2+  Bi96  1  0.13326379  -0.03155774  0.20427102  1
  Bi2+  Bi97  1  0.12833687  -0.08413415  0.71386842  1
  Bi2+  Bi98  1  0.13191077  0.27439765  0.21204622  1
  Bi2+  Bi99  1  0.10308753  0.26523141  0.71369825  1
  Bi2+  Bi100  1  0.13257262  0.46747862  0.17067642  1
  Bi2+  Bi101  1  0.10039291  0.56243732  0.69930582  1
  Bi2+  Bi102  1  0.17754503  0.66193220  0.18341179  1
  Bi2+  Bi103  1  0.14597977  0.74287706  0.65239115  1
  Bi2+  Bi104  1  0.39183740  -0.01299528  0.23707634  1
  Bi2+  Bi105  1  0.39029397  -0.05080663  0.71377634  1
  Bi2+  Bi106  1  0.39258465  0.28019823  0.19813230  1
  Bi2+  Bi107  1  0.36872303  0.24094915  0.71161774  1
  Bi2+  Bi108  1  0.31210210  0.48518360  0.21447470  1
  Bi2+  Bi109  1  0.38601018  0.56259154  0.70746172  1
  Bi2+  Bi110  1  0.39204989  0.79411103  0.22547172  1
  Bi2+  Bi111  1  0.34306190  0.75287727  0.67976996  1
  Bi2+  Bi112  1  0.64677511  -0.02274332  0.20992108  1
  Bi2+  Bi113  1  0.64245637  0.03564121  0.71596212  1
  Bi2+  Bi114  1  0.59162906  0.16295951  0.19967295  1
  Bi2+  Bi115  1  0.63997784  0.24659256  0.71845675  1
  Bi2+  Bi116  1  0.63525353  0.46031836  0.20335816  1
  Bi2+  Bi117  1  0.64286370  0.49710159  0.71402634  1
  Bi2+  Bi118  1  0.64174382  0.71330972  0.20879490  1
  Bi2+  Bi119  1  0.53815472  0.78448353  0.69160435  1
  Bi2+  Bi120  1  0.83873028  0.01369725  0.22096818  1
  Bi2+  Bi121  1  0.81717403  -0.05035012  0.72155961  1
  Bi2+  Bi122  1  0.87298649  0.26967403  0.20784193  1
  Bi2+  Bi123  1  0.85127508  0.24753338  0.70639386  1
  Bi2+  Bi124  1  0.95849267  0.51288547  0.21396551  1
  Bi2+  Bi125  1  0.83057251  0.44710832  0.71133483  1
  Bi2+  Bi126  1  0.89872481  0.77963588  0.21498922  1
  Bi2+  Bi127  1  0.90864804  0.77663160  0.70934807  1
  S2-  S128  1  0.06483738  0.11526551  0.18174070  1
  S2-  S129  1  -0.00153329  0.15368961  0.65913287  1
  S2-  S130  1  -0.00991647  0.30052909  0.14045355  1
  S2-  S131  1  0.03838886  0.40458898  0.66835427  1
  S2-  S132  1  -0.02813784  0.70712762  0.13398140  1
  S2-  S133  1  -0.03258646  0.63447474  0.65804762  1
  S2-  S134  1  -0.03222807  0.92324751  0.17280190  1
  S2-  S135  1  -0.01618450  0.90085014  0.65661310  1
  S2-  S136  1  0.26194736  0.01198339  0.14277929  1
  S2-  S137  1  0.22832680  0.15046464  0.68506867  1
  S2-  S138  1  0.25570038  0.27986748  0.12944155  1
  S2-  S139  1  0.23722232  0.34048224  0.68195047  1
  S2-  S140  1  0.33160055  0.62415994  0.13915366  1
  S2-  S141  1  0.25812020  0.53168497  0.64638479  1
  S2-  S142  1  0.15968179  0.83188157  0.14679269  1
  S2-  S143  1  0.25895403  0.96174209  0.64578449  1
  S2-  S144  1  0.44861459  0.13877424  0.14290975  1
  S2-  S145  1  0.51239647  0.21969746  0.65561470  1
  S2-  S146  1  0.50949961  0.37974197  0.15561206  1
  S2-  S147  1  0.43551974  0.39464854  0.69292807  1
  S2-  S148  1  0.53721634  0.58779336  0.17984302  1
  S2-  S149  1  0.52869166  0.55455378  0.64217137  1
  S2-  S150  1  0.51656793  0.78820357  0.15085570  1
  S2-  S151  1  0.52282601  0.98528190  0.64459958  1
  S2-  S152  1  0.84480384  0.13958406  0.14561908  1
  S2-  S153  1  0.74244188  0.14135523  0.65276626  1
  S2-  S154  1  0.75291561  0.34587652  0.16145609  1
  S2-  S155  1  0.67385933  0.36864607  0.64269748  1
  S2-  S156  1  0.74268279  0.58040289  0.17207559  1
  S2-  S157  1  0.75739498  0.58625516  0.66622528  1
  S2-  S158  1  0.75402489  0.78357929  0.15042970  1
  S2-  S159  1  0.77147801  0.80922428  0.65679340  1
  S2-  S160  1  0.13954070  0.03155261  0.34390464  1
  S2-  S161  1  0.10725144  0.06349210  0.86045350  1
  S2-  S162  1  0.05228032  0.25350379  0.35921492  1
  S2-  S163  1  0.16050331  0.26116539  0.81715520  1
  S2-  S164  1  0.12719490  0.48967529  0.34350623  1
  S2-  S165  1  0.10571536  0.47770987  0.82638818  1
  S2-  S166  1  0.08914989  0.81110186  0.32901652  1
  S2-  S167  1  0.08885930  0.71774392  0.83364220  1
  S2-  S168  1  0.36791139  0.00532686  0.34411211  1
  S2-  S169  1  0.35622520  0.10339182  0.85108529  1
  S2-  S170  1  0.39685480  0.25946431  0.35484985  1
  S2-  S171  1  0.35946805  0.29675573  0.81042039  1
  S2-  S172  1  0.37669733  0.52162627  0.34913502  1
  S2-  S173  1  0.35529341  0.49436839  0.83475411  1
  S2-  S174  1  0.28689608  0.74952186  0.35711621  1
  S2-  S175  1  0.40621675  0.69769777  0.85132451  1
  S2-  S176  1  0.61126255  0.10026091  0.36008618  1
  S2-  S177  1  0.63847097  0.00419123  0.84868265  1
  S2-  S178  1  0.61702668  0.32309076  0.34314414  1
  S2-  S179  1  0.54340080  0.26621957  0.84748101  1
  S2-  S180  1  0.62100338  0.51742646  0.33032451  1
  S2-  S181  1  0.60908263  0.51483620  0.83820480  1
  S2-  S182  1  0.61189031  0.73500564  0.33184215  1
  S2-  S183  1  0.69240171  0.74695389  0.85550720  1
  S2-  S184  1  0.91090425  0.07594229  0.35317073  1
  S2-  S185  1  0.89135606  -0.09638258  0.85631644  1
  S2-  S186  1  0.82197688  0.26447346  0.32139469  1
  S2-  S187  1  0.96448066  0.22667052  0.85684405  1
  S2-  S188  1  0.87961684  0.48627745  0.34382702  1
  S2-  S189  1  0.85182606  0.51593203  0.84840241  1
  S2-  S190  1  0.84755456  0.72958995  0.34500094  1
  S2-  S191  1  0.87602200  0.71302831  0.80923623  1
  S2-  S192  1  0.01396323  0.11946036  0.45918155  1
  S2-  S193  1  -0.00336898  0.12911129  0.96599354  1
  S2-  S194  1  0.01092616  0.37127579  0.46078507  1
  S2-  S195  1  -0.00082350  0.38362588  0.94713286  1
  S2-  S196  1  0.01272514  0.62121078  0.44876584  1
  S2-  S197  1  -0.00069261  0.63491340  0.94297903  1
  S2-  S198  1  0.01323270  0.86960422  0.45038268  1
  S2-  S199  1  0.00588919  0.88066145  0.96042214  1
  S2-  S200  1  0.26147244  0.12155960  0.46332385  1
  S2-  S201  1  0.24816375  0.13008137  0.95727065  1
  S2-  S202  1  0.25918719  0.37065987  0.46274494  1
  S2-  S203  1  0.25028637  0.37768365  0.93851311  1
  S2-  S204  1  0.26284504  0.61637141  0.45696271  1
  S2-  S205  1  0.24920374  0.63654983  0.94303897  1
  S2-  S206  1  0.26170266  0.87281139  0.45740136  1
  S2-  S207  1  0.24865789  0.88611502  0.95499458  1
  S2-  S208  1  0.50682251  0.11866226  0.46488908  1
  S2-  S209  1  0.50407865  0.12883503  0.94695419  1
  S2-  S210  1  0.51080503  0.36929221  0.45654938  1
  S2-  S211  1  0.50004338  0.38767300  0.94756235  1
  S2-  S212  1  0.51377660  0.62006589  0.44594567  1
  S2-  S213  1  0.50088256  0.63729855  0.96061174  1
  S2-  S214  1  0.51377820  0.87215852  0.45704322  1
  S2-  S215  1  0.50258730  0.88381849  0.95660305  1
  S2-  S216  1  0.76548927  0.11777328  0.44813615  1
  S2-  S217  1  0.75123506  0.13186298  0.95456470  1
  S2-  S218  1  0.76514809  0.36409916  0.44869099  1
  S2-  S219  1  0.74904476  0.38650469  0.95390064  1
  S2-  S220  1  0.75785128  0.61827400  0.45316461  1
  S2-  S221  1  0.75078588  0.63521701  0.96014803  1
  S2-  S222  1  0.75980819  0.87355012  0.45445507  1
  S2-  S223  1  0.74768678  0.88152386  0.95726483  1
  S2-  S224  1  0.11905669  0.01073681  0.05613648  1
  S2-  S225  1  0.13170369  -0.00425731  0.54938706  1
  S2-  S226  1  0.12246076  0.25685611  0.03533532  1
  S2-  S227  1  0.13571890  0.24313642  0.55687337  1
  S2-  S228  1  0.12824323  0.50644531  0.03503611  1
  S2-  S229  1  0.13357438  0.49755337  0.54939902  1
  S2-  S230  1  0.13105281  0.75231919  0.03637981  1
  S2-  S231  1  0.14077956  0.74473702  0.53397915  1
  S2-  S232  1  0.38056846  0.00807262  0.04045430  1
  S2-  S233  1  0.38512272  -0.00638984  0.55000189  1
  S2-  S234  1  0.38038692  0.25663178  0.02886128  1
  S2-  S235  1  0.37977731  0.24762490  0.56192263  1
  S2-  S236  1  0.37407445  0.50379075  0.04019816  1
  S2-  S237  1  0.38966709  0.49526885  0.55085289  1
  S2-  S238  1  0.37226797  0.76415141  0.04744951  1
  S2-  S239  1  0.38626871  0.74577217  0.54537166  1
  S2-  S240  1  0.62728107  0.00855723  0.05479768  1
  S2-  S241  1  0.64100270  -0.00585518  0.54392121  1
  S2-  S242  1  0.62795627  0.25947370  0.04547438  1
  S2-  S243  1  0.63519561  0.24248051  0.54186829  1
  S2-  S244  1  0.62427443  0.51203671  0.05128577  1
  S2-  S245  1  0.63907043  0.49590415  0.53905446  1
  S2-  S246  1  0.62478618  0.75660490  0.04849181  1
  S2-  S247  1  0.63737252  0.74731510  0.54501341  1
  S2-  S248  1  0.87827188  0.00459432  0.04981223  1
  S2-  S249  1  0.88619635  -0.00406785  0.54900406  1
  S2-  S250  1  0.87059578  0.26409342  0.04111955  1
  S2-  S251  1  0.88634790  0.24389179  0.54665655  1
  S2-  S252  1  0.87788050  0.50783603  0.05400125  1
  S2-  S253  1  0.88468172  0.49669524  0.55220975  1
  S2-  S254  1  0.87581265  0.75903389  0.03415023  1
  S2-  S255  1  0.88503644  0.74499723  0.54620480  1
