# generated using pymatgen
data_La9Ce10Pr6Nd4Sm3(BiS2)32
_symmetry_space_group_name_H-M   'P 1'
_cell_length_a   16.22568835
_cell_length_b   16.19572378
_cell_length_c   27.14871854
_cell_angle_alpha   89.93562450
_cell_angle_beta   89.96360482
_cell_angle_gamma   90.08095267
_symmetry_Int_Tables_number   1
_chemical_formula_structural   La9Ce10Pr6Nd4Sm3(BiS2)32
_chemical_formula_sum   'La18 Ce20 Pr12 Nd8 Sm6 Bi64 S128'
_cell_volume   7134.31089132
_cell_formula_units_Z   2
loop_
 _symmetry_equiv_pos_site_id
 _symmetry_equiv_pos_as_xyz
  1  'x, y, z'
loop_
 _atom_type_symbol
 _atom_type_oxidation_number
  La3+  3.0
  Ce3+  3.0
  Pr3+  3.0
  Nd3+  3.0
  Sm3+  3.0
  Bi2+  2.0
  S2-  -2.0
loop_
 _atom_site_type_symbol
 _atom_site_label
 _atom_site_symmetry_multiplicity
 _atom_site_fract_x
 _atom_site_fract_y
 _atom_site_fract_z
 _atom_site_occupancy
  La3+  La0  1  0.23819101  0.37183304  0.06372535  1
  La3+  La1  1  0.48433029  0.37814201  0.05289936  1
  La3+  La2  1  0.36859447  0.00404493  0.43540303  1
  La3+  La3  1  -0.01100222  0.13300200  0.10672542  1
  La3+  La4  1  0.74865272  0.62366867  0.57803742  1
  La3+  La5  1  -0.00673766  0.12990643  0.55331823  1
  La3+  La6  1  0.35908849  0.51331439  0.92151821  1
  La3+  La7  1  0.60784463  0.25334349  0.93015708  1
  La3+  La8  1  0.24012063  0.37972436  0.60516965  1
  La3+  La9  1  0.60882716  0.74950887  0.93489910  1
  La3+  La10  1  0.87439378  0.76200162  0.90722995  1
  La3+  La11  1  0.49618402  0.13006741  0.56176019  1
  La3+  La12  1  0.86038604  0.50342879  0.92679692  1
  La3+  La13  1  0.11397292  0.50179799  0.93381466  1
  La3+  La14  1  0.74186112  0.88533658  0.59117139  1
  La3+  La15  1  0.86461523  0.25920382  0.41018463  1
  La3+  La16  1  0.24254468  0.12248092  0.56627745  1
  La3+  La17  1  0.50834093  0.38100271  0.59802330  1
  Ce3+  Ce18  1  0.48559591  0.12419917  0.04762303  1
  Ce3+  Ce19  1  0.86233860  0.24992669  0.94440169  1
  Ce3+  Ce20  1  0.49650691  0.87464544  0.56463711  1
  Ce3+  Ce21  1  -0.01465903  0.62673535  0.05108229  1
  Ce3+  Ce22  1  0.23520610  0.61976906  0.07478273  1
  Ce3+  Ce23  1  0.74653857  0.12990854  0.55272813  1
  Ce3+  Ce24  1  -0.01403589  0.37430638  0.05871927  1
  Ce3+  Ce25  1  -0.00277726  0.63079198  0.57296134  1
  Ce3+  Ce26  1  0.62215732  0.75308644  0.44743487  1
  Ce3+  Ce27  1  0.61935144  0.25453869  0.44028309  1
  Ce3+  Ce28  1  0.36988185  0.25898259  0.45100062  1
  Ce3+  Ce29  1  0.73784780  0.37840269  0.05520125  1
  Ce3+  Ce30  1  0.11028900  0.24691207  0.94551624  1
  Ce3+  Ce31  1  0.61422405  0.00024063  0.94222260  1
  Ce3+  Ce32  1  0.62423214  0.00145137  0.44221828  1
  Ce3+  Ce33  1  0.34695555  0.24265261  0.91981457  1
  Ce3+  Ce34  1  0.37180784  0.50052309  0.44876899  1
  Ce3+  Ce35  1  0.49606838  0.62768370  0.56674265  1
  Ce3+  Ce36  1  0.24681681  0.87845688  0.56431589  1
  Ce3+  Ce37  1  -0.00374922  0.37637418  0.56065932  1
  Pr3+  Pr38  1  0.73972115  0.12920878  0.06790746  1
  Pr3+  Pr39  1  0.37437495  0.75104455  0.43926912  1
  Pr3+  Pr40  1  0.60973970  0.50665055  0.93679479  1
  Pr3+  Pr41  1  0.35525550  0.75637696  0.94932999  1
  Pr3+  Pr42  1  0.87008662  0.50855525  0.43817541  1
  Pr3+  Pr43  1  0.48776228  0.87816034  0.05905049  1
  Pr3+  Pr44  1  0.85282254  0.00644724  0.92962327  1
  Pr3+  Pr45  1  0.61553839  0.50370872  0.43959775  1
  Pr3+  Pr46  1  0.48486991  0.63141646  0.07712217  1
  Pr3+  Pr47  1  -0.01947131  0.87949479  0.06720553  1
  Pr3+  Pr48  1  0.11069242  -0.00585142  0.42238438  1
  Pr3+  Pr49  1  -0.00484707  0.88521978  0.56583896  1
  Nd3+  Nd50  1  0.35530163  -0.00140381  0.93321659  1
  Nd3+  Nd51  1  0.74044733  0.87620311  0.05525561  1
  Nd3+  Nd52  1  0.24738304  0.62545682  0.56445141  1
  Nd3+  Nd53  1  0.12052547  0.75208838  0.44269871  1
  Nd3+  Nd54  1  0.23243202  0.88230859  0.07091592  1
  Nd3+  Nd55  1  0.11993768  0.50136976  0.44529566  1
  Nd3+  Nd56  1  0.12342999  0.25113672  0.43737310  1
  Nd3+  Nd57  1  0.86765396  0.74850774  0.44747366  1
  Sm3+  Sm58  1  0.10411674  0.00182114  0.94768226  1
  Sm3+  Sm59  1  0.74860788  0.37636410  0.55789992  1
  Sm3+  Sm60  1  0.87018897  0.00086637  0.43334956  1
  Sm3+  Sm61  1  0.23967252  0.12427847  0.06723946  1
  Sm3+  Sm62  1  0.73895365  0.62746096  0.05177077  1
  Sm3+  Sm63  1  0.10986353  0.75546362  0.94891097  1
  Bi2+  Bi64  1  0.02112005  0.11816620  0.29285194  1
  Bi2+  Bi65  1  -0.03555354  0.18198196  0.77160956  1
  Bi2+  Bi66  1  0.01504952  0.38691593  0.29796610  1
  Bi2+  Bi67  1  0.00613320  0.37580119  0.79465658  1
  Bi2+  Bi68  1  -0.00433105  0.62875821  0.30707106  1
  Bi2+  Bi69  1  0.10187238  0.63924635  0.79721151  1
  Bi2+  Bi70  1  0.04920763  0.80547257  0.26764716  1
  Bi2+  Bi71  1  0.02623147  0.91101109  0.79026491  1
  Bi2+  Bi72  1  0.28582898  0.10815114  0.27464718  1
  Bi2+  Bi73  1  0.24943147  0.16111030  0.77961490  1
  Bi2+  Bi74  1  0.26367243  0.34940456  0.28307057  1
  Bi2+  Bi75  1  0.19186292  0.39074930  0.79316320  1
  Bi2+  Bi76  1  0.19600795  0.62768089  0.29761844  1
  Bi2+  Bi77  1  0.28592590  0.70707039  0.77544489  1
  Bi2+  Bi78  1  0.26092992  0.87292579  0.29283691  1
  Bi2+  Bi79  1  0.29630838  0.88049089  0.82379928  1
  Bi2+  Bi80  1  0.48529796  0.10785139  0.28735995  1
  Bi2+  Bi81  1  0.46588877  0.07913559  0.77391589  1
  Bi2+  Bi82  1  0.45142930  0.38225051  0.29102669  1
  Bi2+  Bi83  1  0.53200903  0.36925631  0.80106682  1
  Bi2+  Bi84  1  0.53679799  0.60849342  0.29630482  1
  Bi2+  Bi85  1  0.52523280  0.63577038  0.81216012  1
  Bi2+  Bi86  1  0.60712870  0.86242669  0.27470162  1
  Bi2+  Bi87  1  0.48144547  0.88324347  0.79152068  1
  Bi2+  Bi88  1  0.74383756  0.02691535  0.30649266  1
  Bi2+  Bi89  1  0.78391262  0.09182512  0.78049124  1
  Bi2+  Bi90  1  0.72374132  0.40720244  0.28651459  1
  Bi2+  Bi91  1  0.74753778  0.30591779  0.77583213  1
  Bi2+  Bi92  1  0.78871678  0.65332730  0.25151065  1
  Bi2+  Bi93  1  0.73007188  0.63769130  0.77613100  1
  Bi2+  Bi94  1  0.80032281  0.83789183  0.29922699  1
  Bi2+  Bi95  1  0.74361788  0.88529641  0.78467002  1
  Bi2+  Bi96  1  0.14574963  -0.04741622  0.20562122  1
  Bi2+  Bi97  1  0.19213967  -0.01381570  0.74629473  1
  Bi2+  Bi98  1  0.13566239  0.29242272  0.20309324  1
  Bi2+  Bi99  1  0.07114293  0.21904273  0.68340447  1
  Bi2+  Bi100  1  0.09923986  0.54714051  0.21067758  1
  Bi2+  Bi101  1  0.08457896  0.54872228  0.69952336  1
  Bi2+  Bi102  1  0.19377910  0.76149729  0.18746577  1
  Bi2+  Bi103  1  0.15738138  0.74025236  0.69287337  1
  Bi2+  Bi104  1  0.45631852  -0.04638293  0.19598999  1
  Bi2+  Bi105  1  0.37304312  -0.04647955  0.69486629  1
  Bi2+  Bi106  1  0.39041918  0.22807774  0.20860021  1
  Bi2+  Bi107  1  0.39161806  0.21824216  0.70602574  1
  Bi2+  Bi108  1  0.35436487  0.47382010  0.20460552  1
  Bi2+  Bi109  1  0.37551774  0.50811277  0.72109703  1
  Bi2+  Bi110  1  0.35333136  0.69853739  0.24355324  1
  Bi2+  Bi111  1  0.35343192  0.76145188  0.66131949  1
  Bi2+  Bi112  1  0.63059125  0.03427373  0.20533223  1
  Bi2+  Bi113  1  0.61628034  -0.00415402  0.72464584  1
  Bi2+  Bi114  1  0.64092407  0.21379351  0.25472045  1
  Bi2+  Bi115  1  0.70858221  0.19350759  0.68483701  1
  Bi2+  Bi116  1  0.62525874  0.45714340  0.19340900  1
  Bi2+  Bi117  1  0.63434163  0.50863697  0.71156091  1
  Bi2+  Bi118  1  0.65321828  0.73343210  0.18132435  1
  Bi2+  Bi119  1  0.53009624  0.74711931  0.70868500  1
  Bi2+  Bi120  1  0.85851050  -0.02863693  0.21983545  1
  Bi2+  Bi121  1  0.89716928  0.00068238  0.70352763  1
  Bi2+  Bi122  1  0.84786291  0.25370511  0.21486725  1
  Bi2+  Bi123  1  0.87523035  0.29915397  0.67769684  1
  Bi2+  Bi124  1  0.89177355  0.48734220  0.23881389  1
  Bi2+  Bi125  1  0.89578039  0.48221951  0.72413560  1
  Bi2+  Bi126  1  0.91416974  0.76249334  0.18901483  1
  Bi2+  Bi127  1  0.91698665  0.73555605  0.72254749  1
  S2-  S128  1  0.09212125  0.14004025  0.19391417  1
  S2-  S129  1  0.01270989  0.05313539  0.64386406  1
  S2-  S130  1  -0.01701867  0.30737548  0.15127177  1
  S2-  S131  1  0.07766954  0.38323523  0.64862740  1
  S2-  S132  1  -0.01668543  0.61973204  0.14899822  1
  S2-  S133  1  -0.11291715  0.61377998  0.64977458  1
  S2-  S134  1  -0.01255950  0.97006951  0.15366365  1
  S2-  S135  1  0.01800658  0.81811944  0.65994385  1
  S2-  S136  1  0.26233354  0.24901923  0.13713952  1
  S2-  S137  1  0.23429389  0.21396718  0.65234783  1
  S2-  S138  1  0.21320557  0.47616587  0.14590834  1
  S2-  S139  1  0.27696062  0.37986447  0.71111372  1
  S2-  S140  1  0.35452996  0.61833561  0.14742995  1
  S2-  S141  1  0.24527928  0.54566653  0.65393372  1
  S2-  S142  1  0.26186439  1.00195368  0.14261322  1
  S2-  S143  1  0.23056401  0.98975776  0.63872544  1
  S2-  S144  1  0.46880088  0.11128599  0.14511253  1
  S2-  S145  1  0.53358982  0.18502707  0.65478111  1
  S2-  S146  1  0.48400797  0.38155147  0.15426259  1
  S2-  S147  1  0.47289307  0.36497795  0.70113571  1
  S2-  S148  1  0.55061439  0.59682362  0.17422101  1
  S2-  S149  1  0.49353831  0.54125897  0.65169002  1
  S2-  S150  1  0.49872776  0.80966919  0.15197490  1
  S2-  S151  1  0.58971088  0.88425454  0.64931548  1
  S2-  S152  1  0.83371300  0.12638355  0.15520277  1
  S2-  S153  1  0.76395275  0.04522435  0.63901479  1
  S2-  S154  1  0.73400925  0.33529196  0.15051746  1
  S2-  S155  1  0.67195186  0.39921114  0.64574847  1
  S2-  S156  1  0.75049397  0.60092088  0.14943234  1
  S2-  S157  1  0.67422669  0.65716423  0.67066444  1
  S2-  S158  1  0.77299599  0.86180140  0.15360067  1
  S2-  S159  1  0.80928860  0.84111419  0.68670112  1
  S2-  S160  1  0.17346093  0.07573310  0.33866534  1
  S2-  S161  1  0.11388953  0.01055561  0.84815684  1
  S2-  S162  1  0.08614120  0.26003913  0.33908712  1
  S2-  S163  1  0.18714622  0.24949633  0.85826741  1
  S2-  S164  1  0.14067019  0.48687315  0.34530305  1
  S2-  S165  1  0.21880759  0.51818421  0.85417108  1
  S2-  S166  1  0.12976606  0.84824080  0.35887767  1
  S2-  S167  1  0.05743311  0.77351665  0.85498670  1
  S2-  S168  1  0.36973901  -0.00987263  0.33409748  1
  S2-  S169  1  0.34706454  0.10064674  0.85291518  1
  S2-  S170  1  0.36167371  0.26404268  0.35135612  1
  S2-  S171  1  0.40014398  0.29996486  0.83191378  1
  S2-  S172  1  0.43041549  0.52116141  0.35562428  1
  S2-  S173  1  0.43262953  0.50031111  0.82487755  1
  S2-  S174  1  0.35811832  0.76280315  0.33911000  1
  S2-  S175  1  0.38462312  0.67696077  0.86239717  1
  S2-  S176  1  0.58490743  -0.00624613  0.34708329  1
  S2-  S177  1  0.69388187  0.00603659  0.85654578  1
  S2-  S178  1  0.67654992  0.26707916  0.34805874  1
  S2-  S179  1  0.61969690  0.23456769  0.82908052  1
  S2-  S180  1  0.65836490  0.53463679  0.34171105  1
  S2-  S181  1  0.65136786  0.51446494  0.83774394  1
  S2-  S182  1  0.58111058  0.74261041  0.35075123  1
  S2-  S183  1  0.65893737  0.76249938  0.83744025  1
  S2-  S184  1  0.96875033  0.00013600  0.35240336  1
  S2-  S185  1  0.88182181  -0.09447413  0.84716010  1
  S2-  S186  1  0.88310592  0.19641561  0.31269199  1
  S2-  S187  1  0.84197237  0.22162241  0.84896084  1
  S2-  S188  1  0.86717422  0.40681084  0.35458520  1
  S2-  S189  1  0.87283538  0.45527372  0.82968303  1
  S2-  S190  1  0.86329117  0.64326909  0.36719149  1
  S2-  S191  1  0.86777421  0.67117878  0.82050825  1
  S2-  S192  1  -0.01014722  0.13399255  0.44667671  1
  S2-  S193  1  -0.01516958  0.12476016  0.94320400  1
  S2-  S194  1  -0.00337196  0.37672578  0.45345295  1
  S2-  S195  1  -0.01305407  0.37543070  0.94996517  1
  S2-  S196  1  -0.00069089  0.62798206  0.46423990  1
  S2-  S197  1  -0.01281213  0.62868749  0.94493435  1
  S2-  S198  1  -0.01065309  0.87073634  0.45758546  1
  S2-  S199  1  -0.01479734  0.87861704  0.95990732  1
  S2-  S200  1  0.24790129  0.13044699  0.45619104  1
  S2-  S201  1  0.23084607  0.11915099  0.96103597  1
  S2-  S202  1  0.24485004  0.37945312  0.45030489  1
  S2-  S203  1  0.23649196  0.37648208  0.95531086  1
  S2-  S204  1  0.24578352  0.62768861  0.45526140  1
  S2-  S205  1  0.23069662  0.63354182  0.96293416  1
  S2-  S206  1  0.25001647  0.87527984  0.45703550  1
  S2-  S207  1  0.22855929  0.88005123  0.96235943  1
  S2-  S208  1  0.49565026  0.12980396  0.45214926  1
  S2-  S209  1  0.48846015  0.12147670  0.94265813  1
  S2-  S210  1  0.49678343  0.37667688  0.45384545  1
  S2-  S211  1  0.48550730  0.38172023  0.94485512  1
  S2-  S212  1  0.49581268  0.62931609  0.46054865  1
  S2-  S213  1  0.48693074  0.62869549  0.96432404  1
  S2-  S214  1  0.49619017  0.87826120  0.45535168  1
  S2-  S215  1  0.48533322  0.87817692  0.94967742  1
  S2-  S216  1  0.74893139  0.12766937  0.44581650  1
  S2-  S217  1  0.73287678  0.12973454  0.95880243  1
  S2-  S218  1  0.74218178  0.38043770  0.45468587  1
  S2-  S219  1  0.73546917  0.37763917  0.94702000  1
  S2-  S220  1  0.74063520  0.62555082  0.46633344  1
  S2-  S221  1  0.74156628  0.63160863  0.94562859  1
  S2-  S222  1  0.74750452  0.87634311  0.44708060  1
  S2-  S223  1  0.73894674  0.87186476  0.95057672  1
  S2-  S224  1  0.10608793  0.00865681  0.05187133  1
  S2-  S225  1  0.11737522  0.00111784  0.53220164  1
  S2-  S226  1  0.10534137  0.24306691  0.04935433  1
  S2-  S227  1  0.12222138  0.25479456  0.54427072  1
  S2-  S228  1  0.10584620  0.49937821  0.04199891  1
  S2-  S229  1  0.12154399  0.50394356  0.54983697  1
  S2-  S230  1  0.10926312  0.75407268  0.05407509  1
  S2-  S231  1  0.12381714  0.75285470  0.54851449  1
  S2-  S232  1  0.36269130  -0.00021114  0.03893508  1
  S2-  S233  1  0.37598950  0.00097162  0.54506955  1
  S2-  S234  1  0.36593529  0.24688267  0.03238122  1
  S2-  S235  1  0.37453183  0.26122808  0.55773908  1
  S2-  S236  1  0.36104906  0.50232511  0.04060361  1
  S2-  S237  1  0.36971362  0.49630548  0.55354385  1
  S2-  S238  1  0.35651785  0.75885530  0.05403997  1
  S2-  S239  1  0.37179326  0.75110671  0.54579069  1
  S2-  S240  1  0.61514878  0.00082944  0.04946660  1
  S2-  S241  1  0.62122014  0.00409153  0.54613583  1
  S2-  S242  1  0.61196394  0.25110195  0.04276599  1
  S2-  S243  1  0.62261952  0.25646738  0.54519394  1
  S2-  S244  1  0.61400818  0.50489143  0.04482143  1
  S2-  S245  1  0.61954095  0.50315117  0.54748104  1
  S2-  S246  1  0.61461249  0.75073048  0.04378037  1
  S2-  S247  1  0.62367125  0.75327030  0.55237203  1
  S2-  S248  1  0.85944375  0.00429583  0.04230051  1
  S2-  S249  1  0.86814012  -0.00028902  0.53788482  1
  S2-  S250  1  0.86347568  0.25063802  0.04785057  1
  S2-  S251  1  0.86800806  0.25391078  0.53958242  1
  S2-  S252  1  0.86149477  0.50137966  0.03953080  1
  S2-  S253  1  0.87267818  0.49778687  0.54815530  1
  S2-  S254  1  0.86099118  0.74986408  0.04276943  1
  S2-  S255  1  0.86685265  0.75913677  0.55345532  1
