# generated using pymatgen
data_La9Ce10Pr6Nd4Sm3(BiS2)32
_symmetry_space_group_name_H-M   'P 1'
_cell_length_a   16.21637553
_cell_length_b   16.19786565
_cell_length_c   27.22728315
_cell_angle_alpha   90.26525064
_cell_angle_beta   89.79533679
_cell_angle_gamma   90.02717186
_symmetry_Int_Tables_number   1
_chemical_formula_structural   La9Ce10Pr6Nd4Sm3(BiS2)32
_chemical_formula_sum   'La18 Ce20 Pr12 Nd8 Sm6 Bi64 S128'
_cell_volume   7151.68575155
_cell_formula_units_Z   2
loop_
 _symmetry_equiv_pos_site_id
 _symmetry_equiv_pos_as_xyz
  1  'x, y, z'
loop_
 _atom_type_symbol
 _atom_type_oxidation_number
  La3+  3.0
  Ce3+  3.0
  Pr3+  3.0
  Nd3+  3.0
  Sm3+  3.0
  Bi2+  2.0
  S2-  -2.0
loop_
 _atom_site_type_symbol
 _atom_site_label
 _atom_site_symmetry_multiplicity
 _atom_site_fract_x
 _atom_site_fract_y
 _atom_site_fract_z
 _atom_site_occupancy
  La3+  La0  1  0.76464612  0.13049746  0.57356767  1
  La3+  La1  1  0.88270374  0.25137323  0.42945838  1
  La3+  La2  1  0.39066190  0.50093242  0.43881987  1
  La3+  La3  1  0.62993716  0.77055418  0.38833102  1
  La3+  La4  1  0.74283252  0.62222929  0.06462947  1
  La3+  La5  1  0.51115644  0.12708976  0.57099686  1
  La3+  La6  1  0.49105583  0.86702996  0.06661506  1
  La3+  La7  1  0.51313790  0.86770696  0.61716214  1
  La3+  La8  1  0.88467999  -0.01003627  0.43963632  1
  La3+  La9  1  0.37130410  0.00188010  0.92604339  1
  La3+  La10  1  0.51253537  0.62705735  0.56963945  1
  La3+  La11  1  0.24450339  0.86768920  0.07097219  1
  La3+  La12  1  0.26172426  0.13330429  0.57105134  1
  La3+  La13  1  0.11446022  0.24031300  0.92641931  1
  La3+  La14  1  0.39422423  0.24374055  0.42294661  1
  La3+  La15  1  -0.00888327  0.62486149  0.07114772  1
  La3+  La16  1  0.88786024  0.73983977  0.42745420  1
  La3+  La17  1  0.11540759  0.74208012  0.93859520  1
  Ce3+  Ce18  1  0.88821948  0.50036114  0.44803958  1
  Ce3+  Ce19  1  0.01109068  0.12594902  0.55197484  1
  Ce3+  Ce20  1  0.62572300  -0.01279907  0.92447276  1
  Ce3+  Ce21  1  0.24273636  0.12563259  0.05908685  1
  Ce3+  Ce22  1  0.74301349  0.36956274  0.05028828  1
  Ce3+  Ce23  1  0.11834943  -0.00555195  0.94025979  1
  Ce3+  Ce24  1  0.13814036  0.49729410  0.43822511  1
  Ce3+  Ce25  1  0.26314761  0.87507163  0.56330178  1
  Ce3+  Ce26  1  0.86937193  0.49783541  0.93600244  1
  Ce3+  Ce27  1  0.76164831  0.37601332  0.56419729  1
  Ce3+  Ce28  1  0.74148796  0.12009353  0.05106626  1
  Ce3+  Ce29  1  0.49031454  0.36844226  0.05195240  1
  Ce3+  Ce30  1  0.86621340  0.73738606  0.93485838  1
  Ce3+  Ce31  1  0.39076719  0.75132636  0.44773855  1
  Ce3+  Ce32  1  0.01353148  0.62683456  0.56026841  1
  Ce3+  Ce33  1  0.13810284  -0.00206979  0.44729151  1
  Ce3+  Ce34  1  0.64024812  0.50973712  0.44373347  1
  Ce3+  Ce35  1  0.61665350  0.49672102  0.93696348  1
  Ce3+  Ce36  1  0.24136586  0.61640403  0.06632687  1
  Ce3+  Ce37  1  0.86928677  0.24297858  0.92858637  1
  Pr3+  Pr38  1  0.49236588  0.11743058  0.05498378  1
  Pr3+  Pr39  1  0.24834227  0.36932722  0.07641717  1
  Pr3+  Pr40  1  0.49066524  0.61984659  0.06290827  1
  Pr3+  Pr41  1  0.00980779  0.87448504  0.56927314  1
  Pr3+  Pr42  1  0.63796486  -0.00605915  0.45348421  1
  Pr3+  Pr43  1  0.76238455  0.62896098  0.56711503  1
  Pr3+  Pr44  1  0.36441901  0.49420809  0.93934572  1
  Pr3+  Pr45  1  0.26082445  0.37560927  0.55613992  1
  Pr3+  Pr46  1  -0.00914784  0.12061787  0.05451325  1
  Pr3+  Pr47  1  0.01185909  0.37095370  0.56340698  1
  Pr3+  Pr48  1  -0.01000127  0.36721923  0.06322275  1
  Pr3+  Pr49  1  -0.01088749  0.87141987  0.06693738  1
  Nd3+  Nd50  1  0.13717525  0.24714800  0.43345172  1
  Nd3+  Nd51  1  0.73540699  0.87407091  0.06254628  1
  Nd3+  Nd52  1  0.13686148  0.75054208  0.43639467  1
  Nd3+  Nd53  1  0.63871826  0.25068863  0.43896957  1
  Nd3+  Nd54  1  0.39178952  -0.00445359  0.44698556  1
  Nd3+  Nd55  1  0.76200570  0.87301394  0.57253322  1
  Nd3+  Nd56  1  0.36731782  0.74541225  0.93680971  1
  Nd3+  Nd57  1  0.61950751  0.24343475  0.93698193  1
  Sm3+  Sm58  1  0.51133529  0.37220085  0.55867797  1
  Sm3+  Sm59  1  0.86678930  -0.01917996  0.93722959  1
  Sm3+  Sm60  1  0.26034303  0.62489695  0.55793584  1
  Sm3+  Sm61  1  0.11820797  0.49107765  0.94798406  1
  Sm3+  Sm62  1  0.61622717  0.73534737  0.93217518  1
  Sm3+  Sm63  1  0.35959835  0.24800300  0.93102993  1
  Bi2+  Bi64  1  0.04379816  0.11555768  0.29706454  1
  Bi2+  Bi65  1  0.00935307  0.13017680  0.78189411  1
  Bi2+  Bi66  1  -0.04877851  0.35380987  0.25986206  1
  Bi2+  Bi67  1  -0.08994494  0.39830844  0.81038193  1
  Bi2+  Bi68  1  0.00729334  0.60445916  0.29533425  1
  Bi2+  Bi69  1  0.01646108  0.65983752  0.80278424  1
  Bi2+  Bi70  1  -0.03231338  0.88091579  0.30455462  1
  Bi2+  Bi71  1  0.01422405  0.85874844  0.78635160  1
  Bi2+  Bi72  1  0.22324983  0.08474466  0.24330808  1
  Bi2+  Bi73  1  0.25483508  0.13915393  0.79833783  1
  Bi2+  Bi74  1  0.23073761  0.37543370  0.29775567  1
  Bi2+  Bi75  1  0.22999259  0.40770754  0.78701146  1
  Bi2+  Bi76  1  0.24537485  0.71051395  0.30990177  1
  Bi2+  Bi77  1  0.18485599  0.58432314  0.75506105  1
  Bi2+  Bi78  1  0.22644690  0.90080818  0.28653020  1
  Bi2+  Bi79  1  0.23015816  0.86666890  0.77128124  1
  Bi2+  Bi80  1  0.51077829  0.10064712  0.28942012  1
  Bi2+  Bi81  1  0.51419128  0.19113690  0.78366381  1
  Bi2+  Bi82  1  0.48714195  0.36508334  0.30573168  1
  Bi2+  Bi83  1  0.50840237  0.39001479  0.79596678  1
  Bi2+  Bi84  1  0.42984728  0.61523255  0.29366929  1
  Bi2+  Bi85  1  0.46777350  0.59835576  0.79136793  1
  Bi2+  Bi86  1  0.49286608  0.89261193  0.29513001  1
  Bi2+  Bi87  1  0.48929960  0.85919401  0.82303525  1
  Bi2+  Bi88  1  0.74151286  0.16502734  0.27740750  1
  Bi2+  Bi89  1  0.80835834  0.16647451  0.78829995  1
  Bi2+  Bi90  1  0.73970859  0.33544152  0.33203411  1
  Bi2+  Bi91  1  0.71664784  0.37550246  0.80277871  1
  Bi2+  Bi92  1  0.73963573  0.52090767  0.30197087  1
  Bi2+  Bi93  1  0.74649966  0.56755971  0.79396593  1
  Bi2+  Bi94  1  0.75276524  0.90261424  0.28634963  1
  Bi2+  Bi95  1  0.76792821  0.90117648  0.79316017  1
  Bi2+  Bi96  1  0.13446150  -0.05715465  0.18151399  1
  Bi2+  Bi97  1  0.11073225  0.00097556  0.71030776  1
  Bi2+  Bi98  1  0.10558130  0.24271747  0.20717429  1
  Bi2+  Bi99  1  0.13406978  0.24163316  0.69113632  1
  Bi2+  Bi100  1  0.17521950  0.56371129  0.24161515  1
  Bi2+  Bi101  1  0.00460338  0.49965528  0.72668485  1
  Bi2+  Bi102  1  0.11831683  0.75389423  0.22096240  1
  Bi2+  Bi103  1  0.10899351  0.80991036  0.68137958  1
  Bi2+  Bi104  1  0.39718874  0.01484064  0.21149741  1
  Bi2+  Bi105  1  0.37983806  -0.00020108  0.71933448  1
  Bi2+  Bi106  1  0.37602912  0.25640753  0.20561977  1
  Bi2+  Bi107  1  0.38496625  0.29277776  0.72053860  1
  Bi2+  Bi108  1  0.37205158  0.51568664  0.20158806  1
  Bi2+  Bi109  1  0.42653735  0.48253869  0.69916538  1
  Bi2+  Bi110  1  0.36402450  0.75769620  0.20699833  1
  Bi2+  Bi111  1  0.28273481  0.72115204  0.69689856  1
  Bi2+  Bi112  1  0.64420493  0.03107036  0.21546816  1
  Bi2+  Bi113  1  0.64006117  0.00744668  0.72660212  1
  Bi2+  Bi114  1  0.63209776  0.31217025  0.23223103  1
  Bi2+  Bi115  1  0.62866238  0.27162272  0.70165892  1
  Bi2+  Bi116  1  0.56059582  0.49891676  0.23261257  1
  Bi2+  Bi117  1  0.61757639  0.47052288  0.69622380  1
  Bi2+  Bi118  1  0.64633434  0.77201399  0.18472353  1
  Bi2+  Bi119  1  0.62968457  0.74324202  0.71906560  1
  Bi2+  Bi120  1  0.95905773  -0.00141816  0.21615196  1
  Bi2+  Bi121  1  0.90282339  0.00047530  0.71456017  1
  Bi2+  Bi122  1  0.84938896  0.23679734  0.18853448  1
  Bi2+  Bi123  1  0.90041311  0.27844723  0.71306962  1
  Bi2+  Bi124  1  0.83938285  0.47656798  0.20729882  1
  Bi2+  Bi125  1  0.81537467  0.47075620  0.69889692  1
  Bi2+  Bi126  1  0.87182232  0.71509857  0.20015133  1
  Bi2+  Bi127  1  0.89370540  0.73680040  0.71262494  1
  S2-  S128  1  -0.01153379  0.14054834  0.15495170  1
  S2-  S129  1  -0.00316373  0.17414587  0.64482108  1
  S2-  S130  1  0.03538220  0.36467468  0.16149547  1
  S2-  S131  1  0.08047033  0.38320194  0.65702562  1
  S2-  S132  1  -0.04385525  0.56921287  0.16734024  1
  S2-  S133  1  0.00000242  0.63502535  0.65741401  1
  S2-  S134  1  0.00095628  0.75887497  0.14399129  1
  S2-  S135  1  -0.10971971  0.87218555  0.64523696  1
  S2-  S136  1  0.24495570  0.22960238  0.13992396  1
  S2-  S137  1  0.25011326  0.07634801  0.67061385  1
  S2-  S138  1  0.23291433  0.50052425  0.14691924  1
  S2-  S139  1  0.26830983  0.27671863  0.63861698  1
  S2-  S140  1  0.24154769  0.72861115  0.14305719  1
  S2-  S141  1  0.24394736  0.57499075  0.65178249  1
  S2-  S142  1  0.37243081  0.89350060  0.14323263  1
  S2-  S143  1  0.34175046  0.87596271  0.65062780  1
  S2-  S144  1  0.47169488  0.14469545  0.15530719  1
  S2-  S145  1  0.50562177  0.03759617  0.66032919  1
  S2-  S146  1  0.41938051  0.36679416  0.14162683  1
  S2-  S147  1  0.49935181  0.26503932  0.63728243  1
  S2-  S148  1  0.49854914  0.71851138  0.14609406  1
  S2-  S149  1  0.50920640  0.69857904  0.66204358  1
  S2-  S150  1  0.60918950  0.91315988  0.13726451  1
  S2-  S151  1  0.50166718  0.86402226  0.72879916  1
  S2-  S152  1  0.74673359  0.11086233  0.14825625  1
  S2-  S153  1  0.75970486  0.06370122  0.67088794  1
  S2-  S154  1  0.74307383  0.36231020  0.14846125  1
  S2-  S155  1  0.77473193  0.27064622  0.64145548  1
  S2-  S156  1  0.73415291  0.62144217  0.16572284  1
  S2-  S157  1  0.76337835  0.67183125  0.66732014  1
  S2-  S158  1  0.80888826  0.84055387  0.15402721  1
  S2-  S159  1  0.67197392  0.87333308  0.66357069  1
  S2-  S160  1  0.10417518  -0.03019254  0.35197885  1
  S2-  S161  1  0.12912344  0.07542724  0.85288665  1
  S2-  S162  1  0.14905101  0.24788400  0.33375691  1
  S2-  S163  1  0.23755769  0.27426468  0.85479096  1
  S2-  S164  1  0.10682492  0.48389640  0.34162904  1
  S2-  S165  1  0.12957913  0.49221687  0.84867499  1
  S2-  S166  1  0.02745423  0.74584584  0.35737394  1
  S2-  S167  1  0.14331143  0.76038807  0.84049878  1
  S2-  S168  1  0.39499574  0.02089162  0.34672464  1
  S2-  S169  1  0.33326736  -0.05035603  0.82993711  1
  S2-  S170  1  0.34748259  0.26806178  0.32223783  1
  S2-  S171  1  0.38976773  0.14182303  0.85348011  1
  S2-  S172  1  0.35018763  0.48645679  0.34097420  1
  S2-  S173  1  0.36199893  0.48004946  0.83903901  1
  S2-  S174  1  0.45489200  0.76211879  0.35635394  1
  S2-  S175  1  0.38435879  0.71470390  0.83785147  1
  S2-  S176  1  0.62848816  -0.05389711  0.35492550  1
  S2-  S177  1  0.57736405  0.00626521  0.82961389  1
  S2-  S178  1  0.53800527  0.22409545  0.35920155  1
  S2-  S179  1  0.65924789  0.21441534  0.84117239  1
  S2-  S180  1  0.62686267  0.59640490  0.35911912  1
  S2-  S181  1  0.60873848  0.59966171  0.85734115  1
  S2-  S182  1  0.61496232  0.77666282  0.27856965  1
  S2-  S183  1  0.64763924  0.81185970  0.84505267  1
  S2-  S184  1  0.86122633  0.00202077  0.33976488  1
  S2-  S185  1  0.82252263  0.03655985  0.84710165  1
  S2-  S186  1  0.93993531  0.23718064  0.33417015  1
  S2-  S187  1  0.98792290  0.25747016  0.85453875  1
  S2-  S188  1  0.88550654  0.57129903  0.35798514  1
  S2-  S189  1  0.86905861  0.61281428  0.85987864  1
  S2-  S190  1  0.79383380  0.78084512  0.34461082  1
  S2-  S191  1  0.88030960  0.84316376  0.85699284  1
  S2-  S192  1  0.01106580  0.12240468  0.44664064  1
  S2-  S193  1  -0.01477896  0.11068502  0.94939641  1
  S2-  S194  1  0.01266443  0.37288136  0.45184258  1
  S2-  S195  1  -0.00823390  0.37319968  0.95617912  1
  S2-  S196  1  0.01778562  0.62028519  0.45683195  1
  S2-  S197  1  -0.00422907  0.61515099  0.96010347  1
  S2-  S198  1  0.01389496  0.87216900  0.46181840  1
  S2-  S199  1  -0.00478917  0.87000963  0.95867432  1
  S2-  S200  1  0.26257398  0.12398076  0.45113199  1
  S2-  S201  1  0.24266690  0.12044076  0.95516729  1
  S2-  S202  1  0.26333915  0.37130098  0.44816612  1
  S2-  S203  1  0.24116329  0.37221130  0.96273299  1
  S2-  S204  1  0.26130102  0.62519005  0.45155917  1
  S2-  S205  1  0.24087233  0.61763623  0.95281615  1
  S2-  S206  1  0.26224765  0.87368527  0.45354598  1
  S2-  S207  1  0.24381143  0.87103003  0.95239733  1
  S2-  S208  1  0.51413058  0.11986307  0.46174155  1
  S2-  S209  1  0.50181126  0.11961262  0.94961145  1
  S2-  S210  1  0.51726731  0.37855914  0.45362717  1
  S2-  S211  1  0.49177474  0.36689224  0.94464573  1
  S2-  S212  1  0.51018598  0.62586771  0.46178121  1
  S2-  S213  1  0.48842802  0.61905316  0.95638963  1
  S2-  S214  1  0.51331142  0.87227180  0.45766533  1
  S2-  S215  1  0.49318623  0.86725813  0.94926520  1
  S2-  S216  1  0.76109464  0.12445607  0.45249623  1
  S2-  S217  1  0.74472424  0.11778100  0.94828774  1
  S2-  S218  1  0.76097573  0.37887237  0.45809247  1
  S2-  S219  1  0.74381563  0.37135387  0.94461809  1
  S2-  S220  1  0.76560731  0.62282536  0.46150069  1
  S2-  S221  1  0.73929970  0.61669119  0.95745731  1
  S2-  S222  1  0.76016067  0.86826652  0.46048888  1
  S2-  S223  1  0.74174924  0.86299025  0.95518369  1
  S2-  S224  1  0.11754338  -0.00396517  0.04696046  1
  S2-  S225  1  0.13639163  0.00118344  0.55336465  1
  S2-  S226  1  0.11414308  0.24482261  0.03969329  1
  S2-  S227  1  0.13507812  0.25011540  0.53906786  1
  S2-  S228  1  0.11258221  0.49409138  0.05112716  1
  S2-  S229  1  0.13650637  0.49979335  0.54474883  1
  S2-  S230  1  0.11828581  0.74726140  0.04421489  1
  S2-  S231  1  0.13950588  0.74872803  0.54509886  1
  S2-  S232  1  0.36507107  -0.00068510  0.03844680  1
  S2-  S233  1  0.38092131  0.00533550  0.55169012  1
  S2-  S234  1  0.37000468  0.24341142  0.03546172  1
  S2-  S235  1  0.38748519  0.25358410  0.53306406  1
  S2-  S236  1  0.36871951  0.49561346  0.04456017  1
  S2-  S237  1  0.38710489  0.49845614  0.54790295  1
  S2-  S238  1  0.36603135  0.74135649  0.04115235  1
  S2-  S239  1  0.38261574  0.74672509  0.55202321  1
  S2-  S240  1  0.61785793  -0.00162249  0.03251157  1
  S2-  S241  1  0.64106049  0.00156213  0.55789552  1
  S2-  S242  1  0.61656276  0.24589059  0.04482903  1
  S2-  S243  1  0.63829508  0.25277208  0.54316444  1
  S2-  S244  1  0.61563604  0.49395198  0.04720886  1
  S2-  S245  1  0.63587885  0.49808357  0.55289404  1
  S2-  S246  1  0.61741501  0.74325430  0.03929455  1
  S2-  S247  1  0.63664007  0.75089908  0.56219958  1
  S2-  S248  1  0.86557506  -0.00595178  0.04573195  1
  S2-  S249  1  0.88648478  0.00345517  0.54761262  1
  S2-  S250  1  0.86645594  0.24484396  0.03847451  1
  S2-  S251  1  0.88862459  0.25132876  0.53776181  1
  S2-  S252  1  0.86661305  0.49405293  0.04615569  1
  S2-  S253  1  0.88917409  0.49881483  0.55497191  1
  S2-  S254  1  0.86516833  0.74702554  0.04168913  1
  S2-  S255  1  0.88935577  0.74692135  0.54421601  1
