# generated using pymatgen
data_La9Ce10Pr6Nd4Sm3(BiS2)32
_symmetry_space_group_name_H-M   'P 1'
_cell_length_a   16.15121634
_cell_length_b   16.20200613
_cell_length_c   27.22472847
_cell_angle_alpha   89.72528076
_cell_angle_beta   89.94848805
_cell_angle_gamma   90.00984000
_symmetry_Int_Tables_number   1
_chemical_formula_structural   La9Ce10Pr6Nd4Sm3(BiS2)32
_chemical_formula_sum   'La18 Ce20 Pr12 Nd8 Sm6 Bi64 S128'
_cell_volume   7124.13940374
_cell_formula_units_Z   2
loop_
 _symmetry_equiv_pos_site_id
 _symmetry_equiv_pos_as_xyz
  1  'x, y, z'
loop_
 _atom_type_symbol
 _atom_type_oxidation_number
  La3+  3.0
  Ce3+  3.0
  Pr3+  3.0
  Nd3+  3.0
  Sm3+  3.0
  Bi2+  2.0
  S2-  -2.0
loop_
 _atom_site_type_symbol
 _atom_site_label
 _atom_site_symmetry_multiplicity
 _atom_site_fract_x
 _atom_site_fract_y
 _atom_site_fract_z
 _atom_site_occupancy
  La3+  La0  1  0.48970416  0.37454295  0.06661599  1
  La3+  La1  1  0.11480106  0.24901199  0.42528319  1
  La3+  La2  1  0.61795006  0.75989803  0.41384467  1
  La3+  La3  1  0.60934886  0.24529849  0.93229708  1
  La3+  La4  1  0.24829870  0.12047129  0.57931071  1
  La3+  La5  1  0.86126423  0.25455974  0.42874993  1
  La3+  La6  1  0.86469206  0.74813715  0.88694122  1
  La3+  La7  1  0.86684735  -0.00258450  0.43777196  1
  La3+  La8  1  0.73649763  0.62890737  0.56732809  1
  La3+  La9  1  0.36705470  0.24977313  0.42611823  1
  La3+  La10  1  0.11369837  0.75515630  0.43625536  1
  La3+  La11  1  0.34939206  0.25232694  0.88925827  1
  La3+  La12  1  0.49739380  0.12906293  0.56937663  1
  La3+  La13  1  0.00199011  0.62514789  0.58333323  1
  La3+  La14  1  0.11958288  0.50377284  0.94011914  1
  La3+  La15  1  0.36924650  0.75191287  0.93338056  1
  La3+  La16  1  0.51169869  0.62534279  0.11307427  1
  La3+  La17  1  -0.01636515  0.88664749  0.58590922  1
  Ce3+  Ce18  1  -0.00797472  0.12899458  0.56222454  1
  Ce3+  Ce19  1  0.61499085  0.00051509  0.43453238  1
  Ce3+  Ce20  1  0.11188060  0.75426831  0.94407089  1
  Ce3+  Ce21  1  0.25118769  0.62858062  0.06495085  1
  Ce3+  Ce22  1  0.61783608  0.50711680  0.43545294  1
  Ce3+  Ce23  1  0.48431460  0.13078953  0.07558276  1
  Ce3+  Ce24  1  0.36323093  0.75482442  0.42863994  1
  Ce3+  Ce25  1  0.49780461  0.87060733  0.55817685  1
  Ce3+  Ce26  1  0.74220436  0.37716882  0.55604250  1
  Ce3+  Ce27  1  -0.00907238  0.62785482  0.06130453  1
  Ce3+  Ce28  1  0.86789501  0.50466359  0.93978254  1
  Ce3+  Ce29  1  -0.00570715  0.12815956  0.07198894  1
  Ce3+  Ce30  1  0.11412878  0.50487286  0.44337078  1
  Ce3+  Ce31  1  0.24312106  0.87446984  0.05535746  1
  Ce3+  Ce32  1  -0.00795125  0.37888465  0.05812149  1
  Ce3+  Ce33  1  0.86942075  0.24787832  0.93866376  1
  Ce3+  Ce34  1  -0.00809019  0.37357201  0.55252346  1
  Ce3+  Ce35  1  0.36822921  0.00923759  0.94443740  1
  Ce3+  Ce36  1  0.74372680  0.87659234  0.06067617  1
  Ce3+  Ce37  1  0.73654448  0.12768362  0.55651481  1
  Pr3+  Pr38  1  0.11728035  0.00621939  0.94023017  1
  Pr3+  Pr39  1  0.24610839  0.62486342  0.56214034  1
  Pr3+  Pr40  1  0.24297273  0.87333941  0.56986953  1
  Pr3+  Pr41  1  0.24129371  0.37147666  0.55634268  1
  Pr3+  Pr42  1  0.74681309  0.12950152  0.07389251  1
  Pr3+  Pr43  1  0.49113332  0.62844404  0.55825053  1
  Pr3+  Pr44  1  0.36629175  0.00299658  0.44799202  1
  Pr3+  Pr45  1  0.11742149  0.00189826  0.44714956  1
  Pr3+  Pr46  1  0.49170096  0.87508147  0.06733181  1
  Pr3+  Pr47  1  0.73971030  0.37713718  0.05147360  1
  Pr3+  Pr48  1  0.36385142  0.50385549  0.43220693  1
  Pr3+  Pr49  1  0.61912344  0.75690144  0.93746040  1
  Nd3+  Nd50  1  0.86765894  0.00452177  0.93635743  1
  Nd3+  Nd51  1  0.61315819  0.25485380  0.42831993  1
  Nd3+  Nd52  1  0.49536048  0.37680172  0.55637641  1
  Nd3+  Nd53  1  0.61689982  0.00743730  0.95279315  1
  Nd3+  Nd54  1  0.61586127  0.50553306  0.94195685  1
  Nd3+  Nd55  1  0.24125083  0.12762717  0.06764381  1
  Nd3+  Nd56  1  0.74355542  0.63019087  0.05769714  1
  Nd3+  Nd57  1  0.37286293  0.50611146  0.93866176  1
  Sm3+  Sm58  1  0.11725068  0.25213684  0.94619549  1
  Sm3+  Sm59  1  0.24434555  0.37715896  0.05818455  1
  Sm3+  Sm60  1  0.86790582  0.50912393  0.44943413  1
  Sm3+  Sm61  1  0.73509676  0.87656089  0.56341665  1
  Sm3+  Sm62  1  0.87259998  0.75166633  0.44987310  1
  Sm3+  Sm63  1  -0.00962262  0.87585975  0.05688904  1
  Bi2+  Bi64  1  0.04997156  0.14281884  0.27300287  1
  Bi2+  Bi65  1  0.01897593  0.16807472  0.82025619  1
  Bi2+  Bi66  1  -0.00598881  0.35416781  0.28750880  1
  Bi2+  Bi67  1  -0.08418363  0.34210294  0.80745885  1
  Bi2+  Bi68  1  0.01596897  0.59956774  0.30493241  1
  Bi2+  Bi69  1  0.00671136  0.62058773  0.79285366  1
  Bi2+  Bi70  1  0.06664723  0.86153774  0.30379510  1
  Bi2+  Bi71  1  -0.00614274  0.87910969  0.78678212  1
  Bi2+  Bi72  1  0.25670610  0.10612633  0.29429229  1
  Bi2+  Bi73  1  0.25229772  0.00863357  0.79497518  1
  Bi2+  Bi74  1  0.18548037  0.37682871  0.28928719  1
  Bi2+  Bi75  1  0.20780341  0.37679979  0.79323558  1
  Bi2+  Bi76  1  0.25298825  0.65728148  0.28945616  1
  Bi2+  Bi77  1  0.25750423  0.63106601  0.77958987  1
  Bi2+  Bi78  1  0.28769474  0.94103681  0.23291549  1
  Bi2+  Bi79  1  0.28210477  0.81950053  0.80937691  1
  Bi2+  Bi80  1  0.49559972  0.11555047  0.28229020  1
  Bi2+  Bi81  1  0.51633541  0.02302088  0.79752946  1
  Bi2+  Bi82  1  0.60527464  0.32750954  0.28915963  1
  Bi2+  Bi83  1  0.46525393  0.38854003  0.78855112  1
  Bi2+  Bi84  1  0.47263965  0.58593087  0.31717247  1
  Bi2+  Bi85  1  0.49736194  0.64841663  0.78878964  1
  Bi2+  Bi86  1  0.46060209  0.89034588  0.28504750  1
  Bi2+  Bi87  1  0.48364843  0.83520189  0.82934814  1
  Bi2+  Bi88  1  0.74591292  0.13707975  0.28801555  1
  Bi2+  Bi89  1  0.73533582  0.13436143  0.78767028  1
  Bi2+  Bi90  1  0.81462417  0.42966027  0.26615646  1
  Bi2+  Bi91  1  0.71463378  0.33271074  0.78744285  1
  Bi2+  Bi92  1  0.83088597  0.64471386  0.27820556  1
  Bi2+  Bi93  1  0.70241588  0.52736109  0.78154408  1
  Bi2+  Bi94  1  0.79745508  0.85001694  0.31701562  1
  Bi2+  Bi95  1  0.66799012  0.88419556  0.79024777  1
  Bi2+  Bi96  1  0.09606611  -0.01561190  0.21226101  1
  Bi2+  Bi97  1  0.13068726  0.05081834  0.71065430  1
  Bi2+  Bi98  1  0.14245235  0.26335925  0.19992199  1
  Bi2+  Bi99  1  0.04690795  0.27463031  0.72516206  1
  Bi2+  Bi100  1  0.16069989  0.53239438  0.20994214  1
  Bi2+  Bi101  1  0.12731577  0.49468638  0.69836773  1
  Bi2+  Bi102  1  0.09929312  0.72187479  0.22545118  1
  Bi2+  Bi103  1  0.18272306  0.77171507  0.71070172  1
  Bi2+  Bi104  1  0.48551958  -0.00159555  0.18866889  1
  Bi2+  Bi105  1  0.39863563  -0.07497713  0.72721813  1
  Bi2+  Bi106  1  0.37864853  0.22303359  0.21604347  1
  Bi2+  Bi107  1  0.32218004  0.27508243  0.68287503  1
  Bi2+  Bi108  1  0.35375467  0.47332008  0.21306744  1
  Bi2+  Bi109  1  0.38991905  0.58964572  0.69604782  1
  Bi2+  Bi110  1  0.36442926  0.75627909  0.21412189  1
  Bi2+  Bi111  1  0.38029213  0.77024101  0.65652495  1
  Bi2+  Bi112  1  0.68487891  -0.00972937  0.21344760  1
  Bi2+  Bi113  1  0.71387809  -0.00790916  0.69467358  1
  Bi2+  Bi114  1  0.64226549  0.18096687  0.19029522  1
  Bi2+  Bi115  1  0.59128519  0.26421707  0.69814192  1
  Bi2+  Bi116  1  0.63739434  0.48781768  0.21250651  1
  Bi2+  Bi117  1  0.57478786  0.50321625  0.69474271  1
  Bi2+  Bi118  1  0.63938582  0.74720805  0.22162264  1
  Bi2+  Bi119  1  0.58584585  0.76525290  0.71110560  1
  Bi2+  Bi120  1  0.87900586  0.03002759  0.23202058  1
  Bi2+  Bi121  1  0.88912789  0.05976746  0.73172005  1
  Bi2+  Bi122  1  0.82204295  0.26245227  0.20435040  1
  Bi2+  Bi123  1  0.84637232  0.24685275  0.70695314  1
  Bi2+  Bi124  1  0.96864878  0.48687023  0.19372519  1
  Bi2+  Bi125  1  0.85810716  0.46977773  0.71891864  1
  Bi2+  Bi126  1  0.89192915  0.79306269  0.21299017  1
  Bi2+  Bi127  1  0.87298561  0.73162563  0.68534083  1
  S2-  S128  1  0.12025903  0.12261478  0.14346330  1
  S2-  S129  1  -0.00968939  0.04026226  0.64772927  1
  S2-  S130  1  -0.00079149  0.32905274  0.15161484  1
  S2-  S131  1  0.01534858  0.38791593  0.64889835  1
  S2-  S132  1  -0.04709043  0.65119556  0.15612793  1
  S2-  S133  1  -0.02151480  0.58968389  0.68829189  1
  S2-  S134  1  -0.01696529  0.89951487  0.15513035  1
  S2-  S135  1  0.03069184  0.81776411  0.67818184  1
  S2-  S136  1  0.35165247  0.10957566  0.14847024  1
  S2-  S137  1  0.16863064  0.19918670  0.65902591  1
  S2-  S138  1  0.28391030  0.36061929  0.15623170  1
  S2-  S139  1  0.25363802  0.43365662  0.65142462  1
  S2-  S140  1  0.34330616  0.61887080  0.14943392  1
  S2-  S141  1  0.15400995  0.63550261  0.64700785  1
  S2-  S142  1  0.25159892  0.84032420  0.15125915  1
  S2-  S143  1  0.22991778  0.97808271  0.65201797  1
  S2-  S144  1  0.50293820  0.25484338  0.14695943  1
  S2-  S145  1  0.38726954  0.14072100  0.64850716  1
  S2-  S146  1  0.49731265  0.46379690  0.15682579  1
  S2-  S147  1  0.46831951  0.36179629  0.65589787  1
  S2-  S148  1  0.53164461  0.62408746  0.22697004  1
  S2-  S149  1  0.59844353  0.63958040  0.63878474  1
  S2-  S150  1  0.51157669  0.78801137  0.15461539  1
  S2-  S151  1  0.60716230  0.88091373  0.63610777  1
  S2-  S152  1  0.87631730  0.12390373  0.14561215  1
  S2-  S153  1  0.63452645  0.12842598  0.63894195  1
  S2-  S154  1  0.73103262  0.38088606  0.15243753  1
  S2-  S155  1  0.67702166  0.37479835  0.64711155  1
  S2-  S156  1  0.68575576  0.62374744  0.15286293  1
  S2-  S157  1  0.78725051  0.58726363  0.66405319  1
  S2-  S158  1  0.74208371  0.85107658  0.15924446  1
  S2-  S159  1  0.82766650  0.88429286  0.64777762  1
  S2-  S160  1  0.13485678  0.00190513  0.34619118  1
  S2-  S161  1  0.08754965  0.00163118  0.83978666  1
  S2-  S162  1  0.24188494  0.24306412  0.35184454  1
  S2-  S163  1  0.17487078  0.24511198  0.85283057  1
  S2-  S164  1  0.14951047  0.52325051  0.34843339  1
  S2-  S165  1  0.10908332  0.50089368  0.83856237  1
  S2-  S166  1  0.23495901  0.77218349  0.35915141  1
  S2-  S167  1  0.04744471  0.75390648  0.85233112  1
  S2-  S168  1  0.38832244  0.01847996  0.34757060  1
  S2-  S169  1  0.37498672  0.08486457  0.85552283  1
  S2-  S170  1  0.49383619  0.24928095  0.35178618  1
  S2-  S171  1  0.34143124  0.26340251  0.77824631  1
  S2-  S172  1  0.37394252  0.46362251  0.33202807  1
  S2-  S173  1  0.34157909  0.42030292  0.85175762  1
  S2-  S174  1  0.47227705  0.75521772  0.34984855  1
  S2-  S175  1  0.36224885  0.62685797  0.85805869  1
  S2-  S176  1  0.64934920  -0.08748183  0.35360855  1
  S2-  S177  1  0.62609165  0.09475128  0.86557153  1
  S2-  S178  1  0.73316020  0.26855563  0.35351775  1
  S2-  S179  1  0.51216972  0.27678854  0.84935233  1
  S2-  S180  1  0.60853290  0.47896210  0.33740825  1
  S2-  S181  1  0.57004377  0.50814598  0.84388495  1
  S2-  S182  1  0.68855602  0.70383695  0.32152263  1
  S2-  S183  1  0.69903084  0.74964719  0.84746494  1
  S2-  S184  1  0.88636383  -0.01662773  0.33711716  1
  S2-  S185  1  0.87641123  -0.08700633  0.84849984  1
  S2-  S186  1  0.97982182  0.22378489  0.35377837  1
  S2-  S187  1  0.86505139  0.13456072  0.86470460  1
  S2-  S188  1  0.86746307  0.51461645  0.35106453  1
  S2-  S189  1  0.87787355  0.57609258  0.85077247  1
  S2-  S190  1  0.97485754  0.76193946  0.36764667  1
  S2-  S191  1  0.88337890  0.74576154  0.77875527  1
  S2-  S192  1  -0.01118828  0.12392162  0.45668465  1
  S2-  S193  1  -0.00431024  0.12929017  0.96366858  1
  S2-  S194  1  -0.01161959  0.38118191  0.44716980  1
  S2-  S195  1  -0.00696355  0.37653504  0.95046046  1
  S2-  S196  1  -0.00776814  0.62602199  0.46751914  1
  S2-  S197  1  -0.00897230  0.62829576  0.95600997  1
  S2-  S198  1  -0.00939575  0.88003701  0.46861202  1
  S2-  S199  1  -0.00730035  0.87995819  0.95432802  1
  S2-  S200  1  0.24177845  0.12625102  0.46016802  1
  S2-  S201  1  0.24053744  0.13044638  0.95828848  1
  S2-  S202  1  0.23949962  0.37894462  0.44981567  1
  S2-  S203  1  0.24080186  0.37545186  0.95494994  1
  S2-  S204  1  0.24073590  0.62648986  0.45542655  1
  S2-  S205  1  0.23830332  0.63097665  0.95784429  1
  S2-  S206  1  0.24200669  0.88001889  0.46233940  1
  S2-  S207  1  0.24117666  0.87887496  0.94843312  1
  S2-  S208  1  0.49433702  0.12544837  0.45627891  1
  S2-  S209  1  0.48959159  0.12614424  0.96670076  1
  S2-  S210  1  0.49185586  0.38226389  0.44967963  1
  S2-  S211  1  0.49462417  0.38265553  0.95791672  1
  S2-  S212  1  0.49139338  0.62680285  0.45045799  1
  S2-  S213  1  0.49781670  0.63106008  0.95200336  1
  S2-  S214  1  0.49126829  0.87848557  0.45233943  1
  S2-  S215  1  0.49292761  0.88252663  0.95864551  1
  S2-  S216  1  0.73917202  0.12382252  0.44883328  1
  S2-  S217  1  0.74493902  0.12845050  0.96707997  1
  S2-  S218  1  0.74309260  0.38642539  0.45201123  1
  S2-  S219  1  0.74160551  0.37652334  0.94399055  1
  S2-  S220  1  0.74587510  0.63166062  0.45304827  1
  S2-  S221  1  0.74464605  0.62860472  0.95218801  1
  S2-  S222  1  0.74678251  0.87156997  0.45833982  1
  S2-  S223  1  0.74187575  0.88352316  0.95478516  1
  S2-  S224  1  0.11731798  -0.00356816  0.04684785  1
  S2-  S225  1  0.11607017  0.00284823  0.55126312  1
  S2-  S226  1  0.11839783  0.25730337  0.04803641  1
  S2-  S227  1  0.11430344  0.25083509  0.53787543  1
  S2-  S228  1  0.11941485  0.50334153  0.05127904  1
  S2-  S229  1  0.11774841  0.49882576  0.54729290  1
  S2-  S230  1  0.11586153  0.75103989  0.05155773  1
  S2-  S231  1  0.11695557  0.75436541  0.54879084  1
  S2-  S232  1  0.36494330  -0.00254998  0.04850321  1
  S2-  S233  1  0.37493606  -0.00489019  0.55294750  1
  S2-  S234  1  0.35998859  0.25285718  0.04946740  1
  S2-  S235  1  0.36975588  0.25357527  0.53931004  1
  S2-  S236  1  0.36399573  0.50038742  0.04461546  1
  S2-  S237  1  0.36899521  0.50039231  0.54153187  1
  S2-  S238  1  0.36895395  0.75358093  0.04311351  1
  S2-  S239  1  0.36695157  0.75097070  0.53708711  1
  S2-  S240  1  0.61819939  0.00416667  0.05920603  1
  S2-  S241  1  0.61805658  0.00112938  0.53740731  1
  S2-  S242  1  0.62112200  0.24918971  0.04349029  1
  S2-  S243  1  0.61853544  0.25612036  0.53530754  1
  S2-  S244  1  0.61736423  0.50684334  0.04801111  1
  S2-  S245  1  0.61697195  0.50120169  0.54104419  1
  S2-  S246  1  0.61873115  0.75220295  0.04584514  1
  S2-  S247  1  0.61741934  0.75177777  0.53266831  1
  S2-  S248  1  0.86850377  -0.00068800  0.04604630  1
  S2-  S249  1  0.85912344  0.00688231  0.54592697  1
  S2-  S250  1  0.86835003  0.25595700  0.04483203  1
  S2-  S251  1  0.86423627  0.25098325  0.54252654  1
  S2-  S252  1  0.86588896  0.50281116  0.04765901  1
  S2-  S253  1  0.86937301  0.50142177  0.55374029  1
  S2-  S254  1  0.86803203  0.75394988  0.05220236  1
  S2-  S255  1  0.86952843  0.74815386  0.55390000  1
