# generated using pymatgen
data_La9Ce10Pr6Nd4Sm3(BiS2)32
_symmetry_space_group_name_H-M   'P 1'
_cell_length_a   16.23460059
_cell_length_b   16.24480366
_cell_length_c   27.07698412
_cell_angle_alpha   90.05731556
_cell_angle_beta   89.91040769
_cell_angle_gamma   90.05276498
_symmetry_Int_Tables_number   1
_chemical_formula_structural   La9Ce10Pr6Nd4Sm3(BiS2)32
_chemical_formula_sum   'La18 Ce20 Pr12 Nd8 Sm6 Bi64 S128'
_cell_volume   7140.94081443
_cell_formula_units_Z   2
loop_
 _symmetry_equiv_pos_site_id
 _symmetry_equiv_pos_as_xyz
  1  'x, y, z'
loop_
 _atom_type_symbol
 _atom_type_oxidation_number
  La3+  3.0
  Ce3+  3.0
  Pr3+  3.0
  Nd3+  3.0
  Sm3+  3.0
  Bi2+  2.0
  S2-  -2.0
loop_
 _atom_site_type_symbol
 _atom_site_label
 _atom_site_symmetry_multiplicity
 _atom_site_fract_x
 _atom_site_fract_y
 _atom_site_fract_z
 _atom_site_occupancy
  La3+  La0  1  0.74440841  0.64285028  0.07110807  1
  La3+  La1  1  0.24529574  0.62572152  0.56390257  1
  La3+  La2  1  0.49125853  0.11764872  0.59330731  1
  La3+  La3  1  0.01011125  0.39785997  0.08198380  1
  La3+  La4  1  0.11350120  0.51888128  0.91994826  1
  La3+  La5  1  0.00254451  0.89309582  0.05697549  1
  La3+  La6  1  0.24546118  0.87568793  0.56364057  1
  La3+  La7  1  0.50700168  0.38295196  0.59094057  1
  La3+  La8  1  0.37092406  0.27059564  0.91790363  1
  La3+  La9  1  0.24561566  0.12723820  0.56566418  1
  La3+  La10  1  0.62663162  0.76388457  0.93315458  1
  La3+  La11  1  0.00429501  0.64449098  0.06988792  1
  La3+  La12  1  0.86799965  0.25147926  0.38879192  1
  La3+  La13  1  0.61446481  0.75331782  0.43653711  1
  La3+  La14  1  0.35961799  0.73827775  0.38966571  1
  La3+  La15  1  0.25616247  0.89409831  0.09192208  1
  La3+  La16  1  -0.00131672  0.11740268  0.57486382  1
  La3+  La17  1  0.23777786  0.37670031  0.57964209  1
  Ce3+  Ce18  1  0.12404277  0.00191033  0.43661907  1
  Ce3+  Ce19  1  0.12484002  0.76268675  0.94067936  1
  Ce3+  Ce20  1  0.12240976  0.49976469  0.43919959  1
  Ce3+  Ce21  1  0.12233656  0.26583229  0.94366605  1
  Ce3+  Ce22  1  0.37209489  0.76329966  0.93613407  1
  Ce3+  Ce23  1  0.86971893  0.75002061  0.43184549  1
  Ce3+  Ce24  1  0.00223100  0.13931866  0.05756836  1
  Ce3+  Ce25  1  0.87324805  0.51538592  0.94847175  1
  Ce3+  Ce26  1  0.49315375  0.64235807  0.05328474  1
  Ce3+  Ce27  1  0.49639953  0.14026328  0.04609361  1
  Ce3+  Ce28  1  0.12669015  0.01497011  0.93705029  1
  Ce3+  Ce29  1  0.25012253  0.38935337  0.05626031  1
  Ce3+  Ce30  1  0.74432982  0.87304228  0.55787683  1
  Ce3+  Ce31  1  0.62490425  0.51249297  0.94623954  1
  Ce3+  Ce32  1  0.87639357  0.26947848  0.95268699  1
  Ce3+  Ce33  1  0.74581927  0.88849672  0.06988717  1
  Ce3+  Ce34  1  -0.00424403  0.37368918  0.55728993  1
  Ce3+  Ce35  1  0.37672431  0.25434477  0.45007073  1
  Ce3+  Ce36  1  0.37364573  0.51087457  0.93685932  1
  Ce3+  Ce37  1  0.87247299  0.01412407  0.94611150  1
  Pr3+  Pr38  1  0.73886627  0.39493968  0.08164069  1
  Pr3+  Pr39  1  0.49669937  0.87191536  0.56829719  1
  Pr3+  Pr40  1  0.12134585  0.25127881  0.43652057  1
  Pr3+  Pr41  1  0.25480310  0.14033805  0.05859967  1
  Pr3+  Pr42  1  0.74343693  0.62259850  0.55701998  1
  Pr3+  Pr43  1  0.87085423  0.50243846  0.43187715  1
  Pr3+  Pr44  1  0.37531248  -0.00047851  0.44233845  1
  Pr3+  Pr45  1  0.61397447  0.49911409  0.43440211  1
  Pr3+  Pr46  1  0.62966985  0.01402938  0.93731308  1
  Pr3+  Pr47  1  -0.00799128  0.62395534  0.55935139  1
  Pr3+  Pr48  1  -0.00900402  0.87495052  0.55145857  1
  Pr3+  Pr49  1  0.74670062  0.14129850  0.06056299  1
  Nd3+  Nd50  1  0.61571272  0.24971332  0.44009997  1
  Nd3+  Nd51  1  0.37529566  0.01037981  0.92683215  1
  Nd3+  Nd52  1  0.74474484  0.12821657  0.56106705  1
  Nd3+  Nd53  1  0.49389814  0.38712435  0.06136956  1
  Nd3+  Nd54  1  0.49589575  0.89092732  0.05844450  1
  Nd3+  Nd55  1  0.87116261  0.00547611  0.43979106  1
  Nd3+  Nd56  1  0.62843301  0.26958368  0.93302640  1
  Nd3+  Nd57  1  0.74709788  0.37005903  0.55395390  1
  Sm3+  Sm58  1  0.61930787  0.00467339  0.45185951  1
  Sm3+  Sm59  1  0.12308452  0.75149909  0.44310041  1
  Sm3+  Sm60  1  0.25041498  0.63997226  0.05114111  1
  Sm3+  Sm61  1  0.87314847  0.76482802  0.94401562  1
  Sm3+  Sm62  1  0.36713128  0.50128725  0.44633624  1
  Sm3+  Sm63  1  0.49394842  0.62468342  0.55784843  1
  Bi2+  Bi64  1  -0.00286468  0.05964204  0.28945974  1
  Bi2+  Bi65  1  -0.02465696  0.13579841  0.79012135  1
  Bi2+  Bi66  1  0.00065079  0.37002154  0.28794865  1
  Bi2+  Bi67  1  -0.00567478  0.35956169  0.79831872  1
  Bi2+  Bi68  1  -0.00880843  0.67971462  0.29165059  1
  Bi2+  Bi69  1  -0.02043490  0.62759540  0.79878423  1
  Bi2+  Bi70  1  -0.03401758  0.86953256  0.30049487  1
  Bi2+  Bi71  1  0.01984962  0.84507645  0.77728965  1
  Bi2+  Bi72  1  0.27197394  0.15733425  0.27933173  1
  Bi2+  Bi73  1  0.23249560  0.11737875  0.80162458  1
  Bi2+  Bi74  1  0.26797375  0.32248510  0.33791468  1
  Bi2+  Bi75  1  0.26324692  0.36449867  0.78435088  1
  Bi2+  Bi76  1  0.20858991  0.60535927  0.30105408  1
  Bi2+  Bi77  1  0.31768060  0.66454647  0.80609790  1
  Bi2+  Bi78  1  0.23415590  0.89348691  0.28823112  1
  Bi2+  Bi79  1  0.21485823  0.82426867  0.77273703  1
  Bi2+  Bi80  1  0.47105496  0.14131281  0.28814779  1
  Bi2+  Bi81  1  0.51487204  0.11463069  0.79906231  1
  Bi2+  Bi82  1  0.44095521  0.33763404  0.27863581  1
  Bi2+  Bi83  1  0.53220642  0.40444615  0.79843691  1
  Bi2+  Bi84  1  0.50718647  0.58871168  0.29105964  1
  Bi2+  Bi85  1  0.50749833  0.61257127  0.78615413  1
  Bi2+  Bi86  1  0.50147623  0.89569799  0.29839119  1
  Bi2+  Bi87  1  0.51348965  0.83707836  0.77265064  1
  Bi2+  Bi88  1  0.71616415  0.06579486  0.28742355  1
  Bi2+  Bi89  1  0.78169919  0.09532760  0.78721184  1
  Bi2+  Bi90  1  0.73328770  0.36192653  0.28502517  1
  Bi2+  Bi91  1  0.80270860  0.35774986  0.77186782  1
  Bi2+  Bi92  1  0.75996606  0.68243646  0.28127515  1
  Bi2+  Bi93  1  0.77184594  0.55164372  0.78550698  1
  Bi2+  Bi94  1  0.76626617  0.87027806  0.30639315  1
  Bi2+  Bi95  1  0.76141419  0.82299030  0.81234376  1
  Bi2+  Bi96  1  0.09770084  -0.00139662  0.20044291  1
  Bi2+  Bi97  1  0.13307437  -0.02309187  0.70565839  1
  Bi2+  Bi98  1  0.19268356  0.26224564  0.19561379  1
  Bi2+  Bi99  1  0.08157488  0.24359275  0.71388422  1
  Bi2+  Bi100  1  0.21239216  0.43453019  0.24739948  1
  Bi2+  Bi101  1  0.11238950  0.48536894  0.72676193  1
  Bi2+  Bi102  1  0.12518285  0.68656037  0.20639134  1
  Bi2+  Bi103  1  0.10714975  0.70668740  0.70931320  1
  Bi2+  Bi104  1  0.37775170  0.03417149  0.20882493  1
  Bi2+  Bi105  1  0.37481995  -0.01883074  0.71608842  1
  Bi2+  Bi106  1  0.36897805  0.29094864  0.15549881  1
  Bi2+  Bi107  1  0.38579259  0.23789868  0.71276700  1
  Bi2+  Bi108  1  0.39495573  0.47292295  0.19852151  1
  Bi2+  Bi109  1  0.36281956  0.55696393  0.71451061  1
  Bi2+  Bi110  1  0.37015662  0.74041239  0.19213438  1
  Bi2+  Bi111  1  0.45813039  0.72446665  0.68415611  1
  Bi2+  Bi112  1  0.64249875  -0.05204997  0.20451310  1
  Bi2+  Bi113  1  0.66525796  -0.04387855  0.74201433  1
  Bi2+  Bi114  1  0.57927414  0.21954490  0.20364943  1
  Bi2+  Bi115  1  0.64997971  0.26597380  0.71226339  1
  Bi2+  Bi116  1  0.58798112  0.50097752  0.20560334  1
  Bi2+  Bi117  1  0.64447880  0.53509752  0.70276760  1
  Bi2+  Bi118  1  0.61813603  0.75804964  0.21669112  1
  Bi2+  Bi119  1  0.64569165  0.78036971  0.68626809  1
  Bi2+  Bi120  1  0.83707923  -0.02576400  0.21236674  1
  Bi2+  Bi121  1  0.90264543  -0.00104783  0.71528315  1
  Bi2+  Bi122  1  0.87496628  0.22031473  0.18645933  1
  Bi2+  Bi123  1  0.89377868  0.21041146  0.69164059  1
  Bi2+  Bi124  1  0.87276827  0.49748227  0.20244151  1
  Bi2+  Bi125  1  0.91210069  0.48769177  0.71063845  1
  Bi2+  Bi126  1  0.88902534  0.76276564  0.20403211  1
  Bi2+  Bi127  1  0.85804515  0.80047343  0.71659515  1
  S2-  S128  1  0.01732910  0.12409275  0.15518021  1
  S2-  S129  1  0.12848478  0.12106499  0.64662635  1
  S2-  S130  1  -0.02422836  0.35907836  0.18089664  1
  S2-  S131  1  0.08556405  0.37670433  0.64282759  1
  S2-  S132  1  0.00649661  0.56924511  0.16045896  1
  S2-  S133  1  -0.01885106  0.62864617  0.66023152  1
  S2-  S134  1  0.00210223  0.87816772  0.15755112  1
  S2-  S135  1  0.01109457  0.95189675  0.64161440  1
  S2-  S136  1  0.24519752  0.04666267  0.14532446  1
  S2-  S137  1  0.34099783  0.10975780  0.65276577  1
  S2-  S138  1  0.16485984  0.40909759  0.14028853  1
  S2-  S139  1  0.29360689  0.36136151  0.67703633  1
  S2-  S140  1  0.25637096  0.63290689  0.15018692  1
  S2-  S141  1  0.22018319  0.58614209  0.66176520  1
  S2-  S142  1  0.20871955  0.83499275  0.18861681  1
  S2-  S143  1  0.26377812  0.87614993  0.66508562  1
  S2-  S144  1  0.48721902  0.11636905  0.14314354  1
  S2-  S145  1  0.53806958  0.15202273  0.69459196  1
  S2-  S146  1  0.59153569  0.36718657  0.14415572  1
  S2-  S147  1  0.50030470  0.35032350  0.69674663  1
  S2-  S148  1  0.51356221  0.67829232  0.14903222  1
  S2-  S149  1  0.49879296  0.53792122  0.64312691  1
  S2-  S150  1  0.40910718  0.89125261  0.14568717  1
  S2-  S151  1  0.49683130  0.96299689  0.65517621  1
  S2-  S152  1  0.72135018  0.15189555  0.16056138  1
  S2-  S153  1  0.74325553  0.15012425  0.66107191  1
  S2-  S154  1  0.78202580  0.35410075  0.18000289  1
  S2-  S155  1  0.68313140  0.39451185  0.64536553  1
  S2-  S156  1  0.73719321  0.54267403  0.15467267  1
  S2-  S157  1  0.74666337  0.64600033  0.65703996  1
  S2-  S158  1  0.74351660  0.77138766  0.14312746  1
  S2-  S159  1  0.76563330  0.90931441  0.65293081  1
  S2-  S160  1  0.14615864  0.01771595  0.33888107  1
  S2-  S161  1  0.11456295  0.02716664  0.83837631  1
  S2-  S162  1  0.03545080  0.24928989  0.34812599  1
  S2-  S163  1  0.16945037  0.25892216  0.84855833  1
  S2-  S164  1  0.08408854  0.50508822  0.34249517  1
  S2-  S165  1  0.17995958  0.48413201  0.82121983  1
  S2-  S166  1  0.19281681  0.76331245  0.35241882  1
  S2-  S167  1  0.09804051  0.67229352  0.85917779  1
  S2-  S168  1  0.36522376  -0.04397326  0.34403040  1
  S2-  S169  1  0.36452437  0.01851014  0.82489636  1
  S2-  S170  1  0.48315706  0.24694145  0.37006318  1
  S2-  S171  1  0.37509816  0.21694739  0.81990988  1
  S2-  S172  1  0.36351224  0.57239667  0.35279649  1
  S2-  S173  1  0.38677256  0.41757089  0.85277438  1
  S2-  S174  1  0.36758532  0.78668101  0.28438706  1
  S2-  S175  1  0.38762529  0.80739150  0.84180026  1
  S2-  S176  1  0.59510281  0.01203488  0.35288775  1
  S2-  S177  1  0.58930981  -0.00935635  0.83966437  1
  S2-  S178  1  0.70179799  0.24894152  0.35045521  1
  S2-  S179  1  0.59801152  0.25620622  0.83377654  1
  S2-  S180  1  0.62782530  0.49787677  0.33181291  1
  S2-  S181  1  0.65917179  0.47133896  0.85309025  1
  S2-  S182  1  0.52600774  0.74706304  0.35046508  1
  S2-  S183  1  0.61579149  0.73087748  0.83329078  1
  S2-  S184  1  0.86398673  0.08260902  0.35053767  1
  S2-  S185  1  0.82575097  -0.02247408  0.85460919  1
  S2-  S186  1  0.86798501  0.25615286  0.27964482  1
  S2-  S187  1  0.86679367  0.26478112  0.85442968  1
  S2-  S188  1  0.86198947  0.41793350  0.34282791  1
  S2-  S189  1  0.96297174  0.49178466  0.86460084  1
  S2-  S190  1  0.86486971  0.63384167  0.35807152  1
  S2-  S191  1  0.84429859  0.69080406  0.85629913  1
  S2-  S192  1  -0.00105930  0.12101886  0.45781196  1
  S2-  S193  1  -0.00196513  0.13871567  0.95074247  1
  S2-  S194  1  -0.00571326  0.37767259  0.45198905  1
  S2-  S195  1  0.00109310  0.38748604  0.96728328  1
  S2-  S196  1  0.00027779  0.62897786  0.45281589  1
  S2-  S197  1  -0.00704634  0.64374825  0.96267278  1
  S2-  S198  1  -0.00252068  0.87500388  0.44494956  1
  S2-  S199  1  -0.00202459  0.88727041  0.94762382  1
  S2-  S200  1  0.24991750  0.12761246  0.45319798  1
  S2-  S201  1  0.25217905  0.13766767  0.94841631  1
  S2-  S202  1  0.24579035  0.37708659  0.46403200  1
  S2-  S203  1  0.24368813  0.39245181  0.94994509  1
  S2-  S204  1  0.24492329  0.62793001  0.45538589  1
  S2-  S205  1  0.25076413  0.63684112  0.94640755  1
  S2-  S206  1  0.24976814  0.87102231  0.45495416  1
  S2-  S207  1  0.24770012  0.88835954  0.93894404  1
  S2-  S208  1  0.49605937  0.12192578  0.46976782  1
  S2-  S209  1  0.50069083  0.13959794  0.93975475  1
  S2-  S210  1  0.49167709  0.38345035  0.46346792  1
  S2-  S211  1  0.50235916  0.38763306  0.95490929  1
  S2-  S212  1  0.48876519  0.62486290  0.45441159  1
  S2-  S213  1  0.49784506  0.63707204  0.94620490  1
  S2-  S214  1  0.49830069  0.87877929  0.46010908  1
  S2-  S215  1  0.50049188  0.88998841  0.94926554  1
  S2-  S216  1  0.74353387  0.12559159  0.45578723  1
  S2-  S217  1  0.74985348  0.14267710  0.95187639  1
  S2-  S218  1  0.74202453  0.37701432  0.44985925  1
  S2-  S219  1  0.74975651  0.38920475  0.96490467  1
  S2-  S220  1  0.73849784  0.62594030  0.45077360  1
  S2-  S221  1  0.74735709  0.63841202  0.96148097  1
  S2-  S222  1  0.74425918  0.87888762  0.45013950  1
  S2-  S223  1  0.74979673  0.88673085  0.96168663  1
  S2-  S224  1  0.12950547  0.01314304  0.04298566  1
  S2-  S225  1  0.12306243  -0.00295214  0.54064864  1
  S2-  S226  1  0.12678982  0.26106140  0.04915638  1
  S2-  S227  1  0.11793417  0.24943366  0.54402411  1
  S2-  S228  1  0.12681172  0.52279530  0.03874731  1
  S2-  S229  1  0.11785521  0.50354954  0.54591221  1
  S2-  S230  1  0.13295953  0.76946312  0.04942633  1
  S2-  S231  1  0.11670208  0.75085939  0.55076269  1
  S2-  S232  1  0.37349340  0.01216354  0.03505563  1
  S2-  S233  1  0.37037114  -0.00281975  0.54936559  1
  S2-  S234  1  0.37404996  0.26398090  0.03055968  1
  S2-  S235  1  0.37478496  0.25759015  0.55903035  1
  S2-  S236  1  0.37252153  0.51480117  0.04460272  1
  S2-  S237  1  0.36693226  0.49918924  0.55155016  1
  S2-  S238  1  0.36891748  0.76805774  0.04211794  1
  S2-  S239  1  0.37188532  0.74755146  0.55713532  1
  S2-  S240  1  0.62282024  0.01312966  0.04594583  1
  S2-  S241  1  0.62344285  0.00063592  0.55615380  1
  S2-  S242  1  0.62147202  0.26160292  0.04107318  1
  S2-  S243  1  0.61714289  0.24955092  0.55233110  1
  S2-  S244  1  0.61476399  0.51676129  0.04976422  1
  S2-  S245  1  0.62088150  0.50124922  0.54140268  1
  S2-  S246  1  0.61754705  0.76732256  0.04188997  1
  S2-  S247  1  0.61860443  0.74692781  0.54579929  1
  S2-  S248  1  0.87197706  0.01550131  0.05323926  1
  S2-  S249  1  0.86689993  0.00133650  0.54641250  1
  S2-  S250  1  0.87541846  0.26646725  0.05935758  1
  S2-  S251  1  0.87354507  0.24827601  0.55551104  1
  S2-  S252  1  0.87482574  0.51391266  0.05506369  1
  S2-  S253  1  0.86901957  0.49816795  0.54523290  1
  S2-  S254  1  0.87698997  0.76697936  0.04846675  1
  S2-  S255  1  0.86804105  0.74944885  0.54224792  1
