# generated using pymatgen
data_La9Ce10Pr6Nd4Sm3(BiS2)32
_symmetry_space_group_name_H-M   'P 1'
_cell_length_a   16.16821014
_cell_length_b   16.13661392
_cell_length_c   27.16322593
_cell_angle_alpha   90.27567587
_cell_angle_beta   89.55173939
_cell_angle_gamma   90.00513359
_symmetry_Int_Tables_number   1
_chemical_formula_structural   La9Ce10Pr6Nd4Sm3(BiS2)32
_chemical_formula_sum   'La18 Ce20 Pr12 Nd8 Sm6 Bi64 S128'
_cell_volume   7086.59119451
_cell_formula_units_Z   2
loop_
 _symmetry_equiv_pos_site_id
 _symmetry_equiv_pos_as_xyz
  1  'x, y, z'
loop_
 _atom_type_symbol
 _atom_type_oxidation_number
  La3+  3.0
  Ce3+  3.0
  Pr3+  3.0
  Nd3+  3.0
  Sm3+  3.0
  Bi2+  2.0
  S2-  -2.0
loop_
 _atom_site_type_symbol
 _atom_site_label
 _atom_site_symmetry_multiplicity
 _atom_site_fract_x
 _atom_site_fract_y
 _atom_site_fract_z
 _atom_site_occupancy
  La3+  La0  1  0.47328358  0.36021177  0.56014682  1
  La3+  La1  1  0.22386521  0.10859147  0.58026631  1
  La3+  La2  1  -0.02008870  0.36036972  0.56889370  1
  La3+  La3  1  0.76650600  0.62846544  0.09126715  1
  La3+  La4  1  0.10210386  -0.02547208  0.39789947  1
  La3+  La5  1  0.51718792  0.36579322  0.09234013  1
  La3+  La6  1  0.22411186  0.36143316  0.56722529  1
  La3+  La7  1  0.72110704  0.87177031  0.58230437  1
  La3+  La8  1  0.63287564  0.24422469  0.92889871  1
  La3+  La9  1  0.89515799  0.73373762  0.90880805  1
  La3+  La10  1  0.34911257  0.47993233  0.41550942  1
  La3+  La11  1  0.84414059  0.73697018  0.43874105  1
  La3+  La12  1  0.10643012  0.23474284  0.42651697  1
  La3+  La13  1  0.26148324  0.61500077  0.07552552  1
  La3+  La14  1  0.63312150  0.73682052  0.92224472  1
  La3+  La15  1  0.14479764  0.23697533  0.93152899  1
  La3+  La16  1  0.71720842  0.60194802  0.58225837  1
  La3+  La17  1  0.35264923  -0.01441904  0.43504759  1
  Ce3+  Ce18  1  0.48019233  0.86400908  0.55803003  1
  Ce3+  Ce19  1  0.35538848  0.23409681  0.43994349  1
  Ce3+  Ce20  1  0.00563584  0.86347700  0.05511098  1
  Ce3+  Ce21  1  0.76164663  0.86278506  0.04440228  1
  Ce3+  Ce22  1  0.38427009  -0.00632291  0.94822318  1
  Ce3+  Ce23  1  0.75751427  0.36577264  0.06015557  1
  Ce3+  Ce24  1  0.00846363  0.36584304  0.05975645  1
  Ce3+  Ce25  1  0.51334636  0.86341986  0.05529172  1
  Ce3+  Ce26  1  0.00487035  0.61749054  0.05458105  1
  Ce3+  Ce27  1  0.60664458  -0.01300484  0.43453101  1
  Ce3+  Ce28  1  0.60100389  0.23911291  0.43135557  1
  Ce3+  Ce29  1  0.76060400  0.11841117  0.04832508  1
  Ce3+  Ce30  1  0.85431659  0.48674016  0.44447677  1
  Ce3+  Ce31  1  -0.01697672  0.10894943  0.55281428  1
  Ce3+  Ce32  1  0.00867533  0.11814289  0.05751531  1
  Ce3+  Ce33  1  0.89010849  -0.00945270  0.93629655  1
  Ce3+  Ce34  1  0.10359561  0.48716671  0.44098498  1
  Ce3+  Ce35  1  0.51152112  0.11983108  0.06152547  1
  Ce3+  Ce36  1  -0.02729796  0.61635841  0.55740208  1
  Ce3+  Ce37  1  0.14022695  -0.00990307  0.94281859  1
  Pr3+  Pr38  1  0.38887688  0.48788316  0.95246551  1
  Pr3+  Pr39  1  0.85443149  0.23525903  0.44347247  1
  Pr3+  Pr40  1  0.47625118  0.60748298  0.55374429  1
  Pr3+  Pr41  1  0.63738126  -0.00804142  0.93329384  1
  Pr3+  Pr42  1  0.84823504  -0.01369537  0.43428903  1
  Pr3+  Pr43  1  0.25802791  0.86791354  0.07095806  1
  Pr3+  Pr44  1  0.22645202  0.86514030  0.56646973  1
  Pr3+  Pr45  1  0.89554124  0.24399911  0.92452204  1
  Pr3+  Pr46  1  0.22528154  0.61234790  0.56519321  1
  Pr3+  Pr47  1  0.72477185  0.36029801  0.55907225  1
  Pr3+  Pr48  1  0.63773703  0.49388415  0.94637661  1
  Pr3+  Pr49  1  0.38396647  0.74047700  0.93483502  1
  Nd3+  Nd50  1  0.88571956  0.48892153  0.93766460  1
  Nd3+  Nd51  1  0.72142274  0.11561790  0.56349008  1
  Nd3+  Nd52  1  0.60189486  0.73195508  0.44147524  1
  Nd3+  Nd53  1  0.61694059  0.48391286  0.41182367  1
  Nd3+  Nd54  1  -0.02538896  0.86453205  0.55808224  1
  Nd3+  Nd55  1  0.47729485  0.11335501  0.56805140  1
  Nd3+  Nd56  1  0.35312366  0.73408731  0.44540552  1
  Nd3+  Nd57  1  0.14106886  0.73895281  0.94016622  1
  Sm3+  Sm58  1  0.51493145  0.62605901  0.06677452  1
  Sm3+  Sm59  1  0.25870745  0.36376798  0.07523693  1
  Sm3+  Sm60  1  0.14151352  0.48747090  0.94751824  1
  Sm3+  Sm61  1  0.25331353  0.11948192  0.07522781  1
  Sm3+  Sm62  1  0.38976045  0.24351179  0.94439792  1
  Sm3+  Sm63  1  0.10356438  0.73911420  0.44443041  1
  Bi2+  Bi64  1  -0.06299161  0.11792523  0.27843818  1
  Bi2+  Bi65  1  -0.05519297  0.14323256  0.78469071  1
  Bi2+  Bi66  1  -0.01958857  0.42350959  0.30344630  1
  Bi2+  Bi67  1  0.03083003  0.37981414  0.79583861  1
  Bi2+  Bi68  1  -0.00658944  0.61786387  0.28515465  1
  Bi2+  Bi69  1  0.01137089  0.63828354  0.78339813  1
  Bi2+  Bi70  1  -0.02401415  0.84485261  0.28640671  1
  Bi2+  Bi71  1  -0.01087817  0.95123882  0.75678325  1
  Bi2+  Bi72  1  0.26078553  0.12699052  0.30712532  1
  Bi2+  Bi73  1  0.29334511  0.12140415  0.79477863  1
  Bi2+  Bi74  1  0.26554732  0.38096993  0.28829348  1
  Bi2+  Bi75  1  0.27957577  0.37683016  0.79656889  1
  Bi2+  Bi76  1  0.25231008  0.62472191  0.29884581  1
  Bi2+  Bi77  1  0.25988606  0.72527264  0.82120224  1
  Bi2+  Bi78  1  0.23580152  0.83535464  0.28339307  1
  Bi2+  Bi79  1  0.15496624  0.89098470  0.80908200  1
  Bi2+  Bi80  1  0.47781776  0.10437434  0.34899541  1
  Bi2+  Bi81  1  0.53283639  0.13227143  0.79525326  1
  Bi2+  Bi82  1  0.50666118  0.26981701  0.28841281  1
  Bi2+  Bi83  1  0.53877389  0.40400898  0.80622879  1
  Bi2+  Bi84  1  0.51837587  0.71235165  0.29899795  1
  Bi2+  Bi85  1  0.49184017  0.66856482  0.76025807  1
  Bi2+  Bi86  1  0.49926748  0.92158521  0.30257568  1
  Bi2+  Bi87  1  0.40801883  0.86234563  0.80698647  1
  Bi2+  Bi88  1  0.66387349  0.10692035  0.29849058  1
  Bi2+  Bi89  1  0.71269379  0.19698946  0.80393865  1
  Bi2+  Bi90  1  0.78768962  0.35971185  0.29710210  1
  Bi2+  Bi91  1  0.78476006  0.37028813  0.77668185  1
  Bi2+  Bi92  1  0.74298077  0.63604771  0.29502403  1
  Bi2+  Bi93  1  0.76682403  0.62210412  0.78882612  1
  Bi2+  Bi94  1  0.76141993  0.92483890  0.26153069  1
  Bi2+  Bi95  1  0.76505961  0.88699865  0.78339529  1
  Bi2+  Bi96  1  0.11908792  -0.00828640  0.20959755  1
  Bi2+  Bi97  1  0.13622430  0.06624674  0.72253012  1
  Bi2+  Bi98  1  0.12467390  0.24021136  0.21289556  1
  Bi2+  Bi99  1  0.16009657  0.25840202  0.70128797  1
  Bi2+  Bi100  1  0.12151381  0.49770050  0.22004594  1
  Bi2+  Bi101  1  0.18865709  0.59022236  0.74071532  1
  Bi2+  Bi102  1  0.13586927  0.69451449  0.21565387  1
  Bi2+  Bi103  1  0.18214406  0.78115780  0.71068828  1
  Bi2+  Bi104  1  0.39106262  -0.01315620  0.21262489  1
  Bi2+  Bi105  1  0.35864746  -0.01105852  0.71118765  1
  Bi2+  Bi106  1  0.37670008  0.18129063  0.21961346  1
  Bi2+  Bi107  1  0.43318228  0.25407307  0.70072412  1
  Bi2+  Bi108  1  0.38256684  0.54114821  0.20800114  1
  Bi2+  Bi109  1  0.37337216  0.51419102  0.74364695  1
  Bi2+  Bi110  1  0.38972812  0.78901960  0.21184504  1
  Bi2+  Bi111  1  0.37190409  0.78205705  0.69975176  1
  Bi2+  Bi112  1  0.59015708  0.00678886  0.20323455  1
  Bi2+  Bi113  1  0.54850195  -0.03760630  0.74002912  1
  Bi2+  Bi114  1  0.65406493  0.22444330  0.20802642  1
  Bi2+  Bi115  1  0.69510835  0.26554875  0.69068345  1
  Bi2+  Bi116  1  0.60636575  0.46969509  0.22264513  1
  Bi2+  Bi117  1  0.60565922  0.48795450  0.71094386  1
  Bi2+  Bi118  1  0.61859898  0.81162703  0.21591690  1
  Bi2+  Bi119  1  0.63830461  0.74174472  0.69749143  1
  Bi2+  Bi120  1  0.86560837  0.02896974  0.19096412  1
  Bi2+  Bi121  1  0.82710304  0.11244175  0.69568607  1
  Bi2+  Bi122  1  0.91571143  0.30555020  0.21496880  1
  Bi2+  Bi123  1  0.92559023  0.29051958  0.69705696  1
  Bi2+  Bi124  1  0.88049172  0.50212584  0.20808432  1
  Bi2+  Bi125  1  0.93824659  0.48282703  0.71558283  1
  Bi2+  Bi126  1  0.89123220  0.78948756  0.19293470  1
  Bi2+  Bi127  1  0.91205625  0.74408346  0.68908336  1
  S2-  S128  1  0.06738335  0.12569772  0.15122919  1
  S2-  S129  1  0.07008786  0.13376768  0.63826946  1
  S2-  S130  1  0.05984578  0.36363044  0.15424313  1
  S2-  S131  1  0.09975898  0.37218322  0.64410328  1
  S2-  S132  1  -0.07279392  0.63614931  0.14225194  1
  S2-  S133  1  0.00659096  0.60076038  0.65309500  1
  S2-  S134  1  0.03414904  0.87542142  0.15288975  1
  S2-  S135  1  -0.00641794  0.87581552  0.65847823  1
  S2-  S136  1  0.25758590  0.24274843  0.14919542  1
  S2-  S137  1  0.36336536  0.12245762  0.64735771  1
  S2-  S138  1  0.25449680  0.48679708  0.14944676  1
  S2-  S139  1  0.30649119  0.32361813  0.65658271  1
  S2-  S140  1  0.26271504  0.74424312  0.14592147  1
  S2-  S141  1  0.28549012  0.57119240  0.65655268  1
  S2-  S142  1  0.24363329  0.99262683  0.14749188  1
  S2-  S143  1  0.21753371  0.96819952  0.64891098  1
  S2-  S144  1  0.51190398  0.20394413  0.14723681  1
  S2-  S145  1  0.56785191  0.17585761  0.65028943  1
  S2-  S146  1  0.45406358  0.39765725  0.19064271  1
  S2-  S147  1  0.50168411  0.39492424  0.65905886  1
  S2-  S148  1  0.53041568  0.56627855  0.16103905  1
  S2-  S149  1  0.56007566  0.61189806  0.64226223  1
  S2-  S150  1  0.51368289  0.76690554  0.13630331  1
  S2-  S151  1  0.55952296  0.87296710  0.64514468  1
  S2-  S152  1  0.77547187  0.14874720  0.14525023  1
  S2-  S153  1  0.72415497  0.02117729  0.64588312  1
  S2-  S154  1  0.67168998  0.36848148  0.14743758  1
  S2-  S155  1  0.72517842  0.43796794  0.65005342  1
  S2-  S156  1  0.73246990  0.58212295  0.19208988  1
  S2-  S157  1  0.77067957  0.63660267  0.68065536  1
  S2-  S158  1  0.75532517  0.79440650  0.13512155  1
  S2-  S159  1  0.77746073  0.83965417  0.68040050  1
  S2-  S160  1  0.10639575  0.06916881  0.30609735  1
  S2-  S161  1  0.16488924  0.05411910  0.85385884  1
  S2-  S162  1  0.15397375  0.26728268  0.32771895  1
  S2-  S163  1  0.03260553  0.23553226  0.85180910  1
  S2-  S164  1  0.19122032  0.49166017  0.35736522  1
  S2-  S165  1  0.15196619  0.45616383  0.84953437  1
  S2-  S166  1  0.10633962  0.81102370  0.35390841  1
  S2-  S167  1  0.05426592  0.74552650  0.85382338  1
  S2-  S168  1  0.26508950  -0.03402856  0.34706214  1
  S2-  S169  1  0.39749198  0.03453448  0.85201735  1
  S2-  S170  1  0.36464370  0.32370765  0.35526423  1
  S2-  S171  1  0.28040359  0.25418041  0.86399667  1
  S2-  S172  1  0.38061473  0.51357131  0.31332802  1
  S2-  S173  1  0.39208695  0.47949547  0.85031300  1
  S2-  S174  1  0.35595185  0.74455775  0.34625411  1
  S2-  S175  1  0.49096818  0.72665037  0.85521741  1
  S2-  S176  1  0.72250892  -0.02308195  0.36014925  1
  S2-  S177  1  0.63425038  -0.03598887  0.83258148  1
  S2-  S178  1  0.61995869  0.33942136  0.34984358  1
  S2-  S179  1  0.49984765  0.26014385  0.86169172  1
  S2-  S180  1  0.58942890  0.55849959  0.31812829  1
  S2-  S181  1  0.64075324  0.51544399  0.84294215  1
  S2-  S182  1  0.66810689  0.75233272  0.34940628  1
  S2-  S183  1  0.68740052  0.75037158  0.82388193  1
  S2-  S184  1  0.94308034  -0.02853769  0.34649007  1
  S2-  S185  1  0.88045309  -0.01065129  0.83769470  1
  S2-  S186  1  0.85470743  0.21333574  0.34216377  1
  S2-  S187  1  0.88549062  0.37621591  0.85581173  1
  S2-  S188  1  0.77695673  0.50375295  0.35712162  1
  S2-  S189  1  0.89186469  0.58226467  0.85082810  1
  S2-  S190  1  0.87836310  0.72086911  0.33891472  1
  S2-  S191  1  0.87264250  0.76308410  0.79995851  1
  S2-  S192  1  -0.01803896  0.10850833  0.44565860  1
  S2-  S193  1  0.01201224  0.11316340  0.95279759  1
  S2-  S194  1  -0.02022268  0.36102692  0.45417313  1
  S2-  S195  1  0.01729289  0.36755373  0.95614359  1
  S2-  S196  1  -0.02096791  0.61469481  0.44959545  1
  S2-  S197  1  0.01882566  0.61006388  0.95105284  1
  S2-  S198  1  -0.02393072  0.85872597  0.45303303  1
  S2-  S199  1  0.01306901  0.86727312  0.94942673  1
  S2-  S200  1  0.22698663  0.10974383  0.44467707  1
  S2-  S201  1  0.26492972  0.11565258  0.96825053  1
  S2-  S202  1  0.22644246  0.36092035  0.45646977  1
  S2-  S203  1  0.26279891  0.36758468  0.96905325  1
  S2-  S204  1  0.22662050  0.61536398  0.45678863  1
  S2-  S205  1  0.26167388  0.61310397  0.96078613  1
  S2-  S206  1  0.22823812  0.85755216  0.45872931  1
  S2-  S207  1  0.26205644  0.86649293  0.95730085  1
  S2-  S208  1  0.47991214  0.11203296  0.45942426  1
  S2-  S209  1  0.51271638  0.11520178  0.95638211  1
  S2-  S210  1  0.48150309  0.36623281  0.45135593  1
  S2-  S211  1  0.51394431  0.36835148  0.96701940  1
  S2-  S212  1  0.47762216  0.60580545  0.44555199  1
  S2-  S213  1  0.50970941  0.61477994  0.95960817  1
  S2-  S214  1  0.47940274  0.85898057  0.45009702  1
  S2-  S215  1  0.51127619  0.86983201  0.95052280  1
  S2-  S216  1  0.72568878  0.11652455  0.45564442  1
  S2-  S217  1  0.76445679  0.11840101  0.94189298  1
  S2-  S218  1  0.73231877  0.36131037  0.45390369  1
  S2-  S219  1  0.75882446  0.36405356  0.95345774  1
  S2-  S220  1  0.72441634  0.60846079  0.46003523  1
  S2-  S221  1  0.76299041  0.61779502  0.94518909  1
  S2-  S222  1  0.72396723  0.86027071  0.46422643  1
  S2-  S223  1  0.76507975  0.86465498  0.93873425  1
  S2-  S224  1  0.13079064  -0.00925123  0.04626905  1
  S2-  S225  1  0.10164082  -0.01627040  0.54263433  1
  S2-  S226  1  0.13392187  0.24210927  0.04383551  1
  S2-  S227  1  0.10406312  0.23578322  0.53573707  1
  S2-  S228  1  0.13154574  0.49230393  0.05119743  1
  S2-  S229  1  0.09935864  0.49287759  0.54465041  1
  S2-  S230  1  0.13157336  0.74005027  0.04612189  1
  S2-  S231  1  0.10164523  0.73946736  0.55033758  1
  S2-  S232  1  0.38918618  -0.00828040  0.05426297  1
  S2-  S233  1  0.35495332  -0.01372583  0.54421899  1
  S2-  S234  1  0.38534463  0.24302376  0.04947593  1
  S2-  S235  1  0.34902720  0.23196587  0.54292669  1
  S2-  S236  1  0.39396443  0.49188680  0.05810899  1
  S2-  S237  1  0.34887646  0.48650944  0.54196867  1
  S2-  S238  1  0.38493156  0.74233094  0.04114349  1
  S2-  S239  1  0.35287085  0.73703654  0.55211843  1
  S2-  S240  1  0.63762495  -0.00897161  0.04323851  1
  S2-  S241  1  0.59988748  -0.00832094  0.54106054  1
  S2-  S242  1  0.63690652  0.24082447  0.04017632  1
  S2-  S243  1  0.60220240  0.23947363  0.53819738  1
  S2-  S244  1  0.64367577  0.50394194  0.05243950  1
  S2-  S245  1  0.60047900  0.48255148  0.54006340  1
  S2-  S246  1  0.63904818  0.73957682  0.03428560  1
  S2-  S247  1  0.60237137  0.73659418  0.54644222  1
  S2-  S248  1  0.88433276  -0.00881814  0.04347977  1
  S2-  S249  1  0.85316932  -0.01021343  0.54399481  1
  S2-  S250  1  0.88556722  0.24331700  0.03977318  1
  S2-  S251  1  0.85499070  0.23462834  0.55102981  1
  S2-  S252  1  0.88059507  0.49116076  0.04697173  1
  S2-  S253  1  0.85423584  0.48678072  0.55054163  1
  S2-  S254  1  0.88508670  0.74007148  0.03137553  1
  S2-  S255  1  0.84633788  0.73783995  0.55119060  1
