# generated using pymatgen
data_La9Ce10Pr6Nd4Sm3(BiS2)32
_symmetry_space_group_name_H-M   'P 1'
_cell_length_a   16.18083072
_cell_length_b   16.16152185
_cell_length_c   27.05421487
_cell_angle_alpha   90.11970765
_cell_angle_beta   89.80895575
_cell_angle_gamma   90.08426155
_symmetry_Int_Tables_number   1
_chemical_formula_structural   La9Ce10Pr6Nd4Sm3(BiS2)32
_chemical_formula_sum   'La18 Ce20 Pr12 Nd8 Sm6 Bi64 S128'
_cell_volume   7074.80013843
_cell_formula_units_Z   2
loop_
 _symmetry_equiv_pos_site_id
 _symmetry_equiv_pos_as_xyz
  1  'x, y, z'
loop_
 _atom_type_symbol
 _atom_type_oxidation_number
  La3+  3.0
  Ce3+  3.0
  Pr3+  3.0
  Nd3+  3.0
  Sm3+  3.0
  Bi2+  2.0
  S2-  -2.0
loop_
 _atom_site_type_symbol
 _atom_site_label
 _atom_site_symmetry_multiplicity
 _atom_site_fract_x
 _atom_site_fract_y
 _atom_site_fract_z
 _atom_site_occupancy
  La3+  La0  1  0.12649734  0.74049857  0.93194223  1
  La3+  La1  1  0.87047437  0.24784273  0.42670572  1
  La3+  La2  1  -0.00351524  0.86828451  0.06479045  1
  La3+  La3  1  0.86692277  0.49152621  0.94152892  1
  La3+  La4  1  0.62958903  -0.00333036  0.41675960  1
  La3+  La5  1  0.13203870  0.49398736  0.43227407  1
  La3+  La6  1  0.50308744  0.11085003  0.59043120  1
  La3+  La7  1  0.36968759  0.75547585  0.41315525  1
  La3+  La8  1  0.62986861  0.23822304  0.91428503  1
  La3+  La9  1  0.24365145  0.86603573  0.07419819  1
  La3+  La10  1  0.74250432  0.37250387  0.56581426  1
  La3+  La11  1  0.75390592  0.12111266  0.56777252  1
  La3+  La12  1  0.11607066  0.48789210  0.91286515  1
  La3+  La13  1  -0.00584573  0.87641283  0.56675199  1
  La3+  La14  1  0.63238257  0.74318583  0.92946216  1
  La3+  La15  1  0.23914451  0.11634420  0.58400736  1
  La3+  La16  1  0.63524370  0.73974799  0.41567727  1
  La3+  La17  1  0.24132718  0.38186238  0.58912241  1
  Ce3+  Ce18  1  0.49548561  0.37123300  0.56374913  1
  Ce3+  Ce19  1  0.12412971  -0.00184369  0.43395524  1
  Ce3+  Ce20  1  -0.00204622  0.12102761  0.05195391  1
  Ce3+  Ce21  1  0.74227807  0.87456565  0.07235622  1
  Ce3+  Ce22  1  0.24839314  0.62954448  0.56217148  1
  Ce3+  Ce23  1  0.87201799  -0.01061981  0.93772757  1
  Ce3+  Ce24  1  0.37579147  -0.00722908  0.94825274  1
  Ce3+  Ce25  1  0.00004338  0.12543978  0.55040053  1
  Ce3+  Ce26  1  0.24955121  0.87543803  0.55775540  1
  Ce3+  Ce27  1  0.87052329  0.74440174  0.45023059  1
  Ce3+  Ce28  1  0.12540791  0.24576859  0.93669382  1
  Ce3+  Ce29  1  0.50085437  0.62948995  0.55476800  1
  Ce3+  Ce30  1  0.25071100  0.61207391  0.06327555  1
  Ce3+  Ce31  1  0.00020872  0.62239359  0.56474817  1
  Ce3+  Ce32  1  0.37184052  0.00047592  0.43662796  1
  Ce3+  Ce33  1  0.50143888  0.86318429  0.06436671  1
  Ce3+  Ce34  1  0.36998632  0.24303278  0.46163787  1
  Ce3+  Ce35  1  0.50094604  0.11838406  0.06053766  1
  Ce3+  Ce36  1  0.62003137  0.49852947  0.43687220  1
  Ce3+  Ce37  1  0.74087438  0.36290339  0.07127990  1
  Pr3+  Pr38  1  -0.00124460  0.37190399  0.56346455  1
  Pr3+  Pr39  1  0.37295564  0.73891894  0.93577880  1
  Pr3+  Pr40  1  0.87281396  0.49626780  0.44264138  1
  Pr3+  Pr41  1  0.37771734  0.49114365  0.93619181  1
  Pr3+  Pr42  1  0.87261582  0.24211943  0.93611445  1
  Pr3+  Pr43  1  0.62419297  -0.01092678  0.93316832  1
  Pr3+  Pr44  1  0.00589927  0.61255633  0.06691435  1
  Pr3+  Pr45  1  0.74471592  0.87754762  0.55702966  1
  Pr3+  Pr46  1  0.12139157  0.74125383  0.43347462  1
  Pr3+  Pr47  1  0.50222185  0.87383499  0.54944280  1
  Pr3+  Pr48  1  -0.00274878  0.36609883  0.06380895  1
  Pr3+  Pr49  1  0.62090369  0.24517696  0.43594947  1
  Nd3+  Nd50  1  0.74560605  0.62510257  0.07293727  1
  Nd3+  Nd51  1  0.37306483  0.49835730  0.45075439  1
  Nd3+  Nd52  1  0.12478138  -0.00737162  0.93788425  1
  Nd3+  Nd53  1  0.62480762  0.49102482  0.93996070  1
  Nd3+  Nd54  1  0.37640250  0.23335813  0.92402238  1
  Nd3+  Nd55  1  0.88302023  -0.00350509  0.42527176  1
  Nd3+  Nd56  1  0.50075154  0.36386698  0.05354419  1
  Nd3+  Nd57  1  0.13671828  0.25208126  0.43550320  1
  Sm3+  Sm58  1  0.25106865  0.36599319  0.05211775  1
  Sm3+  Sm59  1  0.49583728  0.62043817  0.07152711  1
  Sm3+  Sm60  1  0.73909654  0.62143239  0.57076377  1
  Sm3+  Sm61  1  0.74590835  0.11820534  0.06509548  1
  Sm3+  Sm62  1  0.88171078  0.74017334  0.94009220  1
  Sm3+  Sm63  1  0.24980797  0.11957500  0.05641395  1
  Bi2+  Bi64  1  0.08487765  0.14447559  0.28024606  1
  Bi2+  Bi65  1  -0.00187990  0.15795493  0.78306020  1
  Bi2+  Bi66  1  -0.02039379  0.37287110  0.28808479  1
  Bi2+  Bi67  1  -0.03338138  0.35717111  0.79640360  1
  Bi2+  Bi68  1  0.00371962  0.69743656  0.28435368  1
  Bi2+  Bi69  1  -0.09566992  0.64925580  0.80563861  1
  Bi2+  Bi70  1  -0.03748649  0.88821187  0.27683613  1
  Bi2+  Bi71  1  -0.09709691  0.87528592  0.75461173  1
  Bi2+  Bi72  1  0.24998017  0.09162524  0.33249792  1
  Bi2+  Bi73  1  0.25745059  0.11018026  0.79348200  1
  Bi2+  Bi74  1  0.24180713  0.35936730  0.29617361  1
  Bi2+  Bi75  1  0.23095559  0.40307900  0.78436310  1
  Bi2+  Bi76  1  0.23935753  0.61417686  0.30393179  1
  Bi2+  Bi77  1  0.28742821  0.64724266  0.78685716  1
  Bi2+  Bi78  1  0.23705448  0.90751412  0.29156953  1
  Bi2+  Bi79  1  0.16116143  0.84047685  0.78283065  1
  Bi2+  Bi80  1  0.43488783  0.15399101  0.29072248  1
  Bi2+  Bi81  1  0.50433846  0.04959553  0.78396244  1
  Bi2+  Bi82  1  0.52615915  0.33006412  0.31532578  1
  Bi2+  Bi83  1  0.52032735  0.46617810  0.81035375  1
  Bi2+  Bi84  1  0.48579185  0.52113159  0.30478394  1
  Bi2+  Bi85  1  0.49743780  0.66444632  0.83088060  1
  Bi2+  Bi86  1  0.50077887  0.92227381  0.27418872  1
  Bi2+  Bi87  1  0.47428726  0.85227824  0.79279113  1
  Bi2+  Bi88  1  0.81644677  0.13622613  0.28820724  1
  Bi2+  Bi89  1  0.80394963  0.13670850  0.77655275  1
  Bi2+  Bi90  1  0.72532398  0.37216278  0.28885976  1
  Bi2+  Bi91  1  0.72362962  0.38548912  0.79101909  1
  Bi2+  Bi92  1  0.77317905  0.60284091  0.29139529  1
  Bi2+  Bi93  1  0.68222660  0.64468778  0.79070607  1
  Bi2+  Bi94  1  0.77030427  0.85976510  0.28823931  1
  Bi2+  Bi95  1  0.75203679  0.95363790  0.81001451  1
  Bi2+  Bi96  1  0.15396913  0.01162362  0.20539486  1
  Bi2+  Bi97  1  0.10536981  -0.02039922  0.70752712  1
  Bi2+  Bi98  1  0.17548569  0.26298236  0.20784225  1
  Bi2+  Bi99  1  0.12286244  0.24341707  0.70883000  1
  Bi2+  Bi100  1  0.04192201  0.51973424  0.21607046  1
  Bi2+  Bi101  1  0.08742211  0.52200089  0.71489785  1
  Bi2+  Bi102  1  0.14535325  0.74504272  0.20579261  1
  Bi2+  Bi103  1  0.19842268  0.72835742  0.68896945  1
  Bi2+  Bi104  1  0.35214629  0.02295373  0.21947588  1
  Bi2+  Bi105  1  0.31907095  -0.05771562  0.74053544  1
  Bi2+  Bi106  1  0.42774976  0.30351933  0.21285843  1
  Bi2+  Bi107  1  0.38865960  0.28064174  0.73024124  1
  Bi2+  Bi108  1  0.34166483  0.48167314  0.22268729  1
  Bi2+  Bi109  1  0.43439053  0.58564599  0.72312960  1
  Bi2+  Bi110  1  0.38872557  0.71022868  0.21818824  1
  Bi2+  Bi111  1  0.38848836  0.77071970  0.69046343  1
  Bi2+  Bi112  1  0.64055717  0.01755460  0.21257319  1
  Bi2+  Bi113  1  0.66307986  -0.02673858  0.70385166  1
  Bi2+  Bi114  1  0.64135198  0.24463575  0.20957719  1
  Bi2+  Bi115  1  0.62235892  0.23871277  0.71319377  1
  Bi2+  Bi116  1  0.61837137  0.49138335  0.22073077  1
  Bi2+  Bi117  1  0.60994840  0.50705202  0.70451111  1
  Bi2+  Bi118  1  0.63100120  0.75037561  0.19915675  1
  Bi2+  Bi119  1  0.59373339  0.79834457  0.68805323  1
  Bi2+  Bi120  1  0.90594345  0.03621238  0.21064221  1
  Bi2+  Bi121  1  0.90509297  0.09087448  0.68136981  1
  Bi2+  Bi122  1  0.91278362  0.29416835  0.18999679  1
  Bi2+  Bi123  1  0.90587442  0.28927698  0.69656147  1
  Bi2+  Bi124  1  0.81939603  0.47150088  0.19688967  1
  Bi2+  Bi125  1  0.84499060  0.54561221  0.71868685  1
  Bi2+  Bi126  1  0.90801647  0.65244561  0.18634940  1
  Bi2+  Bi127  1  0.78647552  0.74099380  0.70815725  1
  S2-  S128  1  -0.01232787  0.14824742  0.14906109  1
  S2-  S129  1  0.07568447  0.11471068  0.63995670  1
  S2-  S130  1  0.06360833  0.37559725  0.15865650  1
  S2-  S131  1  0.09294470  0.38414370  0.64997198  1
  S2-  S132  1  0.13505334  0.61297558  0.14113057  1
  S2-  S133  1  -0.01364125  0.61701414  0.66473939  1
  S2-  S134  1  0.09801325  0.87281570  0.14696786  1
  S2-  S135  1  0.01234609  0.86349778  0.66815929  1
  S2-  S136  1  0.25938122  0.13083990  0.15529510  1
  S2-  S137  1  0.26741214  0.18504884  0.68239139  1
  S2-  S138  1  0.29227190  0.35882609  0.14838317  1
  S2-  S139  1  0.31136039  0.39496263  0.68593830  1
  S2-  S140  1  0.36273283  0.59425661  0.14312451  1
  S2-  S141  1  0.21346072  0.56782166  0.65243073  1
  S2-  S142  1  0.29398636  0.81059473  0.16969267  1
  S2-  S143  1  0.24665639  0.96430124  0.64347934  1
  S2-  S144  1  0.54502443  0.12163683  0.15711983  1
  S2-  S145  1  0.47450624  0.14888720  0.69453325  1
  S2-  S146  1  0.56169095  0.36644347  0.14793140  1
  S2-  S147  1  0.54494582  0.35950788  0.65800477  1
  S2-  S148  1  0.48852401  0.75004283  0.14289293  1
  S2-  S149  1  0.60103436  0.64408737  0.63531255  1
  S2-  S150  1  0.60643343  0.89647919  0.14572062  1
  S2-  S151  1  0.52023063  0.94437406  0.64290063  1
  S2-  S152  1  0.76853640  0.00923435  0.14486563  1
  S2-  S153  1  0.64756741  0.11689342  0.64886269  1
  S2-  S154  1  0.75916571  0.23881885  0.14173984  1
  S2-  S155  1  0.75952713  0.27207653  0.64916618  1
  S2-  S156  1  0.61924100  0.60459031  0.14523612  1
  S2-  S157  1  0.75287212  0.49494121  0.64211821  1
  S2-  S158  1  0.76900676  0.75731788  0.14752808  1
  S2-  S159  1  0.79825475  0.97091536  0.63839633  1
  S2-  S160  1  0.01634273  -0.02224955  0.35688404  1
  S2-  S161  1  0.15763509  -0.00660262  0.83880079  1
  S2-  S162  1  0.10534964  0.36814508  0.35763023  1
  S2-  S163  1  0.11433776  0.33660591  0.85274681  1
  S2-  S164  1  0.09493207  0.60760231  0.35564473  1
  S2-  S165  1  0.15003627  0.54971448  0.81471194  1
  S2-  S166  1  0.22060810  0.76684830  0.34949419  1
  S2-  S167  1  0.00010595  0.73902423  0.86058770  1
  S2-  S168  1  0.38339582  -0.09415191  0.35100528  1
  S2-  S169  1  0.38454091  0.06960320  0.85818209  1
  S2-  S170  1  0.28720162  0.25364463  0.37456563  1
  S2-  S171  1  0.31791565  0.26038504  0.82899015  1
  S2-  S172  1  0.28399820  0.48782590  0.36476912  1
  S2-  S173  1  0.34662203  0.47476205  0.83650402  1
  S2-  S174  1  0.41215135  0.67375539  0.32314191  1
  S2-  S175  1  0.25509661  0.76032389  0.85934047  1
  S2-  S176  1  0.56702188  0.05654381  0.32265635  1
  S2-  S177  1  0.61374144  0.09563762  0.84891867  1
  S2-  S178  1  0.73383166  0.23977913  0.35462395  1
  S2-  S179  1  0.57096239  0.30436174  0.81869770  1
  S2-  S180  1  0.63660620  0.59093811  0.35255097  1
  S2-  S181  1  0.73905136  0.49113925  0.86244832  1
  S2-  S182  1  0.61558521  0.83055808  0.32709177  1
  S2-  S183  1  0.61662096  0.87089674  0.85469277  1
  S2-  S184  1  0.77073845  -0.00082004  0.34748560  1
  S2-  S185  1  0.91863410  -0.03668624  0.84283752  1
  S2-  S186  1  0.94802882  0.21470115  0.33402311  1
  S2-  S187  1  0.77793743  0.25636853  0.85136885  1
  S2-  S188  1  0.86762402  0.47858873  0.34087874  1
  S2-  S189  1  0.95955044  0.49438651  0.85297961  1
  S2-  S190  1  0.80763241  0.73068885  0.35800845  1
  S2-  S191  1  0.77433315  0.72645291  0.86062332  1
  S2-  S192  1  0.00685662  0.12950506  0.44688292  1
  S2-  S193  1  0.00040300  0.11866254  0.94410411  1
  S2-  S194  1  -0.00328875  0.37079881  0.45658549  1
  S2-  S195  1  -0.00361467  0.36439070  0.95684654  1
  S2-  S196  1  -0.00588851  0.62224659  0.45880132  1
  S2-  S197  1  0.00021600  0.61126225  0.95983895  1
  S2-  S198  1  -0.00191251  0.86410716  0.45649689  1
  S2-  S199  1  0.00137704  0.87146711  0.95778829  1
  S2-  S200  1  0.24654310  0.11862318  0.46935388  1
  S2-  S201  1  0.24802815  0.11935784  0.95206580  1
  S2-  S202  1  0.25347187  0.37442122  0.47623521  1
  S2-  S203  1  0.25492598  0.36338634  0.94779152  1
  S2-  S204  1  0.25457719  0.62953071  0.45775136  1
  S2-  S205  1  0.24746703  0.60789389  0.95148362  1
  S2-  S206  1  0.24563697  0.87544362  0.45382713  1
  S2-  S207  1  0.24903044  0.87446405  0.96159212  1
  S2-  S208  1  0.49448318  0.12309153  0.44435518  1
  S2-  S209  1  0.50024743  0.11938428  0.95555769  1
  S2-  S210  1  0.49446710  0.37144606  0.45547474  1
  S2-  S211  1  0.50068138  0.36119960  0.94548820  1
  S2-  S212  1  0.49465631  0.62652766  0.44952993  1
  S2-  S213  1  0.50175176  0.61617539  0.95795896  1
  S2-  S214  1  0.50482404  0.87130435  0.44387607  1
  S2-  S215  1  0.49339987  0.86555906  0.95576297  1
  S2-  S216  1  0.75050287  0.12126533  0.45450970  1
  S2-  S217  1  0.75122148  0.11448860  0.95482568  1
  S2-  S218  1  0.74402247  0.37515588  0.45492536  1
  S2-  S219  1  0.74461590  0.36269148  0.96227085  1
  S2-  S220  1  0.74803342  0.61676151  0.46398363  1
  S2-  S221  1  0.74893707  0.61836531  0.96571865  1
  S2-  S222  1  0.75290645  0.87303425  0.45072859  1
  S2-  S223  1  0.75617099  0.86677649  0.96189614  1
  S2-  S224  1  0.12468754  -0.00055040  0.04594454  1
  S2-  S225  1  0.11931576  -0.00673934  0.54024642  1
  S2-  S226  1  0.12761106  0.24273629  0.04483593  1
  S2-  S227  1  0.12597389  0.25006735  0.54588903  1
  S2-  S228  1  0.12744673  0.48342824  0.04119999  1
  S2-  S229  1  0.12165135  0.50275669  0.54311867  1
  S2-  S230  1  0.12411012  0.74269167  0.04161380  1
  S2-  S231  1  0.12170714  0.75058707  0.54794905  1
  S2-  S232  1  0.37288479  -0.00664226  0.05609205  1
  S2-  S233  1  0.37720277  0.00037158  0.54444566  1
  S2-  S234  1  0.37431935  0.24022536  0.04051898  1
  S2-  S235  1  0.37346971  0.24270394  0.56713074  1
  S2-  S236  1  0.37783863  0.48609894  0.04256575  1
  S2-  S237  1  0.37589588  0.50330596  0.55831132  1
  S2-  S238  1  0.36909621  0.74106704  0.04175885  1
  S2-  S239  1  0.37422217  0.75161198  0.54565374  1
  S2-  S240  1  0.62199550  -0.00227277  0.04030630  1
  S2-  S241  1  0.62480376  0.00104398  0.53422269  1
  S2-  S242  1  0.62353631  0.23864921  0.03976747  1
  S2-  S243  1  0.61522518  0.24318414  0.54364422  1
  S2-  S244  1  0.62159259  0.49102565  0.04455388  1
  S2-  S245  1  0.61599056  0.49712538  0.54201793  1
  S2-  S246  1  0.62303887  0.74373765  0.04077435  1
  S2-  S247  1  0.62719502  0.75083663  0.53282926  1
  S2-  S248  1  0.87700728  -0.00421599  0.04406742  1
  S2-  S249  1  0.87925658  -0.00025449  0.53186020  1
  S2-  S250  1  0.87278665  0.24191673  0.04197982  1
  S2-  S251  1  0.87588138  0.24920618  0.54018890  1
  S2-  S252  1  0.87092478  0.49066974  0.05513886  1
  S2-  S253  1  0.87609173  0.49875428  0.54928633  1
  S2-  S254  1  0.88077790  0.73955266  0.04616517  1
  S2-  S255  1  0.86685163  0.74595183  0.55810218  1
