# generated using pymatgen
data_La9Ce10Pr6Nd4Sm3(BiS2)32
_symmetry_space_group_name_H-M   'P 1'
_cell_length_a   16.16084911
_cell_length_b   16.11388169
_cell_length_c   27.18642634
_cell_angle_alpha   90.04997748
_cell_angle_beta   89.91587987
_cell_angle_gamma   89.98857444
_symmetry_Int_Tables_number   1
_chemical_formula_structural   La9Ce10Pr6Nd4Sm3(BiS2)32
_chemical_formula_sum   'La18 Ce20 Pr12 Nd8 Sm6 Bi64 S128'
_cell_volume   7079.71585001
_cell_formula_units_Z   2
loop_
 _symmetry_equiv_pos_site_id
 _symmetry_equiv_pos_as_xyz
  1  'x, y, z'
loop_
 _atom_type_symbol
 _atom_type_oxidation_number
  La3+  3.0
  Ce3+  3.0
  Pr3+  3.0
  Nd3+  3.0
  Sm3+  3.0
  Bi2+  2.0
  S2-  -2.0
loop_
 _atom_site_type_symbol
 _atom_site_label
 _atom_site_symmetry_multiplicity
 _atom_site_fract_x
 _atom_site_fract_y
 _atom_site_fract_z
 _atom_site_occupancy
  La3+  La0  1  0.25262874  0.87029269  0.60492391  1
  La3+  La1  1  0.14347294  0.75645093  0.38528763  1
  La3+  La2  1  0.39225620  -0.01100829  0.93126885  1
  La3+  La3  1  0.14397393  0.48851158  0.92956936  1
  La3+  La4  1  0.00673429  0.37270804  0.56841352  1
  La3+  La5  1  0.64091028  -0.01207250  0.91705970  1
  La3+  La6  1  0.12137884  0.49945367  0.42898825  1
  La3+  La7  1  0.49551236  0.62718972  0.56469763  1
  La3+  La8  1  0.87462694  0.74568149  0.43472106  1
  La3+  La9  1  0.49773197  0.11276506  0.10415663  1
  La3+  La10  1  0.14306044  -0.01156754  0.93185227  1
  La3+  La11  1  0.00053866  0.62917783  0.56312804  1
  La3+  La12  1  0.88999929  0.72985796  0.92266761  1
  La3+  La13  1  0.39519176  0.23841733  0.93847323  1
  La3+  La14  1  0.74689275  0.13261547  0.56892595  1
  La3+  La15  1  0.63824753  0.73675270  0.93423835  1
  La3+  La16  1  0.12558654  0.24861437  0.42465835  1
  La3+  La17  1  0.75845617  0.10171543  0.07078056  1
  Ce3+  Ce18  1  0.52126445  0.86896586  0.05862593  1
  Ce3+  Ce19  1  0.76645149  0.36170047  0.05161644  1
  Ce3+  Ce20  1  0.37330351  0.49519371  0.43128381  1
  Ce3+  Ce21  1  0.01818417  0.61092276  0.06146449  1
  Ce3+  Ce22  1  0.76831832  0.61574195  0.06252373  1
  Ce3+  Ce23  1  0.14374847  0.73599113  0.94263566  1
  Ce3+  Ce24  1  0.01482642  0.36352266  0.06321911  1
  Ce3+  Ce25  1  0.63068325  0.74940260  0.44615693  1
  Ce3+  Ce26  1  0.00218303  0.12349202  0.55693170  1
  Ce3+  Ce27  1  0.63650741  0.00011388  0.43063870  1
  Ce3+  Ce28  1  0.62242351  0.49697629  0.44729408  1
  Ce3+  Ce29  1  0.01513672  0.85904250  0.05064091  1
  Ce3+  Ce30  1  0.37929679  0.74863979  0.43504248  1
  Ce3+  Ce31  1  0.51685972  0.60331790  0.07117358  1
  Ce3+  Ce32  1  0.26336429  0.10876855  0.06166920  1
  Ce3+  Ce33  1  0.38217627  0.24988260  0.42161389  1
  Ce3+  Ce34  1  0.24880396  0.37503704  0.55747576  1
  Ce3+  Ce35  1  0.13878319  0.23597422  0.95173852  1
  Ce3+  Ce36  1  0.75279956  0.88280104  0.57254964  1
  Ce3+  Ce37  1  0.74968646  0.37266104  0.56216648  1
  Pr3+  Pr38  1  0.64378736  0.23594775  0.93193950  1
  Pr3+  Pr39  1  0.87226038  0.49874281  0.44372652  1
  Pr3+  Pr40  1  0.24899027  0.63032880  0.55422301  1
  Pr3+  Pr41  1  0.87419647  0.24679743  0.43155993  1
  Pr3+  Pr42  1  0.50021135  0.88599461  0.56570288  1
  Pr3+  Pr43  1  0.49735071  0.12881235  0.55846079  1
  Pr3+  Pr44  1  0.38904269  0.49160388  0.93500325  1
  Pr3+  Pr45  1  -0.00229653  0.87278956  0.56570914  1
  Pr3+  Pr46  1  0.27331440  0.60538705  0.07679215  1
  Pr3+  Pr47  1  0.37843812  0.00012009  0.43329630  1
  Pr3+  Pr48  1  0.62883955  0.24441572  0.42454211  1
  Pr3+  Pr49  1  0.87843731  -0.00445420  0.44241826  1
  Nd3+  Nd50  1  0.12823749  -0.00771962  0.43901017  1
  Nd3+  Nd51  1  0.26730999  0.86414045  0.06421120  1
  Nd3+  Nd52  1  0.00937396  0.10781015  0.07034313  1
  Nd3+  Nd53  1  0.52137669  0.35795200  0.06144806  1
  Nd3+  Nd54  1  0.74195174  0.62597391  0.57550905  1
  Nd3+  Nd55  1  0.24792738  0.12020528  0.55583267  1
  Nd3+  Nd56  1  0.64225434  0.49244182  0.93182159  1
  Nd3+  Nd57  1  0.26693407  0.36080055  0.06152247  1
  Sm3+  Sm58  1  0.89162023  -0.01308654  0.93913849  1
  Sm3+  Sm59  1  0.89164390  0.23529934  0.94316660  1
  Sm3+  Sm60  1  0.49375124  0.36874195  0.56095093  1
  Sm3+  Sm61  1  0.89849258  0.48655888  0.93475758  1
  Sm3+  Sm62  1  0.76870753  0.85254868  0.05931129  1
  Sm3+  Sm63  1  0.39042458  0.73647471  0.95068510  1
  Bi2+  Bi64  1  -0.00739179  0.18526675  0.31999194  1
  Bi2+  Bi65  1  -0.03240912  0.14502426  0.79067819  1
  Bi2+  Bi66  1  -0.03199500  0.37017542  0.28763714  1
  Bi2+  Bi67  1  -0.04050296  0.39298718  0.76520367  1
  Bi2+  Bi68  1  0.01878501  0.61908962  0.28162006  1
  Bi2+  Bi69  1  -0.01920654  0.61699008  0.80502698  1
  Bi2+  Bi70  1  -0.02658025  0.99055735  0.30141946  1
  Bi2+  Bi71  1  -0.01522747  0.89315812  0.79540103  1
  Bi2+  Bi72  1  0.18813758  0.13238904  0.31112374  1
  Bi2+  Bi73  1  0.23635632  0.12221813  0.79984952  1
  Bi2+  Bi74  1  0.21930734  0.38113412  0.27532937  1
  Bi2+  Bi75  1  0.24095682  0.40879126  0.78333366  1
  Bi2+  Bi76  1  0.27878632  0.64101180  0.28106943  1
  Bi2+  Bi77  1  0.25942160  0.57992142  0.72215210  1
  Bi2+  Bi78  1  0.27961763  0.95178467  0.31555874  1
  Bi2+  Bi79  1  0.25264929  0.81524130  0.81604119  1
  Bi2+  Bi80  1  0.48826857  0.15694737  0.28286958  1
  Bi2+  Bi81  1  0.52930897  0.12664476  0.78936422  1
  Bi2+  Bi82  1  0.47952060  0.42700110  0.29942663  1
  Bi2+  Bi83  1  0.48250942  0.37419840  0.84042366  1
  Bi2+  Bi84  1  0.54880124  0.64609005  0.29403153  1
  Bi2+  Bi85  1  0.48312744  0.55663542  0.79891461  1
  Bi2+  Bi86  1  0.51283174  0.89247381  0.29097733  1
  Bi2+  Bi87  1  0.51069233  0.84686708  0.79062281  1
  Bi2+  Bi88  1  0.75260544  0.13363042  0.29463186  1
  Bi2+  Bi89  1  0.78065834  0.20407375  0.77528974  1
  Bi2+  Bi90  1  0.75855702  0.41200306  0.24769450  1
  Bi2+  Bi91  1  0.67170056  0.35523004  0.81682470  1
  Bi2+  Bi92  1  0.77522374  0.59421731  0.30688899  1
  Bi2+  Bi93  1  0.71473089  0.53734424  0.78535779  1
  Bi2+  Bi94  1  0.71353042  0.86651597  0.29666386  1
  Bi2+  Bi95  1  0.73824778  0.93579661  0.77760549  1
  Bi2+  Bi96  1  0.09931973  0.08149578  0.21335375  1
  Bi2+  Bi97  1  0.13893354  0.01191619  0.71175288  1
  Bi2+  Bi98  1  0.07384523  0.27253387  0.19106810  1
  Bi2+  Bi99  1  0.11528690  0.26417587  0.75341877  1
  Bi2+  Bi100  1  0.11363938  0.52347211  0.19415307  1
  Bi2+  Bi101  1  0.08696715  0.48849441  0.69532231  1
  Bi2+  Bi102  1  0.11886656  0.79612498  0.18699104  1
  Bi2+  Bi103  1  0.11504547  0.74435787  0.71339220  1
  Bi2+  Bi104  1  0.37212856  -0.02465553  0.22132997  1
  Bi2+  Bi105  1  0.39684171  -0.01839706  0.70766241  1
  Bi2+  Bi106  1  0.26074967  0.22425957  0.21614207  1
  Bi2+  Bi107  1  0.38810685  0.28187134  0.75212008  1
  Bi2+  Bi108  1  0.38561111  0.48158624  0.20814779  1
  Bi2+  Bi109  1  0.35278428  0.42803533  0.67288160  1
  Bi2+  Bi110  1  0.44183124  0.75130818  0.22078235  1
  Bi2+  Bi111  1  0.46312962  0.69303286  0.71504908  1
  Bi2+  Bi112  1  0.62668640  0.00030733  0.21248100  1
  Bi2+  Bi113  1  0.62572477  -0.09315004  0.68769608  1
  Bi2+  Bi114  1  0.62730836  0.28283432  0.20478162  1
  Bi2+  Bi115  1  0.58854658  0.27879060  0.71393002  1
  Bi2+  Bi116  1  0.62947186  0.55161808  0.20074474  1
  Bi2+  Bi117  1  0.53081609  0.48590316  0.69383389  1
  Bi2+  Bi118  1  0.64087314  0.75420202  0.20842622  1
  Bi2+  Bi119  1  0.65940881  0.72861428  0.72712054  1
  Bi2+  Bi120  1  0.86882298  -0.02709399  0.20362652  1
  Bi2+  Bi121  1  0.89120217  -0.02071674  0.70827207  1
  Bi2+  Bi122  1  0.87169732  0.23267290  0.22053426  1
  Bi2+  Bi123  1  0.89733149  0.17013565  0.68279674  1
  Bi2+  Bi124  1  0.82673636  0.58152841  0.19433843  1
  Bi2+  Bi125  1  0.77669201  0.41610526  0.70128934  1
  Bi2+  Bi126  1  0.89949216  0.81360238  0.26803863  1
  Bi2+  Bi127  1  0.85635578  0.72060086  0.71496487  1
  S2-  S128  1  -0.10909092  0.11570405  0.14537373  1
  S2-  S129  1  0.05648754  0.12935715  0.65064968  1
  S2-  S130  1  -0.00392004  0.41486789  0.15573947  1
  S2-  S131  1  -0.06418212  0.40030981  0.66293392  1
  S2-  S132  1  -0.01020869  0.63158873  0.16001457  1
  S2-  S133  1  0.01225532  0.64885465  0.66621519  1
  S2-  S134  1  -0.02711718  0.87056807  0.14441991  1
  S2-  S135  1  0.09389184  0.88471948  0.65422564  1
  S2-  S136  1  0.33259668  0.10019971  0.15082343  1
  S2-  S137  1  0.27003274  0.04550999  0.64714047  1
  S2-  S138  1  0.25958369  0.45350616  0.14556917  1
  S2-  S139  1  0.14731428  0.36278456  0.63761770  1
  S2-  S140  1  0.20124580  0.66136978  0.16538024  1
  S2-  S141  1  0.24141915  0.70245679  0.64959527  1
  S2-  S142  1  0.25955450  0.88050589  0.16399092  1
  S2-  S143  1  0.25552481  0.88469168  0.73083343  1
  S2-  S144  1  0.48055453  0.23710793  0.18362545  1
  S2-  S145  1  0.50907065  0.02375751  0.64244290  1
  S2-  S146  1  0.52547829  0.45762184  0.14251857  1
  S2-  S147  1  0.49204222  0.25207509  0.63557711  1
  S2-  S148  1  0.40798206  0.62649987  0.15003689  1
  S2-  S149  1  0.59749350  0.63188586  0.64675573  1
  S2-  S150  1  0.50804463  0.95133548  0.14684514  1
  S2-  S151  1  0.41326435  0.83750202  0.65212672  1
  S2-  S152  1  0.65202781  0.13709489  0.15275611  1
  S2-  S153  1  0.73990692  0.01929505  0.64658108  1
  S2-  S154  1  0.76767662  0.34599714  0.14934384  1
  S2-  S155  1  0.73382278  0.27072579  0.64141931  1
  S2-  S156  1  0.77490592  0.72632339  0.13988146  1
  S2-  S157  1  0.80653593  0.58741496  0.66772938  1
  S2-  S158  1  0.74109180  0.94900219  0.14000998  1
  S2-  S159  1  0.87468816  0.84476777  0.64472347  1
  S2-  S160  1  0.11906773  -0.07836069  0.34605193  1
  S2-  S161  1  0.06091810  0.01233869  0.84031535  1
  S2-  S162  1  0.11134309  0.37267597  0.34959267  1
  S2-  S163  1  0.15568990  0.24134381  0.85480002  1
  S2-  S164  1  0.15210901  0.58605881  0.34113186  1
  S2-  S165  1  0.02371879  0.47995129  0.85333149  1
  S2-  S166  1  0.14586289  0.74577650  0.27600448  1
  S2-  S167  1  0.11151898  0.71644250  0.84518391  1
  S2-  S168  1  0.38232341  0.11622360  0.35016757  1
  S2-  S169  1  0.26979510  -0.02498768  0.85650004  1
  S2-  S170  1  0.33947663  0.37611228  0.35196787  1
  S2-  S171  1  0.38082034  0.17342262  0.84207998  1
  S2-  S172  1  0.40686750  0.57634491  0.34269877  1
  S2-  S173  1  0.27129390  0.51345162  0.85881832  1
  S2-  S174  1  0.31411899  0.77204724  0.34348070  1
  S2-  S175  1  0.39542570  0.75064682  0.85099710  1
  S2-  S176  1  0.60941016  0.09968061  0.34897207  1
  S2-  S177  1  0.49775285  -0.01296559  0.84556461  1
  S2-  S178  1  0.51880770  0.28552158  0.34640384  1
  S2-  S179  1  0.65883371  0.13096180  0.84790672  1
  S2-  S180  1  0.65201031  0.50019142  0.35013057  1
  S2-  S181  1  0.62110144  0.61351372  0.85793892  1
  S2-  S182  1  0.73639058  0.73673733  0.36640415  1
  S2-  S183  1  0.65006024  0.84469289  0.85160658  1
  S2-  S184  1  0.78333118  -0.00543881  0.35719575  1
  S2-  S185  1  0.84335236  -0.00972342  0.84440815  1
  S2-  S186  1  0.76102796  0.26108983  0.35280495  1
  S2-  S187  1  0.89640879  0.27401226  0.84582487  1
  S2-  S188  1  0.92098757  0.50780718  0.34545063  1
  S2-  S189  1  0.84437868  0.57421470  0.85360691  1
  S2-  S190  1  0.97376230  0.74184932  0.34814252  1
  S2-  S191  1  0.88144144  0.76547764  0.82043595  1
  S2-  S192  1  0.00248216  0.12106482  0.44962792  1
  S2-  S193  1  0.01319043  0.11207772  0.95956049  1
  S2-  S194  1  -0.00419459  0.37188825  0.45631775  1
  S2-  S195  1  0.01521674  0.35915780  0.95666704  1
  S2-  S196  1  -0.00086787  0.62144281  0.45521068  1
  S2-  S197  1  0.01754905  0.61351546  0.95458674  1
  S2-  S198  1  0.00124322  0.87066806  0.45594201  1
  S2-  S199  1  0.01576688  0.86090239  0.94434662  1
  S2-  S200  1  0.24858023  0.12231090  0.44990788  1
  S2-  S201  1  0.26569273  0.11556816  0.95829930  1
  S2-  S202  1  0.24670543  0.37238559  0.45468854  1
  S2-  S203  1  0.26631131  0.35999396  0.95571951  1
  S2-  S204  1  0.25314958  0.62764502  0.44822296  1
  S2-  S205  1  0.26701166  0.61628581  0.96516118  1
  S2-  S206  1  0.25410359  0.87278879  0.44546562  1
  S2-  S207  1  0.26614722  0.85906636  0.95874228  1
  S2-  S208  1  0.50308847  0.12308227  0.45329326  1
  S2-  S209  1  0.51795762  0.11592967  0.94891601  1
  S2-  S210  1  0.49787527  0.37646551  0.45676429  1
  S2-  S211  1  0.52096579  0.36610010  0.95590066  1
  S2-  S212  1  0.50359972  0.62514076  0.45655799  1
  S2-  S213  1  0.51118743  0.61131745  0.96215536  1
  S2-  S214  1  0.50602963  0.87546540  0.44786045  1
  S2-  S215  1  0.51288220  0.86015938  0.95467483  1
  S2-  S216  1  0.75444248  0.12469260  0.45924519  1
  S2-  S217  1  0.77286188  0.11280408  0.95506595  1
  S2-  S218  1  0.74987180  0.37395729  0.45627740  1
  S2-  S219  1  0.77033973  0.36554697  0.94559884  1
  S2-  S220  1  0.74513058  0.61795583  0.46713238  1
  S2-  S221  1  0.76630218  0.61135338  0.95820428  1
  S2-  S222  1  0.75209983  0.87404321  0.46412000  1
  S2-  S223  1  0.77283656  0.85985370  0.95179775  1
  S2-  S224  1  0.13765795  -0.01255251  0.04828246  1
  S2-  S225  1  0.12636398  -0.00378152  0.54394454  1
  S2-  S226  1  0.13823439  0.23476403  0.05777464  1
  S2-  S227  1  0.12633771  0.24495868  0.53509778  1
  S2-  S228  1  0.14017635  0.48503646  0.04279039  1
  S2-  S229  1  0.12692364  0.50356606  0.54216763  1
  S2-  S230  1  0.14293762  0.73701017  0.04910797  1
  S2-  S231  1  0.12562736  0.75304873  0.55220786  1
  S2-  S232  1  0.38989220  -0.01057668  0.04347109  1
  S2-  S233  1  0.37123407  -0.00246039  0.53939111  1
  S2-  S234  1  0.39317069  0.23771490  0.05103419  1
  S2-  S235  1  0.36689072  0.24924126  0.53641093  1
  S2-  S236  1  0.39238821  0.48041456  0.04168524  1
  S2-  S237  1  0.37442654  0.49977865  0.54217630  1
  S2-  S238  1  0.39334523  0.74261702  0.05399608  1
  S2-  S239  1  0.37586424  0.75453300  0.54180568  1
  S2-  S240  1  0.64333931  -0.02009296  0.03412898  1
  S2-  S241  1  0.62669265  0.00373362  0.53771300  1
  S2-  S242  1  0.64161507  0.23716046  0.04104767  1
  S2-  S243  1  0.62172993  0.25488399  0.53510780  1
  S2-  S244  1  0.64638881  0.48719432  0.04034033  1
  S2-  S245  1  0.62028454  0.49230329  0.55342530  1
  S2-  S246  1  0.63659455  0.73461565  0.04546050  1
  S2-  S247  1  0.62451456  0.75748850  0.55096750  1
  S2-  S248  1  0.89129502  -0.01745056  0.04196874  1
  S2-  S249  1  0.87709404  0.00415038  0.54791285  1
  S2-  S250  1  0.89227288  0.23860359  0.04701082  1
  S2-  S251  1  0.87988650  0.25063129  0.54168552  1
  S2-  S252  1  0.89128117  0.48783155  0.04264774  1
  S2-  S253  1  0.87297862  0.49998557  0.55073171  1
  S2-  S254  1  0.89466334  0.73361761  0.03582044  1
  S2-  S255  1  0.86710741  0.74358218  0.54502083  1
