# generated using pymatgen
data_La9Ce10Pr6Nd4Sm3(BiS2)32
_symmetry_space_group_name_H-M   'P 1'
_cell_length_a   16.16695715
_cell_length_b   16.15030112
_cell_length_c   27.21606105
_cell_angle_alpha   89.83249589
_cell_angle_beta   89.99488589
_cell_angle_gamma   89.96542412
_symmetry_Int_Tables_number   1
_chemical_formula_structural   La9Ce10Pr6Nd4Sm3(BiS2)32
_chemical_formula_sum   'La18 Ce20 Pr12 Nd8 Sm6 Bi64 S128'
_cell_volume   7106.11522561
_cell_formula_units_Z   2
loop_
 _symmetry_equiv_pos_site_id
 _symmetry_equiv_pos_as_xyz
  1  'x, y, z'
loop_
 _atom_type_symbol
 _atom_type_oxidation_number
  La3+  3.0
  Ce3+  3.0
  Pr3+  3.0
  Nd3+  3.0
  Sm3+  3.0
  Bi2+  2.0
  S2-  -2.0
loop_
 _atom_site_type_symbol
 _atom_site_label
 _atom_site_symmetry_multiplicity
 _atom_site_fract_x
 _atom_site_fract_y
 _atom_site_fract_z
 _atom_site_occupancy
  La3+  La0  1  0.35329506  -0.00621623  0.92504072  1
  La3+  La1  1  0.27492647  0.10810518  0.61707747  1
  La3+  La2  1  0.49893426  0.61593960  0.55025018  1
  La3+  La3  1  -0.00913854  0.61220495  0.56803986  1
  La3+  La4  1  0.63265742  0.48342028  0.41623044  1
  La3+  La5  1  0.47902565  0.87812190  0.08297362  1
  La3+  La6  1  0.73549385  0.87379989  0.59491184  1
  La3+  La7  1  0.88696617  0.00160375  0.41380932  1
  La3+  La8  1  0.24288249  0.85961892  0.56954136  1
  La3+  La9  1  0.86977104  0.74626046  0.43731391  1
  La3+  La10  1  -0.02142135  0.37363500  0.06336080  1
  La3+  La11  1  -0.01312224  0.86137110  0.58024869  1
  La3+  La12  1  0.60154183  0.00270925  0.92581022  1
  La3+  La13  1  0.10664340  0.74646121  0.93133617  1
  La3+  La14  1  0.73353901  0.61574489  0.09762064  1
  La3+  La15  1  0.62471486  0.74976634  0.41845067  1
  La3+  La16  1  0.73062169  0.87106999  0.07128841  1
  La3+  La17  1  0.36684367  0.74003167  0.41151792  1
  Ce3+  Ce18  1  -0.01960809  0.11880345  0.05370788  1
  Ce3+  Ce19  1  0.12084771  0.23762910  0.45309159  1
  Ce3+  Ce20  1  0.74735639  0.11255797  0.55781243  1
  Ce3+  Ce21  1  0.35477001  0.50077373  0.94232492  1
  Ce3+  Ce22  1  -0.00598030  0.37009657  0.56841657  1
  Ce3+  Ce23  1  0.88126618  0.49082378  0.43393426  1
  Ce3+  Ce24  1  0.85507273  0.24720273  0.94375612  1
  Ce3+  Ce25  1  0.85298174  0.49925592  0.94145238  1
  Ce3+  Ce26  1  0.47944057  0.62107991  0.06943279  1
  Ce3+  Ce27  1  0.49710072  0.11354922  0.54738370  1
  Ce3+  Ce28  1  0.35802696  0.75015022  0.94583764  1
  Ce3+  Ce29  1  0.49619992  0.36918315  0.55682566  1
  Ce3+  Ce30  1  0.74033892  0.61800857  0.55664407  1
  Ce3+  Ce31  1  0.72789343  0.37340810  0.05797286  1
  Ce3+  Ce32  1  0.62484405  0.24333045  0.44144483  1
  Ce3+  Ce33  1  -0.01435647  0.62375167  0.06642821  1
  Ce3+  Ce34  1  0.11732315  0.48944911  0.44353441  1
  Ce3+  Ce35  1  0.60607491  0.24554111  0.94035118  1
  Ce3+  Ce36  1  0.24835044  0.61854869  0.55586113  1
  Ce3+  Ce37  1  0.23062942  0.37273866  0.05507780  1
  Pr3+  Pr38  1  0.85231382  -0.00396261  0.93647972  1
  Pr3+  Pr39  1  0.37079725  0.48812554  0.42989931  1
  Pr3+  Pr40  1  -0.01913606  0.87147825  0.05742211  1
  Pr3+  Pr41  1  0.36758433  0.24249887  0.43151381  1
  Pr3+  Pr42  1  0.74488226  0.37055465  0.56697889  1
  Pr3+  Pr43  1  0.23047237  0.87916434  0.06748737  1
  Pr3+  Pr44  1  0.36810658  -0.01117439  0.43415604  1
  Pr3+  Pr45  1  0.11471678  0.74636669  0.43732435  1
  Pr3+  Pr46  1  0.10740668  -0.00615868  0.92272283  1
  Pr3+  Pr47  1  0.00140275  0.11439315  0.57777168  1
  Pr3+  Pr48  1  0.62467424  -0.00843304  0.43281487  1
  Pr3+  Pr49  1  0.48130600  0.12081435  0.06082308  1
  Nd3+  Nd50  1  0.23114118  0.11920947  0.06428796  1
  Nd3+  Nd51  1  0.60488200  0.75137440  0.94717329  1
  Nd3+  Nd52  1  0.24906396  0.36309676  0.56588923  1
  Nd3+  Nd53  1  0.60414086  0.50222966  0.93882258  1
  Nd3+  Nd54  1  0.73033112  0.11889022  0.06894145  1
  Nd3+  Nd55  1  0.49289816  0.86045730  0.55874989  1
  Nd3+  Nd56  1  0.10428617  0.50069847  0.93633561  1
  Nd3+  Nd57  1  0.23343051  0.62304146  0.07017355  1
  Sm3+  Sm58  1  0.10535667  0.24653472  0.94711360  1
  Sm3+  Sm59  1  0.87494431  0.23975946  0.44951327  1
  Sm3+  Sm60  1  0.85097984  0.74555366  0.94125615  1
  Sm3+  Sm61  1  0.35388707  0.24814210  0.94623381  1
  Sm3+  Sm62  1  0.12139627  -0.00832603  0.45526942  1
  Sm3+  Sm63  1  0.48192583  0.37280794  0.05441775  1
  Bi2+  Bi64  1  -0.00695801  0.21202321  0.29047048  1
  Bi2+  Bi65  1  0.00417352  0.17476305  0.77636755  1
  Bi2+  Bi66  1  0.03337541  0.41468163  0.26963980  1
  Bi2+  Bi67  1  0.02102045  0.37626197  0.79032929  1
  Bi2+  Bi68  1  0.00392419  0.63215173  0.28345214  1
  Bi2+  Bi69  1  0.00477162  0.56922252  0.78345885  1
  Bi2+  Bi70  1  0.01013561  0.87428589  0.29414312  1
  Bi2+  Bi71  1  0.00944555  0.98272041  0.79059327  1
  Bi2+  Bi72  1  0.31160682  0.12216307  0.31009195  1
  Bi2+  Bi73  1  0.24375188  0.17307687  0.80116376  1
  Bi2+  Bi74  1  0.22398525  0.36351885  0.29420520  1
  Bi2+  Bi75  1  0.27186735  0.42007384  0.78604370  1
  Bi2+  Bi76  1  0.20135513  0.61299677  0.29354464  1
  Bi2+  Bi77  1  0.27496635  0.63134332  0.81681143  1
  Bi2+  Bi78  1  0.22644111  0.87928604  0.28391109  1
  Bi2+  Bi79  1  0.23504694  0.82233863  0.79045714  1
  Bi2+  Bi80  1  0.50924620  0.12070831  0.30022318  1
  Bi2+  Bi81  1  0.49823253  0.16178433  0.79640256  1
  Bi2+  Bi82  1  0.48793383  0.32027698  0.28543787  1
  Bi2+  Bi83  1  0.57562470  0.36662990  0.77409741  1
  Bi2+  Bi84  1  0.45950640  0.60738006  0.27422122  1
  Bi2+  Bi85  1  0.45305795  0.60982362  0.76172217  1
  Bi2+  Bi86  1  0.48966289  0.86646365  0.28155752  1
  Bi2+  Bi87  1  0.51361607  0.86031725  0.81026469  1
  Bi2+  Bi88  1  0.70716967  0.13720191  0.29535800  1
  Bi2+  Bi89  1  0.75443255  0.14362332  0.78191144  1
  Bi2+  Bi90  1  0.75470822  0.32482797  0.28478752  1
  Bi2+  Bi91  1  0.80925620  0.37356946  0.78851421  1
  Bi2+  Bi92  1  0.76554814  0.58792225  0.28907620  1
  Bi2+  Bi93  1  0.71924271  0.63226841  0.81517148  1
  Bi2+  Bi94  1  0.74169545  0.85022687  0.27967404  1
  Bi2+  Bi95  1  0.77953531  0.88044979  0.77755636  1
  Bi2+  Bi96  1  0.13058346  0.05638276  0.27601552  1
  Bi2+  Bi97  1  0.15889077  -0.00520634  0.72200541  1
  Bi2+  Bi98  1  0.20817813  0.21276257  0.21887676  1
  Bi2+  Bi99  1  0.14934060  0.35706800  0.70227482  1
  Bi2+  Bi100  1  0.19327043  0.49949077  0.19854279  1
  Bi2+  Bi101  1  0.17133238  0.55317192  0.71326327  1
  Bi2+  Bi102  1  0.12191991  0.75775689  0.21097431  1
  Bi2+  Bi103  1  0.11305270  0.74654596  0.71369384  1
  Bi2+  Bi104  1  0.33192950  0.00004372  0.19907317  1
  Bi2+  Bi105  1  0.44213497  -0.01848806  0.70224324  1
  Bi2+  Bi106  1  0.40360472  0.19393985  0.20849145  1
  Bi2+  Bi107  1  0.41093618  0.33601527  0.71721748  1
  Bi2+  Bi108  1  0.38177612  0.44996801  0.22061159  1
  Bi2+  Bi109  1  0.35254655  0.50725376  0.67672302  1
  Bi2+  Bi110  1  0.32074279  0.72671765  0.21757536  1
  Bi2+  Bi111  1  0.36386779  0.75747475  0.70959471  1
  Bi2+  Bi112  1  0.62367188  0.03630954  0.21129940  1
  Bi2+  Bi113  1  0.60822240  0.11906028  0.70443505  1
  Bi2+  Bi114  1  0.68615190  0.22139700  0.18737719  1
  Bi2+  Bi115  1  0.69542460  0.29452345  0.69124951  1
  Bi2+  Bi116  1  0.60467181  0.46976634  0.21302851  1
  Bi2+  Bi117  1  0.61166284  0.52550265  0.70917611  1
  Bi2+  Bi118  1  0.63147182  0.71956189  0.22422296  1
  Bi2+  Bi119  1  0.58898304  0.76022089  0.70490266  1
  Bi2+  Bi120  1  0.88701743  0.01208646  0.20704652  1
  Bi2+  Bi121  1  0.88500225  0.10431220  0.69730927  1
  Bi2+  Bi122  1  0.87857269  0.23864534  0.19716249  1
  Bi2+  Bi123  1  0.89732033  0.29834042  0.68469949  1
  Bi2+  Bi124  1  0.86950922  0.46927564  0.21331334  1
  Bi2+  Bi125  1  0.86303806  0.50498125  0.70954121  1
  Bi2+  Bi126  1  0.89715617  0.74604581  0.20935310  1
  Bi2+  Bi127  1  0.84981698  0.74025776  0.71372171  1
  S2-  S128  1  -0.01960567  0.11744465  0.15241435  1
  S2-  S129  1  0.11286189  0.11260873  0.66075735  1
  S2-  S130  1  -0.01101931  0.37665072  0.16400507  1
  S2-  S131  1  -0.01366258  0.48211157  0.64309869  1
  S2-  S132  1  0.10769879  0.62314801  0.14108448  1
  S2-  S133  1  -0.01675071  0.70969565  0.65218764  1
  S2-  S134  1  -0.03994304  0.89321820  0.15902910  1
  S2-  S135  1  0.10883913  0.87900016  0.65388735  1
  S2-  S136  1  0.20128155  0.01024648  0.14000929  1
  S2-  S137  1  0.30870637  0.08981582  0.72813293  1
  S2-  S138  1  0.22992305  0.34915597  0.15119230  1
  S2-  S139  1  0.28028450  0.27840832  0.65320594  1
  S2-  S140  1  0.35770508  0.61831198  0.14399286  1
  S2-  S141  1  0.25036649  0.71403653  0.63929419  1
  S2-  S142  1  0.34059002  0.85492082  0.14807542  1
  S2-  S143  1  0.31608941  0.93908340  0.65033521  1
  S2-  S144  1  0.48400273  0.02950544  0.14663440  1
  S2-  S145  1  0.45496648  0.12127050  0.64219159  1
  S2-  S146  1  0.49374321  0.38302008  0.15283644  1
  S2-  S147  1  0.51041021  0.48930654  0.63025270  1
  S2-  S148  1  0.58066907  0.60494586  0.15208181  1
  S2-  S149  1  0.47774854  0.72615501  0.63201869  1
  S2-  S150  1  0.54946451  0.83675006  0.18075176  1
  S2-  S151  1  0.57704433  0.89714938  0.65032056  1
  S2-  S152  1  0.74732990  -0.00076072  0.14560865  1
  S2-  S153  1  0.73530137  0.04484454  0.64835460  1
  S2-  S154  1  0.73024744  0.45053401  0.14677403  1
  S2-  S155  1  0.73655991  0.50236790  0.63728788  1
  S2-  S156  1  0.89151180  0.60853808  0.14982370  1
  S2-  S157  1  0.72141197  0.71604600  0.64422681  1
  S2-  S158  1  0.75181722  0.76625961  0.15492971  1
  S2-  S159  1  0.86755141  0.87765685  0.66568712  1
  S2-  S160  1  0.05091796  -0.00377733  0.36305470  1
  S2-  S161  1  0.23097477  0.03673696  0.85220431  1
  S2-  S162  1  0.12261979  0.25883673  0.35514846  1
  S2-  S163  1  0.10662054  0.25372206  0.84917080  1
  S2-  S164  1  0.02024847  0.49988527  0.36057019  1
  S2-  S165  1  0.11060891  0.61469803  0.85936137  1
  S2-  S166  1  0.21606202  0.75146895  0.35316737  1
  S2-  S167  1  0.09296403  0.86008010  0.85232761  1
  S2-  S168  1  0.36901307  -0.10203952  0.34642660  1
  S2-  S169  1  0.47065880  0.01562450  0.84800915  1
  S2-  S170  1  0.36565107  0.36096796  0.35470221  1
  S2-  S171  1  0.37503879  0.24719721  0.84846363  1
  S2-  S172  1  0.35196401  0.58931199  0.34674509  1
  S2-  S173  1  0.39078669  0.50518977  0.84602999  1
  S2-  S174  1  0.50391735  0.73686990  0.34006185  1
  S2-  S175  1  0.36324352  0.83592796  0.85949890  1
  S2-  S176  1  0.61863922  -0.09157628  0.34178873  1
  S2-  S177  1  0.65618278  -0.08300626  0.84081626  1
  S2-  S178  1  0.62405138  0.33035615  0.35580730  1
  S2-  S179  1  0.63252107  0.15324152  0.85834007  1
  S2-  S180  1  0.61175863  0.54481581  0.31768942  1
  S2-  S181  1  0.63626505  0.49818521  0.84008484  1
  S2-  S182  1  0.76176634  0.73003142  0.34988300  1
  S2-  S183  1  0.58883527  0.71326142  0.84789660  1
  S2-  S184  1  0.85436418  -0.04559789  0.31231784  1
  S2-  S185  1  0.85578390  0.00056903  0.83502220  1
  S2-  S186  1  0.88948105  0.16408060  0.36061819  1
  S2-  S187  1  0.85440308  0.23737887  0.84555028  1
  S2-  S188  1  0.80311596  0.45690629  0.34850069  1
  S2-  S189  1  0.86094542  0.53322248  0.84544329  1
  S2-  S190  1  0.99094930  0.75205422  0.35939796  1
  S2-  S191  1  0.84187019  0.76107017  0.84053135  1
  S2-  S192  1  -0.00276365  0.11699852  0.46952538  1
  S2-  S193  1  -0.01762892  0.12195073  0.94598505  1
  S2-  S194  1  -0.00377882  0.36147797  0.46097919  1
  S2-  S195  1  -0.01763204  0.37331565  0.95255808  1
  S2-  S196  1  -0.00362377  0.61623939  0.46054854  1
  S2-  S197  1  -0.02362510  0.62352288  0.95686033  1
  S2-  S198  1  -0.00585933  0.87424385  0.46571628  1
  S2-  S199  1  -0.02648856  0.86927563  0.95129788  1
  S2-  S200  1  0.24397394  0.11507346  0.44484635  1
  S2-  S201  1  0.23010771  0.12905112  0.95862453  1
  S2-  S202  1  0.24211029  0.36519083  0.45848626  1
  S2-  S203  1  0.22823429  0.37315278  0.94768377  1
  S2-  S204  1  0.23916744  0.61168127  0.45214813  1
  S2-  S205  1  0.23335992  0.62182243  0.96178497  1
  S2-  S206  1  0.24131340  0.87060485  0.45696785  1
  S2-  S207  1  0.22920955  0.87122314  0.95811986  1
  S2-  S208  1  0.49632493  0.11846580  0.44143748  1
  S2-  S209  1  0.47702686  0.12844806  0.95575136  1
  S2-  S210  1  0.49696945  0.36341003  0.45348086  1
  S2-  S211  1  0.48075968  0.37182588  0.94929732  1
  S2-  S212  1  0.50248891  0.60939783  0.44240888  1
  S2-  S213  1  0.48000997  0.62280505  0.95797986  1
  S2-  S214  1  0.49699733  0.86856643  0.45116779  1
  S2-  S215  1  0.48366818  0.87382387  0.96152910  1
  S2-  S216  1  0.74865805  0.11694270  0.45189008  1
  S2-  S217  1  0.73373867  0.12315980  0.96141485  1
  S2-  S218  1  0.75379853  0.35993051  0.45900265  1
  S2-  S219  1  0.72847874  0.37241617  0.95005292  1
  S2-  S220  1  0.74927718  0.61009335  0.44973208  1
  S2-  S221  1  0.72896147  0.62365234  0.95258644  1
  S2-  S222  1  0.75806926  0.88256808  0.44125982  1
  S2-  S223  1  0.73213706  0.87081322  0.95858305  1
  S2-  S224  1  0.10148739  -0.00225436  0.03345068  1
  S2-  S225  1  0.12947946  -0.00286163  0.55527027  1
  S2-  S226  1  0.10525666  0.24542463  0.05216596  1
  S2-  S227  1  0.11843580  0.24742145  0.55722020  1
  S2-  S228  1  0.10685930  0.49477528  0.04214129  1
  S2-  S229  1  0.12740246  0.48945332  0.54987506  1
  S2-  S230  1  0.10906329  0.75203528  0.04357468  1
  S2-  S231  1  0.11595537  0.73694723  0.54402976  1
  S2-  S232  1  0.35517747  0.00082638  0.03965776  1
  S2-  S233  1  0.37273960  -0.00675547  0.54035005  1
  S2-  S234  1  0.35646407  0.24775494  0.05159783  1
  S2-  S235  1  0.37394783  0.24050259  0.53968409  1
  S2-  S236  1  0.35667698  0.49197614  0.04707482  1
  S2-  S237  1  0.36807500  0.48865937  0.53720791  1
  S2-  S238  1  0.35699159  0.74961913  0.04735780  1
  S2-  S239  1  0.36857851  0.73895762  0.52807387  1
  S2-  S240  1  0.60766830  -0.00125875  0.04273671  1
  S2-  S241  1  0.62119009  -0.00966226  0.53916243  1
  S2-  S242  1  0.60509248  0.24721889  0.04793800  1
  S2-  S243  1  0.62117254  0.24173180  0.54854020  1
  S2-  S244  1  0.60399774  0.49534512  0.04390696  1
  S2-  S245  1  0.62281236  0.48610705  0.52914508  1
  S2-  S246  1  0.60420459  0.74658933  0.05332584  1
  S2-  S247  1  0.62373897  0.74689312  0.53175863  1
  S2-  S248  1  0.85708232  -0.00249598  0.04265254  1
  S2-  S249  1  0.87188994  -0.00547940  0.55396617  1
  S2-  S250  1  0.85358419  0.24622222  0.05037626  1
  S2-  S251  1  0.87074360  0.23988762  0.55426809  1
  S2-  S252  1  0.85397102  0.49749496  0.04577237  1
  S2-  S253  1  0.86859207  0.48929130  0.53980051  1
  S2-  S254  1  0.85706985  0.74504145  0.04594030  1
  S2-  S255  1  0.86067419  0.74407529  0.54579925  1
