# generated using pymatgen
data_La9Ce10Pr6Nd4Sm3(BiS2)32
_symmetry_space_group_name_H-M   'P 1'
_cell_length_a   16.22716088
_cell_length_b   16.23050772
_cell_length_c   27.08523572
_cell_angle_alpha   89.96495038
_cell_angle_beta   90.16868438
_cell_angle_gamma   90.03502523
_symmetry_Int_Tables_number   1
_chemical_formula_structural   La9Ce10Pr6Nd4Sm3(BiS2)32
_chemical_formula_sum   'La18 Ce20 Pr12 Nd8 Sm6 Bi64 S128'
_cell_volume   7133.54200673
_cell_formula_units_Z   2
loop_
 _symmetry_equiv_pos_site_id
 _symmetry_equiv_pos_as_xyz
  1  'x, y, z'
loop_
 _atom_type_symbol
 _atom_type_oxidation_number
  La3+  3.0
  Ce3+  3.0
  Pr3+  3.0
  Nd3+  3.0
  Sm3+  3.0
  Bi2+  2.0
  S2-  -2.0
loop_
 _atom_site_type_symbol
 _atom_site_label
 _atom_site_symmetry_multiplicity
 _atom_site_fract_x
 _atom_site_fract_y
 _atom_site_fract_z
 _atom_site_occupancy
  La3+  La0  1  0.87527390  0.48045502  0.41272266  1
  La3+  La1  1  0.12631113  -0.02449569  0.43975108  1
  La3+  La2  1  -0.00403721  0.89431462  0.09314391  1
  La3+  La3  1  0.73190558  0.64765103  0.08740858  1
  La3+  La4  1  0.01433981  0.84864202  0.57688883  1
  La3+  La5  1  0.00988390  0.10744889  0.56683127  1
  La3+  La6  1  0.09959597  0.51049455  0.92840481  1
  La3+  La7  1  0.73449346  0.39138139  0.08586079  1
  La3+  La8  1  0.76415439  0.85774708  0.57749482  1
  La3+  La9  1  0.48448231  0.12218074  0.08278242  1
  La3+  La10  1  0.85956952  0.01672665  0.90468323  1
  La3+  La11  1  0.61088037  0.01269095  0.92507172  1
  La3+  La12  1  0.73839509  0.89141531  0.06394010  1
  La3+  La13  1  0.12145322  0.01121369  0.91065339  1
  La3+  La14  1  0.86232207  0.76479624  0.94321875  1
  La3+  La15  1  0.26027494  0.85149527  0.57595508  1
  La3+  La16  1  0.37311033  0.22725432  0.41211361  1
  La3+  La17  1  0.48251653  0.63524325  0.07023162  1
  Ce3+  Ce18  1  0.88090886  0.23447308  0.43712340  1
  Ce3+  Ce19  1  0.23685816  0.38431270  0.06723457  1
  Ce3+  Ce20  1  0.36498290  0.01273835  0.94086234  1
  Ce3+  Ce21  1  0.25903542  0.36497170  0.56115005  1
  Ce3+  Ce22  1  0.00601948  0.36609325  0.55347306  1
  Ce3+  Ce23  1  0.63398034  0.48424756  0.43835776  1
  Ce3+  Ce24  1  0.48554808  0.37897343  0.07271203  1
  Ce3+  Ce25  1  0.61394199  0.75788593  0.94344712  1
  Ce3+  Ce26  1  0.10758705  0.76212542  0.93791850  1
  Ce3+  Ce27  1  0.36296653  0.25633679  0.94967616  1
  Ce3+  Ce28  1  0.87950950  -0.01621455  0.44661356  1
  Ce3+  Ce29  1  0.38015401  0.73330422  0.43092049  1
  Ce3+  Ce30  1  -0.01326218  0.38253229  0.05731068  1
  Ce3+  Ce31  1  0.50801150  0.35820260  0.55313542  1
  Ce3+  Ce32  1  0.75849820  0.35922526  0.55333836  1
  Ce3+  Ce33  1  0.76111835  0.60636954  0.55110988  1
  Ce3+  Ce34  1  0.13402084  0.23397879  0.44564645  1
  Ce3+  Ce35  1  0.75652894  0.11156935  0.55873027  1
  Ce3+  Ce36  1  0.63304041  -0.01634727  0.44253144  1
  Ce3+  Ce37  1  0.63546265  0.73709523  0.43827351  1
  Pr3+  Pr38  1  0.25742555  0.60400799  0.56024336  1
  Pr3+  Pr39  1  0.13641863  0.48217254  0.42628809  1
  Pr3+  Pr40  1  0.23112945  0.12819795  0.06524217  1
  Pr3+  Pr41  1  0.26162520  0.10778465  0.56318974  1
  Pr3+  Pr42  1  0.13598286  0.72662878  0.43080761  1
  Pr3+  Pr43  1  0.38574134  0.48311981  0.43481246  1
  Pr3+  Pr44  1  0.50500132  0.85516667  0.55816916  1
  Pr3+  Pr45  1  0.61217170  0.50857048  0.94762492  1
  Pr3+  Pr46  1  0.85222679  0.51159222  0.94162746  1
  Pr3+  Pr47  1  0.50714457  0.10977546  0.55518756  1
  Pr3+  Pr48  1  0.11160224  0.25405616  0.93823856  1
  Pr3+  Pr49  1  0.37858343  -0.01801954  0.43166881  1
  Nd3+  Nd50  1  0.36117277  0.75789854  0.94050690  1
  Nd3+  Nd51  1  -0.01211172  0.63041101  0.06656521  1
  Nd3+  Nd52  1  0.62776712  0.23213506  0.42966358  1
  Nd3+  Nd53  1  0.48337071  0.88584520  0.05641340  1
  Nd3+  Nd54  1  0.50985774  0.60938821  0.55490639  1
  Nd3+  Nd55  1  0.61012717  0.25767660  0.94561915  1
  Nd3+  Nd56  1  0.00537016  0.60385225  0.55769936  1
  Nd3+  Nd57  1  0.35502308  0.50640500  0.94244225  1
  Sm3+  Sm58  1  0.88886567  0.73703721  0.43638785  1
  Sm3+  Sm59  1  0.23214812  0.63434610  0.05409902  1
  Sm3+  Sm60  1  -0.01315865  0.12975792  0.05340025  1
  Sm3+  Sm61  1  0.73878812  0.13267040  0.05745330  1
  Sm3+  Sm62  1  0.23092233  0.88362560  0.05387910  1
  Sm3+  Sm63  1  0.85745541  0.25853864  0.94507154  1
  Bi2+  Bi64  1  0.00141878  0.11495609  0.29447415  1
  Bi2+  Bi65  1  -0.01445862  0.18818416  0.78609241  1
  Bi2+  Bi66  1  0.00974175  0.31111047  0.28134536  1
  Bi2+  Bi67  1  0.00871671  0.38555117  0.79434182  1
  Bi2+  Bi68  1  0.00902165  0.67419884  0.29418568  1
  Bi2+  Bi69  1  0.01374275  0.60974020  0.77865555  1
  Bi2+  Bi70  1  0.03820214  0.92321861  0.28272038  1
  Bi2+  Bi71  1  -0.00764393  0.84800122  0.80327818  1
  Bi2+  Bi72  1  0.24416951  0.12344137  0.28430830  1
  Bi2+  Bi73  1  0.24042412  0.18586325  0.78075149  1
  Bi2+  Bi74  1  0.17663912  0.38747247  0.30473662  1
  Bi2+  Bi75  1  0.26939059  0.37566524  0.79469643  1
  Bi2+  Bi76  1  0.26284854  0.61874229  0.28938546  1
  Bi2+  Bi77  1  0.28637153  0.61827151  0.79476065  1
  Bi2+  Bi78  1  0.27338420  0.87959442  0.28574836  1
  Bi2+  Bi79  1  0.29054993  0.87751447  0.78249096  1
  Bi2+  Bi80  1  0.48878377  0.13773141  0.27576338  1
  Bi2+  Bi81  1  0.45660023  0.07894966  0.81574995  1
  Bi2+  Bi82  1  0.44836764  0.41271752  0.27461652  1
  Bi2+  Bi83  1  0.56829129  0.34618901  0.81351907  1
  Bi2+  Bi84  1  0.45055917  0.65915469  0.30496803  1
  Bi2+  Bi85  1  0.53529424  0.54116138  0.78827047  1
  Bi2+  Bi86  1  0.46766125  0.85379068  0.28986898  1
  Bi2+  Bi87  1  0.50055861  0.89005824  0.78418541  1
  Bi2+  Bi88  1  0.80702306  0.14295449  0.30166790  1
  Bi2+  Bi89  1  0.71930869  0.20005349  0.79017938  1
  Bi2+  Bi90  1  0.75740404  0.36008428  0.28317483  1
  Bi2+  Bi91  1  0.75698252  0.38636219  0.83058525  1
  Bi2+  Bi92  1  0.76217592  0.62040610  0.29642565  1
  Bi2+  Bi93  1  0.74353905  0.56664151  0.77162315  1
  Bi2+  Bi94  1  0.76057547  0.95061159  0.30445038  1
  Bi2+  Bi95  1  0.73890168  0.85379191  0.78775690  1
  Bi2+  Bi96  1  0.18319371  0.03471268  0.18679707  1
  Bi2+  Bi97  1  0.11236556  0.00410016  0.71554833  1
  Bi2+  Bi98  1  0.13288269  0.22581338  0.19907608  1
  Bi2+  Bi99  1  0.12893160  0.30692056  0.71458954  1
  Bi2+  Bi100  1  0.17888619  0.44847213  0.19598987  1
  Bi2+  Bi101  1  0.12430614  0.50307803  0.70615701  1
  Bi2+  Bi102  1  0.23874166  0.75195041  0.20018398  1
  Bi2+  Bi103  1  0.12599037  0.73198175  0.70928192  1
  Bi2+  Bi104  1  0.37598315  -0.05032470  0.19151100  1
  Bi2+  Bi105  1  0.35857011  0.00338654  0.70668424  1
  Bi2+  Bi106  1  0.31293584  0.29849447  0.22424257  1
  Bi2+  Bi107  1  0.39169083  0.29178868  0.71798614  1
  Bi2+  Bi108  1  0.37036457  0.57015411  0.19268930  1
  Bi2+  Bi109  1  0.37027709  0.48686372  0.71357767  1
  Bi2+  Bi110  1  0.43692337  0.75715478  0.18291062  1
  Bi2+  Bi111  1  0.39477988  0.73371994  0.70281977  1
  Bi2+  Bi112  1  0.60401006  0.00466788  0.23637248  1
  Bi2+  Bi113  1  0.57885631  0.03722305  0.72735433  1
  Bi2+  Bi114  1  0.65392733  0.24868982  0.19643179  1
  Bi2+  Bi115  1  0.57937350  0.23077047  0.70957250  1
  Bi2+  Bi116  1  0.55586241  0.54890791  0.23218573  1
  Bi2+  Bi117  1  0.63044806  0.43066283  0.71025140  1
  Bi2+  Bi118  1  0.65150667  0.81408626  0.24757097  1
  Bi2+  Bi119  1  0.58129860  0.71568004  0.74520272  1
  Bi2+  Bi120  1  0.85553443  0.01280427  0.19852105  1
  Bi2+  Bi121  1  0.86089964  0.02762165  0.71230453  1
  Bi2+  Bi122  1  0.90735134  0.20404177  0.20190941  1
  Bi2+  Bi123  1  0.85713871  0.31001261  0.73401961  1
  Bi2+  Bi124  1  0.91299442  0.50605160  0.20539911  1
  Bi2+  Bi125  1  0.87487148  0.51306305  0.69752216  1
  Bi2+  Bi126  1  0.84353300  0.74052463  0.21369986  1
  Bi2+  Bi127  1  0.85330520  0.75926304  0.70095116  1
  S2-  S128  1  -0.00345259  0.05456530  0.14324596  1
  S2-  S129  1  -0.00674155  0.10470717  0.66851161  1
  S2-  S130  1  0.02864080  0.41614178  0.15053505  1
  S2-  S131  1  0.00340259  0.47445259  0.63072217  1
  S2-  S132  1  -0.02612427  0.64435876  0.16813650  1
  S2-  S133  1  0.00928084  0.70270825  0.64534356  1
  S2-  S134  1  -0.05157223  0.86330712  0.19389128  1
  S2-  S135  1  -0.09716059  0.89203293  0.65347264  1
  S2-  S136  1  0.33061327  0.10268020  0.14883568  1
  S2-  S137  1  0.22245943  0.08720380  0.66227982  1
  S2-  S138  1  0.35325171  0.38705835  0.14297333  1
  S2-  S139  1  0.25374515  0.47943537  0.63695693  1
  S2-  S140  1  0.19459433  0.60513417  0.14889719  1
  S2-  S141  1  0.25785389  0.70855433  0.64278943  1
  S2-  S142  1  0.15221777  0.87732770  0.14243693  1
  S2-  S143  1  0.13724770  0.88063031  0.65424693  1
  S2-  S144  1  0.50927251  0.19757793  0.17681804  1
  S2-  S145  1  0.46791921  0.10092020  0.65378095  1
  S2-  S146  1  0.59489056  0.38570597  0.15107565  1
  S2-  S147  1  0.48352161  0.39623248  0.64857732  1
  S2-  S148  1  0.58364464  0.64764869  0.15312568  1
  S2-  S149  1  0.51334031  0.65033637  0.65206034  1
  S2-  S150  1  0.52301577  0.97146310  0.14101796  1
  S2-  S151  1  0.40436465  0.86869630  0.64045971  1
  S2-  S152  1  0.72177524  0.09832718  0.15470185  1
  S2-  S153  1  0.75796658  0.10579212  0.65764544  1
  S2-  S154  1  0.80745728  0.33431265  0.17620700  1
  S2-  S155  1  0.76936396  0.38241960  0.65072649  1
  S2-  S156  1  0.77590556  0.53952041  0.16276210  1
  S2-  S157  1  0.77912148  0.62611045  0.64852665  1
  S2-  S158  1  0.73227035  0.80079804  0.15155560  1
  S2-  S159  1  0.71338039  0.84077763  0.67641894  1
  S2-  S160  1  0.17334002  -0.01159934  0.34259126  1
  S2-  S161  1  0.12976551  -0.06884596  0.81507860  1
  S2-  S162  1  0.21745395  0.23623959  0.35848440  1
  S2-  S163  1  0.11771045  0.15775042  0.85197312  1
  S2-  S164  1  0.11903850  0.59802100  0.34940310  1
  S2-  S165  1  0.19607652  0.50243753  0.84498687  1
  S2-  S166  1  0.05082319  0.79882414  0.35141478  1
  S2-  S167  1  0.09550976  0.71517101  0.84278492  1
  S2-  S168  1  0.38077821  0.08079224  0.34663458  1
  S2-  S169  1  0.30373531  0.00544334  0.85017191  1
  S2-  S170  1  0.47476738  0.27285718  0.33341569  1
  S2-  S171  1  0.36519337  0.22719506  0.85188374  1
  S2-  S172  1  0.32138739  0.46459340  0.34137407  1
  S2-  S173  1  0.40209896  0.52079188  0.84740381  1
  S2-  S174  1  0.26642538  0.75235972  0.35759775  1
  S2-  S175  1  0.35577940  0.74403245  0.84023072  1
  S2-  S176  1  0.61331378  0.01418026  0.34583022  1
  S2-  S177  1  0.72162659  -0.01641855  0.84444861  1
  S2-  S178  1  0.67857103  0.24234603  0.33163669  1
  S2-  S179  1  0.59472252  0.15737670  0.86200027  1
  S2-  S180  1  0.69955492  0.47731795  0.34780419  1
  S2-  S181  1  0.72391273  0.55024856  0.87168530  1
  S2-  S182  1  0.64062988  0.72097043  0.34003103  1
  S2-  S183  1  0.60884814  0.77739412  0.84452983  1
  S2-  S184  1  0.92669578  -0.03173804  0.35297154  1
  S2-  S185  1  0.93484030  -0.00311870  0.80945745  1
  S2-  S186  1  0.88198338  0.33153586  0.35392298  1
  S2-  S187  1  0.85945097  0.18114997  0.85504762  1
  S2-  S188  1  0.91319714  0.53442537  0.31399029  1
  S2-  S189  1  0.95850024  0.51747271  0.85851370  1
  S2-  S190  1  0.85856934  0.73425351  0.33635727  1
  S2-  S191  1  0.84740371  0.76113743  0.83957235  1
  S2-  S192  1  0.00734670  0.11082235  0.45564466  1
  S2-  S193  1  -0.01579514  0.13151942  0.95051265  1
  S2-  S194  1  0.01152246  0.35861277  0.44796042  1
  S2-  S195  1  -0.01752514  0.37628856  0.95145558  1
  S2-  S196  1  -0.00015344  0.60544799  0.44936799  1
  S2-  S197  1  -0.01710032  0.63744730  0.95880896  1
  S2-  S198  1  0.00112948  0.85851140  0.46571166  1
  S2-  S199  1  -0.01250370  0.89190653  0.93421704  1
  S2-  S200  1  0.25472835  0.10510466  0.45685380  1
  S2-  S201  1  0.23804100  0.13296542  0.95758277  1
  S2-  S202  1  0.26191998  0.35856705  0.45567967  1
  S2-  S203  1  0.23461070  0.38020743  0.95614084  1
  S2-  S204  1  0.26266967  0.60315506  0.45178679  1
  S2-  S205  1  0.23495900  0.63497266  0.94993491  1
  S2-  S206  1  0.25790840  0.86001495  0.46051948  1
  S2-  S207  1  0.23646365  0.88117030  0.94846448  1
  S2-  S208  1  0.50538919  0.10990291  0.44929105  1
  S2-  S209  1  0.48389976  0.13400098  0.96645403  1
  S2-  S210  1  0.50883865  0.35749406  0.44686469  1
  S2-  S211  1  0.48586558  0.38424755  0.96078140  1
  S2-  S212  1  0.51058248  0.60968288  0.44683593  1
  S2-  S213  1  0.48625787  0.63370956  0.95682523  1
  S2-  S214  1  0.50668441  0.85963070  0.44909300  1
  S2-  S215  1  0.48589804  0.88338456  0.94897793  1
  S2-  S216  1  0.75533528  0.11062810  0.45072994  1
  S2-  S217  1  0.73865705  0.13457834  0.95460515  1
  S2-  S218  1  0.75167496  0.35391103  0.44979005  1
  S2-  S219  1  0.73439286  0.37936479  0.96725971  1
  S2-  S220  1  0.75970209  0.61256070  0.44573461  1
  S2-  S221  1  0.73610290  0.64327792  0.97498146  1
  S2-  S222  1  0.75875101  0.85855512  0.45592947  1
  S2-  S223  1  0.73672738  0.88598358  0.95472353  1
  S2-  S224  1  0.10959060  0.00559041  0.03563085  1
  S2-  S225  1  0.13428212  -0.01540366  0.54850329  1
  S2-  S226  1  0.11066733  0.25569578  0.04731544  1
  S2-  S227  1  0.13380604  0.23739566  0.55368503  1
  S2-  S228  1  0.11185323  0.50795945  0.03931302  1
  S2-  S229  1  0.13270823  0.48208654  0.53256580  1
  S2-  S230  1  0.10876580  0.75781842  0.04466760  1
  S2-  S231  1  0.13255254  0.72531505  0.53929559  1
  S2-  S232  1  0.35531679  0.00248331  0.04440305  1
  S2-  S233  1  0.38377865  -0.01447469  0.53955831  1
  S2-  S234  1  0.35929371  0.25308626  0.05339171  1
  S2-  S235  1  0.38163136  0.23663895  0.55002872  1
  S2-  S236  1  0.35713451  0.51330759  0.04735560  1
  S2-  S237  1  0.38874549  0.48440661  0.54082456  1
  S2-  S238  1  0.35513398  0.76016255  0.04822813  1
  S2-  S239  1  0.38588135  0.72863223  0.53723624  1
  S2-  S240  1  0.61485800  0.01112842  0.03785664  1
  S2-  S241  1  0.63181013  -0.01821425  0.55193820  1
  S2-  S242  1  0.61280387  0.25182297  0.05146444  1
  S2-  S243  1  0.63209814  0.23488131  0.54342049  1
  S2-  S244  1  0.60796880  0.51197799  0.05256747  1
  S2-  S245  1  0.63313614  0.48421873  0.54558323  1
  S2-  S246  1  0.60640951  0.76670599  0.04797171  1
  S2-  S247  1  0.63523585  0.73543212  0.54644075  1
  S2-  S248  1  0.86444646  0.00962187  0.04708136  1
  S2-  S249  1  0.88021538  -0.01123777  0.55000715  1
  S2-  S250  1  0.86395158  0.25422525  0.05069930  1
  S2-  S251  1  0.88459782  0.23566297  0.54726380  1
  S2-  S252  1  0.86511142  0.50742147  0.04993341  1
  S2-  S253  1  0.87791453  0.48088969  0.52916473  1
  S2-  S254  1  0.87484302  0.76811707  0.05434227  1
  S2-  S255  1  0.88053973  0.73179328  0.54275993  1
