# generated using pymatgen
data_La9Ce10Pr6Nd4Sm3(BiS2)32
_symmetry_space_group_name_H-M   'P 1'
_cell_length_a   16.16771861
_cell_length_b   16.20654827
_cell_length_c   27.14878708
_cell_angle_alpha   90.04667636
_cell_angle_beta   90.08335036
_cell_angle_gamma   89.98961148
_symmetry_Int_Tables_number   1
_chemical_formula_structural   La9Ce10Pr6Nd4Sm3(BiS2)32
_chemical_formula_sum   'La18 Ce20 Pr12 Nd8 Sm6 Bi64 S128'
_cell_volume   7113.59424631
_cell_formula_units_Z   2
loop_
 _symmetry_equiv_pos_site_id
 _symmetry_equiv_pos_as_xyz
  1  'x, y, z'
loop_
 _atom_type_symbol
 _atom_type_oxidation_number
  La3+  3.0
  Ce3+  3.0
  Pr3+  3.0
  Nd3+  3.0
  Sm3+  3.0
  Bi2+  2.0
  S2-  -2.0
loop_
 _atom_site_type_symbol
 _atom_site_label
 _atom_site_symmetry_multiplicity
 _atom_site_fract_x
 _atom_site_fract_y
 _atom_site_fract_z
 _atom_site_occupancy
  La3+  La0  1  0.37015713  0.26236162  0.92152336  1
  La3+  La1  1  0.01062299  0.36109461  0.57618686  1
  La3+  La2  1  0.13283494  0.24311304  0.43829975  1
  La3+  La3  1  0.09948500  0.74590964  0.90379435  1
  La3+  La4  1  0.26503854  0.36144696  0.57259837  1
  La3+  La5  1  0.26036258  0.62348509  0.57002118  1
  La3+  La6  1  0.89651195  0.00119310  0.39070815  1
  La3+  La7  1  0.38529362  0.74377310  0.42698679  1
  La3+  La8  1  0.39285788  -0.01111717  0.43112032  1
  La3+  La9  1  0.37038414  0.01169972  0.88866815  1
  La3+  La10  1  0.11190205  0.00442962  0.92558413  1
  La3+  La11  1  0.48359178  0.38129705  0.07079052  1
  La3+  La12  1  0.73803183  0.89275353  0.07340843  1
  La3+  La13  1  0.11049821  0.26070249  0.92639554  1
  La3+  La14  1  0.74032257  0.13882757  0.06690117  1
  La3+  La15  1  0.51180876  0.86381193  0.56935286  1
  La3+  La16  1  0.47536784  0.12737089  0.07303350  1
  La3+  La17  1  0.13964329  0.73924737  0.42842432  1
  Ce3+  Ce18  1  0.51116172  0.62115340  0.56438988  1
  Ce3+  Ce19  1  0.76109780  0.61642786  0.55679013  1
  Ce3+  Ce20  1  0.88498599  0.24631475  0.43779768  1
  Ce3+  Ce21  1  0.63543985  0.24444402  0.43637853  1
  Ce3+  Ce22  1  0.73780704  0.63527555  0.06529691  1
  Ce3+  Ce23  1  0.89062897  0.74220252  0.42638002  1
  Ce3+  Ce24  1  -0.00409013  0.38157965  0.06739520  1
  Ce3+  Ce25  1  0.61361263  0.76230614  0.94745536  1
  Ce3+  Ce26  1  0.23825775  0.38119060  0.06221576  1
  Ce3+  Ce27  1  0.10995924  0.51096864  0.94329895  1
  Ce3+  Ce28  1  0.61080563  0.01039151  0.94207322  1
  Ce3+  Ce29  1  0.36025110  0.50751388  0.93154219  1
  Ce3+  Ce30  1  0.01132543  0.86666833  0.55407754  1
  Ce3+  Ce31  1  0.01112662  0.11760846  0.56405047  1
  Ce3+  Ce32  1  0.76310714  0.11229696  0.55247223  1
  Ce3+  Ce33  1  0.23918281  0.13420150  0.04476049  1
  Ce3+  Ce34  1  0.25147236  0.87006228  0.56608113  1
  Ce3+  Ce35  1  -0.01280141  0.63388667  0.06573206  1
  Ce3+  Ce36  1  0.86447245  0.00799495  0.93419966  1
  Ce3+  Ce37  1  0.88538518  0.48685613  0.44162374  1
  Pr3+  Pr38  1  0.48352361  0.88416594  0.06120668  1
  Pr3+  Pr39  1  0.63360819  0.48965501  0.43726759  1
  Pr3+  Pr40  1  0.86204885  0.26119326  0.93590193  1
  Pr3+  Pr41  1  0.76328653  0.86622098  0.55038882  1
  Pr3+  Pr42  1  0.36264099  0.75947918  0.93064539  1
  Pr3+  Pr43  1  0.61548848  0.50507340  0.94212021  1
  Pr3+  Pr44  1  0.13502687  -0.00727515  0.43443479  1
  Pr3+  Pr45  1  0.73512608  0.38788737  0.08458736  1
  Pr3+  Pr46  1  0.63956452  -0.00115130  0.42793731  1
  Pr3+  Pr47  1  0.48440403  0.63248592  0.05549886  1
  Pr3+  Pr48  1  0.23387785  0.88179002  0.04752257  1
  Pr3+  Pr49  1  0.75964880  0.36360120  0.56613263  1
  Nd3+  Nd50  1  0.38818715  0.24235027  0.44072618  1
  Nd3+  Nd51  1  0.61335104  0.25773401  0.94523252  1
  Nd3+  Nd52  1  0.51268351  0.36029150  0.56819649  1
  Nd3+  Nd53  1  -0.01042001  0.13523084  0.05645022  1
  Nd3+  Nd54  1  0.38483908  0.49059511  0.45145271  1
  Nd3+  Nd55  1  0.86061302  0.75902108  0.94502081  1
  Nd3+  Nd56  1  0.00699656  0.61544194  0.55980342  1
  Nd3+  Nd57  1  -0.01061200  0.88417992  0.06241477  1
  Sm3+  Sm58  1  0.63323949  0.74124515  0.43653478  1
  Sm3+  Sm59  1  0.13601272  0.48894627  0.45200534  1
  Sm3+  Sm60  1  0.86154768  0.50583228  0.95469864  1
  Sm3+  Sm61  1  0.26320194  0.11549813  0.55671775  1
  Sm3+  Sm62  1  0.51522859  0.10929477  0.56479058  1
  Sm3+  Sm63  1  0.23732126  0.63470548  0.05480329  1
  Bi2+  Bi64  1  0.05750136  0.14344470  0.28377084  1
  Bi2+  Bi65  1  -0.01632539  0.13156267  0.78533954  1
  Bi2+  Bi66  1  0.02852413  0.39869019  0.30484756  1
  Bi2+  Bi67  1  -0.07155142  0.38310948  0.78686416  1
  Bi2+  Bi68  1  -0.09708997  0.56605336  0.31902268  1
  Bi2+  Bi69  1  -0.04150885  0.62159074  0.79051530  1
  Bi2+  Bi70  1  -0.00128668  0.85799988  0.28059826  1
  Bi2+  Bi71  1  -0.05806220  0.88809674  0.77969390  1
  Bi2+  Bi72  1  0.28237095  0.10180480  0.29072719  1
  Bi2+  Bi73  1  0.22789796  0.15390021  0.77715082  1
  Bi2+  Bi74  1  0.22313012  0.37053423  0.27079075  1
  Bi2+  Bi75  1  0.24983561  0.42215953  0.78419853  1
  Bi2+  Bi76  1  0.22940387  0.62918393  0.25894834  1
  Bi2+  Bi77  1  0.26558563  0.60559370  0.81206922  1
  Bi2+  Bi78  1  0.21357906  0.82525373  0.29970564  1
  Bi2+  Bi79  1  0.25114322  0.90476636  0.76579102  1
  Bi2+  Bi80  1  0.53247828  0.11119652  0.29073061  1
  Bi2+  Bi81  1  0.50634144  0.13321200  0.78225032  1
  Bi2+  Bi82  1  0.49263452  0.36758388  0.29749569  1
  Bi2+  Bi83  1  0.51893068  0.38773374  0.79231824  1
  Bi2+  Bi84  1  0.50601219  0.58969263  0.30053723  1
  Bi2+  Bi85  1  0.45464679  0.64684583  0.80723981  1
  Bi2+  Bi86  1  0.46688036  0.84545466  0.28566522  1
  Bi2+  Bi87  1  0.52267164  0.85172804  0.79925294  1
  Bi2+  Bi88  1  0.79079819  0.18111218  0.28361188  1
  Bi2+  Bi89  1  0.76881502  0.17455682  0.81645896  1
  Bi2+  Bi90  1  0.75523516  0.41169574  0.29297463  1
  Bi2+  Bi91  1  0.74689469  0.37428495  0.83842984  1
  Bi2+  Bi92  1  0.70485380  0.60318501  0.33008824  1
  Bi2+  Bi93  1  0.76826443  0.69373972  0.78855747  1
  Bi2+  Bi94  1  0.74370734  0.77507638  0.27900712  1
  Bi2+  Bi95  1  0.76430877  0.97633696  0.80705497  1
  Bi2+  Bi96  1  0.19148593  -0.02075310  0.22029055  1
  Bi2+  Bi97  1  0.05156638  0.01547419  0.70399729  1
  Bi2+  Bi98  1  0.17944640  0.22287448  0.19719181  1
  Bi2+  Bi99  1  0.07747358  0.31792066  0.71660206  1
  Bi2+  Bi100  1  0.08539969  0.48837986  0.20873112  1
  Bi2+  Bi101  1  0.09026356  0.54664522  0.71859374  1
  Bi2+  Bi102  1  0.11329613  0.78364398  0.19146484  1
  Bi2+  Bi103  1  0.11417192  0.75950648  0.70886897  1
  Bi2+  Bi104  1  0.39201773  -0.00903479  0.22365389  1
  Bi2+  Bi105  1  0.37786621  0.03439511  0.66989699  1
  Bi2+  Bi106  1  0.37493699  0.23827790  0.20653365  1
  Bi2+  Bi107  1  0.36142136  0.26595207  0.69595930  1
  Bi2+  Bi108  1  0.34889938  0.49148865  0.21830547  1
  Bi2+  Bi109  1  0.39769074  0.52020213  0.72130757  1
  Bi2+  Bi110  1  0.38505163  0.71498332  0.20640123  1
  Bi2+  Bi111  1  0.36677882  0.72250666  0.71096906  1
  Bi2+  Bi112  1  0.64392718  -0.06508784  0.21125616  1
  Bi2+  Bi113  1  0.65737763  0.01572818  0.71458372  1
  Bi2+  Bi114  1  0.64940677  0.26868776  0.21793155  1
  Bi2+  Bi115  1  0.66941783  0.29287222  0.74070322  1
  Bi2+  Bi116  1  0.61989089  0.51689059  0.21914824  1
  Bi2+  Bi117  1  0.59242503  0.56096415  0.72579017  1
  Bi2+  Bi118  1  0.58656367  0.74627576  0.20942436  1
  Bi2+  Bi119  1  0.62033754  0.75308601  0.71779886  1
  Bi2+  Bi120  1  0.87946552  0.00654506  0.20679051  1
  Bi2+  Bi121  1  0.85756104  0.00440166  0.69762372  1
  Bi2+  Bi122  1  0.93114584  0.24634274  0.20863457  1
  Bi2+  Bi123  1  0.85095392  0.23186742  0.71042793  1
  Bi2+  Bi124  1  0.88912716  0.43604271  0.20809301  1
  Bi2+  Bi125  1  0.78632393  0.52322070  0.72920471  1
  Bi2+  Bi126  1  0.86148364  0.64610142  0.22063764  1
  Bi2+  Bi127  1  0.84677948  0.78538823  0.69470896  1
  S2-  S128  1  -0.01405238  0.10857181  0.15619359  1
  S2-  S129  1  0.00656446  0.22370268  0.64475387  1
  S2-  S130  1  0.11962516  0.36500391  0.13935128  1
  S2-  S131  1  -0.00244667  0.44756695  0.66575671  1
  S2-  S132  1  0.01703824  0.63963305  0.16344979  1
  S2-  S133  1  0.01492248  0.66778328  0.65585184  1
  S2-  S134  1  -0.03272644  0.87769570  0.16338945  1
  S2-  S135  1  0.09803706  0.88362659  0.64054065  1
  S2-  S136  1  0.30853645  0.13916339  0.13505971  1
  S2-  S137  1  0.24549570  0.14303809  0.65624945  1
  S2-  S138  1  0.35237354  0.38338384  0.14023978  1
  S2-  S139  1  0.22290712  0.37482336  0.67062450  1
  S2-  S140  1  0.26827621  0.61442512  0.15213867  1
  S2-  S141  1  0.22685479  0.63750634  0.66924569  1
  S2-  S142  1  0.24207323  0.86458757  0.14935297  1
  S2-  S143  1  0.31454155  0.86952135  0.65965306  1
  S2-  S144  1  0.52024507  0.19731541  0.16486903  1
  S2-  S145  1  0.48097122  0.17923919  0.65700591  1
  S2-  S146  1  0.59893555  0.39350252  0.15033179  1
  S2-  S147  1  0.46190449  0.38650930  0.66245536  1
  S2-  S148  1  0.49962790  0.61321881  0.15513603  1
  S2-  S149  1  0.49614151  0.72970099  0.64180624  1
  S2-  S150  1  0.50316174  0.97379531  0.14764986  1
  S2-  S151  1  0.53381181  0.98254491  0.64287627  1
  S2-  S152  1  0.74023244  0.02822386  0.14816799  1
  S2-  S153  1  0.73516042  0.12363854  0.65063534  1
  S2-  S154  1  0.76600691  0.25073838  0.14735215  1
  S2-  S155  1  0.76431796  0.37523858  0.66737112  1
  S2-  S156  1  0.74442608  0.56848966  0.15580338  1
  S2-  S157  1  0.80295026  0.62745833  0.65153437  1
  S2-  S158  1  0.73641049  0.81392436  0.16454950  1
  S2-  S159  1  0.71000683  0.84707216  0.64711058  1
  S2-  S160  1  0.05465582  -0.00430920  0.34256077  1
  S2-  S161  1  0.20927374  0.01418533  0.83778713  1
  S2-  S162  1  0.17967422  0.20959188  0.34320249  1
  S2-  S163  1  0.18584300  0.28010041  0.83243252  1
  S2-  S164  1  0.15918119  0.46264713  0.35548423  1
  S2-  S165  1  0.10106489  0.58364654  0.85367392  1
  S2-  S166  1  0.04890592  0.74118580  0.33961125  1
  S2-  S167  1  0.15261033  0.80180241  0.80839347  1
  S2-  S168  1  0.34191378  -0.11581963  0.35450376  1
  S2-  S169  1  0.40197749  0.00482943  0.76283195  1
  S2-  S170  1  0.43454027  0.23122510  0.34402752  1
  S2-  S171  1  0.36093532  0.16431344  0.83426977  1
  S2-  S172  1  0.40378280  0.48139075  0.35187311  1
  S2-  S173  1  0.37681268  0.40129111  0.85357528  1
  S2-  S174  1  0.26509979  0.69097388  0.35559805  1
  S2-  S175  1  0.37143168  0.85084858  0.84406101  1
  S2-  S176  1  0.52194880  -0.01317234  0.35215164  1
  S2-  S177  1  0.53957114  0.00913920  0.85188107  1
  S2-  S178  1  0.65168340  0.14604410  0.35448638  1
  S2-  S179  1  0.54036485  0.25364957  0.85341551  1
  S2-  S180  1  0.62586691  0.36859458  0.36097801  1
  S2-  S181  1  0.62749226  0.50095120  0.84124628  1
  S2-  S182  1  0.52135568  0.73582948  0.35929427  1
  S2-  S183  1  0.65038230  0.77385398  0.85201055  1
  S2-  S184  1  0.80554728  0.01750150  0.29780955  1
  S2-  S185  1  0.97643594  0.00401728  0.85615343  1
  S2-  S186  1  0.92401731  0.16849412  0.35109839  1
  S2-  S187  1  0.97451881  0.26238294  0.85564022  1
  S2-  S188  1  0.88207159  0.37417146  0.36617307  1
  S2-  S189  1  0.88161248  0.50628272  0.85628240  1
  S2-  S190  1  0.86862555  0.83766315  0.34387495  1
  S2-  S191  1  0.94198146  0.75643044  0.85554963  1
  S2-  S192  1  0.01134960  0.11548213  0.45762147  1
  S2-  S193  1  -0.01334315  0.13273533  0.95270531  1
  S2-  S194  1  0.01391166  0.36747513  0.46509729  1
  S2-  S195  1  -0.01231889  0.38757131  0.95960339  1
  S2-  S196  1  0.01269688  0.61186560  0.45196229  1
  S2-  S197  1  -0.01726189  0.63196105  0.95980268  1
  S2-  S198  1  0.00652236  0.87232874  0.44923829  1
  S2-  S199  1  -0.01092186  0.87771742  0.95653844  1
  S2-  S200  1  0.26451838  0.11568660  0.45114029  1
  S2-  S201  1  0.23869723  0.13293190  0.94121953  1
  S2-  S202  1  0.26207872  0.36465922  0.46142490  1
  S2-  S203  1  0.23404658  0.38859769  0.95266106  1
  S2-  S204  1  0.25944806  0.60935261  0.46225451  1
  S2-  S205  1  0.23552841  0.63713271  0.95006499  1
  S2-  S206  1  0.25410312  0.86813714  0.45904419  1
  S2-  S207  1  0.22466081  0.86897074  0.94176371  1
  S2-  S208  1  0.51128698  0.11967655  0.45791422  1
  S2-  S209  1  0.48707913  0.13173729  0.95562585  1
  S2-  S210  1  0.50857396  0.36675406  0.46260909  1
  S2-  S211  1  0.49168349  0.38563192  0.95983102  1
  S2-  S212  1  0.51085680  0.61298313  0.45958015  1
  S2-  S213  1  0.48963277  0.63392984  0.94825173  1
  S2-  S214  1  0.51472748  0.86592579  0.45885362  1
  S2-  S215  1  0.48694249  0.88351904  0.95437634  1
  S2-  S216  1  0.77390387  0.11016123  0.44821054  1
  S2-  S217  1  0.73888501  0.13360414  0.95450246  1
  S2-  S218  1  0.75614698  0.36760502  0.46130341  1
  S2-  S219  1  0.73883472  0.38269592  0.96794366  1
  S2-  S220  1  0.76072974  0.61740872  0.45189020  1
  S2-  S221  1  0.73947423  0.63208911  0.95646986  1
  S2-  S222  1  0.75532083  0.86506923  0.44408944  1
  S2-  S223  1  0.73907555  0.88587989  0.95973253  1
  S2-  S224  1  0.11165386  0.00911807  0.04179393  1
  S2-  S225  1  0.13641171  -0.00060061  0.54214052  1
  S2-  S226  1  0.11296324  0.25528995  0.03621662  1
  S2-  S227  1  0.14124212  0.23909266  0.54691383  1
  S2-  S228  1  0.11433184  0.51330949  0.04846265  1
  S2-  S229  1  0.13724013  0.49223613  0.55752548  1
  S2-  S230  1  0.11095625  0.75424009  0.05039375  1
  S2-  S231  1  0.13190679  0.73971164  0.54151032  1
  S2-  S232  1  0.35761220  0.00260374  0.04166684  1
  S2-  S233  1  0.38459089  -0.00763841  0.54270334  1
  S2-  S234  1  0.36071229  0.25891888  0.03462557  1
  S2-  S235  1  0.38804125  0.23768058  0.54729513  1
  S2-  S236  1  0.35918326  0.51211465  0.03854413  1
  S2-  S237  1  0.38657850  0.49360997  0.55816581  1
  S2-  S238  1  0.36105232  0.75773242  0.04144384  1
  S2-  S239  1  0.38034871  0.74494136  0.54063757  1
  S2-  S240  1  0.61055818  0.01167219  0.04551125  1
  S2-  S241  1  0.63859828  -0.00764443  0.53671849  1
  S2-  S242  1  0.60992881  0.25536640  0.04949982  1
  S2-  S243  1  0.63500470  0.23793622  0.54848635  1
  S2-  S244  1  0.61366408  0.51240385  0.04828663  1
  S2-  S245  1  0.63367973  0.49068864  0.55385075  1
  S2-  S246  1  0.61095011  0.75932462  0.05361473  1
  S2-  S247  1  0.63843164  0.73868483  0.54087886  1
  S2-  S248  1  0.86786372  0.00946671  0.04327343  1
  S2-  S249  1  0.88903238  -0.00987612  0.55611109  1
  S2-  S250  1  0.87011489  0.26268614  0.04419643  1
  S2-  S251  1  0.88221425  0.24082271  0.54563139  1
  S2-  S252  1  0.86577876  0.50522059  0.05873924  1
  S2-  S253  1  0.88389993  0.48949523  0.54951129  1
  S2-  S254  1  0.86282503  0.75980465  0.05283490  1
  S2-  S255  1  0.88733803  0.74072594  0.53751974  1
