# generated using pymatgen
data_La9Ce10Pr6Nd4Sm3(BiS2)32
_symmetry_space_group_name_H-M   'P 1'
_cell_length_a   16.26288592
_cell_length_b   16.25980537
_cell_length_c   27.07979917
_cell_angle_alpha   89.93004161
_cell_angle_beta   90.18249524
_cell_angle_gamma   89.94252260
_symmetry_Int_Tables_number   1
_chemical_formula_structural   La9Ce10Pr6Nd4Sm3(BiS2)32
_chemical_formula_sum   'La18 Ce20 Pr12 Nd8 Sm6 Bi64 S128'
_cell_volume   7160.70282724
_cell_formula_units_Z   2
loop_
 _symmetry_equiv_pos_site_id
 _symmetry_equiv_pos_as_xyz
  1  'x, y, z'
loop_
 _atom_type_symbol
 _atom_type_oxidation_number
  La3+  3.0
  Ce3+  3.0
  Pr3+  3.0
  Nd3+  3.0
  Sm3+  3.0
  Bi2+  2.0
  S2-  -2.0
loop_
 _atom_site_type_symbol
 _atom_site_label
 _atom_site_symmetry_multiplicity
 _atom_site_fract_x
 _atom_site_fract_y
 _atom_site_fract_z
 _atom_site_occupancy
  La3+  La0  1  0.36697255  0.00355768  0.43504681  1
  La3+  La1  1  0.86454230  0.75105800  0.92548401  1
  La3+  La2  1  0.61090020  0.50025568  0.42320488  1
  La3+  La3  1  0.00503113  0.62334909  0.57643255  1
  La3+  La4  1  0.36602403  0.49877154  0.43167914  1
  La3+  La5  1  -0.00576314  0.11927852  0.56488669  1
  La3+  La6  1  0.76192850  0.62247830  0.07382893  1
  La3+  La7  1  0.76169242  0.11922977  0.08453408  1
  La3+  La8  1  0.61106565  -0.00298006  0.41930761  1
  La3+  La9  1  0.24021796  0.11667378  0.58624456  1
  La3+  La10  1  0.87015665  -0.00172383  0.43363482  1
  La3+  La11  1  0.62738148  0.00559364  0.93685893  1
  La3+  La12  1  -0.00313645  0.37325048  0.56612274  1
  La3+  La13  1  0.86922211  0.49806744  0.44036570  1
  La3+  La14  1  0.50368238  0.11366701  0.60279642  1
  La3+  La15  1  0.25129387  0.62184787  0.57373348  1
  La3+  La16  1  0.74584379  0.61929960  0.56944539  1
  La3+  La17  1  0.49898397  0.37248321  0.56516075  1
  Ce3+  Ce18  1  0.73953133  0.11900182  0.55208535  1
  Ce3+  Ce19  1  0.12454754  0.24134812  0.92213220  1
  Ce3+  Ce20  1  0.63202515  0.50000142  0.94356675  1
  Ce3+  Ce21  1  0.12407534  0.74700912  0.93383408  1
  Ce3+  Ce22  1  0.12675622  -0.00043381  0.44050189  1
  Ce3+  Ce23  1  0.87283959  0.00566378  0.93488716  1
  Ce3+  Ce24  1  0.62907427  0.74866641  0.95273464  1
  Ce3+  Ce25  1  0.50813020  0.62129394  0.06758485  1
  Ce3+  Ce26  1  0.49596093  0.87561514  0.55677245  1
  Ce3+  Ce27  1  0.87716893  0.24789069  0.94968242  1
  Ce3+  Ce28  1  0.74264660  0.87481473  0.55312858  1
  Ce3+  Ce29  1  0.25173083  0.87735195  0.56401239  1
  Ce3+  Ce30  1  0.38086566  0.00084252  0.93397066  1
  Ce3+  Ce31  1  0.13602229  0.00129321  0.92869541  1
  Ce3+  Ce32  1  0.38033272  0.49998885  0.94094925  1
  Ce3+  Ce33  1  0.50401669  0.87768132  0.06296107  1
  Ce3+  Ce34  1  0.12283613  0.24546795  0.44872545  1
  Ce3+  Ce35  1  -0.00564601  0.87231832  0.55717398  1
  Ce3+  Ce36  1  0.62952862  0.24554977  0.95465708  1
  Ce3+  Ce37  1  0.24908174  0.37063476  0.56106428  1
  Pr3+  Pr38  1  0.38117946  0.74685194  0.94361805  1
  Pr3+  Pr39  1  0.61981183  0.74673472  0.44596186  1
  Pr3+  Pr40  1  0.49507358  0.11901061  0.07742234  1
  Pr3+  Pr41  1  0.38048079  0.24907924  0.93692946  1
  Pr3+  Pr42  1  0.25348926  0.62326038  0.05183230  1
  Pr3+  Pr43  1  0.49475058  0.62112613  0.56771675  1
  Pr3+  Pr44  1  0.74397810  0.37112033  0.55344450  1
  Pr3+  Pr45  1  0.86855935  0.49908123  0.92627180  1
  Pr3+  Pr46  1  0.12192680  0.49660825  0.43657929  1
  Pr3+  Pr47  1  0.61788862  0.24656892  0.43271485  1
  Pr3+  Pr48  1  0.36738516  0.74735328  0.44017394  1
  Pr3+  Pr49  1  0.00695859  0.37395835  0.05434107  1
  Nd3+  Nd50  1  0.25185391  0.87287939  0.05031757  1
  Nd3+  Nd51  1  0.75740562  0.37553626  0.06675984  1
  Nd3+  Nd52  1  0.12180780  0.74773486  0.44842356  1
  Nd3+  Nd53  1  0.87098407  0.74644655  0.44324386  1
  Nd3+  Nd54  1  0.00335876  0.87587796  0.04598397  1
  Nd3+  Nd55  1  0.25176945  0.12382779  0.05921571  1
  Nd3+  Nd56  1  0.75991893  0.87572553  0.06593656  1
  Nd3+  Nd57  1  0.25137768  0.37504513  0.04684032  1
  Sm3+  Sm58  1  0.12182491  0.49647536  0.92841171  1
  Sm3+  Sm59  1  0.87154702  0.24690177  0.44437544  1
  Sm3+  Sm60  1  0.50455773  0.37270226  0.05624650  1
  Sm3+  Sm61  1  0.37206229  0.24245576  0.45425278  1
  Sm3+  Sm62  1  0.00022107  0.62368780  0.05081224  1
  Sm3+  Sm63  1  0.00740626  0.12363904  0.05786302  1
  Bi2+  Bi64  1  0.03894671  0.09831534  0.28343192  1
  Bi2+  Bi65  1  -0.04096459  0.09783338  0.79566473  1
  Bi2+  Bi66  1  0.05526563  0.38786452  0.30571323  1
  Bi2+  Bi67  1  -0.02494769  0.33288001  0.79053406  1
  Bi2+  Bi68  1  0.00390405  0.59787932  0.27498860  1
  Bi2+  Bi69  1  0.03970562  0.60767539  0.79901757  1
  Bi2+  Bi70  1  0.03351711  0.87561458  0.25098471  1
  Bi2+  Bi71  1  -0.03290844  0.90714420  0.77451056  1
  Bi2+  Bi72  1  0.23239812  0.14127173  0.29653652  1
  Bi2+  Bi73  1  0.23819662  0.14467639  0.79405016  1
  Bi2+  Bi74  1  0.23885921  0.41473343  0.27603124  1
  Bi2+  Bi75  1  0.30033828  0.42376678  0.76001361  1
  Bi2+  Bi76  1  0.25227331  0.65335759  0.29662982  1
  Bi2+  Bi77  1  0.31721860  0.68663015  0.77359036  1
  Bi2+  Bi78  1  0.21036702  0.87209793  0.29775389  1
  Bi2+  Bi79  1  0.23926121  0.88836470  0.78109386  1
  Bi2+  Bi80  1  0.48593377  0.14552320  0.30417089  1
  Bi2+  Bi81  1  0.49448501  0.12421624  0.79829156  1
  Bi2+  Bi82  1  0.46877839  0.34662040  0.25419572  1
  Bi2+  Bi83  1  0.50956127  0.41276163  0.77962811  1
  Bi2+  Bi84  1  0.48398524  0.61550286  0.28243044  1
  Bi2+  Bi85  1  0.50179683  0.60477231  0.80227477  1
  Bi2+  Bi86  1  0.44717348  0.86798875  0.27497169  1
  Bi2+  Bi87  1  0.52830223  0.86871642  0.78757827  1
  Bi2+  Bi88  1  0.77267675  0.11530489  0.30818501  1
  Bi2+  Bi89  1  0.73626382  0.14203890  0.80099597  1
  Bi2+  Bi90  1  0.81197701  0.39644398  0.28967275  1
  Bi2+  Bi91  1  0.76515718  0.37363328  0.75865391  1
  Bi2+  Bi92  1  0.74653948  0.63276768  0.30523431  1
  Bi2+  Bi93  1  0.75463062  0.63843877  0.80115449  1
  Bi2+  Bi94  1  0.77243898  0.83194342  0.28605626  1
  Bi2+  Bi95  1  0.77548077  0.88252567  0.78758372  1
  Bi2+  Bi96  1  0.14467253  0.01760899  0.19772916  1
  Bi2+  Bi97  1  0.11527584  -0.01673504  0.70932878  1
  Bi2+  Bi98  1  0.09933310  0.20183912  0.18700954  1
  Bi2+  Bi99  1  0.12858575  0.24520940  0.72098252  1
  Bi2+  Bi100  1  0.08966280  0.47361686  0.20288032  1
  Bi2+  Bi101  1  0.12916989  0.49186401  0.71845524  1
  Bi2+  Bi102  1  0.12327436  0.69017492  0.20310626  1
  Bi2+  Bi103  1  0.15151495  0.74777696  0.72628982  1
  Bi2+  Bi104  1  0.36403086  0.00271460  0.20860440  1
  Bi2+  Bi105  1  0.39341745  -0.06005646  0.71647680  1
  Bi2+  Bi106  1  0.30840001  0.25340237  0.21509371  1
  Bi2+  Bi107  1  0.40247708  0.28427809  0.71671108  1
  Bi2+  Bi108  1  0.35020606  0.48817199  0.19164530  1
  Bi2+  Bi109  1  0.36687853  0.56114965  0.68642390  1
  Bi2+  Bi110  1  0.30808261  0.77890611  0.21223443  1
  Bi2+  Bi111  1  0.39187739  0.74669208  0.66391819  1
  Bi2+  Bi112  1  0.62316628  0.01218894  0.21223124  1
  Bi2+  Bi113  1  0.64897878  -0.02885909  0.71628048  1
  Bi2+  Bi114  1  0.64032234  0.25974010  0.22199674  1
  Bi2+  Bi115  1  0.66175558  0.23556873  0.70986208  1
  Bi2+  Bi116  1  0.59693752  0.50848239  0.20279084  1
  Bi2+  Bi117  1  0.62790611  0.52085768  0.71153220  1
  Bi2+  Bi118  1  0.61294998  0.74617970  0.24030861  1
  Bi2+  Bi119  1  0.56886555  0.72159889  0.71764342  1
  Bi2+  Bi120  1  0.88022379  -0.01366008  0.20006338  1
  Bi2+  Bi121  1  0.85490541  0.03306960  0.70585126  1
  Bi2+  Bi122  1  0.94110817  0.25910879  0.24665727  1
  Bi2+  Bi123  1  0.87004430  0.22830248  0.70672772  1
  Bi2+  Bi124  1  0.85211104  0.49998647  0.19852844  1
  Bi2+  Bi125  1  0.86888519  0.50324912  0.70363029  1
  Bi2+  Bi126  1  0.90247294  0.74261693  0.21450985  1
  Bi2+  Bi127  1  0.85703962  0.77201239  0.69600051  1
  S2-  S128  1  -0.08246473  0.10423476  0.14082788  1
  S2-  S129  1  0.07549271  0.12361324  0.65464357  1
  S2-  S130  1  -0.03996148  0.39916454  0.15112097  1
  S2-  S131  1  -0.00373793  0.41999274  0.66374724  1
  S2-  S132  1  -0.09401652  0.62842385  0.13447454  1
  S2-  S133  1  -0.05577344  0.63652153  0.67189652  1
  S2-  S134  1  -0.03814517  0.86788679  0.14348157  1
  S2-  S135  1  -0.00881888  0.86551331  0.65527001  1
  S2-  S136  1  0.35112075  0.12843788  0.14165471  1
  S2-  S137  1  0.26468989  0.19516261  0.67904078  1
  S2-  S138  1  0.24418673  0.36858172  0.14574846  1
  S2-  S139  1  0.22527708  0.40543739  0.65627713  1
  S2-  S140  1  0.24022025  0.59820111  0.15049811  1
  S2-  S141  1  0.14232720  0.62310004  0.65260588  1
  S2-  S142  1  0.25186375  0.90526300  0.14780270  1
  S2-  S143  1  0.24880373  0.96880817  0.64854609  1
  S2-  S144  1  0.54942627  0.14996054  0.17580498  1
  S2-  S145  1  0.44336133  0.10425964  0.70628138  1
  S2-  S146  1  0.49077327  0.38348948  0.15475507  1
  S2-  S147  1  0.52397745  0.27289286  0.64816022  1
  S2-  S148  1  0.46587157  0.60710172  0.16310087  1
  S2-  S149  1  0.50840797  0.49719423  0.63969722  1
  S2-  S150  1  0.49840803  0.94227478  0.15349746  1
  S2-  S151  1  0.51946102  0.94836882  0.64360487  1
  S2-  S152  1  0.73832984  0.13755343  0.18971094  1
  S2-  S153  1  0.66825224  0.10691417  0.64135921  1
  S2-  S154  1  0.72510000  0.38916280  0.16559521  1
  S2-  S155  1  0.73833558  0.41912701  0.64995532  1
  S2-  S156  1  0.67916335  0.62758267  0.16522724  1
  S2-  S157  1  0.73504114  0.64881198  0.66973081  1
  S2-  S158  1  0.73513896  0.90842458  0.16379250  1
  S2-  S159  1  0.73907851  0.87049858  0.65090134  1
  S2-  S160  1  0.23368791  0.00440362  0.36267193  1
  S2-  S161  1  0.10037279  0.10455779  0.85250922  1
  S2-  S162  1  0.12626553  0.24661957  0.35076274  1
  S2-  S163  1  0.13502350  0.29543319  0.82642730  1
  S2-  S164  1  0.23854075  0.51724486  0.36109883  1
  S2-  S165  1  0.16123223  0.52004482  0.83251819  1
  S2-  S166  1  0.13524127  0.74085722  0.34895977  1
  S2-  S167  1  0.12826765  0.74989064  0.83564889  1
  S2-  S168  1  0.46343678  -0.00613712  0.34869824  1
  S2-  S169  1  0.27401229  0.00523203  0.85470024  1
  S2-  S170  1  0.37065838  0.21534584  0.35492775  1
  S2-  S171  1  0.36517733  0.22403121  0.83643542  1
  S2-  S172  1  0.47562564  0.50531571  0.35170508  1
  S2-  S173  1  0.38739772  0.48706408  0.84404810  1
  S2-  S174  1  0.39803053  0.73857717  0.34082809  1
  S2-  S175  1  0.42302708  0.75971457  0.84571015  1
  S2-  S176  1  0.65740505  0.00737675  0.31849317  1
  S2-  S177  1  0.50238099  -0.00106371  0.86131813  1
  S2-  S178  1  0.63362461  0.23389142  0.33095909  1
  S2-  S179  1  0.61417176  0.20655823  0.85924843  1
  S2-  S180  1  0.68445612  0.48937324  0.32979249  1
  S2-  S181  1  0.72451379  0.50659720  0.86115464  1
  S2-  S182  1  0.63757667  0.75655067  0.34539104  1
  S2-  S183  1  0.70095870  0.75287129  0.86356362  1
  S2-  S184  1  0.86418286  -0.01026356  0.33215209  1
  S2-  S185  1  0.75344684  0.00161059  0.86216303  1
  S2-  S186  1  0.86954258  0.25161640  0.34625810  1
  S2-  S187  1  0.87007170  0.22514938  0.85262903  1
  S2-  S188  1  0.89661366  0.51467081  0.34173902  1
  S2-  S189  1  0.95100149  0.47400074  0.83608435  1
  S2-  S190  1  0.87496222  0.74313186  0.34386367  1
  S2-  S191  1  0.89790535  0.69827017  0.83044748  1
  S2-  S192  1  -0.00461627  0.12272911  0.45377742  1
  S2-  S193  1  -0.00023494  0.12263243  0.95521938  1
  S2-  S194  1  -0.00485584  0.37066879  0.45592709  1
  S2-  S195  1  0.00463825  0.37175137  0.94683233  1
  S2-  S196  1  -0.00155737  0.62275803  0.45743803  1
  S2-  S197  1  -0.00054258  0.62238666  0.94613322  1
  S2-  S198  1  -0.00269774  0.87323999  0.44809087  1
  S2-  S199  1  0.00007845  0.87731268  0.93844351  1
  S2-  S200  1  0.24427225  0.12540144  0.46805129  1
  S2-  S201  1  0.25454067  0.12910837  0.95424438  1
  S2-  S202  1  0.24699207  0.36724279  0.45410591  1
  S2-  S203  1  0.25081181  0.37606673  0.94053928  1
  S2-  S204  1  0.24341377  0.62617488  0.46401531  1
  S2-  S205  1  0.25148402  0.62254515  0.94430117  1
  S2-  S206  1  0.24613048  0.87112055  0.45848365  1
  S2-  S207  1  0.25328360  0.86704083  0.94594959  1
  S2-  S208  1  0.49633180  0.12513333  0.45031221  1
  S2-  S209  1  0.50118501  0.12766314  0.96686355  1
  S2-  S210  1  0.49252530  0.36768155  0.45322321  1
  S2-  S211  1  0.50623839  0.37422205  0.95029263  1
  S2-  S212  1  0.49271807  0.62570700  0.45801252  1
  S2-  S213  1  0.50656945  0.62267619  0.95829163  1
  S2-  S214  1  0.49324502  0.86921056  0.44995882  1
  S2-  S215  1  0.50520767  0.87078612  0.95861390  1
  S2-  S216  1  0.74574064  0.12369087  0.44533763  1
  S2-  S217  1  0.75474941  0.12695450  0.96918476  1
  S2-  S218  1  0.74635439  0.37097895  0.44611587  1
  S2-  S219  1  0.75264069  0.37014477  0.95884786  1
  S2-  S220  1  0.74603246  0.62308982  0.45548160  1
  S2-  S221  1  0.75185108  0.62399949  0.96471450  1
  S2-  S222  1  0.74511785  0.87222979  0.44568304  1
  S2-  S223  1  0.74986566  0.87724474  0.96074954  1
  S2-  S224  1  0.12846377  -0.00039425  0.04010867  1
  S2-  S225  1  0.11829676  -0.00528827  0.54599465  1
  S2-  S226  1  0.12860673  0.24714751  0.03909196  1
  S2-  S227  1  0.12127689  0.24830868  0.55501140  1
  S2-  S228  1  0.12571970  0.50212440  0.03773269  1
  S2-  S229  1  0.12288565  0.49581022  0.54482810  1
  S2-  S230  1  0.12495856  0.74722321  0.04299508  1
  S2-  S231  1  0.12486203  0.75404445  0.55418719  1
  S2-  S232  1  0.37424686  -0.00385869  0.04155000  1
  S2-  S233  1  0.37574218  0.00256162  0.54802138  1
  S2-  S234  1  0.37818474  0.25505112  0.04455816  1
  S2-  S235  1  0.37128613  0.24164092  0.55840541  1
  S2-  S236  1  0.38013224  0.49670092  0.04592701  1
  S2-  S237  1  0.36885713  0.49569923  0.54299780  1
  S2-  S238  1  0.37886810  0.74886510  0.05245410  1
  S2-  S239  1  0.37178715  0.74927144  0.54700795  1
  S2-  S240  1  0.63050735  0.00159391  0.05200829  1
  S2-  S241  1  0.62088822  -0.00460359  0.53262863  1
  S2-  S242  1  0.63013888  0.25012618  0.06074718  1
  S2-  S243  1  0.62299310  0.24601592  0.54037117  1
  S2-  S244  1  0.62951377  0.49551177  0.05102333  1
  S2-  S245  1  0.62439751  0.49911159  0.53609675  1
  S2-  S246  1  0.63049961  0.75271219  0.05929933  1
  S2-  S247  1  0.61900939  0.74632006  0.55336688  1
  S2-  S248  1  0.88022052  -0.00179090  0.04038825  1
  S2-  S249  1  0.86882043  -0.00259981  0.54435862  1
  S2-  S250  1  0.88102682  0.25026152  0.05486431  1
  S2-  S251  1  0.86944852  0.24591920  0.55059517  1
  S2-  S252  1  0.88155423  0.49602640  0.03649709  1
  S2-  S253  1  0.87352303  0.49927506  0.54902549  1
  S2-  S254  1  0.88051633  0.75266260  0.03612758  1
  S2-  S255  1  0.87096658  0.74625385  0.55007330  1
