# generated using pymatgen
data_La9Ce10Pr6Nd4Sm3(BiS2)32
_symmetry_space_group_name_H-M   'P 1'
_cell_length_a   16.19393300
_cell_length_b   15.98090566
_cell_length_c   27.21489923
_cell_angle_alpha   90.32652053
_cell_angle_beta   90.33740034
_cell_angle_gamma   89.95251618
_symmetry_Int_Tables_number   1
_chemical_formula_structural   La9Ce10Pr6Nd4Sm3(BiS2)32
_chemical_formula_sum   'La18 Ce20 Pr12 Nd8 Sm6 Bi64 S128'
_cell_volume   7042.80617701
_cell_formula_units_Z   2
loop_
 _symmetry_equiv_pos_site_id
 _symmetry_equiv_pos_as_xyz
  1  'x, y, z'
loop_
 _atom_type_symbol
 _atom_type_oxidation_number
  La3+  3.0
  Ce3+  3.0
  Pr3+  3.0
  Nd3+  3.0
  Sm3+  3.0
  Bi2+  2.0
  S2-  -2.0
loop_
 _atom_site_type_symbol
 _atom_site_label
 _atom_site_symmetry_multiplicity
 _atom_site_fract_x
 _atom_site_fract_y
 _atom_site_fract_z
 _atom_site_occupancy
  La3+  La0  1  0.49555323  0.14621027  0.06637223  1
  La3+  La1  1  0.74654421  0.38735863  0.06229203  1
  La3+  La2  1  0.63588297  0.48979871  0.43914848  1
  La3+  La3  1  0.86491117  0.24746813  0.40452575  1
  La3+  La4  1  0.36905755  0.50706169  0.91258629  1
  La3+  La5  1  0.12462684  0.25205590  0.39793748  1
  La3+  La6  1  0.62611351  0.00004164  0.43194744  1
  La3+  La7  1  0.86930167  0.52097125  0.92187628  1
  La3+  La8  1  -0.00697737  0.13908280  0.10041075  1
  La3+  La9  1  0.37036027  0.76192336  0.94189802  1
  La3+  La10  1  0.01298167  0.88526419  0.58154601  1
  La3+  La11  1  0.62144664  0.50805300  0.93017920  1
  La3+  La12  1  0.37880982  0.49121856  0.42941493  1
  La3+  La13  1  0.75166790  0.12095969  0.57678888  1
  La3+  La14  1  0.49252659  0.89577842  0.07582537  1
  La3+  La15  1  -0.00249529  0.61327284  0.58413430  1
  La3+  La16  1  0.25847432  0.36893071  0.56344019  1
  La3+  La17  1  0.24350551  0.13973781  0.08334371  1
  Ce3+  Ce18  1  -0.00381999  0.38469602  0.05348632  1
  Ce3+  Ce19  1  0.61780351  0.01314436  0.94183427  1
  Ce3+  Ce20  1  0.24430631  0.89245774  0.06164166  1
  Ce3+  Ce21  1  0.74557484  0.63658126  0.06478516  1
  Ce3+  Ce22  1  0.11952619  0.00796286  0.93761507  1
  Ce3+  Ce23  1  0.74488976  0.13766757  0.07479973  1
  Ce3+  Ce24  1  0.88297741  0.49485001  0.43836213  1
  Ce3+  Ce25  1  0.12840780  -0.00565559  0.43308721  1
  Ce3+  Ce26  1  0.00562569  0.36911792  0.55261999  1
  Ce3+  Ce27  1  0.38184595  0.24781548  0.43071882  1
  Ce3+  Ce28  1  0.49083666  0.62993700  0.06183041  1
  Ce3+  Ce29  1  0.50189286  0.87145139  0.55892636  1
  Ce3+  Ce30  1  0.63052226  0.74779318  0.44219491  1
  Ce3+  Ce31  1  0.36780801  0.25988313  0.93805818  1
  Ce3+  Ce32  1  0.50532202  0.62132305  0.56037088  1
  Ce3+  Ce33  1  0.23765880  0.63394725  0.06939173  1
  Ce3+  Ce34  1  0.62062766  0.25417299  0.93374904  1
  Ce3+  Ce35  1  0.63169311  0.24441644  0.45017943  1
  Ce3+  Ce36  1  0.12053080  0.25918854  0.94166137  1
  Ce3+  Ce37  1  0.36900928  0.01042475  0.93606496  1
  Pr3+  Pr38  1  0.26150793  0.87092692  0.56465189  1
  Pr3+  Pr39  1  0.74462420  0.88597288  0.07298723  1
  Pr3+  Pr40  1  -0.00549127  0.63846232  0.06289110  1
  Pr3+  Pr41  1  0.49562908  0.12157278  0.56677475  1
  Pr3+  Pr42  1  0.87111511  0.25830028  0.93991496  1
  Pr3+  Pr43  1  0.75547553  0.87600906  0.56920216  1
  Pr3+  Pr44  1  0.75881188  0.36641227  0.57839353  1
  Pr3+  Pr45  1  -0.00351550  0.88870310  0.06640521  1
  Pr3+  Pr46  1  0.50888244  0.38002989  0.57654446  1
  Pr3+  Pr47  1  0.88237458  0.75178799  0.44189267  1
  Pr3+  Pr48  1  0.11856286  0.76442491  0.93355931  1
  Pr3+  Pr49  1  0.12662370  0.50071844  0.43662252  1
  Nd3+  Nd50  1  0.38456759  0.73918280  0.42877881  1
  Nd3+  Nd51  1  0.75926529  0.62442314  0.55869954  1
  Nd3+  Nd52  1  0.12235637  0.51826564  0.93088805  1
  Nd3+  Nd53  1  0.86613300  0.01180929  0.94679389  1
  Nd3+  Nd54  1  0.12652076  0.74386871  0.44837062  1
  Nd3+  Nd55  1  0.25346619  0.62245848  0.56328564  1
  Nd3+  Nd56  1  0.86542308  0.77044145  0.93358426  1
  Nd3+  Nd57  1  0.25820206  0.12272556  0.54491862  1
  Sm3+  Sm58  1  0.37691083  -0.01307058  0.42576525  1
  Sm3+  Sm59  1  0.00419818  0.12256941  0.54761178  1
  Sm3+  Sm60  1  0.61772559  0.76278588  0.94883919  1
  Sm3+  Sm61  1  0.88048705  -0.00290450  0.43591552  1
  Sm3+  Sm62  1  0.49079484  0.39232963  0.06045146  1
  Sm3+  Sm63  1  0.24432809  0.39078204  0.06067201  1
  Bi2+  Bi64  1  -0.03393513  0.10832283  0.27859852  1
  Bi2+  Bi65  1  0.03206289  0.13083141  0.78738187  1
  Bi2+  Bi66  1  -0.00043150  0.45570707  0.29058507  1
  Bi2+  Bi67  1  -0.04378023  0.43151024  0.79815706  1
  Bi2+  Bi68  1  -0.04384320  0.63207314  0.33615869  1
  Bi2+  Bi69  1  -0.00471248  0.66179828  0.77654632  1
  Bi2+  Bi70  1  0.00758536  0.80974721  0.29760942  1
  Bi2+  Bi71  1  0.02335301  0.85581119  0.76492740  1
  Bi2+  Bi72  1  0.31500518  0.08574290  0.27628213  1
  Bi2+  Bi73  1  0.31815347  0.13406907  0.82381081  1
  Bi2+  Bi74  1  0.25983884  0.37407874  0.27947123  1
  Bi2+  Bi75  1  0.23551352  0.32362145  0.79193195  1
  Bi2+  Bi76  1  0.22663365  0.62777383  0.28370790  1
  Bi2+  Bi77  1  0.24043850  0.61002051  0.79198166  1
  Bi2+  Bi78  1  0.21810045  0.91606351  0.31197987  1
  Bi2+  Bi79  1  0.24693078  0.95611393  0.80261273  1
  Bi2+  Bi80  1  0.49759160  0.16356349  0.29197665  1
  Bi2+  Bi81  1  0.50388136  0.09478090  0.79144868  1
  Bi2+  Bi82  1  0.50777424  0.37201074  0.28040170  1
  Bi2+  Bi83  1  0.49770490  0.38528513  0.78493897  1
  Bi2+  Bi84  1  0.48199521  0.63250641  0.28118662  1
  Bi2+  Bi85  1  0.49160456  0.65144565  0.78864579  1
  Bi2+  Bi86  1  0.51336244  0.87776704  0.30380064  1
  Bi2+  Bi87  1  0.54144754  0.90434377  0.82382802  1
  Bi2+  Bi88  1  0.71826838  0.11470872  0.28652082  1
  Bi2+  Bi89  1  0.78755000  0.07454267  0.81349033  1
  Bi2+  Bi90  1  0.71623910  0.38062577  0.29121279  1
  Bi2+  Bi91  1  0.76273595  0.37014280  0.79067277  1
  Bi2+  Bi92  1  0.78685845  0.62959442  0.27884765  1
  Bi2+  Bi93  1  0.73953843  0.64685023  0.78920338  1
  Bi2+  Bi94  1  0.75711293  0.82345303  0.29504135  1
  Bi2+  Bi95  1  0.73625450  0.88634873  0.79384030  1
  Bi2+  Bi96  1  0.14016322  -0.00561560  0.21648080  1
  Bi2+  Bi97  1  0.14221664  0.03139554  0.71103879  1
  Bi2+  Bi98  1  0.12918929  0.28279844  0.21709501  1
  Bi2+  Bi99  1  0.12795424  0.23279340  0.70430854  1
  Bi2+  Bi100  1  0.10935266  0.53096296  0.20565977  1
  Bi2+  Bi101  1  0.08794234  0.48936256  0.71996443  1
  Bi2+  Bi102  1  0.15722793  0.78808826  0.22216364  1
  Bi2+  Bi103  1  0.18987924  0.76355555  0.71504160  1
  Bi2+  Bi104  1  0.39516848  -0.07827941  0.20637876  1
  Bi2+  Bi105  1  0.38602609  0.00420544  0.71156046  1
  Bi2+  Bi106  1  0.37801812  0.22841103  0.20618676  1
  Bi2+  Bi107  1  0.34707795  0.21837619  0.71667001  1
  Bi2+  Bi108  1  0.36919899  0.51259232  0.21390549  1
  Bi2+  Bi109  1  0.32885315  0.49495606  0.67420323  1
  Bi2+  Bi110  1  0.34597493  0.72416477  0.20918577  1
  Bi2+  Bi111  1  0.44344551  0.81703990  0.73324549  1
  Bi2+  Bi112  1  0.61524761  -0.02586839  0.20844481  1
  Bi2+  Bi113  1  0.64515690  0.00457429  0.71523360  1
  Bi2+  Bi114  1  0.62315983  0.22980326  0.21073701  1
  Bi2+  Bi115  1  0.66845437  0.25059176  0.71306778  1
  Bi2+  Bi116  1  0.62204473  0.50219412  0.20987118  1
  Bi2+  Bi117  1  0.61975826  0.62309602  0.69618118  1
  Bi2+  Bi118  1  0.63819281  0.70400174  0.21353409  1
  Bi2+  Bi119  1  0.60984320  0.81760144  0.67174369  1
  Bi2+  Bi120  1  0.88732403  -0.11429988  0.21776804  1
  Bi2+  Bi121  1  0.91115871  -0.00167720  0.71482938  1
  Bi2+  Bi122  1  0.86847289  0.30144251  0.21257546  1
  Bi2+  Bi123  1  0.93569833  0.26863714  0.72454703  1
  Bi2+  Bi124  1  0.89243265  0.50754003  0.19681006  1
  Bi2+  Bi125  1  0.84681634  0.47128453  0.70453800  1
  Bi2+  Bi126  1  0.91518617  0.70172587  0.18548911  1
  Bi2+  Bi127  1  0.79033296  0.75858494  0.69882271  1
  S2-  S128  1  -0.10562276  0.14774356  0.18760265  1
  S2-  S129  1  0.00448838  0.04898928  0.63870595  1
  S2-  S130  1  0.00349706  0.32417223  0.14700132  1
  S2-  S131  1  -0.01786974  0.44788749  0.64053511  1
  S2-  S132  1  0.10433822  0.66569082  0.14321148  1
  S2-  S133  1  0.07669612  0.64739797  0.67562703  1
  S2-  S134  1  0.00142906  0.96772409  0.15735607  1
  S2-  S135  1  -0.05607813  0.83570213  0.67255788  1
  S2-  S136  1  0.12779573  0.14241507  0.16520730  1
  S2-  S137  1  0.35012546  0.11305007  0.63164399  1
  S2-  S138  1  0.25365512  0.29110492  0.14591138  1
  S2-  S139  1  0.18448962  0.39620181  0.65850237  1
  S2-  S140  1  0.24630540  0.50733782  0.14039071  1
  S2-  S141  1  0.29573768  0.66909018  0.65838467  1
  S2-  S142  1  0.26668994  0.98337026  0.14545714  1
  S2-  S143  1  0.16153081  0.88652589  0.64823120  1
  S2-  S144  1  0.49110973  0.03578030  0.14896395  1
  S2-  S145  1  0.59634256  0.12942245  0.65160765  1
  S2-  S146  1  0.49885719  0.28067236  0.14033991  1
  S2-  S147  1  0.38624800  0.33838760  0.64489924  1
  S2-  S148  1  0.49211954  0.51554935  0.13827493  1
  S2-  S149  1  0.49246105  0.53631631  0.64520391  1
  S2-  S150  1  0.54088115  0.82367307  0.16780754  1
  S2-  S151  1  0.39344956  0.88114997  0.63593026  1
  S2-  S152  1  0.73301398  0.00921658  0.14820522  1
  S2-  S153  1  0.80178556  0.23489369  0.65710430  1
  S2-  S154  1  0.74315717  0.27413995  0.14252781  1
  S2-  S155  1  0.63593485  0.37156956  0.65417024  1
  S2-  S156  1  0.74285739  0.51222588  0.13866406  1
  S2-  S157  1  0.84730412  0.61629911  0.64588322  1
  S2-  S158  1  0.75987734  0.75076548  0.14252883  1
  S2-  S159  1  0.77731096  0.99297974  0.64727331  1
  S2-  S160  1  0.07951006  0.01320874  0.33858129  1
  S2-  S161  1  0.11205729  -0.10631653  0.85806225  1
  S2-  S162  1  0.21093568  0.21154939  0.30866251  1
  S2-  S163  1  0.10267349  0.26403263  0.84309485  1
  S2-  S164  1  0.13835794  0.41183398  0.34685402  1
  S2-  S165  1  0.22064296  0.47646373  0.85044396  1
  S2-  S166  1  0.12902146  0.63972473  0.36602978  1
  S2-  S167  1  0.10702674  0.64986494  0.85292997  1
  S2-  S168  1  0.49399141  0.02577507  0.35675477  1
  S2-  S169  1  0.37758868  -0.11093359  0.86276803  1
  S2-  S170  1  0.38324424  0.36333528  0.35469443  1
  S2-  S171  1  0.38907058  0.34344796  0.85150165  1
  S2-  S172  1  0.37007536  0.61237729  0.35414434  1
  S2-  S173  1  0.38020452  0.51687159  0.76256820  1
  S2-  S174  1  0.36701635  0.85502306  0.35319089  1
  S2-  S175  1  0.35663979  0.66436917  0.85567501  1
  S2-  S176  1  0.68091465  -0.03717241  0.33394130  1
  S2-  S177  1  0.63655821  0.11631352  0.86126707  1
  S2-  S178  1  0.69661416  0.24345796  0.35788854  1
  S2-  S179  1  0.61427282  0.33290433  0.84374482  1
  S2-  S180  1  0.59269479  0.48416344  0.34063097  1
  S2-  S181  1  0.51444256  0.52003668  0.84961710  1
  S2-  S182  1  0.56623434  0.74017955  0.35061818  1
  S2-  S183  1  0.61731627  0.74079793  0.84882482  1
  S2-  S184  1  0.85378039  0.08979180  0.34954927  1
  S2-  S185  1  0.85849223  -0.09220615  0.86356752  1
  S2-  S186  1  0.98983402  0.24329595  0.32894689  1
  S2-  S187  1  0.83476494  0.22460373  0.84141280  1
  S2-  S188  1  0.84559773  0.41185268  0.35376590  1
  S2-  S189  1  0.73953454  0.51321476  0.85113211  1
  S2-  S190  1  0.88469643  0.86706301  0.36347010  1
  S2-  S191  1  0.87984730  0.66668325  0.85051893  1
  S2-  S192  1  0.00615518  0.12497960  0.44529469  1
  S2-  S193  1  -0.00526231  0.13034165  0.94175303  1
  S2-  S194  1  0.00361280  0.36658091  0.44813384  1
  S2-  S195  1  -0.00519989  0.38960089  0.94570947  1
  S2-  S196  1  -0.00018040  0.62168306  0.46876949  1
  S2-  S197  1  -0.00698139  0.64142267  0.95660480  1
  S2-  S198  1  0.01010667  0.87437477  0.46154808  1
  S2-  S199  1  -0.00648239  0.88886204  0.96073672  1
  S2-  S200  1  0.25573581  0.12070299  0.43777394  1
  S2-  S201  1  0.24237882  0.13347398  0.95280509  1
  S2-  S202  1  0.24781497  0.36443880  0.45289004  1
  S2-  S203  1  0.24215067  0.38344363  0.95613275  1
  S2-  S204  1  0.25646144  0.62125323  0.45904354  1
  S2-  S205  1  0.24154159  0.63897025  0.96066155  1
  S2-  S206  1  0.25115258  0.86686979  0.45553548  1
  S2-  S207  1  0.24429601  0.88858436  0.95912545  1
  S2-  S208  1  0.50199210  0.12618247  0.45794761  1
  S2-  S209  1  0.49046670  0.13553231  0.95483412  1
  S2-  S210  1  0.50873755  0.36970696  0.45841863  1
  S2-  S211  1  0.49473811  0.38157326  0.95648031  1
  S2-  S212  1  0.51068701  0.61729096  0.45483609  1
  S2-  S213  1  0.49651142  0.63813153  0.95743945  1
  S2-  S214  1  0.50477065  0.86954413  0.45437445  1
  S2-  S215  1  0.49723413  0.88814855  0.96608084  1
  S2-  S216  1  0.75484005  0.11901116  0.46094450  1
  S2-  S217  1  0.74669424  0.13596234  0.96561691  1
  S2-  S218  1  0.75749509  0.36628514  0.46463243  1
  S2-  S219  1  0.75038295  0.38380687  0.95303839  1
  S2-  S220  1  0.75758263  0.62336045  0.44997536  1
  S2-  S221  1  0.74478095  0.64450109  0.95697021  1
  S2-  S222  1  0.75127565  0.87370861  0.46013074  1
  S2-  S223  1  0.73776103  0.88815000  0.96425796  1
  S2-  S224  1  0.11766759  0.01756384  0.04652094  1
  S2-  S225  1  0.13571938  0.00097468  0.53894288  1
  S2-  S226  1  0.11829942  0.25834397  0.04560565  1
  S2-  S227  1  0.13015619  0.24189198  0.55152365  1
  S2-  S228  1  0.11544310  0.51049455  0.03957759  1
  S2-  S229  1  0.12987346  0.49860034  0.54507116  1
  S2-  S230  1  0.12136545  0.76844120  0.04251704  1
  S2-  S231  1  0.12786211  0.74478055  0.55306758  1
  S2-  S232  1  0.36715054  0.01894292  0.04186571  1
  S2-  S233  1  0.37974524  -0.00569615  0.52974321  1
  S2-  S234  1  0.36479897  0.26440722  0.04207081  1
  S2-  S235  1  0.38182508  0.24900067  0.53477039  1
  S2-  S236  1  0.36578862  0.51168233  0.03654142  1
  S2-  S237  1  0.37956671  0.49805769  0.54002816  1
  S2-  S238  1  0.36707622  0.76255190  0.05594219  1
  S2-  S239  1  0.38237353  0.74235980  0.53819020  1
  S2-  S240  1  0.61958302  0.01497693  0.04601681  1
  S2-  S241  1  0.62383208  -0.00482379  0.54531926  1
  S2-  S242  1  0.61967478  0.26541912  0.03977016  1
  S2-  S243  1  0.62690472  0.24821558  0.55177431  1
  S2-  S244  1  0.61799864  0.51198380  0.03838864  1
  S2-  S245  1  0.63731532  0.49987383  0.54737920  1
  S2-  S246  1  0.61404709  0.75963717  0.05172261  1
  S2-  S247  1  0.63159180  0.74644907  0.54750224  1
  S2-  S248  1  0.87415062  0.01559261  0.05167619  1
  S2-  S249  1  0.88143621  -0.00288626  0.54017104  1
  S2-  S250  1  0.87829840  0.25483299  0.04602710  1
  S2-  S251  1  0.88478388  0.24401083  0.54910634  1
  S2-  S252  1  0.87498040  0.51293375  0.03783507  1
  S2-  S253  1  0.87377303  0.49182242  0.54194884  1
  S2-  S254  1  0.87329821  0.76562959  0.04131476  1
  S2-  S255  1  0.88268873  0.75375885  0.54946986  1
