# generated using pymatgen
data_La9Ce10Pr6Nd4Sm3(BiS2)32
_symmetry_space_group_name_H-M   'P 1'
_cell_length_a   16.21305609
_cell_length_b   16.17686433
_cell_length_c   27.12295709
_cell_angle_alpha   89.69787593
_cell_angle_beta   89.94353469
_cell_angle_gamma   89.97752241
_symmetry_Int_Tables_number   1
_chemical_formula_structural   La9Ce10Pr6Nd4Sm3(BiS2)32
_chemical_formula_sum   'La18 Ce20 Pr12 Nd8 Sm6 Bi64 S128'
_cell_volume   7113.60889212
_cell_formula_units_Z   2
loop_
 _symmetry_equiv_pos_site_id
 _symmetry_equiv_pos_as_xyz
  1  'x, y, z'
loop_
 _atom_type_symbol
 _atom_type_oxidation_number
  La3+  3.0
  Ce3+  3.0
  Pr3+  3.0
  Nd3+  3.0
  Sm3+  3.0
  Bi2+  2.0
  S2-  -2.0
loop_
 _atom_site_type_symbol
 _atom_site_label
 _atom_site_symmetry_multiplicity
 _atom_site_fract_x
 _atom_site_fract_y
 _atom_site_fract_z
 _atom_site_occupancy
  La3+  La0  1  0.86583171  0.73929874  0.42934168  1
  La3+  La1  1  -0.02771415  0.62564739  0.10040270  1
  La3+  La2  1  0.50628504  0.39669376  0.07266197  1
  La3+  La3  1  0.12017613  0.48245075  0.38959424  1
  La3+  La4  1  0.26204519  0.39028949  0.08974472  1
  La3+  La5  1  0.88061714  0.01510716  0.93260474  1
  La3+  La6  1  0.49407277  0.85391041  0.56824879  1
  La3+  La7  1  0.13316289  0.02112937  0.89516640  1
  La3+  La8  1  0.24182704  0.10022787  0.57621293  1
  La3+  La9  1  0.75049009  0.10311350  0.57230318  1
  La3+  La10  1  0.49087808  0.36047932  0.56994522  1
  La3+  La11  1  0.37454616  -0.01472860  0.43154970  1
  La3+  La12  1  0.50989565  0.89515475  0.07241733  1
  La3+  La13  1  0.74855363  0.60247460  0.57047037  1
  La3+  La14  1  0.88981616  0.51464079  0.93482362  1
  La3+  La15  1  0.36995897  0.76182502  0.93009351  1
  La3+  La16  1  0.75318756  0.39121086  0.06397112  1
  La3+  La17  1  0.26110217  0.12333683  0.07536691  1
  Ce3+  Ce18  1  0.75004809  0.88873411  0.05441988  1
  Ce3+  Ce19  1  -0.00287751  0.10487193  0.55573251  1
  Ce3+  Ce20  1  0.62194457  0.73289988  0.44580790  1
  Ce3+  Ce21  1  0.49466365  0.60478428  0.54647310  1
  Ce3+  Ce22  1  0.62655492  0.02248140  0.92532419  1
  Ce3+  Ce23  1  0.75211569  0.85213650  0.57144097  1
  Ce3+  Ce24  1  0.62406296  0.23532057  0.45105608  1
  Ce3+  Ce25  1  0.62706510  0.76777994  0.93236712  1
  Ce3+  Ce26  1  -0.00353882  0.85682943  0.55240859  1
  Ce3+  Ce27  1  0.24755842  0.35832993  0.55504546  1
  Ce3+  Ce28  1  0.86989973  0.23829999  0.44114786  1
  Ce3+  Ce29  1  0.13257107  0.25649574  0.94851591  1
  Ce3+  Ce30  1  0.62653440  0.47743252  0.44156623  1
  Ce3+  Ce31  1  0.12270102  -0.01217920  0.43423795  1
  Ce3+  Ce32  1  0.75171151  0.13564821  0.05809058  1
  Ce3+  Ce33  1  0.37169412  0.23009175  0.43644103  1
  Ce3+  Ce34  1  0.24505583  0.85208587  0.56247608  1
  Ce3+  Ce35  1  0.88698533  0.76562029  0.94400455  1
  Ce3+  Ce36  1  0.24796205  0.61192851  0.55646757  1
  Ce3+  Ce37  1  0.62506649  0.27367609  0.93799346  1
  Pr3+  Pr38  1  0.88263221  0.26296586  0.94143666  1
  Pr3+  Pr39  1  0.37530282  0.26027301  0.94220529  1
  Pr3+  Pr40  1  0.37224110  0.73566468  0.42698290  1
  Pr3+  Pr41  1  -0.00366569  0.60305334  0.55118516  1
  Pr3+  Pr42  1  0.49290695  0.10842957  0.56476867  1
  Pr3+  Pr43  1  0.00509502  0.13328262  0.06609505  1
  Pr3+  Pr44  1  0.25063328  0.64293230  0.06794065  1
  Pr3+  Pr45  1  0.86753978  -0.01620087  0.43343979  1
  Pr3+  Pr46  1  0.12336848  0.22939576  0.43526351  1
  Pr3+  Pr47  1  0.37975663  0.51013590  0.94209688  1
  Pr3+  Pr48  1  0.12545830  0.51207936  0.95467212  1
  Pr3+  Pr49  1  0.00668208  0.88424256  0.06010980  1
  Nd3+  Nd50  1  0.01143849  0.37079231  0.07665999  1
  Nd3+  Nd51  1  0.37086532  0.47466490  0.42758847  1
  Nd3+  Nd52  1  0.00008203  0.35936646  0.55481305  1
  Nd3+  Nd53  1  0.38126971  0.01199505  0.92815237  1
  Nd3+  Nd54  1  0.63996591  0.52302601  0.92003257  1
  Nd3+  Nd55  1  0.86371128  0.48599339  0.42487774  1
  Nd3+  Nd56  1  0.12093435  0.75962350  0.93392038  1
  Nd3+  Nd57  1  0.12243869  0.73277202  0.43460265  1
  Sm3+  Sm58  1  0.62215010  -0.01669737  0.44911253  1
  Sm3+  Sm59  1  0.50525105  0.13720424  0.05756236  1
  Sm3+  Sm60  1  0.50113066  0.64135694  0.05522116  1
  Sm3+  Sm61  1  0.74868699  0.63777558  0.05092678  1
  Sm3+  Sm62  1  0.76041957  0.35177583  0.58184507  1
  Sm3+  Sm63  1  0.25663462  0.89091945  0.04751064  1
  Bi2+  Bi64  1  0.00045548  0.05510469  0.30162451  1
  Bi2+  Bi65  1  0.01028957  0.17698147  0.78363710  1
  Bi2+  Bi66  1  -0.00391619  0.35300661  0.28583824  1
  Bi2+  Bi67  1  0.01471697  0.41733879  0.78808311  1
  Bi2+  Bi68  1  -0.02228356  0.67568546  0.30357935  1
  Bi2+  Bi69  1  -0.07376711  0.62329034  0.80524516  1
  Bi2+  Bi70  1  0.05362227  0.86108118  0.29958759  1
  Bi2+  Bi71  1  -0.10964654  0.92145097  0.79256593  1
  Bi2+  Bi72  1  0.26275364  0.10864416  0.28273578  1
  Bi2+  Bi73  1  0.25917991  0.15640496  0.78389100  1
  Bi2+  Bi74  1  0.26244752  0.37401836  0.28871527  1
  Bi2+  Bi75  1  0.20573133  0.37239502  0.77171323  1
  Bi2+  Bi76  1  0.27744992  0.68869555  0.29998469  1
  Bi2+  Bi77  1  0.22062564  0.59683081  0.79359257  1
  Bi2+  Bi78  1  0.25572393  0.88905455  0.29165690  1
  Bi2+  Bi79  1  0.26925142  0.85966039  0.79303821  1
  Bi2+  Bi80  1  0.52904746  0.12037956  0.29502438  1
  Bi2+  Bi81  1  0.50927263  0.15390225  0.79287256  1
  Bi2+  Bi82  1  0.51453595  0.40223597  0.29607232  1
  Bi2+  Bi83  1  0.48107399  0.42044833  0.79148928  1
  Bi2+  Bi84  1  0.47215631  0.66645362  0.29300138  1
  Bi2+  Bi85  1  0.47726858  0.66283233  0.79648205  1
  Bi2+  Bi86  1  0.53249674  0.86916055  0.28924381  1
  Bi2+  Bi87  1  0.52667437  0.90426810  0.77471249  1
  Bi2+  Bi88  1  0.80840072  0.02956499  0.30543451  1
  Bi2+  Bi89  1  0.76631295  0.06594953  0.81873491  1
  Bi2+  Bi90  1  0.73660845  0.32453337  0.29643389  1
  Bi2+  Bi91  1  0.74593258  0.44026784  0.76804718  1
  Bi2+  Bi92  1  0.63627485  0.55586829  0.28146749  1
  Bi2+  Bi93  1  0.71489163  0.70529077  0.74622140  1
  Bi2+  Bi94  1  0.76855610  0.76459527  0.28370336  1
  Bi2+  Bi95  1  0.70836858  0.86577650  0.82015707  1
  Bi2+  Bi96  1  0.14862827  -0.00360326  0.20813010  1
  Bi2+  Bi97  1  0.09457799  -0.03652448  0.70910694  1
  Bi2+  Bi98  1  0.13753970  0.20558673  0.20765236  1
  Bi2+  Bi99  1  0.06891336  0.31810364  0.69355974  1
  Bi2+  Bi100  1  0.12152126  0.52782854  0.19164376  1
  Bi2+  Bi101  1  0.13463563  0.52054358  0.69401736  1
  Bi2+  Bi102  1  0.15901563  0.78347329  0.20578975  1
  Bi2+  Bi103  1  0.07694436  0.69134758  0.74030048  1
  Bi2+  Bi104  1  0.40944377  -0.04236237  0.20303839  1
  Bi2+  Bi105  1  0.36077744  0.02274429  0.69872508  1
  Bi2+  Bi106  1  0.43209894  0.24315571  0.22458441  1
  Bi2+  Bi107  1  0.42906853  0.25305434  0.69661423  1
  Bi2+  Bi108  1  0.42445543  0.50972122  0.21308772  1
  Bi2+  Bi109  1  0.33460558  0.48681904  0.71268172  1
  Bi2+  Bi110  1  0.33569682  0.71300208  0.19011393  1
  Bi2+  Bi111  1  0.36115624  0.68205655  0.69986897  1
  Bi2+  Bi112  1  0.70119357  -0.02183165  0.21784069  1
  Bi2+  Bi113  1  0.67689259  -0.00181809  0.72791889  1
  Bi2+  Bi114  1  0.62264706  0.21459110  0.21067546  1
  Bi2+  Bi115  1  0.63687257  0.28082302  0.74746138  1
  Bi2+  Bi116  1  0.62214683  0.41497557  0.19130765  1
  Bi2+  Bi117  1  0.59131794  0.54768796  0.72903884  1
  Bi2+  Bi118  1  0.60966658  0.72700018  0.21858219  1
  Bi2+  Bi119  1  0.55168476  0.76484710  0.69248194  1
  Bi2+  Bi120  1  0.96403690  0.00491078  0.17060472  1
  Bi2+  Bi121  1  0.87727841  0.08858723  0.68828927  1
  Bi2+  Bi122  1  0.88909921  0.15654023  0.22347813  1
  Bi2+  Bi123  1  0.82932354  0.23946014  0.75265208  1
  Bi2+  Bi124  1  0.84465856  0.51861863  0.21348729  1
  Bi2+  Bi125  1  0.87929869  0.51364268  0.69800912  1
  Bi2+  Bi126  1  0.89963380  0.84596535  0.21389678  1
  Bi2+  Bi127  1  0.88817709  0.78225996  0.71482411  1
  S2-  S128  1  -0.01265739  0.23307921  0.15102097  1
  S2-  S129  1  0.04174453  0.09928004  0.65197684  1
  S2-  S130  1  -0.03063029  0.46610358  0.15394856  1
  S2-  S131  1  -0.07468455  0.36823134  0.64617557  1
  S2-  S132  1  -0.01624822  0.62400693  0.21201905  1
  S2-  S133  1  -0.00008465  0.62241135  0.65286222  1
  S2-  S134  1  0.01899202  0.78348054  0.14415380  1
  S2-  S135  1  0.00728307  0.86668419  0.65218829  1
  S2-  S136  1  0.29113591  0.17805541  0.17345573  1
  S2-  S137  1  0.27677678  0.16151659  0.67282188  1
  S2-  S138  1  0.15935316  0.36003930  0.16914079  1
  S2-  S139  1  0.34626517  0.36880318  0.63722944  1
  S2-  S140  1  0.27964588  0.54799787  0.15426042  1
  S2-  S141  1  0.24595628  0.72296211  0.63401196  1
  S2-  S142  1  0.27900580  0.96445320  0.13827336  1
  S2-  S143  1  0.22852848  0.95676150  0.64417041  1
  S2-  S144  1  0.49641106  0.04137926  0.14067069  1
  S2-  S145  1  0.50308004  0.09960881  0.66659221  1
  S2-  S146  1  0.40094098  0.36692410  0.15434726  1
  S2-  S147  1  0.55865750  0.33931110  0.66493936  1
  S2-  S148  1  0.53362285  0.54738934  0.13658051  1
  S2-  S149  1  0.49161480  0.58660831  0.64406534  1
  S2-  S150  1  0.46751307  0.80287367  0.15789615  1
  S2-  S151  1  0.43197742  0.87575664  0.66231189  1
  S2-  S152  1  0.74122294  0.11973454  0.15715817  1
  S2-  S153  1  0.76716400  0.21761875  0.64906784  1
  S2-  S154  1  0.77985137  0.37760126  0.16511949  1
  S2-  S155  1  0.74102066  0.48295591  0.64596641  1
  S2-  S156  1  0.80154231  0.62220869  0.14511243  1
  S2-  S157  1  0.76650524  0.73022776  0.64502391  1
  S2-  S158  1  0.67199247  0.88399360  0.14225068  1
  S2-  S159  1  0.76773067  0.96847854  0.64592896  1
  S2-  S160  1  0.14097804  0.09974861  0.35805573  1
  S2-  S161  1  0.12256610  -0.08903537  0.80953929  1
  S2-  S162  1  0.12875376  0.31434165  0.34524832  1
  S2-  S163  1  0.14029390  0.19131041  0.85471165  1
  S2-  S164  1  0.12333980  0.47020600  0.27994940  1
  S2-  S165  1  0.03075396  0.51792096  0.86763574  1
  S2-  S166  1  0.12850832  0.65065238  0.34675934  1
  S2-  S167  1  0.23457658  0.73792797  0.85625043  1
  S2-  S168  1  0.37492488  0.11222541  0.35682037  1
  S2-  S169  1  0.28658332  0.02118288  0.83768336  1
  S2-  S170  1  0.38771369  0.33558378  0.35686653  1
  S2-  S171  1  0.38199331  0.24094278  0.83852522  1
  S2-  S172  1  0.28593541  0.50827719  0.34137740  1
  S2-  S173  1  0.37259633  0.53540155  0.84166011  1
  S2-  S174  1  0.39031006  0.86575057  0.35555429  1
  S2-  S175  1  0.42361687  0.81621690  0.83763773  1
  S2-  S176  1  0.59118304  -0.00561988  0.35060126  1
  S2-  S177  1  0.50226781  0.01610143  0.85343166  1
  S2-  S178  1  0.63281146  0.23098085  0.35138307  1
  S2-  S179  1  0.63931665  0.16799812  0.85938698  1
  S2-  S180  1  0.72407133  0.45985974  0.35951836  1
  S2-  S181  1  0.59489919  0.39265317  0.86010391  1
  S2-  S182  1  0.63526475  0.77388755  0.35175988  1
  S2-  S183  1  0.61459318  0.66035177  0.85404914  1
  S2-  S184  1  0.84156188  -0.12651773  0.35577796  1
  S2-  S185  1  0.97538014  0.04667745  0.84633961  1
  S2-  S186  1  0.87411777  0.26757623  0.34260288  1
  S2-  S187  1  0.91809186  0.29129663  0.84301851  1
  S2-  S188  1  0.95877465  0.47635068  0.33980382  1
  S2-  S189  1  0.78974933  0.52133469  0.84999809  1
  S2-  S190  1  0.83342838  0.64103355  0.34737677  1
  S2-  S191  1  0.98477267  0.74466396  0.86399837  1
  S2-  S192  1  -0.00903377  0.10880840  0.44996402  1
  S2-  S193  1  0.00628018  0.13766179  0.95887500  1
  S2-  S194  1  -0.00272971  0.36043527  0.44952515  1
  S2-  S195  1  0.00821188  0.38001738  0.96759405  1
  S2-  S196  1  -0.00494136  0.60684507  0.44549782  1
  S2-  S197  1  0.00367593  0.64066423  0.97285322  1
  S2-  S198  1  -0.00030803  0.86094973  0.44617892  1
  S2-  S199  1  0.00954351  0.89615073  0.95207731  1
  S2-  S200  1  0.24715885  0.10645848  0.46331724  1
  S2-  S201  1  0.25466296  0.13196625  0.95840067  1
  S2-  S202  1  0.24320111  0.35844946  0.45149160  1
  S2-  S203  1  0.25124935  0.38799102  0.95047642  1
  S2-  S204  1  0.24916881  0.61056127  0.45105832  1
  S2-  S205  1  0.25160073  0.63202825  0.96069986  1
  S2-  S206  1  0.24366755  0.85840563  0.45112275  1
  S2-  S207  1  0.24738552  0.89437966  0.94481551  1
  S2-  S208  1  0.50206187  0.10852176  0.45889562  1
  S2-  S209  1  0.50326709  0.14393842  0.95495826  1
  S2-  S210  1  0.49994235  0.35742559  0.45982555  1
  S2-  S211  1  0.49558222  0.38593489  0.96393164  1
  S2-  S212  1  0.49705527  0.60437097  0.43931697  1
  S2-  S213  1  0.50037384  0.63810517  0.95203766  1
  S2-  S214  1  0.50100191  0.85850224  0.45896131  1
  S2-  S215  1  0.50615000  0.88614838  0.95402257  1
  S2-  S216  1  0.74637507  0.10761420  0.45742010  1
  S2-  S217  1  0.75666054  0.14234739  0.95448045  1
  S2-  S218  1  0.74815006  0.35498349  0.46702325  1
  S2-  S219  1  0.75808505  0.38777019  0.95371124  1
  S2-  S220  1  0.74223562  0.60796716  0.46003697  1
  S2-  S221  1  0.76089890  0.64809522  0.94897815  1
  S2-  S222  1  0.74082161  0.86045680  0.46465346  1
  S2-  S223  1  0.75491179  0.88970072  0.94904847  1
  S2-  S224  1  0.12919316  0.01004249  0.05223530  1
  S2-  S225  1  0.11888281  -0.02003913  0.53924167  1
  S2-  S226  1  0.14123222  0.25563628  0.05358394  1
  S2-  S227  1  0.12282003  0.23251129  0.54658030  1
  S2-  S228  1  0.12562137  0.51136958  0.06060539  1
  S2-  S229  1  0.12514935  0.48299244  0.55194061  1
  S2-  S230  1  0.13864800  0.77043324  0.04063797  1
  S2-  S231  1  0.11667559  0.73123426  0.53964440  1
  S2-  S232  1  0.38559538  0.01117748  0.03460558  1
  S2-  S233  1  0.37178147  -0.01878779  0.54422214  1
  S2-  S234  1  0.37934402  0.25780587  0.05005393  1
  S2-  S235  1  0.36792058  0.22871406  0.54484732  1
  S2-  S236  1  0.37679418  0.51717718  0.04743879  1
  S2-  S237  1  0.36844372  0.48674517  0.53549540  1
  S2-  S238  1  0.37763861  0.76409399  0.04163902  1
  S2-  S239  1  0.37435216  0.73135069  0.53507605  1
  S2-  S240  1  0.63017536  0.01689019  0.03585696  1
  S2-  S241  1  0.61852964  -0.01892385  0.55458693  1
  S2-  S242  1  0.62678689  0.26279289  0.05074568  1
  S2-  S243  1  0.62215760  0.23241555  0.55592299  1
  S2-  S244  1  0.63151802  0.51712927  0.03205672  1
  S2-  S245  1  0.61918422  0.47950969  0.54615506  1
  S2-  S246  1  0.62623314  0.75924399  0.04130557  1
  S2-  S247  1  0.61941354  0.72867226  0.55107319  1
  S2-  S248  1  0.87626691  0.01067348  0.04392910  1
  S2-  S249  1  0.87535406  -0.01975238  0.54075407  1
  S2-  S250  1  0.87575751  0.25984883  0.04918082  1
  S2-  S251  1  0.87852963  0.23129446  0.54554544  1
  S2-  S252  1  0.87423141  0.51067336  0.04311461  1
  S2-  S253  1  0.87197808  0.47906857  0.53877040  1
  S2-  S254  1  0.87162123  0.76434783  0.04971836  1
  S2-  S255  1  0.87589186  0.73145574  0.53901240  1
