# generated using pymatgen
data_La9Ce10Pr6Nd4Sm3(BiS2)32
_symmetry_space_group_name_H-M   'P 1'
_cell_length_a   16.14082242
_cell_length_b   16.13477642
_cell_length_c   27.06750711
_cell_angle_alpha   90.21838982
_cell_angle_beta   89.71625256
_cell_angle_gamma   90.15512765
_symmetry_Int_Tables_number   1
_chemical_formula_structural   La9Ce10Pr6Nd4Sm3(BiS2)32
_chemical_formula_sum   'La18 Ce20 Pr12 Nd8 Sm6 Bi64 S128'
_cell_volume   7048.98879939
_cell_formula_units_Z   2
loop_
 _symmetry_equiv_pos_site_id
 _symmetry_equiv_pos_as_xyz
  1  'x, y, z'
loop_
 _atom_type_symbol
 _atom_type_oxidation_number
  La3+  3.0
  Ce3+  3.0
  Pr3+  3.0
  Nd3+  3.0
  Sm3+  3.0
  Bi2+  2.0
  S2-  -2.0
loop_
 _atom_site_type_symbol
 _atom_site_label
 _atom_site_symmetry_multiplicity
 _atom_site_fract_x
 _atom_site_fract_y
 _atom_site_fract_z
 _atom_site_occupancy
  La3+  La0  1  0.37294926  0.48526468  0.42512638  1
  La3+  La1  1  0.13439358  0.74641916  0.43232955  1
  La3+  La2  1  0.88330951  0.27646047  0.93671348  1
  La3+  La3  1  0.38373676  0.73555953  0.39830799  1
  La3+  La4  1  0.26805189  0.36136251  0.57355262  1
  La3+  La5  1  0.26383213  0.11079071  0.57648301  1
  La3+  La6  1  0.50546480  0.65421522  0.06749507  1
  La3+  La7  1  0.38605098  0.28078302  0.92946078  1
  La3+  La8  1  0.64082916  0.23086031  0.41447860  1
  La3+  La9  1  0.01088492  0.40085579  0.06827845  1
  La3+  La10  1  0.89006670  0.48841163  0.43536997  1
  La3+  La11  1  0.75442473  0.11959073  0.56361681  1
  La3+  La12  1  0.00812473  0.62743333  0.61761288  1
  La3+  La13  1  0.14450153  0.02342286  0.92817706  1
  La3+  La14  1  0.64277026  0.49650756  0.41537017  1
  La3+  La15  1  0.76086688  0.66064918  0.06947041  1
  La3+  La16  1  0.89073073  0.77899215  0.92482177  1
  La3+  La17  1  0.25419818  0.65625818  0.08209704  1
  Ce3+  Ce18  1  0.00444173  0.12282449  0.56361493  1
  Ce3+  Ce19  1  0.50877632  0.15378207  0.06034637  1
  Ce3+  Ce20  1  0.75576955  0.15746301  0.06299862  1
  Ce3+  Ce21  1  0.50704335  0.89922741  0.06430592  1
  Ce3+  Ce22  1  0.26230174  0.15164955  0.05797233  1
  Ce3+  Ce23  1  0.25327726  0.61692258  0.56294190  1
  Ce3+  Ce24  1  0.51031455  0.61269553  0.55107315  1
  Ce3+  Ce25  1  0.62935853  0.76989128  0.93026115  1
  Ce3+  Ce26  1  0.13612179  -0.01031427  0.44604186  1
  Ce3+  Ce27  1  0.26146756  0.40003366  0.06195683  1
  Ce3+  Ce28  1  0.13508027  0.27447334  0.94033278  1
  Ce3+  Ce29  1  0.75375441  0.61106626  0.56515946  1
  Ce3+  Ce30  1  0.75702706  0.36556746  0.54765299  1
  Ce3+  Ce31  1  0.88334612  0.02468170  0.93963127  1
  Ce3+  Ce32  1  0.38485644  0.52512542  0.94051473  1
  Ce3+  Ce33  1  0.75839895  0.41202466  0.07056772  1
  Ce3+  Ce34  1  0.50927114  0.36435773  0.54479875  1
  Ce3+  Ce35  1  0.75962006  0.86506021  0.56466092  1
  Ce3+  Ce36  1  0.01143215  0.65885445  0.06458686  1
  Ce3+  Ce37  1  0.63524778  -0.01619566  0.43948230  1
  Pr3+  Pr38  1  0.38280433  0.77592974  0.93522811  1
  Pr3+  Pr39  1  0.13534228  0.52691188  0.94113578  1
  Pr3+  Pr40  1  0.88526318  0.52867328  0.94592677  1
  Pr3+  Pr41  1  0.51043856  0.40867247  0.07033753  1
  Pr3+  Pr42  1  0.25781573  0.86257117  0.56608846  1
  Pr3+  Pr43  1  0.38358736  -0.00979453  0.43551854  1
  Pr3+  Pr44  1  0.63507785  0.27731822  0.93699747  1
  Pr3+  Pr45  1  0.00907418  0.90569549  0.06256780  1
  Pr3+  Pr46  1  0.00642108  0.87015453  0.57315700  1
  Pr3+  Pr47  1  0.88829613  0.23067826  0.42120185  1
  Pr3+  Pr48  1  0.63779984  0.52416870  0.93459287  1
  Pr3+  Pr49  1  0.75611533  0.90225897  0.05317738  1
  Nd3+  Nd50  1  0.13316397  0.23859570  0.44003154  1
  Nd3+  Nd51  1  0.00886469  0.15199696  0.05605020  1
  Nd3+  Nd52  1  0.00353689  0.36531359  0.56813999  1
  Nd3+  Nd53  1  0.25262818  0.90578191  0.07089429  1
  Nd3+  Nd54  1  0.38609112  0.23910776  0.42889767  1
  Nd3+  Nd55  1  0.39192532  0.02722837  0.92776893  1
  Nd3+  Nd56  1  0.14078821  0.77702747  0.93661743  1
  Nd3+  Nd57  1  0.88664662  -0.01547502  0.43482099  1
  Sm3+  Sm58  1  0.63154903  0.03114619  0.93052970  1
  Sm3+  Sm59  1  0.50579199  0.86187157  0.55299771  1
  Sm3+  Sm60  1  0.88851588  0.73721931  0.45255341  1
  Sm3+  Sm61  1  0.13641434  0.49163442  0.45104030  1
  Sm3+  Sm62  1  0.63659199  0.73848863  0.43583286  1
  Sm3+  Sm63  1  0.51049527  0.11634381  0.55834793  1
  Bi2+  Bi64  1  0.00625126  0.13953114  0.28389136  1
  Bi2+  Bi65  1  -0.07595756  0.14603605  0.78983361  1
  Bi2+  Bi66  1  -0.05714452  0.39914678  0.30872096  1
  Bi2+  Bi67  1  0.03589920  0.36523823  0.80366459  1
  Bi2+  Bi68  1  0.00411969  0.67366897  0.28059190  1
  Bi2+  Bi69  1  -0.03191907  0.62427129  0.82194398  1
  Bi2+  Bi70  1  -0.02613717  0.89615604  0.29828449  1
  Bi2+  Bi71  1  -0.06697984  0.87895093  0.78733363  1
  Bi2+  Bi72  1  0.18177852  0.10401551  0.33215806  1
  Bi2+  Bi73  1  0.23868847  0.12598508  0.80096601  1
  Bi2+  Bi74  1  0.24267011  0.27758081  0.28761751  1
  Bi2+  Bi75  1  0.32445611  0.41579707  0.75724291  1
  Bi2+  Bi76  1  0.26012088  0.60213637  0.27915437  1
  Bi2+  Bi77  1  0.27783165  0.64543829  0.79379375  1
  Bi2+  Bi78  1  0.23081814  0.87264684  0.28998543  1
  Bi2+  Bi79  1  0.16635285  0.89148666  0.80086937  1
  Bi2+  Bi80  1  0.37693801  0.11404168  0.31726834  1
  Bi2+  Bi81  1  0.51658483  0.12290011  0.79120822  1
  Bi2+  Bi82  1  0.48009916  0.34246922  0.27586204  1
  Bi2+  Bi83  1  0.51249404  0.38541182  0.79042081  1
  Bi2+  Bi84  1  0.53065331  0.60493142  0.28315650  1
  Bi2+  Bi85  1  0.46433654  0.62290528  0.82419774  1
  Bi2+  Bi86  1  0.51047935  0.97100861  0.30732405  1
  Bi2+  Bi87  1  0.49395951  0.81741885  0.81757558  1
  Bi2+  Bi88  1  0.77295480  0.02589369  0.26700485  1
  Bi2+  Bi89  1  0.75958512  0.04796801  0.74717767  1
  Bi2+  Bi90  1  0.75118813  0.36902070  0.28251318  1
  Bi2+  Bi91  1  0.68566101  0.28185848  0.78129259  1
  Bi2+  Bi92  1  0.77674708  0.70542125  0.28394435  1
  Bi2+  Bi93  1  0.72113234  0.56731112  0.78010401  1
  Bi2+  Bi94  1  0.69164535  0.87460710  0.32161188  1
  Bi2+  Bi95  1  0.65965779  0.84886218  0.75976432  1
  Bi2+  Bi96  1  0.13813303  0.02054466  0.22738613  1
  Bi2+  Bi97  1  0.03386524  0.00836864  0.71927109  1
  Bi2+  Bi98  1  0.11268468  0.26314476  0.19790912  1
  Bi2+  Bi99  1  0.08330552  0.23507342  0.72665980  1
  Bi2+  Bi100  1  0.11149334  0.47857866  0.27178200  1
  Bi2+  Bi101  1  0.13231504  0.50711827  0.72029905  1
  Bi2+  Bi102  1  0.12106267  0.77570167  0.20349557  1
  Bi2+  Bi103  1  0.16848382  0.83145308  0.69570944  1
  Bi2+  Bi104  1  0.37050820  -0.01987958  0.21662796  1
  Bi2+  Bi105  1  0.38086671  -0.01062564  0.71217381  1
  Bi2+  Bi106  1  0.35546905  0.18213865  0.20704316  1
  Bi2+  Bi107  1  0.35675262  0.24595529  0.70174690  1
  Bi2+  Bi108  1  0.37676514  0.45029476  0.19322298  1
  Bi2+  Bi109  1  0.39303582  0.58878088  0.70841486  1
  Bi2+  Bi110  1  0.39482515  0.77784269  0.21595538  1
  Bi2+  Bi111  1  0.36392615  0.79253813  0.72387639  1
  Bi2+  Bi112  1  0.56915353  -0.02515289  0.19241116  1
  Bi2+  Bi113  1  0.58105239  -0.00110144  0.70353943  1
  Bi2+  Bi114  1  0.62767043  0.14818132  0.23735358  1
  Bi2+  Bi115  1  0.57161332  0.27617365  0.68642797  1
  Bi2+  Bi116  1  0.64149249  0.46255618  0.19575045  1
  Bi2+  Bi117  1  0.62183987  0.46608717  0.70377187  1
  Bi2+  Bi118  1  0.64444374  0.79622671  0.21728000  1
  Bi2+  Bi119  1  0.57734774  0.67773467  0.72443483  1
  Bi2+  Bi120  1  0.88633560  -0.09145815  0.19957589  1
  Bi2+  Bi121  1  0.87458684  0.01019036  0.65458818  1
  Bi2+  Bi122  1  0.86851319  0.23044866  0.20000373  1
  Bi2+  Bi123  1  0.83287313  0.21056476  0.69013472  1
  Bi2+  Bi124  1  0.94195271  0.52237184  0.21531498  1
  Bi2+  Bi125  1  0.86906022  0.47581514  0.71281108  1
  Bi2+  Bi126  1  0.90229421  0.71470486  0.18270142  1
  Bi2+  Bi127  1  0.84445588  0.75184312  0.71589342  1
  S2-  S128  1  -0.01308111  0.14486987  0.15579188  1
  S2-  S129  1  -0.01106189  0.23547007  0.64081337  1
  S2-  S130  1  -0.01254496  0.36692339  0.16724044  1
  S2-  S131  1  0.00182309  0.45740815  0.65619677  1
  S2-  S132  1  0.10704445  0.64242723  0.14574742  1
  S2-  S133  1  -0.00100474  0.61971484  0.72933514  1
  S2-  S134  1  0.11380667  0.92241422  0.14430645  1
  S2-  S135  1  0.00349536  0.79033535  0.66348998  1
  S2-  S136  1  0.21677399  0.13410945  0.15395647  1
  S2-  S137  1  0.20749181  0.18380346  0.66846998  1
  S2-  S138  1  0.22655286  0.38336595  0.15862706  1
  S2-  S139  1  0.22110236  0.39594489  0.67232363  1
  S2-  S140  1  0.32020929  0.59832862  0.17684302  1
  S2-  S141  1  0.17878837  0.62353432  0.65312749  1
  S2-  S142  1  0.27559853  0.79573436  0.15029971  1
  S2-  S143  1  0.25096959  0.96776734  0.64926412  1
  S2-  S144  1  0.51522376  0.13714049  0.15961657  1
  S2-  S145  1  0.40568132  0.11984316  0.64157251  1
  S2-  S146  1  0.51662603  0.34513075  0.16844795  1
  S2-  S147  1  0.43155138  0.35778388  0.63418778  1
  S2-  S148  1  0.52157544  0.54335923  0.14739445  1
  S2-  S149  1  0.61356052  0.59906327  0.63150678  1
  S2-  S150  1  0.50985026  0.77947201  0.14258701  1
  S2-  S151  1  0.48396674  0.87789819  0.65224383  1
  S2-  S152  1  0.75128446  0.12442698  0.16078241  1
  S2-  S153  1  0.62559655  0.13567983  0.63601546  1
  S2-  S154  1  0.75374816  0.33789674  0.16065774  1
  S2-  S155  1  0.78829292  0.36315911  0.64689552  1
  S2-  S156  1  0.75259855  0.54662248  0.14759912  1
  S2-  S157  1  0.83655897  0.60868397  0.65407832  1
  S2-  S158  1  0.75408350  0.80179628  0.13768469  1
  S2-  S159  1  0.73161569  0.82119411  0.65980394  1
  S2-  S160  1  0.10378710  -0.10729512  0.36373535  1
  S2-  S161  1  0.09143571  0.04297063  0.83007501  1
  S2-  S162  1  0.02657854  0.26523923  0.35756265  1
  S2-  S163  1  0.17079029  0.27128905  0.84310276  1
  S2-  S164  1  0.19739104  0.49505183  0.35724545  1
  S2-  S165  1  0.10383783  0.51170648  0.84037778  1
  S2-  S166  1  0.22959728  0.72105347  0.34442439  1
  S2-  S167  1  0.03710140  0.78224715  0.85277582  1
  S2-  S168  1  0.35940145  -0.10444295  0.35072708  1
  S2-  S169  1  0.28131739  -0.00770074  0.85136476  1
  S2-  S170  1  0.35773251  0.34987801  0.35087032  1
  S2-  S171  1  0.38842748  0.17253280  0.84635821  1
  S2-  S172  1  0.39810443  0.58005930  0.33972826  1
  S2-  S173  1  0.37768619  0.41784360  0.86051202  1
  S2-  S174  1  0.48463835  0.74985486  0.30843594  1
  S2-  S175  1  0.25926242  0.77374033  0.85906116  1
  S2-  S176  1  0.65487314  0.05434207  0.35101178  1
  S2-  S177  1  0.52009001  -0.00919706  0.85530403  1
  S2-  S178  1  0.53748730  0.22348792  0.32864070  1
  S2-  S179  1  0.64815488  0.16180504  0.85580709  1
  S2-  S180  1  0.59077707  0.44557141  0.31865674  1
  S2-  S181  1  0.64187295  0.39517230  0.85995153  1
  S2-  S182  1  0.65460332  0.64483878  0.35209691  1
  S2-  S183  1  0.63765819  0.64322570  0.85839804  1
  S2-  S184  1  0.89546075  0.06964407  0.34725474  1
  S2-  S185  1  0.84779106  0.00590085  0.84331311  1
  S2-  S186  1  0.77218812  0.24848395  0.34241633  1
  S2-  S187  1  0.88430994  0.29183305  0.83543207  1
  S2-  S188  1  0.80745158  0.49551298  0.34549838  1
  S2-  S189  1  0.85067306  0.51443889  0.84584971  1
  S2-  S190  1  0.89941528  0.76503724  0.35301632  1
  S2-  S191  1  0.83061119  0.75810812  0.82789538  1
  S2-  S192  1  0.01038111  0.11008391  0.45622257  1
  S2-  S193  1  0.00925569  0.14934268  0.94785717  1
  S2-  S194  1  0.01445738  0.36759581  0.46013892  1
  S2-  S195  1  0.01026889  0.40033369  0.95649329  1
  S2-  S196  1  0.01366093  0.61592833  0.44166275  1
  S2-  S197  1  0.01291749  0.65252194  0.95653370  1
  S2-  S198  1  0.00471217  0.86477977  0.46552880  1
  S2-  S199  1  0.01250510  0.90650144  0.95356367  1
  S2-  S200  1  0.26032381  0.11521452  0.45892157  1
  S2-  S201  1  0.26346191  0.15228339  0.95282538  1
  S2-  S202  1  0.25431209  0.36078788  0.46116919  1
  S2-  S203  1  0.25524608  0.40009430  0.95631518  1
  S2-  S204  1  0.26015410  0.61980142  0.45700789  1
  S2-  S205  1  0.26071627  0.64807041  0.96014042  1
  S2-  S206  1  0.26130411  0.86414547  0.46039026  1
  S2-  S207  1  0.26469673  0.90435749  0.96263236  1
  S2-  S208  1  0.51017980  0.11185459  0.45099028  1
  S2-  S209  1  0.50930911  0.15257888  0.95559094  1
  S2-  S210  1  0.51210596  0.36469754  0.44025010  1
  S2-  S211  1  0.50917997  0.40337177  0.96141722  1
  S2-  S212  1  0.50727513  0.61896815  0.44684706  1
  S2-  S213  1  0.50505332  0.65078025  0.95831640  1
  S2-  S214  1  0.50828167  0.85735098  0.44718013  1
  S2-  S215  1  0.50970144  0.89948598  0.95926831  1
  S2-  S216  1  0.76185580  0.10748667  0.45488092  1
  S2-  S217  1  0.76046799  0.14844155  0.95574676  1
  S2-  S218  1  0.76123377  0.36168772  0.44384300  1
  S2-  S219  1  0.76346319  0.40162995  0.96127113  1
  S2-  S220  1  0.76426742  0.61919608  0.45698047  1
  S2-  S221  1  0.76439631  0.65639889  0.95778641  1
  S2-  S222  1  0.76290479  0.86075015  0.45579251  1
  S2-  S223  1  0.75256035  0.90143217  0.94532040  1
  S2-  S224  1  0.13426813  0.03178794  0.03916415  1
  S2-  S225  1  0.12807834  -0.00567086  0.55192165  1
  S2-  S226  1  0.13443294  0.27446761  0.04745799  1
  S2-  S227  1  0.13662360  0.24042530  0.54707608  1
  S2-  S228  1  0.13498293  0.52407117  0.04823957  1
  S2-  S229  1  0.13534907  0.48751679  0.55306312  1
  S2-  S230  1  0.13282581  0.78089195  0.04296077  1
  S2-  S231  1  0.12876534  0.74141204  0.54823395  1
  S2-  S232  1  0.38543034  0.02611336  0.05175453  1
  S2-  S233  1  0.38822013  -0.01360483  0.54252740  1
  S2-  S234  1  0.38572632  0.27787465  0.04782573  1
  S2-  S235  1  0.38713299  0.23632563  0.53534067  1
  S2-  S236  1  0.37817220  0.52769483  0.04771398  1
  S2-  S237  1  0.38274700  0.49335709  0.53968705  1
  S2-  S238  1  0.37879940  0.77960244  0.04320791  1
  S2-  S239  1  0.38457956  0.73754926  0.55926194  1
  S2-  S240  1  0.63238620  0.02726678  0.04226854  1
  S2-  S241  1  0.63214646  -0.01611808  0.54605057  1
  S2-  S242  1  0.63360902  0.27957472  0.04733834  1
  S2-  S243  1  0.63237111  0.24295541  0.52981353  1
  S2-  S244  1  0.63609284  0.53167971  0.04130192  1
  S2-  S245  1  0.63344713  0.48643165  0.52883416  1
  S2-  S246  1  0.63183550  0.77776483  0.03700481  1
  S2-  S247  1  0.63351623  0.74363700  0.54061651  1
  S2-  S248  1  0.88140375  0.02849104  0.04808146  1
  S2-  S249  1  0.88174560  -0.00808531  0.54188307  1
  S2-  S250  1  0.88317723  0.27738321  0.04677662  1
  S2-  S251  1  0.87971875  0.24075709  0.53422154  1
  S2-  S252  1  0.89148997  0.53063482  0.05269578  1
  S2-  S253  1  0.88218222  0.48998672  0.54342181  1
  S2-  S254  1  0.88888851  0.78264891  0.03788164  1
  S2-  S255  1  0.88468506  0.73881138  0.55552154  1
