# generated using pymatgen
data_La9Ce10Pr6Nd4Sm3(BiS2)32
_symmetry_space_group_name_H-M   'P 1'
_cell_length_a   16.22445973
_cell_length_b   16.22156825
_cell_length_c   27.17795796
_cell_angle_alpha   89.92614685
_cell_angle_beta   90.17695050
_cell_angle_gamma   89.99941766
_symmetry_Int_Tables_number   1
_chemical_formula_structural   La9Ce10Pr6Nd4Sm3(BiS2)32
_chemical_formula_sum   'La18 Ce20 Pr12 Nd8 Sm6 Bi64 S128'
_cell_volume   7152.82290746
_cell_formula_units_Z   2
loop_
 _symmetry_equiv_pos_site_id
 _symmetry_equiv_pos_as_xyz
  1  'x, y, z'
loop_
 _atom_type_symbol
 _atom_type_oxidation_number
  La3+  3.0
  Ce3+  3.0
  Pr3+  3.0
  Nd3+  3.0
  Sm3+  3.0
  Bi2+  2.0
  S2-  -2.0
loop_
 _atom_site_type_symbol
 _atom_site_label
 _atom_site_symmetry_multiplicity
 _atom_site_fract_x
 _atom_site_fract_y
 _atom_site_fract_z
 _atom_site_occupancy
  La3+  La0  1  0.86365380  0.49380643  0.42015421  1
  La3+  La1  1  0.35418273  0.01747515  0.40609765  1
  La3+  La2  1  0.73621773  0.12165963  0.56828414  1
  La3+  La3  1  -0.00888063  0.87365744  0.57269200  1
  La3+  La4  1  0.50755780  0.87137751  0.09998880  1
  La3+  La5  1  0.38525144  0.25108958  0.92174631  1
  La3+  La6  1  0.24492943  0.12224442  0.57969415  1
  La3+  La7  1  0.13507330  0.25898885  0.92063265  1
  La3+  La8  1  0.11975882  0.00560037  0.90679116  1
  La3+  La9  1  -0.01501474  0.12135663  0.59146577  1
  La3+  La10  1  0.50334650  0.12652958  0.06524831  1
  La3+  La11  1  0.86619212  0.00119971  0.44285474  1
  La3+  La12  1  0.49252808  0.38212946  0.58095369  1
  La3+  La13  1  0.75959959  0.87996128  0.06822485  1
  La3+  La14  1  -0.01620192  0.62489922  0.56960410  1
  La3+  La15  1  0.75344032  0.37930613  0.57278920  1
  La3+  La16  1  -0.00769193  0.37283153  0.10589963  1
  La3+  La17  1  0.35614097  0.74495011  0.41439864  1
  Ce3+  Ce18  1  0.25398197  0.87966581  0.05735380  1
  Ce3+  Ce19  1  0.25663920  0.62929597  0.05813877  1
  Ce3+  Ce20  1  0.87340517  0.00568267  0.92936825  1
  Ce3+  Ce21  1  0.11810238  0.24545817  0.45547608  1
  Ce3+  Ce22  1  0.00740931  0.62088850  0.05937230  1
  Ce3+  Ce23  1  0.73994756  0.62663869  0.55010368  1
  Ce3+  Ce24  1  0.00274131  0.88028521  0.06027972  1
  Ce3+  Ce25  1  0.11411237  0.49717645  0.43644015  1
  Ce3+  Ce26  1  0.11714854  0.74877819  0.44247764  1
  Ce3+  Ce27  1  0.25469821  0.37359085  0.06306920  1
  Ce3+  Ce28  1  0.62348797  0.25687512  0.93829029  1
  Ce3+  Ce29  1  0.49810615  0.38022188  0.06501804  1
  Ce3+  Ce30  1  0.50522992  0.63063965  0.06397777  1
  Ce3+  Ce31  1  0.48984886  0.12307966  0.55958913  1
  Ce3+  Ce32  1  0.48926644  0.62225235  0.55628487  1
  Ce3+  Ce33  1  0.61601248  0.49484489  0.43987543  1
  Ce3+  Ce34  1  0.25306223  0.12860675  0.05203860  1
  Ce3+  Ce35  1  0.62756616  0.50536565  0.93978110  1
  Ce3+  Ce36  1  0.24489622  0.87332924  0.55485843  1
  Ce3+  Ce37  1  0.88212330  0.49950501  0.93882079  1
  Pr3+  Pr38  1  0.48593643  0.87201372  0.54880360  1
  Pr3+  Pr39  1  0.37960631  0.00273439  0.94163624  1
  Pr3+  Pr40  1  0.86799811  0.75177410  0.43549668  1
  Pr3+  Pr41  1  0.00637436  0.13390865  0.04968777  1
  Pr3+  Pr42  1  -0.00531155  0.37314949  0.56449786  1
  Pr3+  Pr43  1  0.75275779  0.37870046  0.05536954  1
  Pr3+  Pr44  1  0.13173926  0.50060180  0.93753852  1
  Pr3+  Pr45  1  0.12855292  0.75392824  0.94529553  1
  Pr3+  Pr46  1  0.60953310  0.75166002  0.43319842  1
  Pr3+  Pr47  1  0.24055114  0.38418424  0.57627698  1
  Pr3+  Pr48  1  0.86642118  0.24621709  0.43993542  1
  Pr3+  Pr49  1  0.63151314  0.75550475  0.94313376  1
  Nd3+  Nd50  1  0.75610274  0.13174866  0.05267253  1
  Nd3+  Nd51  1  0.75643537  0.62797066  0.05388274  1
  Nd3+  Nd52  1  0.38124759  0.75714404  0.94377531  1
  Nd3+  Nd53  1  0.88116296  0.26297353  0.92550703  1
  Nd3+  Nd54  1  0.36531855  0.25316541  0.45223217  1
  Nd3+  Nd55  1  0.88586741  0.75501591  0.93707090  1
  Nd3+  Nd56  1  0.38103402  0.50364393  0.94065983  1
  Nd3+  Nd57  1  0.63356040  0.00198789  0.93778162  1
  Sm3+  Sm58  1  0.35803883  0.49652868  0.43253039  1
  Sm3+  Sm59  1  0.61056047  0.00203978  0.43910120  1
  Sm3+  Sm60  1  0.11910781  0.00260578  0.44694872  1
  Sm3+  Sm61  1  0.24037358  0.62318368  0.55811843  1
  Sm3+  Sm62  1  0.73728265  0.87270029  0.55312826  1
  Sm3+  Sm63  1  0.61305566  0.25135060  0.45313720  1
  Bi2+  Bi64  1  -0.01126313  0.12951480  0.28900457  1
  Bi2+  Bi65  1  -0.00789579  0.11052261  0.77481483  1
  Bi2+  Bi66  1  0.02487435  0.36555673  0.31194499  1
  Bi2+  Bi67  1  -0.00362380  0.35193984  0.79236154  1
  Bi2+  Bi68  1  -0.00275456  0.65215476  0.28796710  1
  Bi2+  Bi69  1  0.03741719  0.61474538  0.79953665  1
  Bi2+  Bi70  1  -0.02469149  0.85718818  0.29323811  1
  Bi2+  Bi71  1  -0.02876257  0.84741994  0.78592117  1
  Bi2+  Bi72  1  0.22424855  0.13853486  0.30087893  1
  Bi2+  Bi73  1  0.25259761  0.10292667  0.78956230  1
  Bi2+  Bi74  1  0.22103579  0.38937041  0.24833396  1
  Bi2+  Bi75  1  0.25307515  0.38250125  0.78339878  1
  Bi2+  Bi76  1  0.23795824  0.59011431  0.29866165  1
  Bi2+  Bi77  1  0.22552203  0.58627981  0.78817238  1
  Bi2+  Bi78  1  0.23921645  0.85297981  0.28249797  1
  Bi2+  Bi79  1  0.26975237  0.80010200  0.77732811  1
  Bi2+  Bi80  1  0.54703238  0.12964615  0.28488131  1
  Bi2+  Bi81  1  0.52380165  0.07548815  0.78800665  1
  Bi2+  Bi82  1  0.47742539  0.37469925  0.31790588  1
  Bi2+  Bi83  1  0.49795071  0.37341905  0.78878077  1
  Bi2+  Bi84  1  0.50601644  0.55658446  0.28341740  1
  Bi2+  Bi85  1  0.49597368  0.66216879  0.78301864  1
  Bi2+  Bi86  1  0.53809078  0.89311473  0.29590904  1
  Bi2+  Bi87  1  0.51654435  0.88398922  0.79408892  1
  Bi2+  Bi88  1  0.78854041  0.16840163  0.29659880  1
  Bi2+  Bi89  1  0.71669352  0.10746695  0.78356404  1
  Bi2+  Bi90  1  0.72827856  0.35606552  0.29590738  1
  Bi2+  Bi91  1  0.74598727  0.39191213  0.78196346  1
  Bi2+  Bi92  1  0.69842756  0.55929703  0.25855354  1
  Bi2+  Bi93  1  0.77767940  0.62650703  0.78914039  1
  Bi2+  Bi94  1  0.77572874  0.83031558  0.28907413  1
  Bi2+  Bi95  1  0.70916472  0.85963962  0.78958675  1
  Bi2+  Bi96  1  0.10719500  -0.00557444  0.23131209  1
  Bi2+  Bi97  1  0.11697278  -0.07735679  0.72223303  1
  Bi2+  Bi98  1  0.14229619  0.22658987  0.20257711  1
  Bi2+  Bi99  1  0.11196556  0.35474600  0.70057869  1
  Bi2+  Bi100  1  0.12916823  0.60457582  0.20337727  1
  Bi2+  Bi101  1  0.08463452  0.54391441  0.68483039  1
  Bi2+  Bi102  1  0.09510709  0.79876129  0.20421477  1
  Bi2+  Bi103  1  0.14545871  0.72601720  0.70405848  1
  Bi2+  Bi104  1  0.36529309  0.02930445  0.20291111  1
  Bi2+  Bi105  1  0.38297725  -0.07421418  0.71496648  1
  Bi2+  Bi106  1  0.38645674  0.28441335  0.23227583  1
  Bi2+  Bi107  1  0.37929901  0.20083062  0.69872356  1
  Bi2+  Bi108  1  0.37274670  0.49410386  0.20500084  1
  Bi2+  Bi109  1  0.36918566  0.56685838  0.71061113  1
  Bi2+  Bi110  1  0.37206018  0.76638277  0.21096548  1
  Bi2+  Bi111  1  0.46124115  0.73197544  0.67515724  1
  Bi2+  Bi112  1  0.73366534  -0.00201961  0.22222082  1
  Bi2+  Bi113  1  0.64768726  -0.02453344  0.70247508  1
  Bi2+  Bi114  1  0.58416371  0.30354383  0.22148224  1
  Bi2+  Bi115  1  0.62269283  0.22820637  0.71103578  1
  Bi2+  Bi116  1  0.56828737  0.48328330  0.17838830  1
  Bi2+  Bi117  1  0.62811386  0.53066527  0.73828132  1
  Bi2+  Bi118  1  0.65728805  0.73729079  0.20829189  1
  Bi2+  Bi119  1  0.65953290  0.70183133  0.69089725  1
  Bi2+  Bi120  1  0.91923336  0.01574078  0.20139401  1
  Bi2+  Bi121  1  0.85887308  0.00451294  0.71630984  1
  Bi2+  Bi122  1  0.84920138  0.22499835  0.19651909  1
  Bi2+  Bi123  1  0.86684700  0.27812660  0.70553903  1
  Bi2+  Bi124  1  0.86775057  0.49895703  0.21215880  1
  Bi2+  Bi125  1  0.90566016  0.51460547  0.73359040  1
  Bi2+  Bi126  1  0.88897632  0.74677511  0.20583164  1
  Bi2+  Bi127  1  0.86467537  0.73737289  0.70665186  1
  S2-  S128  1  -0.00273710  0.20778359  0.14153929  1
  S2-  S129  1  0.02191280  0.20989085  0.67975864  1
  S2-  S130  1  -0.02782877  0.37471709  0.22239521  1
  S2-  S131  1  -0.10418354  0.40328221  0.64431725  1
  S2-  S132  1  -0.00501536  0.53716991  0.14523505  1
  S2-  S133  1  -0.00778771  0.74669467  0.64546962  1
  S2-  S134  1  -0.10572342  0.88196813  0.13726788  1
  S2-  S135  1  0.00446666  0.98010758  0.65561459  1
  S2-  S136  1  0.25667308  0.13759400  0.15129431  1
  S2-  S137  1  0.24503013  0.11350075  0.68180639  1
  S2-  S138  1  0.15712859  0.37024931  0.14644788  1
  S2-  S139  1  0.28204554  0.32124553  0.67131079  1
  S2-  S140  1  0.28530271  0.63900819  0.15616407  1
  S2-  S141  1  0.25111563  0.52743532  0.63962772  1
  S2-  S142  1  0.29453152  0.88626347  0.15297054  1
  S2-  S143  1  0.24673987  0.89668421  0.65212317  1
  S2-  S144  1  0.48793494  0.11031647  0.16603545  1
  S2-  S145  1  0.52000849  0.11850052  0.65522007  1
  S2-  S146  1  0.38073659  0.35615967  0.13602116  1
  S2-  S147  1  0.49645219  0.33184017  0.68295864  1
  S2-  S148  1  0.50908771  0.71307635  0.15258050  1
  S2-  S149  1  0.48922408  0.52842877  0.63850051  1
  S2-  S150  1  0.47507937  0.90462566  0.19990160  1
  S2-  S151  1  0.51176270  0.89355177  0.64854826  1
  S2-  S152  1  0.73108509  0.12331848  0.15234710  1
  S2-  S153  1  0.83227993  0.13283666  0.65143155  1
  S2-  S154  1  0.81786645  0.37623255  0.14815796  1
  S2-  S155  1  0.70686712  0.35127257  0.67116284  1
  S2-  S156  1  0.77277759  0.63880233  0.15308011  1
  S2-  S157  1  0.79963156  0.61813804  0.64045390  1
  S2-  S158  1  0.66400843  0.88163269  0.15381855  1
  S2-  S159  1  0.76974597  0.89427009  0.64927749  1
  S2-  S160  1  0.19905342  0.00235240  0.35702031  1
  S2-  S161  1  0.19831450  -0.04750488  0.81931988  1
  S2-  S162  1  0.09617497  0.22228600  0.35792887  1
  S2-  S163  1  0.11260669  0.14799271  0.83915146  1
  S2-  S164  1  0.23007286  0.46103122  0.36300712  1
  S2-  S165  1  0.12471068  0.40115324  0.85198645  1
  S2-  S166  1  0.19395786  0.73793527  0.35387414  1
  S2-  S167  1  0.07422961  0.75904742  0.84930090  1
  S2-  S168  1  0.42954839  0.02711763  0.31109059  1
  S2-  S169  1  0.38731731  0.06561057  0.84719680  1
  S2-  S170  1  0.33775714  0.18864410  0.36134883  1
  S2-  S171  1  0.27871781  0.25271904  0.84097282  1
  S2-  S172  1  0.38078282  0.60491156  0.35262193  1
  S2-  S173  1  0.38555560  0.44431858  0.84618113  1
  S2-  S174  1  0.39010477  0.81457785  0.32064045  1
  S2-  S175  1  0.38480581  0.75895813  0.84435486  1
  S2-  S176  1  0.63308808  0.01795015  0.34203731  1
  S2-  S177  1  0.74371851  -0.00968404  0.85890930  1
  S2-  S178  1  0.59221720  0.25925385  0.35504624  1
  S2-  S179  1  0.52666456  0.25813570  0.85599481  1
  S2-  S180  1  0.71556194  0.49326437  0.35816135  1
  S2-  S181  1  0.62213685  0.45866855  0.84518397  1
  S2-  S182  1  0.62289165  0.76093511  0.33253185  1
  S2-  S183  1  0.61696754  0.74520435  0.84288016  1
  S2-  S184  1  0.87450579  0.04601814  0.34626850  1
  S2-  S185  1  0.97140842  -0.01564100  0.84786318  1
  S2-  S186  1  0.87072705  0.34483609  0.35597660  1
  S2-  S187  1  0.89801956  0.20738599  0.82797551  1
  S2-  S188  1  1.00503243  0.51403588  0.35698849  1
  S2-  S189  1  0.86977664  0.41150299  0.85485826  1
  S2-  S190  1  0.85837686  0.69597320  0.33991117  1
  S2-  S191  1  0.84192188  0.76732567  0.84092581  1
  S2-  S192  1  -0.00737065  0.12126506  0.46281011  1
  S2-  S193  1  -0.00015048  0.13292668  0.94546793  1
  S2-  S194  1  -0.00701635  0.36872147  0.45883177  1
  S2-  S195  1  0.00500092  0.37911085  0.95161394  1
  S2-  S196  1  -0.00921298  0.63092080  0.45864089  1
  S2-  S197  1  0.00523590  0.62505302  0.95181321  1
  S2-  S198  1  -0.00453771  0.87735338  0.45419604  1
  S2-  S199  1  0.00556233  0.88070362  0.95557094  1
  S2-  S200  1  0.24216373  0.12282251  0.46882114  1
  S2-  S201  1  0.24965474  0.12141248  0.94773569  1
  S2-  S202  1  0.23970830  0.36938800  0.46811669  1
  S2-  S203  1  0.26089984  0.38052994  0.95487193  1
  S2-  S204  1  0.23854060  0.62109561  0.45599368  1
  S2-  S205  1  0.25636020  0.63020843  0.94877421  1
  S2-  S206  1  0.24440858  0.87808160  0.45126119  1
  S2-  S207  1  0.25163178  0.87978053  0.94932554  1
  S2-  S208  1  0.49005748  0.12472108  0.45291424  1
  S2-  S209  1  0.51025211  0.12293229  0.95561180  1
  S2-  S210  1  0.48957199  0.37551484  0.46310241  1
  S2-  S211  1  0.50527892  0.38304438  0.95933002  1
  S2-  S212  1  0.49248099  0.62121279  0.45049806  1
  S2-  S213  1  0.50377330  0.63076258  0.95273460  1
  S2-  S214  1  0.48340148  0.88159175  0.44099954  1
  S2-  S215  1  0.50713807  0.88039701  0.94707554  1
  S2-  S216  1  0.73498647  0.12550294  0.45734219  1
  S2-  S217  1  0.75245636  0.13800396  0.94710177  1
  S2-  S218  1  0.73893250  0.36759935  0.46214447  1
  S2-  S219  1  0.74821404  0.37862016  0.95034355  1
  S2-  S220  1  0.73845784  0.63050661  0.44652802  1
  S2-  S221  1  0.75762310  0.62789737  0.94717903  1
  S2-  S222  1  0.73661054  0.87660217  0.44698023  1
  S2-  S223  1  0.75851337  0.87387263  0.95892601  1
  S2-  S224  1  0.12695863  0.00259759  0.05382622  1
  S2-  S225  1  0.11834495  -0.00048922  0.55134479  1
  S2-  S226  1  0.13373061  0.25220239  0.03613934  1
  S2-  S227  1  0.11855126  0.24713080  0.56174801  1
  S2-  S228  1  0.13631078  0.50581117  0.04356572  1
  S2-  S229  1  0.11132928  0.50293649  0.54476745  1
  S2-  S230  1  0.12863916  0.75261668  0.05273747  1
  S2-  S231  1  0.11986419  0.74858183  0.54749378  1
  S2-  S232  1  0.38329444  -0.00246698  0.04912878  1
  S2-  S233  1  0.36747231  0.00031208  0.55115353  1
  S2-  S234  1  0.38074231  0.24692036  0.03442175  1
  S2-  S235  1  0.36925036  0.25246171  0.55823286  1
  S2-  S236  1  0.38088487  0.50841895  0.04696464  1
  S2-  S237  1  0.36468715  0.50112620  0.53787404  1
  S2-  S238  1  0.38269950  0.75738803  0.04883411  1
  S2-  S239  1  0.36290740  0.74461887  0.54010634  1
  S2-  S240  1  0.62959048  0.00265381  0.04555219  1
  S2-  S241  1  0.61473498  -0.00381108  0.54428326  1
  S2-  S242  1  0.62684829  0.25510716  0.04884062  1
  S2-  S243  1  0.61642149  0.25260194  0.55732642  1
  S2-  S244  1  0.62931519  0.50613951  0.04642129  1
  S2-  S245  1  0.62280468  0.49783030  0.54663082  1
  S2-  S246  1  0.63097531  0.75315590  0.04860442  1
  S2-  S247  1  0.61469753  0.75032739  0.54154039  1
  S2-  S248  1  0.87953374  0.01058279  0.03852361  1
  S2-  S249  1  0.86211498  -0.00393543  0.54856133  1
  S2-  S250  1  0.87731307  0.25720992  0.03753478  1
  S2-  S251  1  0.86866095  0.24554033  0.54756908  1
  S2-  S252  1  0.87820417  0.50149940  0.04329861  1
  S2-  S253  1  0.86790410  0.50342817  0.53421824  1
  S2-  S254  1  0.88445975  0.74636394  0.04331528  1
  S2-  S255  1  0.86174500  0.75513837  0.54200558  1
