# generated using pymatgen
data_La9Ce10Pr6Nd4Sm3(BiS2)32
_symmetry_space_group_name_H-M   'P 1'
_cell_length_a   16.12412486
_cell_length_b   16.17746537
_cell_length_c   27.10617237
_cell_angle_alpha   90.10931118
_cell_angle_beta   90.09336799
_cell_angle_gamma   89.89572282
_symmetry_Int_Tables_number   1
_chemical_formula_structural   La9Ce10Pr6Nd4Sm3(BiS2)32
_chemical_formula_sum   'La18 Ce20 Pr12 Nd8 Sm6 Bi64 S128'
_cell_volume   7070.54260169
_cell_formula_units_Z   2
loop_
 _symmetry_equiv_pos_site_id
 _symmetry_equiv_pos_as_xyz
  1  'x, y, z'
loop_
 _atom_type_symbol
 _atom_type_oxidation_number
  La3+  3.0
  Ce3+  3.0
  Pr3+  3.0
  Nd3+  3.0
  Sm3+  3.0
  Bi2+  2.0
  S2-  -2.0
loop_
 _atom_site_type_symbol
 _atom_site_label
 _atom_site_symmetry_multiplicity
 _atom_site_fract_x
 _atom_site_fract_y
 _atom_site_fract_z
 _atom_site_occupancy
  La3+  La0  1  0.26601982  0.63117037  0.10475488  1
  La3+  La1  1  0.39183972  0.25419126  0.92846920  1
  La3+  La2  1  0.14745706  0.01284287  0.91967797  1
  La3+  La3  1  0.10943868  -0.01981282  0.42247391  1
  La3+  La4  1  0.73587953  0.35306115  0.57815079  1
  La3+  La5  1  0.01747328  0.13170369  0.06318868  1
  La3+  La6  1  0.13856099  0.75868507  0.93395219  1
  La3+  La7  1  0.64274143  0.51220143  0.92615152  1
  La3+  La8  1  0.14617589  0.50878300  0.93325570  1
  La3+  La9  1  0.48586055  0.10346206  0.57161251  1
  La3+  La10  1  0.76551065  0.37866027  0.05597939  1
  La3+  La11  1  0.90006740  0.50402632  0.91698787  1
  La3+  La12  1  0.10608712  0.72491781  0.42126970  1
  La3+  La13  1  -0.00984003  0.85563283  0.56778345  1
  La3+  La14  1  0.51490140  0.88170608  0.07701017  1
  La3+  La15  1  0.36338092  0.47885115  0.43566931  1
  La3+  La16  1  0.38482465  0.76030959  0.94110078  1
  La3+  La17  1  0.23744589  0.60526063  0.56650701  1
  Ce3+  Ce18  1  0.77102334  0.62961938  0.05737428  1
  Ce3+  Ce19  1  -0.00933278  0.35629897  0.56317035  1
  Ce3+  Ce20  1  0.51283608  0.63249258  0.06045441  1
  Ce3+  Ce21  1  0.86300011  -0.02143743  0.43546450  1
  Ce3+  Ce22  1  0.63424575  0.00436540  0.94269711  1
  Ce3+  Ce23  1  0.61747415  0.47877443  0.43821722  1
  Ce3+  Ce24  1  0.73333779  0.60809316  0.56103361  1
  Ce3+  Ce25  1  0.51507029  0.38447403  0.05063791  1
  Ce3+  Ce26  1  0.38281852  0.51065223  0.94175210  1
  Ce3+  Ce27  1  0.23358042  0.10753808  0.55069497  1
  Ce3+  Ce28  1  0.36643002  0.23246231  0.44261985  1
  Ce3+  Ce29  1  -0.01558155  0.60156226  0.55509361  1
  Ce3+  Ce30  1  0.73706675  0.10441571  0.56110159  1
  Ce3+  Ce31  1  0.49099126  0.60823336  0.55095011  1
  Ce3+  Ce32  1  0.48888869  0.86086870  0.56444366  1
  Ce3+  Ce33  1  0.22978368  0.85059680  0.56468771  1
  Ce3+  Ce34  1  0.48484222  0.35372977  0.58893473  1
  Ce3+  Ce35  1  0.10903567  0.23847683  0.42833315  1
  Ce3+  Ce36  1  0.88676734  0.00540507  0.94736978  1
  Ce3+  Ce37  1  0.74372697  0.86263126  0.57017982  1
  Pr3+  Pr38  1  0.01595508  0.38337916  0.05609096  1
  Pr3+  Pr39  1  0.76325701  0.88124545  0.07250842  1
  Pr3+  Pr40  1  0.10557649  0.47614593  0.42797054  1
  Pr3+  Pr41  1  0.86106989  0.23135329  0.43372396  1
  Pr3+  Pr42  1  0.63772555  0.26334304  0.91997525  1
  Pr3+  Pr43  1  0.64375137  0.75655994  0.92993485  1
  Pr3+  Pr44  1  0.85973276  0.73355289  0.43842316  1
  Pr3+  Pr45  1  0.36169957  0.73640479  0.43753713  1
  Pr3+  Pr46  1  0.88692376  0.25211086  0.92169692  1
  Pr3+  Pr47  1  0.89067743  0.76077352  0.93616540  1
  Pr3+  Pr48  1  0.01281385  0.63169194  0.06424223  1
  Pr3+  Pr49  1  0.26635139  0.38236281  0.06434890  1
  Nd3+  Nd50  1  0.51603214  0.13900832  0.06257481  1
  Nd3+  Nd51  1  0.76409435  0.13389365  0.05576341  1
  Nd3+  Nd52  1  -0.01101300  0.10773249  0.55579977  1
  Nd3+  Nd53  1  0.35976858  -0.01747112  0.44121904  1
  Nd3+  Nd54  1  0.26882294  0.12923285  0.06768767  1
  Nd3+  Nd55  1  0.85340685  0.47924170  0.43577301  1
  Nd3+  Nd56  1  0.14343499  0.25196741  0.94135046  1
  Nd3+  Nd57  1  0.61262128  0.74081508  0.43500111  1
  Sm3+  Sm58  1  0.61715406  0.22671413  0.43636527  1
  Sm3+  Sm59  1  0.60925018  -0.01557898  0.43510657  1
  Sm3+  Sm60  1  0.26258909  0.88486632  0.06895009  1
  Sm3+  Sm61  1  0.39680268  0.00425397  0.94092293  1
  Sm3+  Sm62  1  0.01968423  0.88252406  0.05905471  1
  Sm3+  Sm63  1  0.23537963  0.35422079  0.56559114  1
  Bi2+  Bi64  1  -0.02330934  0.10865993  0.27877393  1
  Bi2+  Bi65  1  -0.05910883  0.13484923  0.79190275  1
  Bi2+  Bi66  1  0.02060912  0.35245593  0.28877436  1
  Bi2+  Bi67  1  0.02601242  0.30894704  0.77208629  1
  Bi2+  Bi68  1  -0.01316771  0.59548112  0.28820202  1
  Bi2+  Bi69  1  -0.04151881  0.63300629  0.78188527  1
  Bi2+  Bi70  1  -0.04530518  0.86265983  0.28006677  1
  Bi2+  Bi71  1  -0.06257557  0.86985252  0.80014667  1
  Bi2+  Bi72  1  0.24053829  0.15013531  0.28010866  1
  Bi2+  Bi73  1  0.27429074  0.19042476  0.81836340  1
  Bi2+  Bi74  1  0.28748198  0.36252181  0.28314404  1
  Bi2+  Bi75  1  0.21342823  0.37600801  0.80117594  1
  Bi2+  Bi76  1  0.27760101  0.64572691  0.32087707  1
  Bi2+  Bi77  1  0.17530681  0.59640651  0.79365106  1
  Bi2+  Bi78  1  0.28521459  0.89399277  0.29848746  1
  Bi2+  Bi79  1  0.20784696  0.81525157  0.77755791  1
  Bi2+  Bi80  1  0.51463800  0.21097102  0.28965799  1
  Bi2+  Bi81  1  0.51631512  0.10217273  0.78543242  1
  Bi2+  Bi82  1  0.55434478  0.40378573  0.28983179  1
  Bi2+  Bi83  1  0.41243813  0.35923020  0.79456301  1
  Bi2+  Bi84  1  0.59755180  0.63509920  0.31131832  1
  Bi2+  Bi85  1  0.43334941  0.65299160  0.77476694  1
  Bi2+  Bi86  1  0.53710324  0.98037620  0.29284686  1
  Bi2+  Bi87  1  0.48623671  0.82439035  0.82329868  1
  Bi2+  Bi88  1  0.78808459  0.08933834  0.27811957  1
  Bi2+  Bi89  1  0.73126139  0.11175310  0.77151362  1
  Bi2+  Bi90  1  0.77041899  0.35915789  0.29166142  1
  Bi2+  Bi91  1  0.77402208  0.35804147  0.78380309  1
  Bi2+  Bi92  1  0.78436750  0.69549262  0.31512278  1
  Bi2+  Bi93  1  0.67942798  0.55318565  0.77958968  1
  Bi2+  Bi94  1  0.76709294  0.90494937  0.31573709  1
  Bi2+  Bi95  1  0.67367728  0.85855784  0.78959683  1
  Bi2+  Bi96  1  0.11157331  0.01450691  0.20625971  1
  Bi2+  Bi97  1  0.13768409  -0.01408607  0.73496548  1
  Bi2+  Bi98  1  0.11649549  0.24218459  0.20610108  1
  Bi2+  Bi99  1  0.11006612  0.17377197  0.70137820  1
  Bi2+  Bi100  1  0.13838191  0.49954931  0.21051142  1
  Bi2+  Bi101  1  0.13719610  0.46739409  0.70556594  1
  Bi2+  Bi102  1  0.13987393  0.76016840  0.21778231  1
  Bi2+  Bi103  1  0.09327939  0.75273868  0.69563080  1
  Bi2+  Bi104  1  0.38286569  0.05353170  0.20630277  1
  Bi2+  Bi105  1  0.33284229  0.02456985  0.76089903  1
  Bi2+  Bi106  1  0.30660855  0.24350974  0.18260284  1
  Bi2+  Bi107  1  0.34345621  0.24503997  0.70693096  1
  Bi2+  Bi108  1  0.46210472  0.46729431  0.19603920  1
  Bi2+  Bi109  1  0.29576115  0.58219602  0.69938650  1
  Bi2+  Bi110  1  0.40204959  0.75965599  0.21673180  1
  Bi2+  Bi111  1  0.38900235  0.84312713  0.72372802  1
  Bi2+  Bi112  1  0.65574223  0.01475389  0.20611255  1
  Bi2+  Bi113  1  0.60662355  -0.00764690  0.71048470  1
  Bi2+  Bi114  1  0.64309585  0.27488431  0.21680709  1
  Bi2+  Bi115  1  0.61728170  0.25736890  0.71522895  1
  Bi2+  Bi116  1  0.63615221  0.55168278  0.20831578  1
  Bi2+  Bi117  1  0.48411234  0.48472578  0.71827198  1
  Bi2+  Bi118  1  0.64955011  0.74873776  0.22439313  1
  Bi2+  Bi119  1  0.56812985  0.75057115  0.70321913  1
  Bi2+  Bi120  1  0.83984612  -0.05585486  0.19736842  1
  Bi2+  Bi121  1  0.86994806  -0.03156547  0.70912568  1
  Bi2+  Bi122  1  0.88890648  0.28360234  0.17827001  1
  Bi2+  Bi123  1  0.87453364  0.22639580  0.69847275  1
  Bi2+  Bi124  1  0.83222343  0.52893158  0.22981279  1
  Bi2+  Bi125  1  0.89457155  0.51437424  0.70296691  1
  Bi2+  Bi126  1  0.85093198  0.74388594  0.20279682  1
  Bi2+  Bi127  1  0.76435936  0.74526336  0.70979740  1
  S2-  S128  1  -0.01087738  0.13593866  0.16395415  1
  S2-  S129  1  -0.02888114  0.08479398  0.65618395  1
  S2-  S130  1  0.02316413  0.39779292  0.15813945  1
  S2-  S131  1  0.11131009  0.34364625  0.63860139  1
  S2-  S132  1  0.10132984  0.63596137  0.15272777  1
  S2-  S133  1  0.01945870  0.60891875  0.65265809  1
  S2-  S134  1  0.05670628  0.88351567  0.15814842  1
  S2-  S135  1  -0.12851740  0.83419257  0.64583107  1
  S2-  S136  1  0.24342301  0.01285323  0.14315128  1
  S2-  S137  1  0.24737530  0.12296942  0.64923711  1
  S2-  S138  1  0.26585416  0.46852006  0.15280127  1
  S2-  S139  1  0.34082891  0.37246550  0.64687799  1
  S2-  S140  1  0.25499063  0.62807707  0.22749084  1
  S2-  S141  1  0.23864595  0.72450336  0.64211760  1
  S2-  S142  1  0.26172176  0.78790362  0.15500937  1
  S2-  S143  1  0.11546848  0.89382985  0.64109365  1
  S2-  S144  1  0.51887601  0.09807115  0.16041411  1
  S2-  S145  1  0.48896335  0.21215290  0.65335186  1
  S2-  S146  1  0.52471618  0.33495528  0.14456862  1
  S2-  S147  1  0.61265330  0.39042819  0.65629213  1
  S2-  S148  1  0.43688298  0.63259946  0.15147052  1
  S2-  S149  1  0.50453517  0.61348481  0.64936925  1
  S2-  S150  1  0.43374533  0.89419322  0.17088638  1
  S2-  S151  1  0.48113428  0.96954575  0.64215592  1
  S2-  S152  1  0.75873129  0.20051146  0.14785560  1
  S2-  S153  1  0.73122387  0.20812092  0.64192130  1
  S2-  S154  1  0.79195811  0.41052898  0.15493087  1
  S2-  S155  1  0.88243919  0.37468709  0.64393738  1
  S2-  S156  1  0.87756898  0.61726624  0.13656183  1
  S2-  S157  1  0.75616924  0.58760440  0.66083543  1
  S2-  S158  1  0.64454262  0.86602204  0.14793874  1
  S2-  S159  1  0.73866630  0.99222658  0.64038147  1
  S2-  S160  1  0.17906561  0.01103696  0.32701636  1
  S2-  S161  1  0.08676436  -0.05970124  0.82745338  1
  S2-  S162  1  0.15235797  0.35514322  0.35378905  1
  S2-  S163  1  0.12288760  0.15999867  0.85686149  1
  S2-  S164  1  0.12600900  0.58736714  0.34906000  1
  S2-  S165  1  0.04336868  0.53273647  0.84890442  1
  S2-  S166  1  0.16693400  0.79424021  0.32871339  1
  S2-  S167  1  0.00671217  0.74997759  0.85582977  1
  S2-  S168  1  0.39617615  0.00204926  0.34323397  1
  S2-  S169  1  0.29768828  0.01130775  0.85855846  1
  S2-  S170  1  0.36288791  0.24027625  0.34271651  1
  S2-  S171  1  0.50723108  0.23910964  0.84881573  1
  S2-  S172  1  0.35530585  0.48804394  0.33375151  1
  S2-  S173  1  0.28370518  0.51256500  0.85975336  1
  S2-  S174  1  0.39606112  0.76681466  0.33743156  1
  S2-  S175  1  0.26658919  0.75573646  0.86150309  1
  S2-  S176  1  0.58752325  0.10459299  0.35948777  1
  S2-  S177  1  0.52301833  -0.00936421  0.86569404  1
  S2-  S178  1  0.74045644  0.24642912  0.35871394  1
  S2-  S179  1  0.75692680  0.22639518  0.84651389  1
  S2-  S180  1  0.72777437  0.47749584  0.36187047  1
  S2-  S181  1  0.64712077  0.41156815  0.83924397  1
  S2-  S182  1  0.61238968  0.86391761  0.36000969  1
  S2-  S183  1  0.61612152  0.63469124  0.85142054  1
  S2-  S184  1  0.96880376  -0.02021864  0.35347601  1
  S2-  S185  1  0.87168579  0.01114076  0.84923921  1
  S2-  S186  1  0.98230108  0.22403954  0.35330314  1
  S2-  S187  1  0.91239875  0.36625255  0.84385803  1
  S2-  S188  1  0.95641318  0.46348951  0.35147845  1
  S2-  S189  1  0.82156251  0.56543446  0.82888377  1
  S2-  S190  1  0.96013960  0.73254288  0.35273768  1
  S2-  S191  1  0.77307025  0.79315216  0.85911109  1
  S2-  S192  1  -0.01242568  0.10615184  0.45183643  1
  S2-  S193  1  0.00947710  0.13097175  0.95498356  1
  S2-  S194  1  -0.01799259  0.35707223  0.45714557  1
  S2-  S195  1  0.02199828  0.37471648  0.94929424  1
  S2-  S196  1  -0.02003018  0.60177654  0.45189169  1
  S2-  S197  1  0.01467739  0.63231208  0.95787154  1
  S2-  S198  1  -0.01246950  0.85524086  0.45688485  1
  S2-  S199  1  0.01602090  0.88966380  0.95483098  1
  S2-  S200  1  0.23625002  0.11114376  0.44402298  1
  S2-  S201  1  0.27156912  0.13202218  0.96183079  1
  S2-  S202  1  0.24148570  0.35615532  0.45992089  1
  S2-  S203  1  0.26715086  0.37560594  0.95593522  1
  S2-  S204  1  0.24081028  0.60667386  0.45485902  1
  S2-  S205  1  0.26414812  0.63352404  0.96222146  1
  S2-  S206  1  0.23463198  0.85636919  0.45246001  1
  S2-  S207  1  0.26528221  0.88886567  0.96221662  1
  S2-  S208  1  0.48322041  0.10460840  0.46164936  1
  S2-  S209  1  0.51658759  0.13290272  0.95688746  1
  S2-  S210  1  0.49439710  0.35367155  0.44001495  1
  S2-  S211  1  0.51138091  0.38872391  0.94597936  1
  S2-  S212  1  0.49072405  0.61029445  0.44435139  1
  S2-  S213  1  0.50905666  0.63279930  0.95487878  1
  S2-  S214  1  0.48420434  0.86059421  0.45801247  1
  S2-  S215  1  0.51795842  0.87609066  0.96615838  1
  S2-  S216  1  0.73892199  0.09942240  0.45394678  1
  S2-  S217  1  0.75998176  0.12861804  0.95107343  1
  S2-  S218  1  0.73369522  0.35350608  0.46513063  1
  S2-  S219  1  0.76707880  0.38212565  0.94724822  1
  S2-  S220  1  0.73139801  0.61411175  0.45592544  1
  S2-  S221  1  0.76985442  0.63141799  0.95293867  1
  S2-  S222  1  0.73880463  0.85916393  0.46052476  1
  S2-  S223  1  0.76013847  0.88660320  0.96504018  1
  S2-  S224  1  0.13790157  0.00826167  0.04062650  1
  S2-  S225  1  0.11244469  -0.01555350  0.53418637  1
  S2-  S226  1  0.14320242  0.25555306  0.04935955  1
  S2-  S227  1  0.11199620  0.23008493  0.53657917  1
  S2-  S228  1  0.14105358  0.50612739  0.04483903  1
  S2-  S229  1  0.11428914  0.48222366  0.54063040  1
  S2-  S230  1  0.13942737  0.76249256  0.04592919  1
  S2-  S231  1  0.10823557  0.72623220  0.53754937  1
  S2-  S232  1  0.39410238  0.00935449  0.04764868  1
  S2-  S233  1  0.35193323  -0.02285704  0.54661798  1
  S2-  S234  1  0.39051234  0.25773758  0.04225339  1
  S2-  S235  1  0.36055410  0.23252274  0.54678634  1
  S2-  S236  1  0.39023743  0.50726889  0.04640101  1
  S2-  S237  1  0.36773772  0.48309661  0.54448731  1
  S2-  S238  1  0.38791730  0.75913198  0.05077515  1
  S2-  S239  1  0.36672624  0.73370659  0.54493750  1
  S2-  S240  1  0.63980635  0.01115640  0.04973446  1
  S2-  S241  1  0.61215058  -0.02049584  0.54018813  1
  S2-  S242  1  0.63904806  0.25742343  0.03526330  1
  S2-  S243  1  0.60627802  0.23154892  0.54209749  1
  S2-  S244  1  0.64047851  0.50878140  0.04424045  1
  S2-  S245  1  0.60969362  0.48204830  0.54418644  1
  S2-  S246  1  0.64327214  0.74969308  0.04479870  1
  S2-  S247  1  0.61416621  0.73809103  0.54602872  1
  S2-  S248  1  0.88936073  0.00634105  0.05525999  1
  S2-  S249  1  0.86780651  -0.01772800  0.54101093  1
  S2-  S250  1  0.89175267  0.25513708  0.03799401  1
  S2-  S251  1  0.86550847  0.22873635  0.54215998  1
  S2-  S252  1  0.89099193  0.50215825  0.03375865  1
  S2-  S253  1  0.85654447  0.48440068  0.54261609  1
  S2-  S254  1  0.89160635  0.76502448  0.04588606  1
  S2-  S255  1  0.86070370  0.72645206  0.54456799  1
