# generated using pymatgen
data_La9Ce10Pr6Nd4Sm3(BiS2)32
_symmetry_space_group_name_H-M   'P 1'
_cell_length_a   16.23440629
_cell_length_b   16.22663451
_cell_length_c   27.08287868
_cell_angle_alpha   90.08464007
_cell_angle_beta   90.01032106
_cell_angle_gamma   90.02543872
_symmetry_Int_Tables_number   1
_chemical_formula_structural   La9Ce10Pr6Nd4Sm3(BiS2)32
_chemical_formula_sum   'La18 Ce20 Pr12 Nd8 Sm6 Bi64 S128'
_cell_volume   7134.42809387
_cell_formula_units_Z   2
loop_
 _symmetry_equiv_pos_site_id
 _symmetry_equiv_pos_as_xyz
  1  'x, y, z'
loop_
 _atom_type_symbol
 _atom_type_oxidation_number
  La3+  3.0
  Ce3+  3.0
  Pr3+  3.0
  Nd3+  3.0
  Sm3+  3.0
  Bi2+  2.0
  S2-  -2.0
loop_
 _atom_site_type_symbol
 _atom_site_label
 _atom_site_symmetry_multiplicity
 _atom_site_fract_x
 _atom_site_fract_y
 _atom_site_fract_z
 _atom_site_occupancy
  La3+  La0  1  0.48826873  0.13119749  0.06305913  1
  La3+  La1  1  -0.01676408  0.38458162  0.08731342  1
  La3+  La2  1  0.73793364  0.87876642  0.06536322  1
  La3+  La3  1  0.26195850  0.88378226  0.57897573  1
  La3+  La4  1  0.13888170  -0.00795383  0.42275157  1
  La3+  La5  1  0.48523579  0.62682386  0.09513677  1
  La3+  La6  1  0.25770407  0.62780434  0.57127884  1
  La3+  La7  1  0.88403442  0.75399761  0.43884681  1
  La3+  La8  1  0.63647238  0.51149880  0.41353713  1
  La3+  La9  1  0.75362800  0.88168400  0.56312998  1
  La3+  La10  1  0.00576756  0.12331982  0.56840685  1
  La3+  La11  1  0.50957181  0.13660452  0.57313141  1
  La3+  La12  1  0.11083816  0.25852909  0.93398835  1
  La3+  La13  1  0.24168417  0.87751514  0.06586051  1
  La3+  La14  1  0.00339685  0.61325573  0.61304159  1
  La3+  La15  1  0.85690621  0.76476461  0.91053703  1
  La3+  La16  1  0.89194441  0.25106686  0.42334115  1
  La3+  La17  1  0.35842461  0.25926984  0.92058522  1
  Ce3+  Ce18  1  0.36511163  0.50808832  0.94034042  1
  Ce3+  Ce19  1  0.50339209  0.62755314  0.55955041  1
  Ce3+  Ce20  1  0.50316275  0.87866133  0.55883829  1
  Ce3+  Ce21  1  0.36426068  0.00499102  0.94022167  1
  Ce3+  Ce22  1  0.75520110  0.12906887  0.54584705  1
  Ce3+  Ce23  1  0.75626171  0.62586651  0.56028301  1
  Ce3+  Ce24  1  0.50998501  0.38015067  0.55667224  1
  Ce3+  Ce25  1  0.25390722  0.12494131  0.55930768  1
  Ce3+  Ce26  1  0.62918216  0.25131575  0.43363540  1
  Ce3+  Ce27  1  0.48580736  0.38159680  0.06167814  1
  Ce3+  Ce28  1  0.11486186  0.75403000  0.94134631  1
  Ce3+  Ce29  1  0.74152278  0.38206216  0.05941573  1
  Ce3+  Ce30  1  0.13236244  0.24852584  0.44021788  1
  Ce3+  Ce31  1  -0.01163309  0.62817864  0.05879526  1
  Ce3+  Ce32  1  0.13377011  0.75501191  0.44984806  1
  Ce3+  Ce33  1  0.24151263  0.37815946  0.05551182  1
  Ce3+  Ce34  1  0.38127988  0.50262736  0.43968484  1
  Ce3+  Ce35  1  0.23942473  0.13518072  0.05960754  1
  Ce3+  Ce36  1  0.48986038  0.87801195  0.05155730  1
  Ce3+  Ce37  1  0.61633047  0.75302737  0.94263606  1
  Pr3+  Pr38  1  0.36466030  0.75336072  0.93544824  1
  Pr3+  Pr39  1  0.00358164  0.37471207  0.56191190  1
  Pr3+  Pr40  1  0.00687005  0.87372953  0.56996915  1
  Pr3+  Pr41  1  0.62902375  0.75684440  0.43687763  1
  Pr3+  Pr42  1  0.86613158  0.00443541  0.94105806  1
  Pr3+  Pr43  1  0.86864865  0.25729179  0.93375794  1
  Pr3+  Pr44  1  0.25176011  0.37851737  0.55782815  1
  Pr3+  Pr45  1  0.62782458  0.00149227  0.43158550  1
  Pr3+  Pr46  1  0.61418377  0.25516905  0.94551569  1
  Pr3+  Pr47  1  0.61543452  0.50658308  0.94390690  1
  Pr3+  Pr48  1  0.24077934  0.62538165  0.06408345  1
  Pr3+  Pr49  1  0.75669863  0.38065688  0.55221233  1
  Nd3+  Nd50  1  -0.00474667  0.13061098  0.06711589  1
  Nd3+  Nd51  1  0.74472815  0.13145398  0.05651161  1
  Nd3+  Nd52  1  0.11423810  0.00092872  0.94393259  1
  Nd3+  Nd53  1  0.37713457  0.74983533  0.43494266  1
  Nd3+  Nd54  1  0.12746602  0.50480225  0.43512546  1
  Nd3+  Nd55  1  0.88589503  0.50328592  0.43443958  1
  Nd3+  Nd56  1  0.86655975  0.50610320  0.93857166  1
  Nd3+  Nd57  1  0.38123089  0.25253181  0.44013377  1
  Sm3+  Sm58  1  0.88567313  0.00316116  0.43981770  1
  Sm3+  Sm59  1  0.61550764  0.00657349  0.94180599  1
  Sm3+  Sm60  1  0.38033927  0.00364748  0.44446364  1
  Sm3+  Sm61  1  0.74136497  0.63003655  0.05967090  1
  Sm3+  Sm62  1  0.11193243  0.50628762  0.94343962  1
  Sm3+  Sm63  1  -0.01154901  0.87762951  0.05906519  1
  Bi2+  Bi64  1  -0.02029629  0.12653883  0.30030437  1
  Bi2+  Bi65  1  -0.02430498  0.13609472  0.77307079  1
  Bi2+  Bi66  1  -0.00266245  0.36678058  0.28214103  1
  Bi2+  Bi67  1  -0.04707711  0.35407112  0.78221999  1
  Bi2+  Bi68  1  0.00609939  0.64547682  0.32066821  1
  Bi2+  Bi69  1  0.01712369  0.59888398  0.82338185  1
  Bi2+  Bi70  1  0.03893770  0.87498567  0.26370220  1
  Bi2+  Bi71  1  0.00555065  0.87664788  0.80695832  1
  Bi2+  Bi72  1  0.37455126  0.13391725  0.30857566  1
  Bi2+  Bi73  1  0.29366324  0.17417293  0.76727659  1
  Bi2+  Bi74  1  0.21358795  0.38969833  0.28936029  1
  Bi2+  Bi75  1  0.24643519  0.38189736  0.79279699  1
  Bi2+  Bi76  1  0.19790750  0.59022686  0.31427751  1
  Bi2+  Bi77  1  0.32978132  0.60912043  0.80049793  1
  Bi2+  Bi78  1  0.26799638  0.84786048  0.30204767  1
  Bi2+  Bi79  1  0.25943032  0.91862584  0.79745024  1
  Bi2+  Bi80  1  0.56872842  0.11885611  0.32450942  1
  Bi2+  Bi81  1  0.53369131  0.12840842  0.79372188  1
  Bi2+  Bi82  1  0.43115223  0.33753138  0.25861687  1
  Bi2+  Bi83  1  0.58112111  0.39242957  0.77408295  1
  Bi2+  Bi84  1  0.48685807  0.62873774  0.29566578  1
  Bi2+  Bi85  1  0.51595468  0.65806470  0.79620222  1
  Bi2+  Bi86  1  0.51840653  0.94652825  0.28381801  1
  Bi2+  Bi87  1  0.53324361  0.85087603  0.76009829  1
  Bi2+  Bi88  1  0.73955686  0.09819744  0.26492986  1
  Bi2+  Bi89  1  0.77538923  0.14244518  0.76885709  1
  Bi2+  Bi90  1  0.74879279  0.37641658  0.28221184  1
  Bi2+  Bi91  1  0.77085709  0.32236541  0.80969461  1
  Bi2+  Bi92  1  0.75863857  0.63599639  0.28757569  1
  Bi2+  Bi93  1  0.70958600  0.62576981  0.78255322  1
  Bi2+  Bi94  1  0.73888112  0.90970800  0.28591395  1
  Bi2+  Bi95  1  0.71750915  0.89178487  0.78970985  1
  Bi2+  Bi96  1  0.16878042  0.01910771  0.23872553  1
  Bi2+  Bi97  1  0.12599734  0.02775518  0.71819911  1
  Bi2+  Bi98  1  0.20769291  0.22055938  0.22961167  1
  Bi2+  Bi99  1  0.14247688  0.21630172  0.69726729  1
  Bi2+  Bi100  1  0.11162697  0.50881748  0.21854341  1
  Bi2+  Bi101  1  0.12689642  0.47186472  0.71344337  1
  Bi2+  Bi102  1  0.12975013  0.70870650  0.22608362  1
  Bi2+  Bi103  1  0.12862369  0.72733131  0.72752070  1
  Bi2+  Bi104  1  0.36705916  0.02423447  0.21576779  1
  Bi2+  Bi105  1  0.37429334  -0.00531299  0.71501236  1
  Bi2+  Bi106  1  0.34536735  0.28533581  0.16036393  1
  Bi2+  Bi107  1  0.38688202  0.31840217  0.70970555  1
  Bi2+  Bi108  1  0.34796913  0.49322073  0.20757796  1
  Bi2+  Bi109  1  0.44844512  0.50609134  0.71690275  1
  Bi2+  Bi110  1  0.39353582  0.78895993  0.19762041  1
  Bi2+  Bi111  1  0.37150605  0.74666494  0.71030722  1
  Bi2+  Bi112  1  0.61419711  0.00811297  0.18842192  1
  Bi2+  Bi113  1  0.63615435  -0.00787503  0.70397768  1
  Bi2+  Bi114  1  0.60698313  0.26594564  0.23086319  1
  Bi2+  Bi115  1  0.65363907  0.25768259  0.70372716  1
  Bi2+  Bi116  1  0.60707645  0.46108991  0.22585648  1
  Bi2+  Bi117  1  0.61131657  0.51816000  0.64796742  1
  Bi2+  Bi118  1  0.66056981  0.76136829  0.22444477  1
  Bi2+  Bi119  1  0.61318402  0.70391338  0.69431446  1
  Bi2+  Bi120  1  0.88715858  -0.03212570  0.20539195  1
  Bi2+  Bi121  1  0.87041241  0.01159682  0.70269521  1
  Bi2+  Bi122  1  0.86824583  0.23263028  0.18939777  1
  Bi2+  Bi123  1  0.95946203  0.25520153  0.67942117  1
  Bi2+  Bi124  1  0.85447028  0.52717481  0.20784220  1
  Bi2+  Bi125  1  0.75539643  0.46864836  0.71825639  1
  Bi2+  Bi126  1  0.92991417  0.72125294  0.22623965  1
  Bi2+  Bi127  1  0.87153715  0.74873424  0.71081435  1
  S2-  S128  1  -0.04178202  0.10304977  0.16488236  1
  S2-  S129  1  0.00799141  0.00003308  0.64456639  1
  S2-  S130  1  0.00998299  0.30776065  0.17985233  1
  S2-  S131  1  0.00242648  0.44600649  0.65318110  1
  S2-  S132  1  -0.00857718  0.53717630  0.14300165  1
  S2-  S133  1  0.00454517  0.59924182  0.72709356  1
  S2-  S134  1  0.01012683  0.88888110  0.15622546  1
  S2-  S135  1  0.00764834  0.77648171  0.65829183  1
  S2-  S136  1  0.17518163  0.11791135  0.15047287  1
  S2-  S137  1  0.25154748  0.03314777  0.64349057  1
  S2-  S138  1  0.22599995  0.42919426  0.14879528  1
  S2-  S139  1  0.25941803  0.39726044  0.65913996  1
  S2-  S140  1  0.33095229  0.64569278  0.15070889  1
  S2-  S141  1  0.16693137  0.60446704  0.65790732  1
  S2-  S142  1  0.26988693  0.88656164  0.16585850  1
  S2-  S143  1  0.22722418  0.80820227  0.67202915  1
  S2-  S144  1  0.48280305  0.11347438  0.16443640  1
  S2-  S145  1  0.49953122  0.07452548  0.67042789  1
  S2-  S146  1  0.49404616  0.47294565  0.14685803  1
  S2-  S147  1  0.51474576  0.28315841  0.63985011  1
  S2-  S148  1  0.53060234  0.67926460  0.19223693  1
  S2-  S149  1  0.39469727  0.62548583  0.64135665  1
  S2-  S150  1  0.50812779  0.88058752  0.14847477  1
  S2-  S151  1  0.41526335  0.87370522  0.64368584  1
  S2-  S152  1  0.73389672  0.12661131  0.15595670  1
  S2-  S153  1  0.74290727  0.08765041  0.64095290  1
  S2-  S154  1  0.82004253  0.38067065  0.14608619  1
  S2-  S155  1  0.77377444  0.34068645  0.65176297  1
  S2-  S156  1  0.74104594  0.61666397  0.15846825  1
  S2-  S157  1  0.83651410  0.62359820  0.64782219  1
  S2-  S158  1  0.75352237  0.86884341  0.16515427  1
  S2-  S159  1  0.79637669  0.86678650  0.66150976  1
  S2-  S160  1  0.12548119  0.07910105  0.33224776  1
  S2-  S161  1  0.11474936  -0.00483860  0.84400532  1
  S2-  S162  1  0.04502013  0.26338627  0.35562370  1
  S2-  S163  1  0.21945601  0.24666301  0.85308480  1
  S2-  S164  1  0.00492379  0.48386083  0.35628558  1
  S2-  S165  1  0.11920088  0.46679586  0.84634445  1
  S2-  S166  1  0.12837326  0.84064751  0.36254591  1
  S2-  S167  1  0.11138717  0.74744153  0.84141372  1
  S2-  S168  1  0.31035177  -0.01848518  0.35509381  1
  S2-  S169  1  0.37601491  0.00920064  0.84145299  1
  S2-  S170  1  0.33448089  0.29194064  0.34549016  1
  S2-  S171  1  0.42966645  0.23155307  0.82848885  1
  S2-  S172  1  0.35730731  0.56038670  0.34836595  1
  S2-  S173  1  0.36915528  0.45406579  0.84688443  1
  S2-  S174  1  0.40045680  0.77246872  0.33485919  1
  S2-  S175  1  0.32951038  0.77799587  0.83660810  1
  S2-  S176  1  0.62526732  -0.12239361  0.35769995  1
  S2-  S177  1  0.62764593  0.00414158  0.84381980  1
  S2-  S178  1  0.62324718  0.28871039  0.33872356  1
  S2-  S179  1  0.62764103  0.23384937  0.84556793  1
  S2-  S180  1  0.54600460  0.48675585  0.32311082  1
  S2-  S181  1  0.62509171  0.50963243  0.84239781  1
  S2-  S182  1  0.62612856  0.66185465  0.35080865  1
  S2-  S183  1  0.70282159  0.75741146  0.85724395  1
  S2-  S184  1  0.91631344  -0.00003904  0.34223436  1
  S2-  S185  1  0.86909704  -0.07656485  0.85152038  1
  S2-  S186  1  0.85439327  0.26331688  0.32214614  1
  S2-  S187  1  0.98832470  0.24925156  0.85877970  1
  S2-  S188  1  0.78111947  0.50496780  0.35243194  1
  S2-  S189  1  0.88535212  0.49296132  0.83966169  1
  S2-  S190  1  0.86623909  0.75259486  0.33736691  1
  S2-  S191  1  0.90837500  0.73230583  0.81480775  1
  S2-  S192  1  0.00986818  0.12203639  0.45598980  1
  S2-  S193  1  -0.00932518  0.12509066  0.95816178  1
  S2-  S194  1  0.00909802  0.37600368  0.45701921  1
  S2-  S195  1  -0.01151234  0.38580663  0.95920427  1
  S2-  S196  1  0.00953037  0.63162717  0.45105698  1
  S2-  S197  1  -0.01368056  0.63426330  0.95127250  1
  S2-  S198  1  0.00436126  0.88071166  0.45978416  1
  S2-  S199  1  -0.01187597  0.87520316  0.95425555  1
  S2-  S200  1  0.25722802  0.12794791  0.45221148  1
  S2-  S201  1  0.23764470  0.12534769  0.95305566  1
  S2-  S202  1  0.25215918  0.37958488  0.45079078  1
  S2-  S203  1  0.23721839  0.38641985  0.95207025  1
  S2-  S204  1  0.25399302  0.62668446  0.45864267  1
  S2-  S205  1  0.23741733  0.62909816  0.95380856  1
  S2-  S206  1  0.26259099  0.87672708  0.46483959  1
  S2-  S207  1  0.24006622  0.87827180  0.95575470  1
  S2-  S208  1  0.50288132  0.12887161  0.45636871  1
  S2-  S209  1  0.49052024  0.12911227  0.95290364  1
  S2-  S210  1  0.50537025  0.37722421  0.44756125  1
  S2-  S211  1  0.49120271  0.38005260  0.95227882  1
  S2-  S212  1  0.50274861  0.62902029  0.45233605  1
  S2-  S213  1  0.49094553  0.63089634  0.94670372  1
  S2-  S214  1  0.49778475  0.87932261  0.45348249  1
  S2-  S215  1  0.49298671  0.88027336  0.94442931  1
  S2-  S216  1  0.75856272  0.12501917  0.43859360  1
  S2-  S217  1  0.74205170  0.13019383  0.94939060  1
  S2-  S218  1  0.75975238  0.37178671  0.44544620  1
  S2-  S219  1  0.74179254  0.38025385  0.95222113  1
  S2-  S220  1  0.75819916  0.63257304  0.45390069  1
  S2-  S221  1  0.74458746  0.63122832  0.95390591  1
  S2-  S222  1  0.75954111  0.88323994  0.45341620  1
  S2-  S223  1  0.73794356  0.88325567  0.95788492  1
  S2-  S224  1  0.11292012  0.00065292  0.05012572  1
  S2-  S225  1  0.13210840  0.00196250  0.54051265  1
  S2-  S226  1  0.11220350  0.25819728  0.04828899  1
  S2-  S227  1  0.13016559  0.24987119  0.54882053  1
  S2-  S228  1  0.11492484  0.50365969  0.04662127  1
  S2-  S229  1  0.12725989  0.50150108  0.54379961  1
  S2-  S230  1  0.11422151  0.75297960  0.05199820  1
  S2-  S231  1  0.13451771  0.75397264  0.55356088  1
  S2-  S232  1  0.36360609  0.00569107  0.04899510  1
  S2-  S233  1  0.38713139  0.01085061  0.54677105  1
  S2-  S234  1  0.36527766  0.25511810  0.03491394  1
  S2-  S235  1  0.37623350  0.25367078  0.54674906  1
  S2-  S236  1  0.36692641  0.50647109  0.04544260  1
  S2-  S237  1  0.38184754  0.49651755  0.54511202  1
  S2-  S238  1  0.36828174  0.75216613  0.04381336  1
  S2-  S239  1  0.38315816  0.75282635  0.54252107  1
  S2-  S240  1  0.61640484  0.00778373  0.04687662  1
  S2-  S241  1  0.62665395  0.00479298  0.54019809  1
  S2-  S242  1  0.61660370  0.25629734  0.05388613  1
  S2-  S243  1  0.63479491  0.25416840  0.53948729  1
  S2-  S244  1  0.61701503  0.50845666  0.05019853  1
  S2-  S245  1  0.63193101  0.50349131  0.53109526  1
  S2-  S246  1  0.61249494  0.74843721  0.05124708  1
  S2-  S247  1  0.62879111  0.75409800  0.54628512  1
  S2-  S248  1  0.86739934  0.00377922  0.04902410  1
  S2-  S249  1  0.87838997  0.00328626  0.54404343  1
  S2-  S250  1  0.86890930  0.25344594  0.04356362  1
  S2-  S251  1  0.88139712  0.24861090  0.53772421  1
  S2-  S252  1  0.86194132  0.50764426  0.04451563  1
  S2-  S253  1  0.88232544  0.50306016  0.54285736  1
  S2-  S254  1  0.86517554  0.75397628  0.05546218  1
  S2-  S255  1  0.87680478  0.75546191  0.54744833  1
