# generated using pymatgen
data_La9Ce10Pr6Nd4Sm3(BiS2)32
_symmetry_space_group_name_H-M   'P 1'
_cell_length_a   16.16736506
_cell_length_b   16.09294920
_cell_length_c   27.23540677
_cell_angle_alpha   89.94976198
_cell_angle_beta   90.01901965
_cell_angle_gamma   89.92481854
_symmetry_Int_Tables_number   1
_chemical_formula_structural   La9Ce10Pr6Nd4Sm3(BiS2)32
_chemical_formula_sum   'La18 Ce20 Pr12 Nd8 Sm6 Bi64 S128'
_cell_volume   7086.11483953
_cell_formula_units_Z   2
loop_
 _symmetry_equiv_pos_site_id
 _symmetry_equiv_pos_as_xyz
  1  'x, y, z'
loop_
 _atom_type_symbol
 _atom_type_oxidation_number
  La3+  3.0
  Ce3+  3.0
  Pr3+  3.0
  Nd3+  3.0
  Sm3+  3.0
  Bi2+  2.0
  S2-  -2.0
loop_
 _atom_site_type_symbol
 _atom_site_label
 _atom_site_symmetry_multiplicity
 _atom_site_fract_x
 _atom_site_fract_y
 _atom_site_fract_z
 _atom_site_occupancy
  La3+  La0  1  0.49115357  0.11076860  0.07739272  1
  La3+  La1  1  0.25631471  0.85554241  0.08874841  1
  La3+  La2  1  0.36607339  0.73129370  0.92991973  1
  La3+  La3  1  0.75004597  0.14008416  0.58736246  1
  La3+  La4  1  0.24998342  0.13015687  0.56568743  1
  La3+  La5  1  0.37125068  0.76045639  0.42432204  1
  La3+  La6  1  -0.00263445  0.12540196  0.57114040  1
  La3+  La7  1  0.24920139  0.60063954  0.08102142  1
  La3+  La8  1  -0.00998240  0.60900220  0.07500372  1
  La3+  La9  1  0.62694399  0.72629296  0.91207255  1
  La3+  La10  1  0.50467754  0.36530822  0.07324559  1
  La3+  La11  1  0.48761751  0.88278413  0.59347797  1
  La3+  La12  1  0.87711309  0.51590384  0.42804146  1
  La3+  La13  1  -0.00964558  0.88292142  0.56565675  1
  La3+  La14  1  -0.00055893  0.10875771  0.05976312  1
  La3+  La15  1  0.11113533  0.74007882  0.39310356  1
  La3+  La16  1  0.87070483  0.01620246  0.43243893  1
  La3+  La17  1  0.86973637  0.47660570  0.93329065  1
  Ce3+  Ce18  1  0.49446161  0.85641788  0.05245074  1
  Ce3+  Ce19  1  0.73979447  0.87959738  0.56697884  1
  Ce3+  Ce20  1  0.11902659  0.00444570  0.43671881  1
  Ce3+  Ce21  1  0.37818390  0.25475346  0.42722962  1
  Ce3+  Ce22  1  0.87214107  0.26728960  0.43322970  1
  Ce3+  Ce23  1  0.37070986  -0.01735021  0.93013677  1
  Ce3+  Ce24  1  -0.00209541  0.85754087  0.05827643  1
  Ce3+  Ce25  1  0.74245618  0.63201247  0.55350445  1
  Ce3+  Ce26  1  0.61630030  0.51014284  0.44409217  1
  Ce3+  Ce27  1  0.74648539  0.38258402  0.55783433  1
  Ce3+  Ce28  1  0.37462209  0.48390818  0.93302253  1
  Ce3+  Ce29  1  0.12555705  0.50858557  0.44385062  1
  Ce3+  Ce30  1  0.62220968  0.47999848  0.94084196  1
  Ce3+  Ce31  1  0.74404964  0.86188549  0.05628550  1
  Ce3+  Ce32  1  0.74878670  0.10075836  0.06654953  1
  Ce3+  Ce33  1  0.49589470  0.37597057  0.56575131  1
  Ce3+  Ce34  1  0.12500038  -0.02014974  0.94427580  1
  Ce3+  Ce35  1  0.49821095  0.61352631  0.05461559  1
  Ce3+  Ce36  1  0.25231292  0.10828655  0.05480066  1
  Ce3+  Ce37  1  0.61944674  0.25938009  0.44012468  1
  Pr3+  Pr38  1  -0.00655679  0.63154862  0.56455632  1
  Pr3+  Pr39  1  0.24305769  0.62778996  0.57136293  1
  Pr3+  Pr40  1  0.12440472  0.24192377  0.92635260  1
  Pr3+  Pr41  1  0.62014285  0.00931370  0.44929891  1
  Pr3+  Pr42  1  0.61811818  0.76206944  0.43642359  1
  Pr3+  Pr43  1  0.49563732  0.63217800  0.56936266  1
  Pr3+  Pr44  1  -0.00624757  0.38105329  0.55869161  1
  Pr3+  Pr45  1  0.11931470  0.49534258  0.92799865  1
  Pr3+  Pr46  1  0.87157145  -0.01681971  0.92983859  1
  Pr3+  Pr47  1  0.74564831  0.61075484  0.06358372  1
  Pr3+  Pr48  1  0.49506088  0.13481100  0.56641307  1
  Pr3+  Pr49  1  0.37588399  0.23516038  0.93092324  1
  Nd3+  Nd50  1  0.62303713  0.23014416  0.94869590  1
  Nd3+  Nd51  1  0.36977414  0.00738662  0.43343527  1
  Nd3+  Nd52  1  0.36691184  0.50960593  0.45148777  1
  Nd3+  Nd53  1  0.75791507  0.34878076  0.07642832  1
  Nd3+  Nd54  1  0.87192298  0.73128177  0.93659967  1
  Nd3+  Nd55  1  0.24775008  0.87531185  0.55164513  1
  Nd3+  Nd56  1  0.24747612  0.36068755  0.05777596  1
  Nd3+  Nd57  1  -0.00279990  0.35764758  0.05660509  1
  Sm3+  Sm58  1  0.87437060  0.22614031  0.92429522  1
  Sm3+  Sm59  1  0.87114802  0.76251723  0.43909184  1
  Sm3+  Sm60  1  0.61887198  -0.01542423  0.94104230  1
  Sm3+  Sm61  1  0.12259805  0.25497721  0.44478463  1
  Sm3+  Sm62  1  0.24553171  0.37635014  0.56544173  1
  Sm3+  Sm63  1  0.12330331  0.72963940  0.95274147  1
  Bi2+  Bi64  1  0.01404852  0.08841935  0.31324129  1
  Bi2+  Bi65  1  0.06396259  0.16555675  0.76087750  1
  Bi2+  Bi66  1  0.02347800  0.35346702  0.28989790  1
  Bi2+  Bi67  1  0.00293868  0.37600582  0.80778218  1
  Bi2+  Bi68  1  -0.04293595  0.53977665  0.30194845  1
  Bi2+  Bi69  1  0.00092700  0.66740407  0.80375178  1
  Bi2+  Bi70  1  -0.03038432  0.89145117  0.24563241  1
  Bi2+  Bi71  1  0.00725019  0.86754934  0.78975639  1
  Bi2+  Bi72  1  0.24085791  0.14792886  0.28796523  1
  Bi2+  Bi73  1  0.24883564  0.15949166  0.79392273  1
  Bi2+  Bi74  1  0.31763619  0.38815929  0.30006239  1
  Bi2+  Bi75  1  0.36674050  0.42363939  0.75569898  1
  Bi2+  Bi76  1  0.25817689  0.58746193  0.28842051  1
  Bi2+  Bi77  1  0.25371095  0.65791129  0.78449703  1
  Bi2+  Bi78  1  0.24280686  0.88003932  0.28371568  1
  Bi2+  Bi79  1  0.20561161  0.90197991  0.78645228  1
  Bi2+  Bi80  1  0.50925022  0.11959392  0.29886646  1
  Bi2+  Bi81  1  0.50676601  0.19224539  0.80096657  1
  Bi2+  Bi82  1  0.53176067  0.38520523  0.28373872  1
  Bi2+  Bi83  1  0.54501772  0.40419801  0.81936861  1
  Bi2+  Bi84  1  0.51049591  0.61243411  0.28718682  1
  Bi2+  Bi85  1  0.50325905  0.59649328  0.78488308  1
  Bi2+  Bi86  1  0.53344948  0.89117659  0.31144881  1
  Bi2+  Bi87  1  0.47689679  0.90963382  0.80053323  1
  Bi2+  Bi88  1  0.77230189  0.18753334  0.27941000  1
  Bi2+  Bi89  1  0.72851817  0.10876279  0.79149822  1
  Bi2+  Bi90  1  0.71508165  0.36377865  0.24558598  1
  Bi2+  Bi91  1  0.75697088  0.41658012  0.77921407  1
  Bi2+  Bi92  1  0.70945900  0.61585127  0.28330582  1
  Bi2+  Bi93  1  0.80624294  0.61942781  0.78490540  1
  Bi2+  Bi94  1  0.72298590  0.80538366  0.31935888  1
  Bi2+  Bi95  1  0.81460240  0.88667218  0.78777198  1
  Bi2+  Bi96  1  0.13835715  0.06859242  0.20049612  1
  Bi2+  Bi97  1  0.16985088  0.06267887  0.69021540  1
  Bi2+  Bi98  1  0.15722723  0.26341298  0.18563822  1
  Bi2+  Bi99  1  0.13995022  0.32406421  0.69375820  1
  Bi2+  Bi100  1  0.15749740  0.45281926  0.22433274  1
  Bi2+  Bi101  1  0.17944732  0.48294277  0.74995338  1
  Bi2+  Bi102  1  0.10939588  0.71127696  0.20461836  1
  Bi2+  Bi103  1  0.11883175  0.74990936  0.71638406  1
  Bi2+  Bi104  1  0.40262570  0.00185297  0.20784934  1
  Bi2+  Bi105  1  0.34632508  0.01171913  0.72263971  1
  Bi2+  Bi106  1  0.35946135  0.25044199  0.21781008  1
  Bi2+  Bi107  1  0.37798755  0.23582582  0.71960057  1
  Bi2+  Bi108  1  0.41300991  0.45255195  0.20031938  1
  Bi2+  Bi109  1  0.50240748  0.49684263  0.68188151  1
  Bi2+  Bi110  1  0.48138004  0.74787350  0.20656861  1
  Bi2+  Bi111  1  0.36380659  0.78486379  0.71789758  1
  Bi2+  Bi112  1  0.67519360  -0.08208040  0.22666368  1
  Bi2+  Bi113  1  0.58685179  -0.00590945  0.72399036  1
  Bi2+  Bi114  1  0.62008786  0.18112810  0.20720111  1
  Bi2+  Bi115  1  0.59667325  0.31251352  0.71844360  1
  Bi2+  Bi116  1  0.60987108  0.57062772  0.17618231  1
  Bi2+  Bi117  1  0.69895568  0.51051349  0.68265631  1
  Bi2+  Bi118  1  0.65846369  0.75580433  0.16045223  1
  Bi2+  Bi119  1  0.62045156  0.75302561  0.71725433  1
  Bi2+  Bi120  1  0.83734900  0.02886779  0.22243080  1
  Bi2+  Bi121  1  0.88983467  0.00116261  0.70545920  1
  Bi2+  Bi122  1  0.95963765  0.24020892  0.20632179  1
  Bi2+  Bi123  1  0.85439673  0.27634587  0.71424381  1
  Bi2+  Bi124  1  0.85334982  0.49007106  0.21143842  1
  Bi2+  Bi125  1  0.89835213  0.51034780  0.70244235  1
  Bi2+  Bi126  1  0.87022640  0.72302178  0.26013467  1
  Bi2+  Bi127  1  0.87377448  0.74542464  0.70572628  1
  S2-  S128  1  -0.02730017  0.07807102  0.15836546  1
  S2-  S129  1  -0.10381785  0.15412277  0.65281890  1
  S2-  S130  1  -0.09423106  0.36200856  0.14309100  1
  S2-  S131  1  -0.02489494  0.37220518  0.65931341  1
  S2-  S132  1  0.08787073  0.57354508  0.15748644  1
  S2-  S133  1  0.00522368  0.63244439  0.66581103  1
  S2-  S134  1  -0.01177740  0.80692949  0.15172728  1
  S2-  S135  1  0.02967088  0.99027968  0.64645417  1
  S2-  S136  1  0.33983008  0.09633520  0.13900449  1
  S2-  S137  1  0.26475654  0.25561175  0.63903991  1
  S2-  S138  1  0.27039638  0.45295826  0.14344259  1
  S2-  S139  1  0.21039181  0.46875771  0.64907663  1
  S2-  S140  1  0.24588967  0.71891591  0.15781752  1
  S2-  S141  1  0.25946605  0.67709541  0.67002234  1
  S2-  S142  1  0.20601963  0.92335391  0.18452159  1
  S2-  S143  1  0.32326828  0.88534702  0.64380374  1
  S2-  S144  1  0.54772362  0.03426012  0.16717555  1
  S2-  S145  1  0.47622271  0.03562945  0.65175605  1
  S2-  S146  1  0.48646562  0.25430195  0.15132729  1
  S2-  S147  1  0.49832968  0.26227100  0.64104718  1
  S2-  S148  1  0.43153194  0.60442668  0.14658447  1
  S2-  S149  1  0.49341355  0.73079480  0.65516445  1
  S2-  S150  1  0.41468813  0.86550428  0.14196923  1
  S2-  S151  1  0.63783397  0.87451275  0.65269272  1
  S2-  S152  1  0.75243928  0.20362962  0.14416767  1
  S2-  S153  1  0.70875177  0.07913236  0.68549522  1
  S2-  S154  1  0.64970603  0.41060977  0.15043618  1
  S2-  S155  1  0.73922719  0.29786574  0.64497360  1
  S2-  S156  1  0.85511031  0.60754717  0.14433844  1
  S2-  S157  1  0.73070038  0.67542033  0.64862095  1
  S2-  S158  1  0.76212023  0.96370929  0.13657711  1
  S2-  S159  1  0.85961263  0.87382846  0.64068751  1
  S2-  S160  1  0.16412203  0.00191179  0.34055600  1
  S2-  S161  1  0.09922472  -0.01097054  0.84680542  1
  S2-  S162  1  0.11315513  0.23296344  0.34603168  1
  S2-  S163  1  0.00828294  0.21993131  0.84980533  1
  S2-  S164  1  0.11876064  0.56980502  0.35157159  1
  S2-  S165  1  0.14686313  0.37818179  0.85127971  1
  S2-  S166  1  0.09658062  0.80884843  0.29615798  1
  S2-  S167  1  0.14328773  0.65638629  0.86325817  1
  S2-  S168  1  0.38044266  -0.09211165  0.34853593  1
  S2-  S169  1  0.38074249  0.10667969  0.85650543  1
  S2-  S170  1  0.36472955  0.12899819  0.35715799  1
  S2-  S171  1  0.38797459  0.36481988  0.85777870  1
  S2-  S172  1  0.38211044  0.53122949  0.35242784  1
  S2-  S173  1  0.36965272  0.60465399  0.85548616  1
  S2-  S174  1  0.26758577  0.73372674  0.34086788  1
  S2-  S175  1  0.34074794  0.86151599  0.85563774  1
  S2-  S176  1  0.62692331  0.03464167  0.34764937  1
  S2-  S177  1  0.62156092  -0.00979553  0.84092721  1
  S2-  S178  1  0.52399327  0.26422624  0.35743429  1
  S2-  S179  1  0.65496112  0.22449181  0.84822628  1
  S2-  S180  1  0.62588208  0.49545010  0.34648078  1
  S2-  S181  1  0.62484069  0.56284550  0.85319075  1
  S2-  S182  1  0.50922822  0.73591548  0.35681693  1
  S2-  S183  1  0.55513091  0.76072827  0.81759276  1
  S2-  S184  1  0.93135858  -0.04493455  0.34223567  1
  S2-  S185  1  0.84890219  0.09567370  0.85314856  1
  S2-  S186  1  0.87623796  0.15517567  0.35879762  1
  S2-  S187  1  0.84683937  0.35332378  0.85603051  1
  S2-  S188  1  0.88390566  0.39695642  0.35368726  1
  S2-  S189  1  0.98092831  0.52065324  0.85748991  1
  S2-  S190  1  0.93561461  0.69775648  0.35568284  1
  S2-  S191  1  0.77677895  0.75110672  0.85136112  1
  S2-  S192  1  0.00045099  0.13484435  0.46012103  1
  S2-  S193  1  0.00043320  0.10486746  0.95299935  1
  S2-  S194  1  0.00314231  0.38432233  0.45300470  1
  S2-  S195  1  -0.00254607  0.35610675  0.95360654  1
  S2-  S196  1  0.00262276  0.63558257  0.45944077  1
  S2-  S197  1  -0.00702647  0.61371834  0.96488524  1
  S2-  S198  1  -0.00044084  0.87490639  0.45351720  1
  S2-  S199  1  -0.00239438  0.85439889  0.94933953  1
  S2-  S200  1  0.24304592  0.13271272  0.45680872  1
  S2-  S201  1  0.24298403  0.11136735  0.95028123  1
  S2-  S202  1  0.24656072  0.37873898  0.45479334  1
  S2-  S203  1  0.24906159  0.36172339  0.95499932  1
  S2-  S204  1  0.24249794  0.63521746  0.46034677  1
  S2-  S205  1  0.24680639  0.60549962  0.96547807  1
  S2-  S206  1  0.23782128  0.87606140  0.44761262  1
  S2-  S207  1  0.24125369  0.85519343  0.95966560  1
  S2-  S208  1  0.49696840  0.13329558  0.45954851  1
  S2-  S209  1  0.49825503  0.10707635  0.95953184  1
  S2-  S210  1  0.49356874  0.38671596  0.45810470  1
  S2-  S211  1  0.50190265  0.35704465  0.96145870  1
  S2-  S212  1  0.49338697  0.63050573  0.46165548  1
  S2-  S213  1  0.50154498  0.60995813  0.95146625  1
  S2-  S214  1  0.49550409  0.88575857  0.45745714  1
  S2-  S215  1  0.50180809  0.85522559  0.94627837  1
  S2-  S216  1  0.74321604  0.13975955  0.45550605  1
  S2-  S217  1  0.74454463  0.10367191  0.95862751  1
  S2-  S218  1  0.74374715  0.38841071  0.45162517  1
  S2-  S219  1  0.74306238  0.35390513  0.96169235  1
  S2-  S220  1  0.74611506  0.63564135  0.44598188  1
  S2-  S221  1  0.74945201  0.60762773  0.95433211  1
  S2-  S222  1  0.74841827  0.88393313  0.45520443  1
  S2-  S223  1  0.74390997  0.86207654  0.95051017  1
  S2-  S224  1  0.12680646  -0.01986542  0.05248656  1
  S2-  S225  1  0.12671900  0.00422198  0.54169408  1
  S2-  S226  1  0.12488528  0.23468786  0.04202177  1
  S2-  S227  1  0.11819244  0.25492938  0.54935801  1
  S2-  S228  1  0.11814819  0.48068351  0.04303498  1
  S2-  S229  1  0.11834603  0.50522686  0.54777052  1
  S2-  S230  1  0.12292309  0.73371176  0.05424443  1
  S2-  S231  1  0.11903752  0.75801316  0.56344161  1
  S2-  S232  1  0.37089186  -0.01951620  0.03679588  1
  S2-  S233  1  0.37069864  0.00591750  0.54136407  1
  S2-  S234  1  0.37146505  0.23877393  0.04109717  1
  S2-  S235  1  0.37078670  0.25927704  0.53615305  1
  S2-  S236  1  0.37965727  0.48332902  0.04046324  1
  S2-  S237  1  0.36946590  0.50277337  0.55670211  1
  S2-  S238  1  0.37109240  0.73264355  0.04097316  1
  S2-  S239  1  0.36957669  0.75109674  0.54381117  1
  S2-  S240  1  0.61579150  -0.01760487  0.04512805  1
  S2-  S241  1  0.62500302  0.01364757  0.55467462  1
  S2-  S242  1  0.62326299  0.23149102  0.05168726  1
  S2-  S243  1  0.62414720  0.25725061  0.54323466  1
  S2-  S244  1  0.62399966  0.48839983  0.04313005  1
  S2-  S245  1  0.61901123  0.50444086  0.54971086  1
  S2-  S246  1  0.62271593  0.73583222  0.03556591  1
  S2-  S247  1  0.61771359  0.75581630  0.54280936  1
  S2-  S248  1  0.87730077  -0.01926528  0.03712006  1
  S2-  S249  1  0.86515837  0.01152064  0.54304729  1
  S2-  S250  1  0.87537254  0.22807767  0.03663320  1
  S2-  S251  1  0.87115815  0.25825113  0.54088562  1
  S2-  S252  1  0.86852393  0.47979343  0.04180239  1
  S2-  S253  1  0.86964020  0.50789944  0.54215075  1
  S2-  S254  1  0.86823394  0.73996896  0.04203832  1
  S2-  S255  1  0.86832541  0.75258735  0.54185858  1
