# generated using pymatgen
data_La9Ce10Pr6Nd4Sm3(BiS2)32
_symmetry_space_group_name_H-M   'P 1'
_cell_length_a   16.24255017
_cell_length_b   16.24489443
_cell_length_c   27.12099594
_cell_angle_alpha   89.89197980
_cell_angle_beta   90.04995206
_cell_angle_gamma   89.97139690
_symmetry_Int_Tables_number   1
_chemical_formula_structural   La9Ce10Pr6Nd4Sm3(BiS2)32
_chemical_formula_sum   'La18 Ce20 Pr12 Nd8 Sm6 Bi64 S128'
_cell_volume   7156.08931687
_cell_formula_units_Z   2
loop_
 _symmetry_equiv_pos_site_id
 _symmetry_equiv_pos_as_xyz
  1  'x, y, z'
loop_
 _atom_type_symbol
 _atom_type_oxidation_number
  La3+  3.0
  Ce3+  3.0
  Pr3+  3.0
  Nd3+  3.0
  Sm3+  3.0
  Bi2+  2.0
  S2-  -2.0
loop_
 _atom_site_type_symbol
 _atom_site_label
 _atom_site_symmetry_multiplicity
 _atom_site_fract_x
 _atom_site_fract_y
 _atom_site_fract_z
 _atom_site_occupancy
  La3+  La0  1  0.25319764  0.37565116  0.58015977  1
  La3+  La1  1  0.87219083  0.01534147  0.42353343  1
  La3+  La2  1  0.61396738  0.00188593  0.92664824  1
  La3+  La3  1  0.86968584  0.49768540  0.93912134  1
  La3+  La4  1  0.10958221  0.24108850  0.92352289  1
  La3+  La5  1  0.36860849  0.74074691  0.90341200  1
  La3+  La6  1  0.36983011  0.75889267  0.44082041  1
  La3+  La7  1  0.49540504  0.13661819  0.57174522  1
  La3+  La8  1  -0.00855422  0.12530415  0.08667466  1
  La3+  La9  1  0.24251555  0.13401951  0.07102084  1
  La3+  La10  1  -0.01367706  0.14304063  0.57446229  1
  La3+  La11  1  0.49383256  0.11901878  0.06793484  1
  La3+  La12  1  -0.00164459  0.62254609  0.06294193  1
  La3+  La13  1  0.37099881  0.51823411  0.43344379  1
  La3+  La14  1  0.11655933  0.74834282  0.92726061  1
  La3+  La15  1  0.37255086  0.01279763  0.44300272  1
  La3+  La16  1  0.25736342  0.63092893  0.07450285  1
  La3+  La17  1  0.75195880  0.86849509  0.07282849  1
  Ce3+  Ce18  1  0.49529951  0.37555161  0.05833686  1
  Ce3+  Ce19  1  0.74695535  0.63457070  0.56016867  1
  Ce3+  Ce20  1  0.87182958  0.25902489  0.43145355  1
  Ce3+  Ce21  1  0.62338229  0.75848167  0.44538303  1
  Ce3+  Ce22  1  0.11882345  0.76044852  0.43901556  1
  Ce3+  Ce23  1  0.74782495  0.88397494  0.55516492  1
  Ce3+  Ce24  1  0.12607250  0.26163080  0.43715648  1
  Ce3+  Ce25  1  0.61958566  0.50009467  0.93519637  1
  Ce3+  Ce26  1  0.36927284  0.00023271  0.93962537  1
  Ce3+  Ce27  1  0.49596604  0.86895939  0.04779459  1
  Ce3+  Ce28  1  0.86813115  0.00095433  0.94744874  1
  Ce3+  Ce29  1  0.11802910  0.01737494  0.44072561  1
  Ce3+  Ce30  1  0.62246063  0.00925469  0.44396922  1
  Ce3+  Ce31  1  0.00053266  0.63377188  0.56234683  1
  Ce3+  Ce32  1  0.24237737  0.88449750  0.55968390  1
  Ce3+  Ce33  1  0.61900272  0.25926208  0.43733466  1
  Ce3+  Ce34  1  0.87237854  0.50881492  0.44759182  1
  Ce3+  Ce35  1  0.36800208  0.49999655  0.93642342  1
  Ce3+  Ce36  1  0.12506321  0.50935063  0.44708692  1
  Ce3+  Ce37  1  0.25033871  0.86848321  0.04942677  1
  Pr3+  Pr38  1  0.36701522  0.25062154  0.94082784  1
  Pr3+  Pr39  1  -0.00374401  0.37110386  0.06597164  1
  Pr3+  Pr40  1  0.00138626  0.86781582  0.06557744  1
  Pr3+  Pr41  1  0.25050672  0.38234023  0.07107121  1
  Pr3+  Pr42  1  0.49756465  0.88086014  0.56572288  1
  Pr3+  Pr43  1  0.23930465  0.64197711  0.58045752  1
  Pr3+  Pr44  1  0.11840204  0.00299710  0.95016572  1
  Pr3+  Pr45  1  0.48800581  0.63172464  0.57225428  1
  Pr3+  Pr46  1  0.62607026  0.74948076  0.92051999  1
  Pr3+  Pr47  1  0.37846306  0.26150543  0.42693666  1
  Pr3+  Pr48  1  0.74577424  0.38459022  0.55907664  1
  Pr3+  Pr49  1  -0.00763334  0.88938793  0.55608072  1
  Nd3+  Nd50  1  0.12167934  0.49766753  0.94182509  1
  Nd3+  Nd51  1  0.61879222  0.24609609  0.93800032  1
  Nd3+  Nd52  1  0.74396370  0.62369295  0.06243585  1
  Nd3+  Nd53  1  0.24380760  0.13439350  0.55859452  1
  Nd3+  Nd54  1  0.87002747  0.75161248  0.93345930  1
  Nd3+  Nd55  1  0.74332122  0.37294605  0.05881326  1
  Nd3+  Nd56  1  0.49399754  0.38562779  0.55562933  1
  Nd3+  Nd57  1  0.74291756  0.11378897  0.06993073  1
  Sm3+  Sm58  1  -0.00232788  0.38190198  0.55364128  1
  Sm3+  Sm59  1  0.62281701  0.51229038  0.44739988  1
  Sm3+  Sm60  1  0.86808199  0.24461380  0.94666910  1
  Sm3+  Sm61  1  0.87310205  0.75800375  0.44314641  1
  Sm3+  Sm62  1  0.73769325  0.13482832  0.56089345  1
  Sm3+  Sm63  1  0.49652026  0.62685964  0.04994515  1
  Bi2+  Bi64  1  0.00469484  0.07824889  0.29799770  1
  Bi2+  Bi65  1  -0.03085512  0.11650141  0.79683713  1
  Bi2+  Bi66  1  -0.03214088  0.35974927  0.29686552  1
  Bi2+  Bi67  1  0.01716382  0.37761796  0.80686733  1
  Bi2+  Bi68  1  -0.00187050  0.55464908  0.29150442  1
  Bi2+  Bi69  1  0.01492876  0.62270207  0.80944568  1
  Bi2+  Bi70  1  -0.00242312  0.82420104  0.29906636  1
  Bi2+  Bi71  1  -0.03815334  0.86512549  0.76487678  1
  Bi2+  Bi72  1  0.24112177  0.11360721  0.30580182  1
  Bi2+  Bi73  1  0.23127784  0.13738812  0.79923590  1
  Bi2+  Bi74  1  0.23996161  0.39227019  0.28330775  1
  Bi2+  Bi75  1  0.36662346  0.36067287  0.77414112  1
  Bi2+  Bi76  1  0.26069372  0.60693350  0.30733852  1
  Bi2+  Bi77  1  0.24658796  0.59113445  0.77953163  1
  Bi2+  Bi78  1  0.28443228  0.86488858  0.26867538  1
  Bi2+  Bi79  1  0.20606662  0.89411813  0.78562139  1
  Bi2+  Bi80  1  0.51175275  0.13069879  0.29862722  1
  Bi2+  Bi81  1  0.50850106  0.13578845  0.79217494  1
  Bi2+  Bi82  1  0.52866646  0.42485460  0.26499310  1
  Bi2+  Bi83  1  0.54483295  0.38480193  0.82099177  1
  Bi2+  Bi84  1  0.52692407  0.62716040  0.29269142  1
  Bi2+  Bi85  1  0.51882879  0.59173885  0.79384979  1
  Bi2+  Bi86  1  0.53900307  0.87241604  0.25170851  1
  Bi2+  Bi87  1  0.50774014  0.88304448  0.79043898  1
  Bi2+  Bi88  1  0.72669024  0.19336005  0.29635026  1
  Bi2+  Bi89  1  0.78688675  0.13476545  0.75702522  1
  Bi2+  Bi90  1  0.77053566  0.38070465  0.30141887  1
  Bi2+  Bi91  1  0.72355162  0.30040721  0.80969405  1
  Bi2+  Bi92  1  0.76534485  0.63327654  0.28635243  1
  Bi2+  Bi93  1  0.77208115  0.70939016  0.81111061  1
  Bi2+  Bi94  1  0.72280087  0.82023285  0.27723260  1
  Bi2+  Bi95  1  0.76975022  0.89746119  0.78002381  1
  Bi2+  Bi96  1  0.11861747  -0.07937542  0.21871784  1
  Bi2+  Bi97  1  0.16855890  0.01344995  0.70398781  1
  Bi2+  Bi98  1  0.11482578  0.29002237  0.22706319  1
  Bi2+  Bi99  1  0.11436962  0.26899347  0.70309051  1
  Bi2+  Bi100  1  0.03684001  0.46729502  0.19378869  1
  Bi2+  Bi101  1  0.07216800  0.50938679  0.71637484  1
  Bi2+  Bi102  1  0.15797063  0.72763806  0.23174432  1
  Bi2+  Bi103  1  0.12223573  0.77126834  0.71067489  1
  Bi2+  Bi104  1  0.40972221  0.00794621  0.20913149  1
  Bi2+  Bi105  1  0.35364449  0.03135661  0.72817531  1
  Bi2+  Bi106  1  0.36133605  0.23147294  0.19801240  1
  Bi2+  Bi107  1  0.39562483  0.21189391  0.69642068  1
  Bi2+  Bi108  1  0.36256235  0.50246429  0.20521299  1
  Bi2+  Bi109  1  0.46304464  0.48599072  0.70617527  1
  Bi2+  Bi110  1  0.38475070  0.75796792  0.19800057  1
  Bi2+  Bi111  1  0.38328381  0.74382147  0.70319288  1
  Bi2+  Bi112  1  0.66616513  0.02667718  0.24180509  1
  Bi2+  Bi113  1  0.60529647  -0.02658354  0.70315858  1
  Bi2+  Bi114  1  0.65746318  0.31446603  0.20955348  1
  Bi2+  Bi115  1  0.59863277  0.25671089  0.71287866  1
  Bi2+  Bi116  1  0.64342466  0.52005279  0.19098759  1
  Bi2+  Bi117  1  0.65909602  0.45511577  0.73405539  1
  Bi2+  Bi118  1  0.62391433  0.71329560  0.19616984  1
  Bi2+  Bi119  1  0.66596629  0.73831098  0.71394652  1
  Bi2+  Bi120  1  0.85905385  -0.00650532  0.20668088  1
  Bi2+  Bi121  1  0.89682058  0.00545104  0.69283330  1
  Bi2+  Bi122  1  0.88086331  0.24819232  0.21826894  1
  Bi2+  Bi123  1  0.86379320  0.30285574  0.71799076  1
  Bi2+  Bi124  1  0.84739812  0.51829460  0.20344328  1
  Bi2+  Bi125  1  0.87987988  0.49577963  0.73041578  1
  Bi2+  Bi126  1  0.90769368  0.72836661  0.20465702  1
  Bi2+  Bi127  1  0.87970754  0.69255081  0.71435451  1
  S2-  S128  1  0.03364047  0.05030634  0.18764082  1
  S2-  S129  1  0.04908429  0.11324087  0.67113250  1
  S2-  S130  1  0.00944444  0.26760466  0.14746397  1
  S2-  S131  1  -0.01449226  0.30350872  0.64065559  1
  S2-  S132  1  0.03891983  0.69605324  0.15131331  1
  S2-  S133  1  0.09583047  0.64159488  0.64482653  1
  S2-  S134  1  -0.09517097  0.87376590  0.15003271  1
  S2-  S135  1  0.00040127  0.87047627  0.65694765  1
  S2-  S136  1  0.28654733  0.08174870  0.16742472  1
  S2-  S137  1  0.24125882  0.22298965  0.64378816  1
  S2-  S138  1  0.22977807  0.26808937  0.14711600  1
  S2-  S139  1  0.18555354  0.41250269  0.67459826  1
  S2-  S140  1  0.23514088  0.50717855  0.14796674  1
  S2-  S141  1  0.33657424  0.60554575  0.66396507  1
  S2-  S142  1  0.25453933  0.78176456  0.13394472  1
  S2-  S143  1  0.24939317  0.80127184  0.64625569  1
  S2-  S144  1  0.50141099  0.14349280  0.16860175  1
  S2-  S145  1  0.61465230  0.12578367  0.64600367  1
  S2-  S146  1  0.41833038  0.37192060  0.14660961  1
  S2-  S147  1  0.40811596  0.36602575  0.64075758  1
  S2-  S148  1  0.41423289  0.62826461  0.13840321  1
  S2-  S149  1  0.53168803  0.68915200  0.66552473  1
  S2-  S150  1  0.48912405  0.88389185  0.14658079  1
  S2-  S151  1  0.46873986  0.89558719  0.66600120  1
  S2-  S152  1  0.84639336  0.13450121  0.15024469  1
  S2-  S153  1  0.84171824  0.13053763  0.63712835  1
  S2-  S154  1  0.79912135  0.36678515  0.15346179  1
  S2-  S155  1  0.72405945  0.35041223  0.65726933  1
  S2-  S156  1  0.76370596  0.73005042  0.14096261  1
  S2-  S157  1  0.74975861  0.62035087  0.65740446  1
  S2-  S158  1  0.71541310  0.98639181  0.14620552  1
  S2-  S159  1  0.72525545  0.88185481  0.65308937  1
  S2-  S160  1  0.13131620  -0.01206402  0.34371265  1
  S2-  S161  1  0.10531609  0.08059542  0.85960396  1
  S2-  S162  1  0.10066018  0.18851402  0.34926601  1
  S2-  S163  1  0.15766288  0.28086503  0.82532629  1
  S2-  S164  1  0.13386522  0.49843666  0.34788533  1
  S2-  S165  1  0.13873072  0.49677814  0.84074343  1
  S2-  S166  1  0.14225965  0.73453589  0.34274374  1
  S2-  S167  1  0.18367309  0.70364506  0.83598819  1
  S2-  S168  1  0.38111961  0.03794019  0.34272169  1
  S2-  S169  1  0.44849919  0.00598285  0.85300467  1
  S2-  S170  1  0.30129430  0.25222715  0.33427998  1
  S2-  S171  1  0.37206794  0.22916173  0.83986154  1
  S2-  S172  1  0.35782620  0.46613546  0.33626815  1
  S2-  S173  1  0.36350718  0.58208114  0.84743757  1
  S2-  S174  1  0.38745911  0.66876295  0.35589470  1
  S2-  S175  1  0.34936804  0.81267250  0.80247716  1
  S2-  S176  1  0.62125345  0.01929158  0.34739640  1
  S2-  S177  1  0.64793059  -0.10893059  0.85067559  1
  S2-  S178  1  0.51752559  0.25794180  0.35731825  1
  S2-  S179  1  0.62671690  0.13697951  0.85899305  1
  S2-  S180  1  0.59082355  0.51127250  0.34953170  1
  S2-  S181  1  0.65978184  0.58752389  0.85356612  1
  S2-  S182  1  0.61236708  0.75247515  0.34789757  1
  S2-  S183  1  0.51341026  0.73909861  0.84229549  1
  S2-  S184  1  0.89666502  -0.04564116  0.32574828  1
  S2-  S185  1  0.85889767  0.03633282  0.85054537  1
  S2-  S186  1  0.87488693  0.15220567  0.35346674  1
  S2-  S187  1  0.95517770  0.25268792  0.86125531  1
  S2-  S188  1  0.84407898  0.51832525  0.35115981  1
  S2-  S189  1  0.89586241  0.49902895  0.83893183  1
  S2-  S190  1  0.87845788  0.73773453  0.34505089  1
  S2-  S191  1  0.98226893  0.76503015  0.85527729  1
  S2-  S192  1  -0.00452173  0.13824940  0.46020533  1
  S2-  S193  1  -0.01047052  0.12338662  0.96835781  1
  S2-  S194  1  -0.00278793  0.38407005  0.44855427  1
  S2-  S195  1  -0.00699603  0.37489388  0.95825660  1
  S2-  S196  1  -0.00381068  0.63383461  0.45418358  1
  S2-  S197  1  -0.00579581  0.62056007  0.95339059  1
  S2-  S198  1  -0.00559556  0.88456776  0.44853612  1
  S2-  S199  1  -0.00569483  0.87923077  0.95735043  1
  S2-  S200  1  0.24790925  0.13630313  0.45264638  1
  S2-  S201  1  0.24615300  0.12511509  0.95791641  1
  S2-  S202  1  0.24979445  0.38484965  0.45294272  1
  S2-  S203  1  0.24387044  0.37432163  0.95070886  1
  S2-  S204  1  0.24214541  0.63775515  0.46181272  1
  S2-  S205  1  0.24477677  0.62158331  0.95442459  1
  S2-  S206  1  0.24501687  0.88675139  0.45122199  1
  S2-  S207  1  0.24418919  0.87571167  0.94072921  1
  S2-  S208  1  0.49980219  0.13212767  0.46105134  1
  S2-  S209  1  0.49083636  0.12785898  0.95917108  1
  S2-  S210  1  0.49791369  0.39220920  0.45193690  1
  S2-  S211  1  0.49605674  0.37329304  0.95211859  1
  S2-  S212  1  0.50125547  0.63485370  0.46313527  1
  S2-  S213  1  0.49703896  0.62166367  0.94790718  1
  S2-  S214  1  0.49657369  0.88369908  0.45483729  1
  S2-  S215  1  0.48935172  0.86902829  0.94481839  1
  S2-  S216  1  0.74226593  0.13653156  0.45457516  1
  S2-  S217  1  0.74519000  0.12623088  0.96215052  1
  S2-  S218  1  0.74385452  0.38608664  0.45097990  1
  S2-  S219  1  0.74388346  0.37078901  0.95092286  1
  S2-  S220  1  0.74820773  0.63459207  0.45346822  1
  S2-  S221  1  0.74996612  0.62652209  0.95743281  1
  S2-  S222  1  0.75023654  0.88247842  0.44661938  1
  S2-  S223  1  0.74947050  0.87277240  0.95767926  1
  S2-  S224  1  0.12386369  -0.00298474  0.05765828  1
  S2-  S225  1  0.11914043  0.01194907  0.54943003  1
  S2-  S226  1  0.11986331  0.25143996  0.04014667  1
  S2-  S227  1  0.12161355  0.26086208  0.54266470  1
  S2-  S228  1  0.11997811  0.49843889  0.04690779  1
  S2-  S229  1  0.12247581  0.50237665  0.55168683  1
  S2-  S230  1  0.12302533  0.74766462  0.03625723  1
  S2-  S231  1  0.11681890  0.76425819  0.54399062  1
  S2-  S232  1  0.36813434  -0.00299567  0.04644213  1
  S2-  S233  1  0.37063278  0.00917279  0.55352822  1
  S2-  S234  1  0.37370004  0.24999937  0.04662738  1
  S2-  S235  1  0.37303140  0.25534686  0.53656021  1
  S2-  S236  1  0.37501996  0.50059143  0.03994667  1
  S2-  S237  1  0.36711170  0.50988942  0.54537559  1
  S2-  S238  1  0.37484930  0.74838714  0.02982618  1
  S2-  S239  1  0.37113364  0.75971916  0.54822320  1
  S2-  S240  1  0.61622445  -0.00356302  0.03908528  1
  S2-  S241  1  0.62020072  0.00533483  0.54775852  1
  S2-  S242  1  0.62081894  0.24736174  0.05036064  1
  S2-  S243  1  0.61865889  0.26280368  0.54495101  1
  S2-  S244  1  0.61994599  0.50119895  0.04450204  1
  S2-  S245  1  0.61860847  0.51020279  0.55390844  1
  S2-  S246  1  0.62032998  0.74588208  0.03941541  1
  S2-  S247  1  0.62202523  0.75780200  0.55107461  1
  S2-  S248  1  0.87500364  -0.00310365  0.05093773  1
  S2-  S249  1  0.86536390  0.00932525  0.53681395  1
  S2-  S250  1  0.86568340  0.25018355  0.04800911  1
  S2-  S251  1  0.86548875  0.26382748  0.53750742  1
  S2-  S252  1  0.86849031  0.49837406  0.04907380  1
  S2-  S253  1  0.87532345  0.50685899  0.55514652  1
  S2-  S254  1  0.87710047  0.74480388  0.03900180  1
  S2-  S255  1  0.87342926  0.75776965  0.54931728  1
