# generated using pymatgen
data_La9Ce10Pr6Nd4Sm3(BiS2)32
_symmetry_space_group_name_H-M   'P 1'
_cell_length_a   16.22421197
_cell_length_b   16.21706242
_cell_length_c   27.15772811
_cell_angle_alpha   90.15972292
_cell_angle_beta   90.07173800
_cell_angle_gamma   89.99265755
_symmetry_Int_Tables_number   1
_chemical_formula_structural   La9Ce10Pr6Nd4Sm3(BiS2)32
_chemical_formula_sum   'La18 Ce20 Pr12 Nd8 Sm6 Bi64 S128'
_cell_volume   7145.41084585
_cell_formula_units_Z   2
loop_
 _symmetry_equiv_pos_site_id
 _symmetry_equiv_pos_as_xyz
  1  'x, y, z'
loop_
 _atom_type_symbol
 _atom_type_oxidation_number
  La3+  3.0
  Ce3+  3.0
  Pr3+  3.0
  Nd3+  3.0
  Sm3+  3.0
  Bi2+  2.0
  S2-  -2.0
loop_
 _atom_site_type_symbol
 _atom_site_label
 _atom_site_symmetry_multiplicity
 _atom_site_fract_x
 _atom_site_fract_y
 _atom_site_fract_z
 _atom_site_occupancy
  La3+  La0  1  0.75430525  0.37075066  0.06885348  1
  La3+  La1  1  0.37908390  0.23914160  0.92195298  1
  La3+  La2  1  0.12049609  0.01093879  0.39584181  1
  La3+  La3  1  0.26644193  0.61880803  0.07996498  1
  La3+  La4  1  0.75252572  0.14388665  0.57561586  1
  La3+  La5  1  0.25011516  0.13315029  0.56866314  1
  La3+  La6  1  0.62816063  0.25107654  0.91347247  1
  La3+  La7  1  0.00652277  0.13647269  0.07551687  1
  La3+  La8  1  0.24169296  0.39383170  0.58734944  1
  La3+  La9  1  0.60995974  0.25227690  0.43004363  1
  La3+  La10  1  0.61911699  0.75886050  0.43581257  1
  La3+  La11  1  0.51113139  0.87764100  0.06269031  1
  La3+  La12  1  0.38221870  0.50355687  0.93039983  1
  La3+  La13  1  0.26707387  0.88513234  0.08819744  1
  La3+  La14  1  0.24623555  0.88412356  0.55685617  1
  La3+  La15  1  0.50618332  0.13365443  0.58735307  1
  La3+  La16  1  0.50728582  0.37130329  0.05426338  1
  La3+  La17  1  0.13129362  0.25500842  0.92691189  1
  Ce3+  Ce18  1  0.13333500  -0.00157838  0.95389461  1
  Ce3+  Ce19  1  0.49852996  0.63174909  0.55728792  1
  Ce3+  Ce20  1  0.26161526  0.12940050  0.06014234  1
  Ce3+  Ce21  1  0.25738281  0.37809705  0.05355865  1
  Ce3+  Ce22  1  0.50370799  0.38150731  0.57099336  1
  Ce3+  Ce23  1  0.12155381  0.75504356  0.43270688  1
  Ce3+  Ce24  1  0.63557159  0.49778244  0.93146065  1
  Ce3+  Ce25  1  0.74916037  0.63055609  0.55220172  1
  Ce3+  Ce26  1  0.36680069  0.75928097  0.43691066  1
  Ce3+  Ce27  1  0.01242568  0.37863858  0.05878849  1
  Ce3+  Ce28  1  0.12347709  0.50045045  0.43501088  1
  Ce3+  Ce29  1  0.87199880  0.00909272  0.43772657  1
  Ce3+  Ce30  1  0.37367595  0.50247090  0.44659755  1
  Ce3+  Ce31  1  0.13566085  0.74887702  0.95140238  1
  Ce3+  Ce32  1  0.24693673  0.63110703  0.54999337  1
  Ce3+  Ce33  1  0.75293279  0.62746557  0.06585979  1
  Ce3+  Ce34  1  0.38342315  -0.00521306  0.93817053  1
  Ce3+  Ce35  1  0.51582190  0.62367515  0.06386276  1
  Ce3+  Ce36  1  -0.00106774  0.38212986  0.56018109  1
  Ce3+  Ce37  1  -0.00482992  0.13533610  0.55999572  1
  Pr3+  Pr38  1  0.88575264  0.00063352  0.93817427  1
  Pr3+  Pr39  1  0.74942738  0.88401106  0.56226583  1
  Pr3+  Pr40  1  0.63266699  0.74927018  0.93583228  1
  Pr3+  Pr41  1  0.13571472  0.50996707  0.92208780  1
  Pr3+  Pr42  1  0.88104073  0.74938418  0.94604184  1
  Pr3+  Pr43  1  0.64558409  -0.00703089  0.88816061  1
  Pr3+  Pr44  1  0.12618212  0.25976040  0.43739763  1
  Pr3+  Pr45  1  0.49636564  0.87370048  0.56937215  1
  Pr3+  Pr46  1  0.61939220  0.00717916  0.44322859  1
  Pr3+  Pr47  1  0.00767128  0.87563452  0.06873088  1
  Pr3+  Pr48  1  0.87257315  0.75694239  0.43445104  1
  Pr3+  Pr49  1  -0.00137349  0.63117321  0.55648757  1
  Nd3+  Nd50  1  0.88222192  0.25118481  0.93798466  1
  Nd3+  Nd51  1  0.87351258  0.25649146  0.43261879  1
  Nd3+  Nd52  1  -0.00153599  0.88447202  0.55161041  1
  Nd3+  Nd53  1  0.37698547  0.01163053  0.43885651  1
  Nd3+  Nd54  1  0.61193849  0.50151506  0.43254025  1
  Nd3+  Nd55  1  0.38367847  0.75197574  0.94297674  1
  Nd3+  Nd56  1  0.01136970  0.62502962  0.06783403  1
  Nd3+  Nd57  1  0.87043450  0.50631118  0.43582224  1
  Sm3+  Sm58  1  0.51146586  0.12635844  0.04590010  1
  Sm3+  Sm59  1  0.88290489  0.50153873  0.95235802  1
  Sm3+  Sm60  1  0.75889033  0.88107398  0.05660607  1
  Sm3+  Sm61  1  0.75626654  0.12515365  0.04795998  1
  Sm3+  Sm62  1  0.37363167  0.25570844  0.45544699  1
  Sm3+  Sm63  1  0.74750586  0.38475660  0.55070188  1
  Bi2+  Bi64  1  -0.00423213  0.13232802  0.28685703  1
  Bi2+  Bi65  1  -0.00561863  0.15558509  0.80069483  1
  Bi2+  Bi66  1  0.00203154  0.36673867  0.28734369  1
  Bi2+  Bi67  1  -0.00442091  0.42865032  0.77987140  1
  Bi2+  Bi68  1  0.06346461  0.55000160  0.28280481  1
  Bi2+  Bi69  1  -0.02686885  0.63977709  0.80203447  1
  Bi2+  Bi70  1  -0.12739837  0.83871230  0.29244671  1
  Bi2+  Bi71  1  0.00946262  0.89935361  0.79303162  1
  Bi2+  Bi72  1  0.27030551  0.15633851  0.28947812  1
  Bi2+  Bi73  1  0.23479474  0.10583750  0.79609240  1
  Bi2+  Bi74  1  0.26980472  0.38845036  0.29252189  1
  Bi2+  Bi75  1  0.24095484  0.38981973  0.78804584  1
  Bi2+  Bi76  1  0.25243012  0.58427303  0.27171413  1
  Bi2+  Bi77  1  0.20850464  0.68838232  0.77937518  1
  Bi2+  Bi78  1  0.25909581  0.86816869  0.30052185  1
  Bi2+  Bi79  1  0.20489215  0.88421909  0.78208806  1
  Bi2+  Bi80  1  0.56350394  0.07898132  0.27120256  1
  Bi2+  Bi81  1  0.49546202  0.12608928  0.78556923  1
  Bi2+  Bi82  1  0.51059845  0.34217627  0.30273187  1
  Bi2+  Bi83  1  0.52000573  0.40392118  0.78570243  1
  Bi2+  Bi84  1  0.44360131  0.60680928  0.28934030  1
  Bi2+  Bi85  1  0.51229978  0.60563433  0.84079251  1
  Bi2+  Bi86  1  0.52155854  0.87832405  0.30071837  1
  Bi2+  Bi87  1  0.49620262  0.79213082  0.80234373  1
  Bi2+  Bi88  1  0.75504432  0.09717791  0.27343178  1
  Bi2+  Bi89  1  0.80265645  0.13850764  0.78020976  1
  Bi2+  Bi90  1  0.74567098  0.39869491  0.28042727  1
  Bi2+  Bi91  1  0.73382331  0.43421525  0.76245139  1
  Bi2+  Bi92  1  0.81181788  0.61749198  0.30324335  1
  Bi2+  Bi93  1  0.70149079  0.61204793  0.81106063  1
  Bi2+  Bi94  1  0.71674269  0.93286188  0.32771819  1
  Bi2+  Bi95  1  0.79015676  0.86190278  0.78334106  1
  Bi2+  Bi96  1  0.12423209  0.00107954  0.20461321  1
  Bi2+  Bi97  1  0.10052064  0.05546105  0.71485550  1
  Bi2+  Bi98  1  0.17615924  0.27731803  0.21514899  1
  Bi2+  Bi99  1  0.08008498  0.25961549  0.71730610  1
  Bi2+  Bi100  1  0.08028949  0.44162850  0.18234495  1
  Bi2+  Bi101  1  0.12496833  0.52542511  0.70893923  1
  Bi2+  Bi102  1  0.09266858  0.75882097  0.22178059  1
  Bi2+  Bi103  1  0.06670920  0.76641921  0.71411925  1
  Bi2+  Bi104  1  0.39456889  0.06930633  0.21605551  1
  Bi2+  Bi105  1  0.37700106  -0.05179728  0.71817575  1
  Bi2+  Bi106  1  0.37645320  0.26802566  0.21262568  1
  Bi2+  Bi107  1  0.36213949  0.24419736  0.70967919  1
  Bi2+  Bi108  1  0.39398150  0.46504102  0.19699982  1
  Bi2+  Bi109  1  0.42345009  0.55404222  0.73936827  1
  Bi2+  Bi110  1  0.37442282  0.73111570  0.20742495  1
  Bi2+  Bi111  1  0.33411514  0.70684320  0.69101488  1
  Bi2+  Bi112  1  0.57579933  -0.07985950  0.19220425  1
  Bi2+  Bi113  1  0.64516499  -0.02701251  0.71776964  1
  Bi2+  Bi114  1  0.61956270  0.26275306  0.18501308  1
  Bi2+  Bi115  1  0.64348236  0.25291894  0.71164576  1
  Bi2+  Bi116  1  0.61197054  0.54768820  0.24134263  1
  Bi2+  Bi117  1  0.59197351  0.50226972  0.69097293  1
  Bi2+  Bi118  1  0.62414991  0.73734839  0.21964251  1
  Bi2+  Bi119  1  0.60364985  0.70109233  0.72026755  1
  Bi2+  Bi120  1  0.86002194  -0.02803417  0.21015393  1
  Bi2+  Bi121  1  0.91202499  -0.00034720  0.70854797  1
  Bi2+  Bi122  1  0.85960358  0.22880449  0.19741209  1
  Bi2+  Bi123  1  0.89321850  0.28800534  0.69268427  1
  Bi2+  Bi124  1  0.90835993  0.53284660  0.20872286  1
  Bi2+  Bi125  1  0.88379040  0.49596719  0.69415070  1
  Bi2+  Bi126  1  0.81538235  0.70681418  0.20237526  1
  Bi2+  Bi127  1  0.80296492  0.69539290  0.72369747  1
  S2-  S128  1  -0.01927253  0.09434362  0.17425121  1
  S2-  S129  1  -0.10767769  0.13691393  0.64120743  1
  S2-  S130  1  -0.00551441  0.29055576  0.14125592  1
  S2-  S131  1  0.09233327  0.38582183  0.64412517  1
  S2-  S132  1  -0.01588065  0.67401966  0.16318966  1
  S2-  S133  1  0.00412600  0.61397657  0.65710479  1
  S2-  S134  1  0.00680784  0.88386944  0.16971858  1
  S2-  S135  1  -0.01782387  0.87227563  0.65105441  1
  S2-  S136  1  0.26257421  0.05180964  0.14797918  1
  S2-  S137  1  0.22346899  0.16503228  0.66745081  1
  S2-  S138  1  0.25394546  0.46118491  0.13967725  1
  S2-  S139  1  0.30420396  0.38398741  0.68481156  1
  S2-  S140  1  0.21566168  0.66939439  0.17769029  1
  S2-  S141  1  0.23578535  0.57738502  0.64255150  1
  S2-  S142  1  0.20879183  0.86523229  0.18661700  1
  S2-  S143  1  0.27353872  0.86031622  0.65576768  1
  S2-  S144  1  0.50085119  0.16217415  0.14330740  1
  S2-  S145  1  0.42494482  0.08949096  0.67961056  1
  S2-  S146  1  0.54645670  0.39475062  0.15212565  1
  S2-  S147  1  0.50623187  0.28302704  0.65218464  1
  S2-  S148  1  0.41547016  0.61567912  0.14410853  1
  S2-  S149  1  0.48903074  0.71947337  0.64107263  1
  S2-  S150  1  0.41564059  0.87080031  0.14874450  1
  S2-  S151  1  0.51559798  0.91608467  0.66725385  1
  S2-  S152  1  0.74506654  0.15368343  0.14645495  1
  S2-  S153  1  0.64761873  0.11492373  0.65625977  1
  S2-  S154  1  0.76221160  0.36755563  0.17198513  1
  S2-  S155  1  0.74380199  0.30664482  0.63967924  1
  S2-  S156  1  0.63797472  0.61474214  0.13957796  1
  S2-  S157  1  0.75288770  0.58373278  0.64590094  1
  S2-  S158  1  0.74413134  0.89875516  0.15486616  1
  S2-  S159  1  0.74246690  0.88312188  0.66361473  1
  S2-  S160  1  0.11365858  -0.06128290  0.29781861  1
  S2-  S161  1  0.13545011  -0.00897398  0.85581049  1
  S2-  S162  1  0.12489624  0.16742885  0.34934880  1
  S2-  S163  1  0.25043261  0.24580386  0.84756800  1
  S2-  S164  1  0.13498811  0.38701315  0.36074103  1
  S2-  S165  1  0.10439355  0.38332863  0.85209718  1
  S2-  S166  1  0.16901448  0.75010782  0.33758332  1
  S2-  S167  1  0.11650439  0.66146106  0.86540432  1
  S2-  S168  1  0.28551877  0.01408244  0.35177464  1
  S2-  S169  1  0.36885300  0.07312440  0.85044165  1
  S2-  S170  1  0.45860533  0.24020034  0.36796620  1
  S2-  S171  1  0.47973008  0.26850880  0.84061677  1
  S2-  S172  1  0.45788084  0.47792623  0.36122536  1
  S2-  S173  1  0.27788741  0.50524112  0.84894889  1
  S2-  S174  1  0.40087286  0.77735063  0.34142394  1
  S2-  S175  1  0.35107945  0.79858773  0.84712145  1
  S2-  S176  1  0.50594618  0.01655043  0.36587983  1
  S2-  S177  1  0.53587257  -0.02916997  0.80578644  1
  S2-  S178  1  0.66860471  0.29260769  0.33445851  1
  S2-  S179  1  0.64855932  0.14304006  0.83244483  1
  S2-  S180  1  0.66656455  0.52417884  0.33769110  1
  S2-  S181  1  0.65830334  0.39160816  0.85265880  1
  S2-  S182  1  0.64982490  0.76920754  0.33692633  1
  S2-  S183  1  0.66001985  0.82789937  0.84690223  1
  S2-  S184  1  0.95096870  0.02229913  0.35128913  1
  S2-  S185  1  0.80927525  -0.00289742  0.84683874  1
  S2-  S186  1  0.90677213  0.24592743  0.33296728  1
  S2-  S187  1  0.86681324  0.26026326  0.83797720  1
  S2-  S188  1  0.87871467  0.45735337  0.34032571  1
  S2-  S189  1  0.90351795  0.52219070  0.85438386  1
  S2-  S190  1  0.93782890  0.71256532  0.34357230  1
  S2-  S191  1  0.90644920  0.78176101  0.84838621  1
  S2-  S192  1  -0.00129226  0.13396311  0.45493545  1
  S2-  S193  1  0.00880927  0.12747921  0.95646527  1
  S2-  S194  1  -0.00573197  0.38200070  0.45340994  1
  S2-  S195  1  0.00320723  0.37822721  0.95484188  1
  S2-  S196  1  -0.00052204  0.62674976  0.44935091  1
  S2-  S197  1  0.00367765  0.62611614  0.96327819  1
  S2-  S198  1  0.00122769  0.88186951  0.44493623  1
  S2-  S199  1  0.00766918  0.87362668  0.96026797  1
  S2-  S200  1  0.25205596  0.13358486  0.45965317  1
  S2-  S201  1  0.25367080  0.12203189  0.95633198  1
  S2-  S202  1  0.25368045  0.38067215  0.46451442  1
  S2-  S203  1  0.25834095  0.37605587  0.95067482  1
  S2-  S204  1  0.24762366  0.62751142  0.44349758  1
  S2-  S205  1  0.26097549  0.62959049  0.96139405  1
  S2-  S206  1  0.24242065  0.88563744  0.44926808  1
  S2-  S207  1  0.25785799  0.87544121  0.96375947  1
  S2-  S208  1  0.49501094  0.13162283  0.47379096  1
  S2-  S209  1  0.51477503  0.11481554  0.94260209  1
  S2-  S210  1  0.49629648  0.38047237  0.46643396  1
  S2-  S211  1  0.50492051  0.37649703  0.94699001  1
  S2-  S212  1  0.49504768  0.63290664  0.45039085  1
  S2-  S213  1  0.50939146  0.62684980  0.95741656  1
  S2-  S214  1  0.49429000  0.87873081  0.46061634  1
  S2-  S215  1  0.51093507  0.87632310  0.95113245  1
  S2-  S216  1  0.74633646  0.13321611  0.44666645  1
  S2-  S217  1  0.75943662  0.12518620  0.94531586  1
  S2-  S218  1  0.74510168  0.38199915  0.44736129  1
  S2-  S219  1  0.76399762  0.37633197  0.95750760  1
  S2-  S220  1  0.74544239  0.63036700  0.44655266  1
  S2-  S221  1  0.75807246  0.62416717  0.95655351  1
  S2-  S222  1  0.74883967  0.88105024  0.45443447  1
  S2-  S223  1  0.75851514  0.87891702  0.95351690  1
  S2-  S224  1  0.12878730  0.00390852  0.05820599  1
  S2-  S225  1  0.11977602  0.00909455  0.55920179  1
  S2-  S226  1  0.13570211  0.25234047  0.04281560  1
  S2-  S227  1  0.12270991  0.25694986  0.54715681  1
  S2-  S228  1  0.13216483  0.50409685  0.03980971  1
  S2-  S229  1  0.12131671  0.50742936  0.53975664  1
  S2-  S230  1  0.13584561  0.75290830  0.05882690  1
  S2-  S231  1  0.12161656  0.75641209  0.54286499  1
  S2-  S232  1  0.38684893  0.00602229  0.04416745  1
  S2-  S233  1  0.37529043  0.00515687  0.55278022  1
  S2-  S234  1  0.38295791  0.24859854  0.03758561  1
  S2-  S235  1  0.36914895  0.26418991  0.55910379  1
  S2-  S236  1  0.38669660  0.49764889  0.03922791  1
  S2-  S237  1  0.37634977  0.50724517  0.55362949  1
  S2-  S238  1  0.38438248  0.75048109  0.04844628  1
  S2-  S239  1  0.36927316  0.75433111  0.54123965  1
  S2-  S240  1  0.63510344  0.00446418  0.05035421  1
  S2-  S241  1  0.62490888  0.00475160  0.54986143  1
  S2-  S242  1  0.63446801  0.24796664  0.03434024  1
  S2-  S243  1  0.62617928  0.26078127  0.54091946  1
  S2-  S244  1  0.63643629  0.49550521  0.03882782  1
  S2-  S245  1  0.62378007  0.50691015  0.54151329  1
  S2-  S246  1  0.63808257  0.75668785  0.04447069  1
  S2-  S247  1  0.62728217  0.75580655  0.54489847  1
  S2-  S248  1  0.88363346  0.00420638  0.04785306  1
  S2-  S249  1  0.87157250  0.00745586  0.54365230  1
  S2-  S250  1  0.87900160  0.25047751  0.04324294  1
  S2-  S251  1  0.87340921  0.26380199  0.53782450  1
  S2-  S252  1  0.88190202  0.50178431  0.05806467  1
  S2-  S253  1  0.87379324  0.50501410  0.54287267  1
  S2-  S254  1  0.87985760  0.75250847  0.05340383  1
  S2-  S255  1  0.87344314  0.75690037  0.54342830  1
