# generated using pymatgen
data_La9Ce10Pr6Nd4Sm3(BiS2)32
_symmetry_space_group_name_H-M   'P 1'
_cell_length_a   16.20056681
_cell_length_b   16.17270490
_cell_length_c   27.29292829
_cell_angle_alpha   90.05449114
_cell_angle_beta   89.94131952
_cell_angle_gamma   89.85023192
_symmetry_Int_Tables_number   1
_chemical_formula_structural   La9Ce10Pr6Nd4Sm3(BiS2)32
_chemical_formula_sum   'La18 Ce20 Pr12 Nd8 Sm6 Bi64 S128'
_cell_volume   7150.90645121
_cell_formula_units_Z   2
loop_
 _symmetry_equiv_pos_site_id
 _symmetry_equiv_pos_as_xyz
  1  'x, y, z'
loop_
 _atom_type_symbol
 _atom_type_oxidation_number
  La3+  3.0
  Ce3+  3.0
  Pr3+  3.0
  Nd3+  3.0
  Sm3+  3.0
  Bi2+  2.0
  S2-  -2.0
loop_
 _atom_site_type_symbol
 _atom_site_label
 _atom_site_symmetry_multiplicity
 _atom_site_fract_x
 _atom_site_fract_y
 _atom_site_fract_z
 _atom_site_occupancy
  La3+  La0  1  0.23049110  0.87213170  0.07199106  1
  La3+  La1  1  0.87270378  0.51100861  0.44499713  1
  La3+  La2  1  0.62194167  0.25993621  0.42862225  1
  La3+  La3  1  0.50386225  0.64046666  0.57445979  1
  La3+  La4  1  0.25324899  0.63445218  0.56369097  1
  La3+  La5  1  0.74954223  0.37550215  0.58543003  1
  La3+  La6  1  0.48554804  0.37022204  0.06342855  1
  La3+  La7  1  -0.00200600  0.63780769  0.57243002  1
  La3+  La8  1  -0.01342718  0.37617564  0.06404369  1
  La3+  La9  1  0.48174986  0.11783873  0.07017694  1
  La3+  La10  1  0.88048747  0.75859495  0.43152081  1
  La3+  La11  1  -0.01356579  0.11960457  0.07092971  1
  La3+  La12  1  -0.01246675  0.62277460  0.06107517  1
  La3+  La13  1  0.87688172  0.48895447  0.88306073  1
  La3+  La14  1  0.62328859  0.75236112  0.43466541  1
  La3+  La15  1  0.49297738  0.37196988  0.59064332  1
  La3+  La16  1  0.48997605  0.62208754  0.06603268  1
  La3+  La17  1  0.12335970  0.01565966  0.42245697  1
  Ce3+  Ce18  1  0.74786352  0.64335380  0.57089889  1
  Ce3+  Ce19  1  0.86345021  -0.00756341  0.93551962  1
  Ce3+  Ce20  1  0.11179030  -0.00515598  0.94187712  1
  Ce3+  Ce21  1  0.12482312  0.75960718  0.44592329  1
  Ce3+  Ce22  1  0.23322297  0.12018974  0.06525088  1
  Ce3+  Ce23  1  0.50441381  0.13066143  0.55624262  1
  Ce3+  Ce24  1  0.36363252  0.74450469  0.94291966  1
  Ce3+  Ce25  1  0.74159749  0.12043714  0.06485525  1
  Ce3+  Ce26  1  0.37068291  0.48996024  0.92506827  1
  Ce3+  Ce27  1  -0.01869102  0.87032043  0.06457917  1
  Ce3+  Ce28  1  0.11211771  0.49748648  0.93944890  1
  Ce3+  Ce29  1  0.36141036  -0.00201225  0.93443574  1
  Ce3+  Ce30  1  0.12225232  0.26126474  0.44544469  1
  Ce3+  Ce31  1  -0.00119586  0.88321584  0.56622568  1
  Ce3+  Ce32  1  0.74688147  0.13465344  0.55262294  1
  Ce3+  Ce33  1  0.37862427  0.25926423  0.43927993  1
  Ce3+  Ce34  1  0.00039234  0.39066837  0.57414356  1
  Ce3+  Ce35  1  0.48690379  0.87365540  0.05583256  1
  Ce3+  Ce36  1  0.61380156  0.24739373  0.94428196  1
  Ce3+  Ce37  1  -0.00289841  0.13481171  0.55832135  1
  Pr3+  Pr38  1  0.24889596  0.13333759  0.55778745  1
  Pr3+  Pr39  1  0.73728157  0.61964736  0.05292475  1
  Pr3+  Pr40  1  0.11191710  0.74382173  0.93922604  1
  Pr3+  Pr41  1  0.10958723  0.24523926  0.93837182  1
  Pr3+  Pr42  1  0.23836362  0.37248193  0.05316902  1
  Pr3+  Pr43  1  0.24986074  0.38308015  0.55810521  1
  Pr3+  Pr44  1  0.86222093  0.24857748  0.94216561  1
  Pr3+  Pr45  1  0.36231951  0.24185862  0.93286906  1
  Pr3+  Pr46  1  0.36960252  0.00446703  0.42771696  1
  Pr3+  Pr47  1  0.61367051  -0.00343125  0.94559123  1
  Pr3+  Pr48  1  0.75016689  0.88767133  0.55956518  1
  Pr3+  Pr49  1  0.50174703  0.88962486  0.56188292  1
  Nd3+  Nd50  1  0.87654252  0.27129946  0.43713167  1
  Nd3+  Nd51  1  0.37349427  0.75569076  0.44179289  1
  Nd3+  Nd52  1  0.61635827  0.00270659  0.41628725  1
  Nd3+  Nd53  1  0.87599619  0.01187866  0.43498364  1
  Nd3+  Nd54  1  0.61571451  0.49547155  0.92614829  1
  Nd3+  Nd55  1  0.24526828  0.61859905  0.06063829  1
  Nd3+  Nd56  1  0.86014996  0.74707203  0.92955889  1
  Nd3+  Nd57  1  0.12293225  0.50748814  0.43972339  1
  Sm3+  Sm58  1  0.74186573  0.86961702  0.06394412  1
  Sm3+  Sm59  1  0.24971738  0.88816069  0.55867181  1
  Sm3+  Sm60  1  0.61372255  0.74562405  0.94147440  1
  Sm3+  Sm61  1  0.37926523  0.50585180  0.44789375  1
  Sm3+  Sm62  1  0.73747488  0.37443219  0.05619574  1
  Sm3+  Sm63  1  0.62476928  0.50295415  0.44819602  1
  Bi2+  Bi64  1  0.02291692  0.12991397  0.28292151  1
  Bi2+  Bi65  1  -0.02464563  0.07381958  0.80101763  1
  Bi2+  Bi66  1  0.03993790  0.34084501  0.31570725  1
  Bi2+  Bi67  1  0.01113536  0.33759754  0.78707559  1
  Bi2+  Bi68  1  -0.02488964  0.54967721  0.30995465  1
  Bi2+  Bi69  1  0.03246499  0.63669446  0.78829955  1
  Bi2+  Bi70  1  0.00679898  0.88448822  0.28400349  1
  Bi2+  Bi71  1  -0.01186973  0.87618128  0.79075716  1
  Bi2+  Bi72  1  0.30181495  0.13890438  0.26199994  1
  Bi2+  Bi73  1  0.25427386  0.07472147  0.78139517  1
  Bi2+  Bi74  1  0.29421119  0.33437006  0.27440321  1
  Bi2+  Bi75  1  0.23157567  0.39020782  0.78475099  1
  Bi2+  Bi76  1  0.21864636  0.64556697  0.25328134  1
  Bi2+  Bi77  1  0.22109099  0.59078292  0.77664550  1
  Bi2+  Bi78  1  0.21612381  0.83518853  0.31045468  1
  Bi2+  Bi79  1  0.27386945  0.88477964  0.77341827  1
  Bi2+  Bi80  1  0.51738541  0.14229487  0.28945912  1
  Bi2+  Bi81  1  0.48518311  0.10801924  0.78035068  1
  Bi2+  Bi82  1  0.52590928  0.40186628  0.30301374  1
  Bi2+  Bi83  1  0.49574460  0.35924447  0.79805236  1
  Bi2+  Bi84  1  0.49333750  0.60242041  0.29340266  1
  Bi2+  Bi85  1  0.40354165  0.63467124  0.80024163  1
  Bi2+  Bi86  1  0.50853489  0.87452258  0.28370691  1
  Bi2+  Bi87  1  0.47144285  0.90169664  0.79176000  1
  Bi2+  Bi88  1  0.78303790  0.07207200  0.30155882  1
  Bi2+  Bi89  1  0.78487257  0.10041796  0.78144350  1
  Bi2+  Bi90  1  0.69661465  0.34339709  0.25831124  1
  Bi2+  Bi91  1  0.74179813  0.36422095  0.78307010  1
  Bi2+  Bi92  1  0.70977901  0.62801334  0.28162665  1
  Bi2+  Bi93  1  0.74409964  0.66219295  0.79046872  1
  Bi2+  Bi94  1  0.79717151  0.88542942  0.32998625  1
  Bi2+  Bi95  1  0.71836124  0.91191626  0.79798650  1
  Bi2+  Bi96  1  0.16081649  -0.02143738  0.20137870  1
  Bi2+  Bi97  1  0.02659873  -0.00948354  0.69566091  1
  Bi2+  Bi98  1  0.14716024  0.23989913  0.22228276  1
  Bi2+  Bi99  1  0.15965820  0.20616868  0.71334866  1
  Bi2+  Bi100  1  0.10517734  0.50017476  0.19351489  1
  Bi2+  Bi101  1  0.11802326  0.39183255  0.69234819  1
  Bi2+  Bi102  1  0.03877862  0.71021818  0.23253208  1
  Bi2+  Bi103  1  0.12496043  0.82062363  0.70784603  1
  Bi2+  Bi104  1  0.41784420  -0.00763181  0.19577653  1
  Bi2+  Bi105  1  0.45840395  -0.01577076  0.68872708  1
  Bi2+  Bi106  1  0.42961371  0.25175631  0.20229541  1
  Bi2+  Bi107  1  0.36322714  0.22248575  0.70738093  1
  Bi2+  Bi108  1  0.36028356  0.47935720  0.20416073  1
  Bi2+  Bi109  1  0.35818498  0.49105992  0.70692099  1
  Bi2+  Bi110  1  0.38843371  0.73321338  0.23547079  1
  Bi2+  Bi111  1  0.35974134  0.73287406  0.70163572  1
  Bi2+  Bi112  1  0.69347552  -0.03058121  0.22045809  1
  Bi2+  Bi113  1  0.63684335  0.00870198  0.64558856  1
  Bi2+  Bi114  1  0.70598588  0.17698623  0.19687103  1
  Bi2+  Bi115  1  0.63048736  0.17273850  0.71366507  1
  Bi2+  Bi116  1  0.59460963  0.59820143  0.19110266  1
  Bi2+  Bi117  1  0.60805507  0.53154675  0.72688422  1
  Bi2+  Bi118  1  0.64411120  0.78436997  0.20673293  1
  Bi2+  Bi119  1  0.61237463  0.83983043  0.71082963  1
  Bi2+  Bi120  1  0.89225173  -0.02001060  0.20404571  1
  Bi2+  Bi121  1  0.82705932  -0.02850551  0.69042626  1
  Bi2+  Bi122  1  0.87005297  0.25192751  0.24727830  1
  Bi2+  Bi123  1  0.88080632  0.22114706  0.70756783  1
  Bi2+  Bi124  1  0.85251784  0.48474502  0.19305924  1
  Bi2+  Bi125  1  0.86776704  0.52427245  0.68718847  1
  Bi2+  Bi126  1  0.84987911  0.75269367  0.25512372  1
  Bi2+  Bi127  1  0.86580167  0.77895677  0.71563408  1
  S2-  S128  1  0.11682152  0.12079836  0.14364233  1
  S2-  S129  1  0.01368897  0.15928326  0.65538986  1
  S2-  S130  1  -0.01454058  0.38111300  0.16493102  1
  S2-  S131  1  -0.10489571  0.36299804  0.64976338  1
  S2-  S132  1  -0.03021979  0.60205976  0.16132858  1
  S2-  S133  1  0.02626779  0.52562350  0.64931077  1
  S2-  S134  1  0.08777856  0.87618961  0.14345411  1
  S2-  S135  1  -0.00692375  0.76756204  0.64429850  1
  S2-  S136  1  0.34476555  0.11352734  0.14030330  1
  S2-  S137  1  0.26800121  0.10791090  0.65681928  1
  S2-  S138  1  0.23475364  0.40894415  0.15175053  1
  S2-  S139  1  0.33004939  0.35786239  0.64537765  1
  S2-  S140  1  0.17814996  0.63693841  0.15226450  1
  S2-  S141  1  0.24697131  0.62268430  0.66434649  1
  S2-  S142  1  0.29245277  0.88601913  0.16904141  1
  S2-  S143  1  0.26574900  0.86408345  0.65624305  1
  S2-  S144  1  0.55248843  0.12659818  0.16467943  1
  S2-  S145  1  0.50345246  0.21283616  0.64407001  1
  S2-  S146  1  0.49563414  0.39415892  0.16313390  1
  S2-  S147  1  0.50777588  0.40444559  0.69627239  1
  S2-  S148  1  0.39190694  0.62010960  0.14915696  1
  S2-  S149  1  0.47995394  0.59612480  0.67221868  1
  S2-  S150  1  0.51328772  0.86835180  0.15138313  1
  S2-  S151  1  0.49949114  0.78416001  0.64339179  1
  S2-  S152  1  0.85619470  0.11515420  0.14080073  1
  S2-  S153  1  0.74654892  0.21229907  0.64136958  1
  S2-  S154  1  0.74380525  0.37953716  0.15564405  1
  S2-  S155  1  0.70846910  0.40408613  0.69121912  1
  S2-  S156  1  0.75576772  0.60915411  0.15353093  1
  S2-  S157  1  0.71198654  0.59818248  0.66556866  1
  S2-  S158  1  0.85921513  0.85895926  0.13691620  1
  S2-  S159  1  0.75082862  0.78458846  0.64244768  1
  S2-  S160  1  0.24460894  -0.01874830  0.34983910  1
  S2-  S161  1  0.12409576  0.03360574  0.84683353  1
  S2-  S162  1  0.12174915  0.19194923  0.35640283  1
  S2-  S163  1  0.13016916  0.27280383  0.83947286  1
  S2-  S164  1  0.12531046  0.48058060  0.34018777  1
  S2-  S165  1  0.04568299  0.49828659  0.84930390  1
  S2-  S166  1  0.06730162  0.76175331  0.35515678  1
  S2-  S167  1  0.10237399  0.76054199  0.83900366  1
  S2-  S168  1  0.47777498  0.00514060  0.34699170  1
  S2-  S169  1  0.36272518  0.11353349  0.85965570  1
  S2-  S170  1  0.47416925  0.26346414  0.35785319  1
  S2-  S171  1  0.36213293  0.35256170  0.85297743  1
  S2-  S172  1  0.39444271  0.49804774  0.34956151  1
  S2-  S173  1  0.49293582  0.51051418  0.85148663  1
  S2-  S174  1  0.36815581  0.77511525  0.34228818  1
  S2-  S175  1  0.36309965  0.78923869  0.84809222  1
  S2-  S176  1  0.64377114  0.13732968  0.35074630  1
  S2-  S177  1  0.58800351  0.00598646  0.84586879  1
  S2-  S178  1  0.65440307  0.39765314  0.36447371  1
  S2-  S179  1  0.61888821  0.28490734  0.84813684  1
  S2-  S180  1  0.62135698  0.61610669  0.36701563  1
  S2-  S181  1  0.71166740  0.50766471  0.84086522  1
  S2-  S182  1  0.62484052  0.85600121  0.35154955  1
  S2-  S183  1  0.64357170  0.75419713  0.84402655  1
  S2-  S184  1  0.99153219  0.00413311  0.35652476  1
  S2-  S185  1  0.85395376  -0.11928573  0.86001159  1
  S2-  S186  1  0.88259452  0.20209264  0.34399757  1
  S2-  S187  1  0.87137406  0.31534421  0.85028519  1
  S2-  S188  1  0.90333316  0.41304919  0.35900367  1
  S2-  S189  1  0.88137964  0.46840387  0.77431480  1
  S2-  S190  1  0.86436545  0.62953485  0.36303211  1
  S2-  S191  1  0.88301519  0.65584394  0.84326525  1
  S2-  S192  1  -0.00251304  0.13861150  0.45537884  1
  S2-  S193  1  -0.01488369  0.12122583  0.95617995  1
  S2-  S194  1  0.00405271  0.38624853  0.46625957  1
  S2-  S195  1  -0.01244795  0.37407551  0.95485697  1
  S2-  S196  1  0.00495419  0.63302058  0.46263108  1
  S2-  S197  1  -0.01344578  0.62014309  0.95276675  1
  S2-  S198  1  0.00187983  0.88518687  0.45927000  1
  S2-  S199  1  -0.01050221  0.86996637  0.95567841  1
  S2-  S200  1  0.25141987  0.13635467  0.45193522  1
  S2-  S201  1  0.23329893  0.12110209  0.95796158  1
  S2-  S202  1  0.25166165  0.38451208  0.45043675  1
  S2-  S203  1  0.23525590  0.37148897  0.94877448  1
  S2-  S204  1  0.25091847  0.62912326  0.45239897  1
  S2-  S205  1  0.24153242  0.61847697  0.94862598  1
  S2-  S206  1  0.24808076  0.88107509  0.45573265  1
  S2-  S207  1  0.23666419  0.87060906  0.95261728  1
  S2-  S208  1  0.49527262  0.12824557  0.45247917  1
  S2-  S209  1  0.49045804  0.12144770  0.96011524  1
  S2-  S210  1  0.49703229  0.38551205  0.46377086  1
  S2-  S211  1  0.49140457  0.36948262  0.95608513  1
  S2-  S212  1  0.49394662  0.63088743  0.46418225  1
  S2-  S213  1  0.49086039  0.62433790  0.95623301  1
  S2-  S214  1  0.49348331  0.88019912  0.45421610  1
  S2-  S215  1  0.48917866  0.87072649  0.95008829  1
  S2-  S216  1  0.75694803  0.13792165  0.45009537  1
  S2-  S217  1  0.73943946  0.12109047  0.95372824  1
  S2-  S218  1  0.75183836  0.38484788  0.46895002  1
  S2-  S219  1  0.73753529  0.37394644  0.95266861  1
  S2-  S220  1  0.74759618  0.63312651  0.46571579  1
  S2-  S221  1  0.73465975  0.62329003  0.94819823  1
  S2-  S222  1  0.75357964  0.88527166  0.45250023  1
  S2-  S223  1  0.73393898  0.86922026  0.95965005  1
  S2-  S224  1  0.10840370  -0.00475325  0.04379826  1
  S2-  S225  1  0.12405507  0.00813332  0.54654590  1
  S2-  S226  1  0.11027770  0.25055415  0.04566929  1
  S2-  S227  1  0.12430764  0.26007072  0.55171859  1
  S2-  S228  1  0.11488538  0.49946082  0.04523886  1
  S2-  S229  1  0.13052090  0.51050940  0.54586461  1
  S2-  S230  1  0.11492946  0.74329038  0.04462438  1
  S2-  S231  1  0.13055786  0.76185737  0.55052589  1
  S2-  S232  1  0.35912093  -0.00868649  0.04079608  1
  S2-  S233  1  0.37268434  0.00835310  0.54223000  1
  S2-  S234  1  0.36074230  0.24713489  0.04275478  1
  S2-  S235  1  0.37503164  0.25457928  0.54261567  1
  S2-  S236  1  0.36467560  0.49560916  0.03819553  1
  S2-  S237  1  0.37781638  0.50765541  0.55334380  1
  S2-  S238  1  0.36142978  0.75002535  0.04849599  1
  S2-  S239  1  0.37148438  0.76336904  0.54680630  1
  S2-  S240  1  0.61812554  -0.00563133  0.05305195  1
  S2-  S241  1  0.62561207  0.00891480  0.52739476  1
  S2-  S242  1  0.61548182  0.24655192  0.05159386  1
  S2-  S243  1  0.62161770  0.25767376  0.54213108  1
  S2-  S244  1  0.61242915  0.49490415  0.04404250  1
  S2-  S245  1  0.62000109  0.50307780  0.55818374  1
  S2-  S246  1  0.61465250  0.74939807  0.04777555  1
  S2-  S247  1  0.62421176  0.76357353  0.54182310  1
  S2-  S248  1  0.85999815  -0.00543179  0.03907781  1
  S2-  S249  1  0.87612892  0.00994913  0.54429736  1
  S2-  S250  1  0.86144291  0.25170183  0.04800949  1
  S2-  S251  1  0.87705985  0.25714423  0.54374987  1
  S2-  S252  1  0.86014204  0.49531675  0.05029639  1
  S2-  S253  1  0.86898927  0.51308866  0.55471501  1
  S2-  S254  1  0.86051195  0.74356061  0.03734178  1
  S2-  S255  1  0.87529115  0.76259352  0.53971457  1
