# generated using pymatgen
data_La9Ce10Pr6Nd4Sm3(BiS2)32
_symmetry_space_group_name_H-M   'P 1'
_cell_length_a   16.14724890
_cell_length_b   16.14382384
_cell_length_c   27.15489379
_cell_angle_alpha   90.11421894
_cell_angle_beta   90.15691960
_cell_angle_gamma   90.09712306
_symmetry_Int_Tables_number   1
_chemical_formula_structural   La9Ce10Pr6Nd4Sm3(BiS2)32
_chemical_formula_sum   'La18 Ce20 Pr12 Nd8 Sm6 Bi64 S128'
_cell_volume   7078.64182998
_cell_formula_units_Z   2
loop_
 _symmetry_equiv_pos_site_id
 _symmetry_equiv_pos_as_xyz
  1  'x, y, z'
loop_
 _atom_type_symbol
 _atom_type_oxidation_number
  La3+  3.0
  Ce3+  3.0
  Pr3+  3.0
  Nd3+  3.0
  Sm3+  3.0
  Bi2+  2.0
  S2-  -2.0
loop_
 _atom_site_type_symbol
 _atom_site_label
 _atom_site_symmetry_multiplicity
 _atom_site_fract_x
 _atom_site_fract_y
 _atom_site_fract_z
 _atom_site_occupancy
  La3+  La0  1  -0.00674927  0.36355644  0.56716368  1
  La3+  La1  1  0.87939931  0.49216125  0.93366972  1
  La3+  La2  1  0.24730051  0.10849378  0.61465048  1
  La3+  La3  1  0.37362576  0.25339463  0.92166367  1
  La3+  La4  1  0.12267720  0.25468834  0.93449348  1
  La3+  La5  1  0.75498305  0.86361332  0.56172447  1
  La3+  La6  1  0.63347914  -0.00389553  0.89033922  1
  La3+  La7  1  0.11995985  0.74878358  0.93342995  1
  La3+  La8  1  0.25554428  0.87134848  0.07400382  1
  La3+  La9  1  0.50858794  0.87828789  0.07216941  1
  La3+  La10  1  0.25248744  0.12116581  0.05691529  1
  La3+  La11  1  -0.00608431  0.62526218  0.08035443  1
  La3+  La12  1  0.24188624  0.36477512  0.57938126  1
  La3+  La13  1  0.37675024  0.47904000  0.43392426  1
  La3+  La14  1  0.36764818  -0.01844620  0.91681875  1
  La3+  La15  1  0.00404770  0.37121267  0.08469381  1
  La3+  La16  1  0.62354859  0.25148474  0.92717091  1
  La3+  La17  1  0.50140618  0.11647904  0.04109400  1
  Ce3+  Ce18  1  0.87279546  -0.00621862  0.93758376  1
  Ce3+  Ce19  1  0.87163049  0.23739717  0.43684922  1
  Ce3+  Ce20  1  0.00324691  0.11160003  0.54969685  1
  Ce3+  Ce21  1  0.87395653  0.72905173  0.42788012  1
  Ce3+  Ce22  1  0.62341194  0.73835437  0.43874823  1
  Ce3+  Ce23  1  0.62032072  0.74997519  0.94087038  1
  Ce3+  Ce24  1  0.62574800  0.48690013  0.44878370  1
  Ce3+  Ce25  1  0.62492143  -0.00923543  0.44237602  1
  Ce3+  Ce26  1  0.74864634  0.86939890  0.05639197  1
  Ce3+  Ce27  1  0.87360814  0.25158187  0.94043983  1
  Ce3+  Ce28  1  0.49833126  0.61393735  0.55824846  1
  Ce3+  Ce29  1  0.49578432  0.86532247  0.55546062  1
  Ce3+  Ce30  1  0.12792139  0.73299098  0.43565021  1
  Ce3+  Ce31  1  0.12585731  -0.00497745  0.94166199  1
  Ce3+  Ce32  1  0.37438066  0.23238102  0.45525159  1
  Ce3+  Ce33  1  0.49758368  0.37085535  0.06560518  1
  Ce3+  Ce34  1  0.50093134  0.11062251  0.57732929  1
  Ce3+  Ce35  1  0.62145129  0.49526603  0.94212850  1
  Ce3+  Ce36  1  0.37321686  0.73465098  0.43706903  1
  Ce3+  Ce37  1  0.75219765  0.37246589  0.06792535  1
  Pr3+  Pr38  1  0.00057872  0.12019113  0.05305369  1
  Pr3+  Pr39  1  0.24829009  0.62271189  0.07304033  1
  Pr3+  Pr40  1  0.87453451  0.74171729  0.92765725  1
  Pr3+  Pr41  1  0.24892568  0.61066706  0.56476020  1
  Pr3+  Pr42  1  0.37737178  0.74325549  0.94310900  1
  Pr3+  Pr43  1  0.24994848  0.86691921  0.55820426  1
  Pr3+  Pr44  1  0.74993191  0.10895907  0.57253150  1
  Pr3+  Pr45  1  -0.00065113  0.61475718  0.55394366  1
  Pr3+  Pr46  1  0.12838019  -0.01347558  0.42750551  1
  Pr3+  Pr47  1  0.87407845  -0.01310700  0.42266277  1
  Pr3+  Pr48  1  0.37590909  0.49950881  0.94014602  1
  Pr3+  Pr49  1  0.74858059  0.12097697  0.05397962  1
  Nd3+  Nd50  1  0.49632810  0.62110631  0.07827525  1
  Nd3+  Nd51  1  0.87223729  0.48478526  0.43302922  1
  Nd3+  Nd52  1  0.74964860  0.61851984  0.56640729  1
  Nd3+  Nd53  1  0.00013590  0.86908304  0.06254666  1
  Nd3+  Nd54  1  0.25603690  0.37030396  0.06725920  1
  Nd3+  Nd55  1  0.12627940  0.47851999  0.42893967  1
  Nd3+  Nd56  1  0.12538761  0.50064824  0.94921784  1
  Nd3+  Nd57  1  0.49947519  0.36236809  0.56732755  1
  Sm3+  Sm58  1  0.75068286  0.36351802  0.56652123  1
  Sm3+  Sm59  1  0.62462251  0.23519730  0.45022215  1
  Sm3+  Sm60  1  0.12853409  0.24010296  0.44191785  1
  Sm3+  Sm61  1  0.00354833  0.86551292  0.54729982  1
  Sm3+  Sm62  1  0.37566512  -0.00854891  0.44092138  1
  Sm3+  Sm63  1  0.75064427  0.61981264  0.05563064  1
  Bi2+  Bi64  1  -0.03102248  0.16806656  0.28604076  1
  Bi2+  Bi65  1  -0.02416777  0.14142406  0.79083161  1
  Bi2+  Bi66  1  0.00756986  0.36893746  0.29488104  1
  Bi2+  Bi67  1  -0.04967795  0.46249931  0.78963523  1
  Bi2+  Bi68  1  -0.02220217  0.66640223  0.29474844  1
  Bi2+  Bi69  1  -0.00098939  0.67047095  0.79167925  1
  Bi2+  Bi70  1  -0.02046481  0.96943777  0.29908166  1
  Bi2+  Bi71  1  -0.03628890  0.94239518  0.79160674  1
  Bi2+  Bi72  1  0.24969510  0.25359502  0.28951346  1
  Bi2+  Bi73  1  0.27811130  0.12200039  0.81265480  1
  Bi2+  Bi74  1  0.30709439  0.40884693  0.22843360  1
  Bi2+  Bi75  1  0.21179508  0.41051252  0.79710821  1
  Bi2+  Bi76  1  0.24736432  0.64901777  0.30137819  1
  Bi2+  Bi77  1  0.30001668  0.60612985  0.80037531  1
  Bi2+  Bi78  1  0.24512916  0.88864564  0.29519721  1
  Bi2+  Bi79  1  0.20991570  0.82983091  0.79945954  1
  Bi2+  Bi80  1  0.46795932  0.11695710  0.32069544  1
  Bi2+  Bi81  1  0.55175718  0.14807509  0.76305991  1
  Bi2+  Bi82  1  0.49077958  0.36446366  0.29131941  1
  Bi2+  Bi83  1  0.48742863  0.45842860  0.79689327  1
  Bi2+  Bi84  1  0.51057621  0.60205982  0.29313893  1
  Bi2+  Bi85  1  0.50120499  0.61973584  0.85598858  1
  Bi2+  Bi86  1  0.52102886  0.86725098  0.27706413  1
  Bi2+  Bi87  1  0.44131381  0.75365284  0.77660206  1
  Bi2+  Bi88  1  0.70550395  0.08710173  0.30404221  1
  Bi2+  Bi89  1  0.78748261  0.10391409  0.77667161  1
  Bi2+  Bi90  1  0.74183253  0.35570935  0.29013007  1
  Bi2+  Bi91  1  0.74235325  0.37083970  0.78823189  1
  Bi2+  Bi92  1  0.72121019  0.55427938  0.28742694  1
  Bi2+  Bi93  1  0.70040517  0.61002269  0.78175502  1
  Bi2+  Bi94  1  0.78618876  0.90679257  0.29367996  1
  Bi2+  Bi95  1  0.75085861  0.79562012  0.80103578  1
  Bi2+  Bi96  1  0.11507715  0.01960507  0.19362033  1
  Bi2+  Bi97  1  0.10149463  -0.03718850  0.70723503  1
  Bi2+  Bi98  1  0.09799923  0.26253474  0.21554989  1
  Bi2+  Bi99  1  0.11927386  0.24107560  0.71832361  1
  Bi2+  Bi100  1  0.11744679  0.52744037  0.22051878  1
  Bi2+  Bi101  1  0.10814586  0.49524914  0.71664477  1
  Bi2+  Bi102  1  0.05979369  0.77709656  0.21211724  1
  Bi2+  Bi103  1  0.10714157  0.75472490  0.70889298  1
  Bi2+  Bi104  1  0.38256344  -0.00049725  0.20350229  1
  Bi2+  Bi105  1  0.38387634  -0.03175666  0.71572751  1
  Bi2+  Bi106  1  0.41870077  0.21677520  0.22428520  1
  Bi2+  Bi107  1  0.39044414  0.28293098  0.72783048  1
  Bi2+  Bi108  1  0.48281567  0.47454606  0.19068106  1
  Bi2+  Bi109  1  0.38811798  0.53583375  0.70601856  1
  Bi2+  Bi110  1  0.43064696  0.72501582  0.21395082  1
  Bi2+  Bi111  1  0.29552470  0.71802044  0.69573153  1
  Bi2+  Bi112  1  0.60516949  0.00887275  0.20812035  1
  Bi2+  Bi113  1  0.64355758  -0.03601713  0.69589534  1
  Bi2+  Bi114  1  0.60507071  0.29153502  0.20373615  1
  Bi2+  Bi115  1  0.66229352  0.29020648  0.69476595  1
  Bi2+  Bi116  1  0.68268393  0.47185919  0.18450811  1
  Bi2+  Bi117  1  0.71057757  0.48243399  0.69012535  1
  Bi2+  Bi118  1  0.67049347  0.77669007  0.22278529  1
  Bi2+  Bi119  1  0.60342489  0.73038541  0.71490979  1
  Bi2+  Bi120  1  0.86216482  0.01925934  0.20894547  1
  Bi2+  Bi121  1  0.90086333  0.10288206  0.68002169  1
  Bi2+  Bi122  1  0.81695395  0.22288413  0.21593341  1
  Bi2+  Bi123  1  0.88425666  0.28422540  0.72001496  1
  Bi2+  Bi124  1  0.87351308  0.46960704  0.22729341  1
  Bi2+  Bi125  1  0.85128906  0.62081629  0.69661578  1
  Bi2+  Bi126  1  0.86492899  0.74924477  0.21283911  1
  Bi2+  Bi127  1  0.86336719  0.82941416  0.71474014  1
  S2-  S128  1  0.02032740  0.14867350  0.15140323  1
  S2-  S129  1  0.06941241  0.11040117  0.64124182  1
  S2-  S130  1  -0.00413279  0.50264027  0.15698310  1
  S2-  S131  1  0.08857164  0.35731641  0.65272189  1
  S2-  S132  1  0.13620235  0.65436283  0.15529586  1
  S2-  S133  1  0.00768414  0.59242836  0.65451352  1
  S2-  S134  1  -0.01874390  0.91422295  0.15954427  1
  S2-  S135  1  -0.00170438  0.85197480  0.64654650  1
  S2-  S136  1  0.25227896  0.09391501  0.15732972  1
  S2-  S137  1  0.21281267  0.09404357  0.72439059  1
  S2-  S138  1  0.16723603  0.39035602  0.15507829  1
  S2-  S139  1  0.26483550  0.26697815  0.66497256  1
  S2-  S140  1  0.36345997  0.61092535  0.15193541  1
  S2-  S141  1  0.24681307  0.50516435  0.64680992  1
  S2-  S142  1  0.18436915  0.87868625  0.17013320  1
  S2-  S143  1  0.24619100  0.93888927  0.65034776  1
  S2-  S144  1  0.49464682  0.04778762  0.13644300  1
  S2-  S145  1  0.40883001  0.10222064  0.66358925  1
  S2-  S146  1  0.38257332  0.34096199  0.13916725  1
  S2-  S147  1  0.49841052  0.34883567  0.66799903  1
  S2-  S148  1  0.57478307  0.67424552  0.16543839  1
  S2-  S149  1  0.51815145  0.62114936  0.65605827  1
  S2-  S150  1  0.39126293  0.86331654  0.14921395  1
  S2-  S151  1  0.50010461  0.88917331  0.65355791  1
  S2-  S152  1  0.73261811  0.09894528  0.15463405  1
  S2-  S153  1  0.62624376  0.11895238  0.65176883  1
  S2-  S154  1  0.85817998  0.34436941  0.14707689  1
  S2-  S155  1  0.86493281  0.38314747  0.63962713  1
  S2-  S156  1  0.83916266  0.64400717  0.13923115  1
  S2-  S157  1  0.75911977  0.74188279  0.63980003  1
  S2-  S158  1  0.65382275  0.88148768  0.14016814  1
  S2-  S159  1  0.78947509  0.97717252  0.63869909  1
  S2-  S160  1  0.14502198  0.00709031  0.32516807  1
  S2-  S161  1  0.18933912  -0.01660267  0.85103631  1
  S2-  S162  1  0.14376710  0.34082465  0.36040616  1
  S2-  S163  1  0.16410737  0.25656602  0.83537468  1
  S2-  S164  1  0.12245718  0.55978120  0.33579454  1
  S2-  S165  1  0.07576625  0.45128454  0.85661207  1
  S2-  S166  1  0.14262155  0.77886232  0.33982688  1
  S2-  S167  1  0.16037468  0.67248176  0.84330611  1
  S2-  S168  1  0.35619496  0.00442412  0.34073484  1
  S2-  S169  1  0.39664040  0.01401549  0.81448957  1
  S2-  S170  1  0.38060050  0.27966013  0.35986462  1
  S2-  S171  1  0.42812088  0.21902887  0.82438043  1
  S2-  S172  1  0.36111513  0.54511699  0.34022035  1
  S2-  S173  1  0.35512435  0.39992768  0.85556841  1
  S2-  S174  1  0.35388102  0.77154461  0.34113877  1
  S2-  S175  1  0.35017597  0.82679451  0.85454810  1
  S2-  S176  1  0.57416400  -0.02105018  0.34738039  1
  S2-  S177  1  0.58877348  -0.00744100  0.78415918  1
  S2-  S178  1  0.61701915  0.20734770  0.35239297  1
  S2-  S179  1  0.65344540  0.16167644  0.83897748  1
  S2-  S180  1  0.59314035  0.47657965  0.35174472  1
  S2-  S181  1  0.61651757  0.39138123  0.85938073  1
  S2-  S182  1  0.59555621  0.73040506  0.34049432  1
  S2-  S183  1  0.61284274  0.82909827  0.85420254  1
  S2-  S184  1  0.84803146  0.12692175  0.35950701  1
  S2-  S185  1  0.79901786  -0.02154313  0.84753353  1
  S2-  S186  1  0.86962574  0.35821224  0.36201226  1
  S2-  S187  1  0.87346444  0.35632444  0.86155336  1
  S2-  S188  1  0.85358619  0.60154714  0.35678105  1
  S2-  S189  1  0.88782724  0.60378462  0.85366980  1
  S2-  S190  1  0.90699183  0.81072682  0.34254681  1
  S2-  S191  1  0.98676528  0.80372285  0.85490127  1
  S2-  S192  1  0.00596373  0.11388541  0.44371841  1
  S2-  S193  1  -0.00075277  0.12187237  0.94531729  1
  S2-  S194  1  0.00138048  0.36077848  0.45846931  1
  S2-  S195  1  0.00072008  0.37037893  0.96815741  1
  S2-  S196  1  0.00445514  0.60739354  0.44782321  1
  S2-  S197  1  0.00130259  0.62259334  0.96159630  1
  S2-  S198  1  0.00298051  0.86144455  0.44473750  1
  S2-  S199  1  -0.00173142  0.87767775  0.95863386  1
  S2-  S200  1  0.24954420  0.11404775  0.44190881  1
  S2-  S201  1  0.24934200  0.12348296  0.94701432  1
  S2-  S202  1  0.25241902  0.36127764  0.46449579  1
  S2-  S203  1  0.24741985  0.37442781  0.95945858  1
  S2-  S204  1  0.25025063  0.60788007  0.45479061  1
  S2-  S205  1  0.24999276  0.62166058  0.96096470  1
  S2-  S206  1  0.25323432  0.86482522  0.45096586  1
  S2-  S207  1  0.24503218  0.86772398  0.96102724  1
  S2-  S208  1  0.50107245  0.11145147  0.46411915  1
  S2-  S209  1  0.50122300  0.11384378  0.93465873  1
  S2-  S210  1  0.50332345  0.35922669  0.46048108  1
  S2-  S211  1  0.49740025  0.37252235  0.95922412  1
  S2-  S212  1  0.49902354  0.61164864  0.45220688  1
  S2-  S213  1  0.50193194  0.61989874  0.96937219  1
  S2-  S214  1  0.49632178  0.86379905  0.44952127  1
  S2-  S215  1  0.49829878  0.87167850  0.95617613  1
  S2-  S216  1  0.74561864  0.11146210  0.46277565  1
  S2-  S217  1  0.75199491  0.12321666  0.94732718  1
  S2-  S218  1  0.74541754  0.36090547  0.46153895  1
  S2-  S219  1  0.74806502  0.37179128  0.96213822  1
  S2-  S220  1  0.74366704  0.61379385  0.45978723  1
  S2-  S221  1  0.74508330  0.62028381  0.95107245  1
  S2-  S222  1  0.74946723  0.86258681  0.44820984  1
  S2-  S223  1  0.75278540  0.86750120  0.95146113  1
  S2-  S224  1  0.12501892  -0.00563543  0.04781338  1
  S2-  S225  1  0.12613941  -0.01265265  0.53666248  1
  S2-  S226  1  0.12686039  0.24695560  0.04620119  1
  S2-  S227  1  0.12727846  0.23551014  0.54464431  1
  S2-  S228  1  0.12602122  0.49716034  0.05236689  1
  S2-  S229  1  0.12205045  0.48955774  0.54005389  1
  S2-  S230  1  0.12355313  0.74914053  0.04671343  1
  S2-  S231  1  0.12706097  0.73888556  0.54524283  1
  S2-  S232  1  0.37250769  -0.00510869  0.03496710  1
  S2-  S233  1  0.37290767  -0.00728198  0.54601649  1
  S2-  S234  1  0.37584054  0.24303391  0.03318559  1
  S2-  S235  1  0.37552052  0.23723375  0.55867781  1
  S2-  S236  1  0.37519498  0.49614600  0.04671908  1
  S2-  S237  1  0.37841731  0.48703561  0.54559023  1
  S2-  S238  1  0.37790286  0.74466437  0.04947330  1
  S2-  S239  1  0.37214866  0.73754680  0.54643962  1
  S2-  S240  1  0.63056924  -0.00374308  0.03471965  1
  S2-  S241  1  0.62304036  -0.01505631  0.54690296  1
  S2-  S242  1  0.62479049  0.24749833  0.04447384  1
  S2-  S243  1  0.62691499  0.24117362  0.55335989  1
  S2-  S244  1  0.62433153  0.49733468  0.05137622  1
  S2-  S245  1  0.62686740  0.48851798  0.55490050  1
  S2-  S246  1  0.62688278  0.74166857  0.04664074  1
  S2-  S247  1  0.62055538  0.74055038  0.54471453  1
  S2-  S248  1  0.87425286  -0.00452075  0.04583934  1
  S2-  S249  1  0.88203956  -0.01294166  0.53066074  1
  S2-  S250  1  0.87647632  0.24394238  0.04466862  1
  S2-  S251  1  0.87117414  0.23301359  0.54606071  1
  S2-  S252  1  0.87202569  0.49462892  0.04537111  1
  S2-  S253  1  0.86899091  0.49533566  0.54007417  1
  S2-  S254  1  0.87390573  0.74925050  0.03821892  1
  S2-  S255  1  0.87952657  0.74050815  0.53671270  1
