# generated using pymatgen
data_La9Ce10Pr6Nd4Sm3(BiS2)32
_symmetry_space_group_name_H-M   'P 1'
_cell_length_a   16.20619460
_cell_length_b   16.15236421
_cell_length_c   27.20412920
_cell_angle_alpha   90.01080978
_cell_angle_beta   89.97643122
_cell_angle_gamma   89.80211983
_symmetry_Int_Tables_number   1
_chemical_formula_structural   La9Ce10Pr6Nd4Sm3(BiS2)32
_chemical_formula_sum   'La18 Ce20 Pr12 Nd8 Sm6 Bi64 S128'
_cell_volume   7121.13702156
_cell_formula_units_Z   2
loop_
 _symmetry_equiv_pos_site_id
 _symmetry_equiv_pos_as_xyz
  1  'x, y, z'
loop_
 _atom_type_symbol
 _atom_type_oxidation_number
  La3+  3.0
  Ce3+  3.0
  Pr3+  3.0
  Nd3+  3.0
  Sm3+  3.0
  Bi2+  2.0
  S2-  -2.0
loop_
 _atom_site_type_symbol
 _atom_site_label
 _atom_site_symmetry_multiplicity
 _atom_site_fract_x
 _atom_site_fract_y
 _atom_site_fract_z
 _atom_site_occupancy
  La3+  La0  1  0.37617849  0.50434290  0.93338967  1
  La3+  La1  1  0.87522841  0.50348318  0.92878538  1
  La3+  La2  1  0.62829395  0.00138539  0.94155995  1
  La3+  La3  1  0.37375464  0.24917285  0.92060680  1
  La3+  La4  1  0.88722195  0.25882861  0.39306310  1
  La3+  La5  1  0.13101906  0.25160563  0.43529377  1
  La3+  La6  1  0.87609030  0.00297517  0.42700720  1
  La3+  La7  1  0.63134440  0.25213488  0.41839067  1
  La3+  La8  1  0.12714859  0.74852789  0.45016353  1
  La3+  La9  1  0.86464214  0.76363621  0.91433712  1
  La3+  La10  1  0.75639577  0.62477957  0.06640029  1
  La3+  La11  1  0.12908281  0.50902926  0.91470243  1
  La3+  La12  1  0.50141069  0.13420590  0.06915244  1
  La3+  La13  1  0.63609034  0.24552858  0.91395142  1
  La3+  La14  1  0.61968773  0.00387897  0.42650370  1
  La3+  La15  1  0.25670906  0.61708804  0.58847945  1
  La3+  La16  1  0.36532997  -0.00601983  0.40431582  1
  La3+  La17  1  0.25810485  0.88486639  0.11094389  1
  Ce3+  Ce18  1  0.50269006  0.37302548  0.55524224  1
  Ce3+  Ce19  1  0.49853104  0.88280193  0.55690121  1
  Ce3+  Ce20  1  0.62782108  0.50431928  0.44178109  1
  Ce3+  Ce21  1  0.49479559  0.13024055  0.55766985  1
  Ce3+  Ce22  1  0.25431581  0.37701634  0.55999807  1
  Ce3+  Ce23  1  -0.00391808  0.87737322  0.55917131  1
  Ce3+  Ce24  1  0.75305676  0.87509727  0.07673717  1
  Ce3+  Ce25  1  0.75258372  0.37439978  0.05913806  1
  Ce3+  Ce26  1  0.37636276  0.50575589  0.43941340  1
  Ce3+  Ce27  1  0.87739293  0.24883406  0.93974556  1
  Ce3+  Ce28  1  0.00050768  0.12831794  0.55703447  1
  Ce3+  Ce29  1  0.75228540  0.37243867  0.55039781  1
  Ce3+  Ce30  1  0.87346504  0.74987467  0.43432274  1
  Ce3+  Ce31  1  0.87825184  -0.00266050  0.95145866  1
  Ce3+  Ce32  1  0.50875487  0.87881078  0.07381214  1
  Ce3+  Ce33  1  0.74982803  0.88096376  0.55446765  1
  Ce3+  Ce34  1  0.50291995  0.37050890  0.04628729  1
  Ce3+  Ce35  1  0.25202135  0.38159770  0.05614750  1
  Ce3+  Ce36  1  0.00377027  0.62684241  0.04418356  1
  Ce3+  Ce37  1  0.25514388  0.12437439  0.05975796  1
  Pr3+  Pr38  1  0.37784662  0.75703923  0.94900873  1
  Pr3+  Pr39  1  0.24597445  0.12797373  0.56761742  1
  Pr3+  Pr40  1  0.12664334  -0.00065823  0.43854191  1
  Pr3+  Pr41  1  0.25119079  0.87429113  0.56556773  1
  Pr3+  Pr42  1  0.87870683  0.50636543  0.43262317  1
  Pr3+  Pr43  1  0.50333893  0.62675885  0.56768717  1
  Pr3+  Pr44  1  -0.00847073  0.62945608  0.58063190  1
  Pr3+  Pr45  1  0.38197552  0.25225818  0.42725515  1
  Pr3+  Pr46  1  0.12577824  0.50433097  0.44872833  1
  Pr3+  Pr47  1  0.74899639  0.62729932  0.56649590  1
  Pr3+  Pr48  1  0.12962034  -0.00109021  0.93601087  1
  Pr3+  Pr49  1  0.00889294  0.87286112  0.05823152  1
  Nd3+  Nd50  1  0.37567556  0.74513608  0.43921791  1
  Nd3+  Nd51  1  0.62852518  0.50419172  0.94085020  1
  Nd3+  Nd52  1  0.50034520  0.62379591  0.06801632  1
  Nd3+  Nd53  1  -0.00133519  0.37721151  0.55976899  1
  Nd3+  Nd54  1  0.37490949  0.00342030  0.93656788  1
  Nd3+  Nd55  1  0.00464305  0.12599251  0.06321027  1
  Nd3+  Nd56  1  0.00366954  0.37845901  0.05113905  1
  Nd3+  Nd57  1  0.24152908  0.62354905  0.06938853  1
  Sm3+  Sm58  1  0.74981623  0.12944485  0.54985217  1
  Sm3+  Sm59  1  0.62285289  0.75211628  0.44652307  1
  Sm3+  Sm60  1  0.12764084  0.25143743  0.94546926  1
  Sm3+  Sm61  1  0.75398515  0.12814389  0.06186436  1
  Sm3+  Sm62  1  0.14061282  0.75113049  0.93041546  1
  Sm3+  Sm63  1  0.62582712  0.75388245  0.94949974  1
  Bi2+  Bi64  1  0.01679707  0.13921100  0.27262614  1
  Bi2+  Bi65  1  -0.00992671  0.09520694  0.80644762  1
  Bi2+  Bi66  1  -0.09121970  0.37067122  0.24780469  1
  Bi2+  Bi67  1  -0.01120150  0.26596077  0.74761521  1
  Bi2+  Bi68  1  -0.04779984  0.62778042  0.24606427  1
  Bi2+  Bi69  1  -0.00714209  0.58182377  0.78320011  1
  Bi2+  Bi70  1  0.00496235  0.86093259  0.32264293  1
  Bi2+  Bi71  1  0.06719111  0.91041595  0.80753248  1
  Bi2+  Bi72  1  0.24926791  0.16297580  0.26607990  1
  Bi2+  Bi73  1  0.27646070  0.11853440  0.79295616  1
  Bi2+  Bi74  1  0.20176157  0.34144151  0.31506020  1
  Bi2+  Bi75  1  0.21948454  0.36456395  0.80569467  1
  Bi2+  Bi76  1  0.22564606  0.57713670  0.29328043  1
  Bi2+  Bi77  1  0.24014513  0.63256746  0.78668573  1
  Bi2+  Bi78  1  0.20631773  0.83747563  0.31497863  1
  Bi2+  Bi79  1  0.31560928  0.86893367  0.79530023  1
  Bi2+  Bi80  1  0.50536880  0.13870804  0.29559996  1
  Bi2+  Bi81  1  0.53355908  0.15633577  0.78439922  1
  Bi2+  Bi82  1  0.38652603  0.39963704  0.31033549  1
  Bi2+  Bi83  1  0.59611188  0.43482941  0.75811459  1
  Bi2+  Bi84  1  0.49519866  0.58723768  0.30740619  1
  Bi2+  Bi85  1  0.48833208  0.72664928  0.79539710  1
  Bi2+  Bi86  1  0.50617744  0.83735811  0.29013516  1
  Bi2+  Bi87  1  0.50506770  0.89651666  0.84889833  1
  Bi2+  Bi88  1  0.76398544  0.14207621  0.27572264  1
  Bi2+  Bi89  1  0.78711937  0.12591993  0.79027391  1
  Bi2+  Bi90  1  0.66421335  0.36993268  0.25663447  1
  Bi2+  Bi91  1  0.79610077  0.31579585  0.75224821  1
  Bi2+  Bi92  1  0.77696273  0.54187509  0.30062152  1
  Bi2+  Bi93  1  0.75194623  0.62029840  0.80087241  1
  Bi2+  Bi94  1  0.81480788  0.87477900  0.31795753  1
  Bi2+  Bi95  1  0.69720465  0.90833945  0.81283951  1
  Bi2+  Bi96  1  0.03406175  -0.03633072  0.22650774  1
  Bi2+  Bi97  1  0.14659548  0.02353822  0.72379824  1
  Bi2+  Bi98  1  0.17264636  0.30620247  0.20153587  1
  Bi2+  Bi99  1  0.18910953  0.22332948  0.70510931  1
  Bi2+  Bi100  1  0.08835064  0.48510206  0.20734738  1
  Bi2+  Bi101  1  0.12566221  0.45189561  0.70169012  1
  Bi2+  Bi102  1  0.10612020  0.72200710  0.20627172  1
  Bi2+  Bi103  1  0.11086921  0.79614528  0.71799240  1
  Bi2+  Bi104  1  0.37447054  0.01304863  0.21692486  1
  Bi2+  Bi105  1  0.44715726  -0.00935102  0.74854721  1
  Bi2+  Bi106  1  0.36691858  0.28867493  0.20948412  1
  Bi2+  Bi107  1  0.37916854  0.30091192  0.71375872  1
  Bi2+  Bi108  1  0.35155236  0.50748254  0.21362389  1
  Bi2+  Bi109  1  0.45459068  0.56265234  0.74089909  1
  Bi2+  Bi110  1  0.37417467  0.74946328  0.22158383  1
  Bi2+  Bi111  1  0.36172974  0.78558461  0.69229141  1
  Bi2+  Bi112  1  0.66380546  -0.08158553  0.24065428  1
  Bi2+  Bi113  1  0.62923369  -0.03257448  0.70701644  1
  Bi2+  Bi114  1  0.61751736  0.21829014  0.18868594  1
  Bi2+  Bi115  1  0.63284586  0.22302072  0.68486463  1
  Bi2+  Bi116  1  0.55029887  0.50889957  0.20660924  1
  Bi2+  Bi117  1  0.62496051  0.58688535  0.67773651  1
  Bi2+  Bi118  1  0.71277690  0.72881904  0.26693936  1
  Bi2+  Bi119  1  0.64211272  0.76611645  0.72325696  1
  Bi2+  Bi120  1  0.85004048  -0.07623624  0.20034996  1
  Bi2+  Bi121  1  0.90035134  -0.04961730  0.74274002  1
  Bi2+  Bi122  1  0.88955383  0.19948044  0.19245126  1
  Bi2+  Bi123  1  0.91709490  0.11843120  0.68578762  1
  Bi2+  Bi124  1  0.82205018  0.51800279  0.18290489  1
  Bi2+  Bi125  1  0.79415903  0.49322126  0.70029787  1
  Bi2+  Bi126  1  0.84138043  0.73581726  0.17640741  1
  Bi2+  Bi127  1  0.85448999  0.76380386  0.71628203  1
  S2-  S128  1  0.03157447  0.11265555  0.16159483  1
  S2-  S129  1  0.10641263  0.12149561  0.63660889  1
  S2-  S130  1  -0.01226956  0.38307400  0.15037087  1
  S2-  S131  1  0.00866671  0.35514033  0.65959965  1
  S2-  S132  1  0.06948696  0.61206964  0.13427652  1
  S2-  S133  1  0.03502751  0.57950008  0.67847228  1
  S2-  S134  1  0.09008999  0.86398699  0.14729009  1
  S2-  S135  1  -0.01911350  0.84153669  0.65475443  1
  S2-  S136  1  0.26139781  0.05390400  0.14889096  1
  S2-  S137  1  0.33561560  0.18060622  0.65313072  1
  S2-  S138  1  0.24603795  0.48427810  0.13545376  1
  S2-  S139  1  0.26649606  0.44346191  0.65071281  1
  S2-  S140  1  0.25131478  0.71969490  0.15410700  1
  S2-  S141  1  0.21297512  0.68195464  0.68450586  1
  S2-  S142  1  0.26294255  0.89159182  0.22703664  1
  S2-  S143  1  0.22362579  0.90128797  0.66490740  1
  S2-  S144  1  0.51723837  0.08962167  0.16917075  1
  S2-  S145  1  0.54374321  0.09906785  0.65150315  1
  S2-  S146  1  0.48832214  0.29607156  0.13448597  1
  S2-  S147  1  0.50559089  0.34140744  0.65401464  1
  S2-  S148  1  0.47477935  0.65642532  0.16681131  1
  S2-  S149  1  0.40140020  0.62763679  0.64918630  1
  S2-  S150  1  0.41818684  0.88025108  0.15695464  1
  S2-  S151  1  0.49016565  0.86247663  0.65521347  1
  S2-  S152  1  0.74582807  0.11165886  0.16058434  1
  S2-  S153  1  0.75717455  0.11869949  0.64967507  1
  S2-  S154  1  0.72370833  0.35313679  0.15544523  1
  S2-  S155  1  0.74852959  0.35014477  0.64915755  1
  S2-  S156  1  0.67638510  0.59380897  0.15529731  1
  S2-  S157  1  0.85104174  0.63926348  0.64801851  1
  S2-  S158  1  0.63559357  0.86774647  0.14696788  1
  S2-  S159  1  0.74227598  0.87060996  0.65285368  1
  S2-  S160  1  0.20538965  -0.00956956  0.34918250  1
  S2-  S161  1  0.24694894  -0.00954629  0.85958671  1
  S2-  S162  1  0.04831739  0.24875083  0.34586928  1
  S2-  S163  1  0.16976785  0.22542834  0.85152874  1
  S2-  S164  1  0.12375417  0.49123708  0.34689077  1
  S2-  S165  1  0.06162229  0.44969628  0.82334131  1
  S2-  S166  1  0.09566662  0.71791209  0.35211240  1
  S2-  S167  1  0.11216242  0.65414912  0.84519723  1
  S2-  S168  1  0.50657572  -0.01828926  0.34279306  1
  S2-  S169  1  0.40728918  0.11736640  0.85672591  1
  S2-  S170  1  0.35444487  0.14154870  0.34643466  1
  S2-  S171  1  0.37015837  0.32247986  0.82211997  1
  S2-  S172  1  0.35104565  0.61817448  0.36406346  1
  S2-  S173  1  0.27759846  0.51270257  0.85027689  1
  S2-  S174  1  0.36728197  0.83116207  0.35067438  1
  S2-  S175  1  0.28786920  0.74139613  0.86113119  1
  S2-  S176  1  0.64677615  0.11277335  0.34643734  1
  S2-  S177  1  0.64867139  0.09461165  0.85192620  1
  S2-  S178  1  0.50332978  0.27604713  0.34795476  1
  S2-  S179  1  0.58663075  0.30304438  0.81969771  1
  S2-  S180  1  0.61989819  0.48296622  0.34387127  1
  S2-  S181  1  0.62838313  0.53048650  0.84184724  1
  S2-  S182  1  0.59755357  0.71972843  0.35036232  1
  S2-  S183  1  0.70569530  0.75721630  0.86204627  1
  S2-  S184  1  0.88738473  0.10188920  0.34080247  1
  S2-  S185  1  0.84187193  -0.07321748  0.86598228  1
  S2-  S186  1  0.74232221  0.28081831  0.33245351  1
  S2-  S187  1  0.79592927  0.25976084  0.85323372  1
  S2-  S188  1  0.89911199  0.41529034  0.34098916  1
  S2-  S189  1  0.85682551  0.50136969  0.82825992  1
  S2-  S190  1  0.87168932  0.63623737  0.36120256  1
  S2-  S191  1  0.90339116  0.71891506  0.81528011  1
  S2-  S192  1  0.00269809  0.12604526  0.45121546  1
  S2-  S193  1  0.00402277  0.12637326  0.95530592  1
  S2-  S194  1  0.00131299  0.37664785  0.45364521  1
  S2-  S195  1  0.00138976  0.37311640  0.94382435  1
  S2-  S196  1  0.00037003  0.62688868  0.46723734  1
  S2-  S197  1  -0.00621192  0.63471618  0.94104229  1
  S2-  S198  1  -0.00150646  0.87531923  0.45346470  1
  S2-  S199  1  0.00610468  0.87197108  0.95045062  1
  S2-  S200  1  0.25071908  0.12362618  0.45742943  1
  S2-  S201  1  0.24960758  0.12799519  0.95637815  1
  S2-  S202  1  0.25440283  0.37989748  0.45199462  1
  S2-  S203  1  0.24937475  0.37499491  0.94970975  1
  S2-  S204  1  0.25007938  0.62516636  0.47152820  1
  S2-  S205  1  0.25353796  0.62586196  0.96096966  1
  S2-  S206  1  0.25299872  0.87484911  0.45892654  1
  S2-  S207  1  0.25190472  0.87663305  0.95788323  1
  S2-  S208  1  0.49528201  0.12232497  0.45136734  1
  S2-  S209  1  0.50682482  0.13106044  0.95853373  1
  S2-  S210  1  0.50241567  0.38290212  0.45125933  1
  S2-  S211  1  0.50389299  0.37638295  0.94010575  1
  S2-  S212  1  0.50421911  0.62718949  0.46085412  1
  S2-  S213  1  0.50361876  0.62859844  0.95434050  1
  S2-  S214  1  0.49793579  0.87399283  0.45287052  1
  S2-  S215  1  0.50435824  0.87749479  0.96626735  1
  S2-  S216  1  0.75897188  0.13146407  0.44709049  1
  S2-  S217  1  0.75892669  0.12417258  0.95770463  1
  S2-  S218  1  0.75490373  0.37934171  0.44616923  1
  S2-  S219  1  0.75062641  0.37782502  0.95116331  1
  S2-  S220  1  0.74576596  0.63008653  0.45925230  1
  S2-  S221  1  0.75105235  0.62822547  0.95652572  1
  S2-  S222  1  0.74603412  0.87706880  0.44759251  1
  S2-  S223  1  0.74907187  0.87548608  0.97032652  1
  S2-  S224  1  0.12791152  0.00326587  0.04486612  1
  S2-  S225  1  0.12388637  -0.00465954  0.54428634  1
  S2-  S226  1  0.12746293  0.25197881  0.05077112  1
  S2-  S227  1  0.12690820  0.25779871  0.54336785  1
  S2-  S228  1  0.12361728  0.49819445  0.02832878  1
  S2-  S229  1  0.12298163  0.50295037  0.55538449  1
  S2-  S230  1  0.12693050  0.74762836  0.03556824  1
  S2-  S231  1  0.12306258  0.74871230  0.55902747  1
  S2-  S232  1  0.38025666  0.00316097  0.04603721  1
  S2-  S233  1  0.37229934  0.00361157  0.55752580  1
  S2-  S234  1  0.37026747  0.25411841  0.03575320  1
  S2-  S235  1  0.37521173  0.25536914  0.53734193  1
  S2-  S236  1  0.38300546  0.49893621  0.04158999  1
  S2-  S237  1  0.38168453  0.49851234  0.54560823  1
  S2-  S238  1  0.37896114  0.74823638  0.05378283  1
  S2-  S239  1  0.37729346  0.75227327  0.54780697  1
  S2-  S240  1  0.63182989  0.00773950  0.05044632  1
  S2-  S241  1  0.62624228  0.00496946  0.53905103  1
  S2-  S242  1  0.63423823  0.25023731  0.03881913  1
  S2-  S243  1  0.62597669  0.24960743  0.53557865  1
  S2-  S244  1  0.62449963  0.49684179  0.04633791  1
  S2-  S245  1  0.62761404  0.49879748  0.54851243  1
  S2-  S246  1  0.62655681  0.74411832  0.05183098  1
  S2-  S247  1  0.62493903  0.75576879  0.55147368  1
  S2-  S248  1  0.87981125  0.00236722  0.05791935  1
  S2-  S249  1  0.87434689  0.00409254  0.54040661  1
  S2-  S250  1  0.87934514  0.25028187  0.04690700  1
  S2-  S251  1  0.87746370  0.24956226  0.55004839  1
  S2-  S252  1  0.87819059  0.49938835  0.03851599  1
  S2-  S253  1  0.87439537  0.50061117  0.54681711  1
  S2-  S254  1  0.87982837  0.75257922  0.04560465  1
  S2-  S255  1  0.87228552  0.75519861  0.54225415  1
