# generated using pymatgen
data_La9Ce10Pr6Nd4Sm3(BiS2)32
_symmetry_space_group_name_H-M   'P 1'
_cell_length_a   16.17428824
_cell_length_b   16.15487160
_cell_length_c   27.28885805
_cell_angle_alpha   90.30312614
_cell_angle_beta   90.18579990
_cell_angle_gamma   89.98601198
_symmetry_Int_Tables_number   1
_chemical_formula_structural   La9Ce10Pr6Nd4Sm3(BiS2)32
_chemical_formula_sum   'La18 Ce20 Pr12 Nd8 Sm6 Bi64 S128'
_cell_volume   7130.26512557
_cell_formula_units_Z   2
loop_
 _symmetry_equiv_pos_site_id
 _symmetry_equiv_pos_as_xyz
  1  'x, y, z'
loop_
 _atom_type_symbol
 _atom_type_oxidation_number
  La3+  3.0
  Ce3+  3.0
  Pr3+  3.0
  Nd3+  3.0
  Sm3+  3.0
  Bi2+  2.0
  S2-  -2.0
loop_
 _atom_site_type_symbol
 _atom_site_label
 _atom_site_symmetry_multiplicity
 _atom_site_fract_x
 _atom_site_fract_y
 _atom_site_fract_z
 _atom_site_occupancy
  La3+  La0  1  0.36663091  -0.00788979  0.42267596  1
  La3+  La1  1  0.75130714  0.63570665  0.57041013  1
  La3+  La2  1  0.63286365  0.76110445  0.39278677  1
  La3+  La3  1  0.75317558  0.61171479  0.08750332  1
  La3+  La4  1  0.86982422  0.24942717  0.88759535  1
  La3+  La5  1  0.36240248  0.77986870  0.88751970  1
  La3+  La6  1  0.87010049  0.50279891  0.92738497  1
  La3+  La7  1  0.87761666  0.73933890  0.42631990  1
  La3+  La8  1  0.11932595  0.00256198  0.43089132  1
  La3+  La9  1  0.37018695  0.74102769  0.42931469  1
  La3+  La10  1  0.75115555  0.12260483  0.56449412  1
  La3+  La11  1  0.24918691  0.37666659  0.06660741  1
  La3+  La12  1  0.25544804  0.87380649  0.07090238  1
  La3+  La13  1  0.00640128  0.12880776  0.58774313  1
  La3+  La14  1  0.13481437  -0.00564077  0.92397458  1
  La3+  La15  1  0.49871985  0.11473081  0.56665262  1
  La3+  La16  1  0.24936608  0.62136227  0.59161172  1
  La3+  La17  1  0.50332856  0.13633526  0.09542620  1
  Ce3+  Ce18  1  0.62384494  0.24906166  0.43945038  1
  Ce3+  Ce19  1  0.49929317  0.87374287  0.54524168  1
  Ce3+  Ce20  1  0.00107381  0.62558643  0.56945641  1
  Ce3+  Ce21  1  0.37421802  0.50455835  0.93230282  1
  Ce3+  Ce22  1  0.75058694  0.87182973  0.55138084  1
  Ce3+  Ce23  1  0.86850920  0.74653149  0.93887969  1
  Ce3+  Ce24  1  0.37420862  0.24699005  0.44200799  1
  Ce3+  Ce25  1  -0.00720826  0.87358488  0.05848707  1
  Ce3+  Ce26  1  0.87797388  -0.00108788  0.44471062  1
  Ce3+  Ce27  1  0.62097597  -0.00169391  0.95040658  1
  Ce3+  Ce28  1  0.37581328  0.00533645  0.94848299  1
  Ce3+  Ce29  1  0.61784301  0.00992140  0.42358261  1
  Ce3+  Ce30  1  0.75161135  0.36984775  0.05095444  1
  Ce3+  Ce31  1  0.75000776  0.12547107  0.05487163  1
  Ce3+  Ce32  1  0.49999209  0.62121623  0.05659338  1
  Ce3+  Ce33  1  0.00110911  0.37483042  0.56613059  1
  Ce3+  Ce34  1  0.24888437  0.12414235  0.56306282  1
  Ce3+  Ce35  1  0.25457911  0.37628430  0.56543029  1
  Ce3+  Ce36  1  0.12859447  0.74744550  0.94679223  1
  Ce3+  Ce37  1  0.87479431  0.50217048  0.45016293  1
  Pr3+  Pr38  1  0.62373584  0.23613778  0.92661972  1
  Pr3+  Pr39  1  0.24979521  0.87583271  0.56154811  1
  Pr3+  Pr40  1  0.37477922  0.24510986  0.94205766  1
  Pr3+  Pr41  1  -0.00259515  0.37166800  0.04430223  1
  Pr3+  Pr42  1  0.12816942  0.24559263  0.92725542  1
  Pr3+  Pr43  1  0.74703090  0.37811627  0.56431995  1
  Pr3+  Pr44  1  0.25163253  0.62315939  0.06107241  1
  Pr3+  Pr45  1  0.87532964  -0.00516767  0.93028044  1
  Pr3+  Pr46  1  0.50171482  0.37589818  0.55421252  1
  Pr3+  Pr47  1  0.12618059  0.49655782  0.93186450  1
  Pr3+  Pr48  1  0.87616944  0.24876372  0.44397696  1
  Pr3+  Pr49  1  0.75168230  0.87217148  0.07141851  1
  Nd3+  Nd50  1  0.62514032  0.49661604  0.94068408  1
  Nd3+  Nd51  1  0.50079077  0.62851002  0.55906299  1
  Nd3+  Nd52  1  0.62628538  0.50607358  0.43835692  1
  Nd3+  Nd53  1  0.61887081  0.74966194  0.94418385  1
  Nd3+  Nd54  1  0.12472316  0.25141329  0.44691414  1
  Nd3+  Nd55  1  0.24224131  0.12367760  0.07125601  1
  Nd3+  Nd56  1  -0.00251615  0.62010461  0.05941168  1
  Nd3+  Nd57  1  0.50553044  0.87361782  0.07603690  1
  Sm3+  Sm58  1  0.50107150  0.36932264  0.05124041  1
  Sm3+  Sm59  1  0.00448246  0.12329694  0.04765352  1
  Sm3+  Sm60  1  0.37480441  0.50290400  0.44185991  1
  Sm3+  Sm61  1  0.00273354  0.87331832  0.55708692  1
  Sm3+  Sm62  1  0.12762048  0.74372581  0.45111804  1
  Sm3+  Sm63  1  0.12788533  0.49946895  0.45036696  1
  Bi2+  Bi64  1  -0.00582506  0.14732798  0.30154447  1
  Bi2+  Bi65  1  0.01089274  0.09496831  0.78648414  1
  Bi2+  Bi66  1  0.05072825  0.40424912  0.27997729  1
  Bi2+  Bi67  1  0.11766581  0.37734401  0.80046593  1
  Bi2+  Bi68  1  -0.00792512  0.61032572  0.28160809  1
  Bi2+  Bi69  1  -0.02042134  0.67332529  0.77996120  1
  Bi2+  Bi70  1  -0.00301366  0.89024781  0.28299663  1
  Bi2+  Bi71  1  -0.08002994  0.86076625  0.78681303  1
  Bi2+  Bi72  1  0.24328318  0.13826625  0.29295428  1
  Bi2+  Bi73  1  0.26768037  0.17591119  0.78738558  1
  Bi2+  Bi74  1  0.24439021  0.37539004  0.25442469  1
  Bi2+  Bi75  1  0.30683866  0.35774294  0.83702131  1
  Bi2+  Bi76  1  0.22723098  0.61199089  0.30411636  1
  Bi2+  Bi77  1  0.23531158  0.62152882  0.78162987  1
  Bi2+  Bi78  1  0.23678955  0.85579731  0.29044779  1
  Bi2+  Bi79  1  0.19590572  0.88444009  0.79191261  1
  Bi2+  Bi80  1  0.50355490  0.16337993  0.28979651  1
  Bi2+  Bi81  1  0.49874189  0.16218380  0.79939876  1
  Bi2+  Bi82  1  0.57619433  0.35076946  0.30342222  1
  Bi2+  Bi83  1  0.48266773  0.35215729  0.78382999  1
  Bi2+  Bi84  1  0.49870206  0.52675928  0.29977423  1
  Bi2+  Bi85  1  0.50663716  0.63411591  0.79240456  1
  Bi2+  Bi86  1  0.49855559  0.90228572  0.28667506  1
  Bi2+  Bi87  1  0.49357720  0.95273497  0.79090245  1
  Bi2+  Bi88  1  0.77902729  0.14433267  0.29619062  1
  Bi2+  Bi89  1  0.72694151  0.09251039  0.78543274  1
  Bi2+  Bi90  1  0.75973771  0.42099944  0.28524496  1
  Bi2+  Bi91  1  0.72565495  0.40035822  0.78626576  1
  Bi2+  Bi92  1  0.76804049  0.62269340  0.28837305  1
  Bi2+  Bi93  1  0.71755364  0.66300115  0.81720094  1
  Bi2+  Bi94  1  0.79998956  0.92557630  0.28751973  1
  Bi2+  Bi95  1  0.75240815  0.85525438  0.84496554  1
  Bi2+  Bi96  1  0.09181880  0.01801275  0.21625163  1
  Bi2+  Bi97  1  0.14313343  -0.01340510  0.70426831  1
  Bi2+  Bi98  1  0.08172555  0.25949465  0.19968297  1
  Bi2+  Bi99  1  0.20668670  0.33274014  0.69652130  1
  Bi2+  Bi100  1  0.10558421  0.53476758  0.19492360  1
  Bi2+  Bi101  1  0.05177414  0.45283147  0.69918398  1
  Bi2+  Bi102  1  0.12229244  0.73404410  0.20664461  1
  Bi2+  Bi103  1  0.10541455  0.75193857  0.70629869  1
  Bi2+  Bi104  1  0.35541176  -0.00917412  0.20160168  1
  Bi2+  Bi105  1  0.35982450  0.03482108  0.72612622  1
  Bi2+  Bi106  1  0.38995453  0.27665276  0.20846059  1
  Bi2+  Bi107  1  0.35264128  0.20882540  0.67905996  1
  Bi2+  Bi108  1  0.36823559  0.51602075  0.21538553  1
  Bi2+  Bi109  1  0.34218304  0.46921168  0.74277068  1
  Bi2+  Bi110  1  0.31240829  0.71000768  0.21674255  1
  Bi2+  Bi111  1  0.40928531  0.80141198  0.68811439  1
  Bi2+  Bi112  1  0.67154774  0.01220312  0.20951813  1
  Bi2+  Bi113  1  0.62814762  -0.03004305  0.71259477  1
  Bi2+  Bi114  1  0.69416004  0.26646921  0.21808809  1
  Bi2+  Bi115  1  0.62471027  0.28159535  0.69511058  1
  Bi2+  Bi116  1  0.62705984  0.49937747  0.20726307  1
  Bi2+  Bi117  1  0.58033308  0.53416591  0.70830048  1
  Bi2+  Bi118  1  0.55822580  0.73695370  0.19796791  1
  Bi2+  Bi119  1  0.69893821  0.78802681  0.73506259  1
  Bi2+  Bi120  1  0.89212095  0.01910547  0.19952763  1
  Bi2+  Bi121  1  0.82662523  -0.02730752  0.71363673  1
  Bi2+  Bi122  1  0.88582066  0.21552172  0.20444623  1
  Bi2+  Bi123  1  0.86992125  0.24113692  0.70833022  1
  Bi2+  Bi124  1  0.89033269  0.47269067  0.20290862  1
  Bi2+  Bi125  1  0.88351421  0.49886349  0.74410545  1
  Bi2+  Bi126  1  0.92666400  0.75242959  0.21151282  1
  Bi2+  Bi127  1  0.86809970  0.66501213  0.68592511  1
  S2-  S128  1  0.09783567  0.12672839  0.13285781  1
  S2-  S129  1  -0.05849073  0.08497545  0.68270803  1
  S2-  S130  1  0.01588404  0.39883108  0.14340924  1
  S2-  S131  1  -0.00583504  0.28388416  0.64958461  1
  S2-  S132  1  -0.09630970  0.61742038  0.14307167  1
  S2-  S133  1  0.09298838  0.60375540  0.65202171  1
  S2-  S134  1  -0.11161115  0.87113800  0.13777932  1
  S2-  S135  1  0.02965357  0.87404533  0.65541590  1
  S2-  S136  1  0.34644920  0.12997020  0.15296591  1
  S2-  S137  1  0.15512184  0.11793608  0.64551020  1
  S2-  S138  1  0.23382934  0.29861340  0.15745150  1
  S2-  S139  1  0.28254325  0.47399519  0.64621821  1
  S2-  S140  1  0.24972049  0.51206192  0.13845457  1
  S2-  S141  1  0.27457492  0.69931240  0.68379200  1
  S2-  S142  1  0.20558877  0.93032293  0.16204582  1
  S2-  S143  1  0.28313647  0.91778351  0.65804038  1
  S2-  S144  1  0.51557691  0.04526829  0.18827959  1
  S2-  S145  1  0.51577551  0.16239959  0.66298282  1
  S2-  S146  1  0.50576896  0.30445306  0.14304047  1
  S2-  S147  1  0.52418420  0.39372348  0.65325079  1
  S2-  S148  1  0.50046445  0.58585144  0.15337164  1
  S2-  S149  1  0.48898107  0.64985702  0.65896140  1
  S2-  S150  1  0.42251841  0.84359410  0.16520854  1
  S2-  S151  1  0.50556085  0.92764830  0.63809889  1
  S2-  S152  1  0.67493668  0.14761131  0.14292074  1
  S2-  S153  1  0.73720900  0.15660114  0.66298345  1
  S2-  S154  1  0.75231394  0.44840207  0.13919151  1
  S2-  S155  1  0.77102733  0.35942072  0.66417535  1
  S2-  S156  1  0.70367591  0.65497653  0.18688159  1
  S2-  S157  1  0.71962625  0.56821100  0.66199155  1
  S2-  S158  1  0.64111636  0.87086292  0.15256486  1
  S2-  S159  1  0.76959116  0.78944727  0.63742534  1
  S2-  S160  1  0.22823763  0.00551672  0.34939399  1
  S2-  S161  1  0.04559175  -0.05696274  0.83799127  1
  S2-  S162  1  0.13153386  0.21166390  0.34902390  1
  S2-  S163  1  0.14081718  0.13041520  0.85006739  1
  S2-  S164  1  0.14092270  0.48112759  0.35301933  1
  S2-  S165  1  0.11417219  0.54046532  0.83340739  1
  S2-  S166  1  0.15362604  0.74273568  0.35342900  1
  S2-  S167  1  0.19361790  0.74745684  0.85369114  1
  S2-  S168  1  0.47172780  0.03712913  0.34745344  1
  S2-  S169  1  0.28594066  -0.05378232  0.86853762  1
  S2-  S170  1  0.36603191  0.23285204  0.34367461  1
  S2-  S171  1  0.38458219  0.12640258  0.86729097  1
  S2-  S172  1  0.36948968  0.60142027  0.36065150  1
  S2-  S173  1  0.36792895  0.60757713  0.85030124  1
  S2-  S174  1  0.36849708  0.84652204  0.34761092  1
  S2-  S175  1  0.38068936  0.82052956  0.78189992  1
  S2-  S176  1  0.64465993  -0.07918451  0.33920937  1
  S2-  S177  1  0.61218400  0.08009463  0.86362192  1
  S2-  S178  1  0.63619397  0.15270573  0.35799688  1
  S2-  S179  1  0.71477269  0.26088666  0.83670036  1
  S2-  S180  1  0.63954508  0.59362069  0.35273523  1
  S2-  S181  1  0.62097136  0.51585265  0.84051606  1
  S2-  S182  1  0.54922382  0.75105761  0.29653736  1
  S2-  S183  1  0.53354459  0.75485538  0.85601670  1
  S2-  S184  1  0.97938053  0.00654178  0.36449021  1
  S2-  S185  1  0.86612850  0.08602969  0.84260316  1
  S2-  S186  1  0.88741034  0.26031115  0.34384175  1
  S2-  S187  1  0.96953618  0.24801453  0.79835070  1
  S2-  S188  1  0.88942817  0.58191920  0.36326299  1
  S2-  S189  1  0.86487873  0.41533294  0.83868584  1
  S2-  S190  1  0.78686107  0.76588199  0.33955540  1
  S2-  S191  1  0.87024463  0.63823997  0.85970855  1
  S2-  S192  1  0.00056131  0.12938063  0.46621363  1
  S2-  S193  1  -0.00307129  0.12540116  0.94490703  1
  S2-  S194  1  0.00074675  0.37734282  0.45643101  1
  S2-  S195  1  -0.00183449  0.36833787  0.93800573  1
  S2-  S196  1  0.00669575  0.62112397  0.46244442  1
  S2-  S197  1  0.00421621  0.62392994  0.95381449  1
  S2-  S198  1  0.00204788  0.86514465  0.45277471  1
  S2-  S199  1  -0.00249876  0.86734366  0.95297010  1
  S2-  S200  1  0.24863338  0.12672356  0.45695995  1
  S2-  S201  1  0.24665922  0.12389604  0.96388794  1
  S2-  S202  1  0.25324822  0.37660465  0.45554592  1
  S2-  S203  1  0.25006508  0.37417857  0.95500243  1
  S2-  S204  1  0.24778694  0.62003748  0.46504728  1
  S2-  S205  1  0.24816289  0.62049720  0.95632330  1
  S2-  S206  1  0.24358168  0.86998257  0.45563375  1
  S2-  S207  1  0.25593661  0.86221442  0.96515935  1
  S2-  S208  1  0.49779745  0.12905822  0.45889825  1
  S2-  S209  1  0.50271597  0.12396464  0.96950404  1
  S2-  S210  1  0.49890221  0.37830751  0.44684083  1
  S2-  S211  1  0.50072030  0.37091732  0.94545246  1
  S2-  S212  1  0.50213860  0.62531518  0.45404930  1
  S2-  S213  1  0.50219176  0.61911315  0.95387617  1
  S2-  S214  1  0.50577765  0.86788811  0.44231383  1
  S2-  S215  1  0.49539318  0.87638302  0.96078391  1
  S2-  S216  1  0.75459811  0.12280967  0.45671385  1
  S2-  S217  1  0.75594774  0.12351398  0.95163743  1
  S2-  S218  1  0.74883049  0.37647002  0.45318608  1
  S2-  S219  1  0.74902461  0.36820033  0.94668103  1
  S2-  S220  1  0.75012839  0.62716307  0.46024292  1
  S2-  S221  1  0.74159989  0.62460935  0.95817493  1
  S2-  S222  1  0.75364633  0.87539060  0.44824463  1
  S2-  S223  1  0.74662999  0.87491153  0.96241375  1
  S2-  S224  1  0.12047308  -0.00776873  0.03777833  1
  S2-  S225  1  0.12227991  -0.00259785  0.54291161  1
  S2-  S226  1  0.12447155  0.25152397  0.03510222  1
  S2-  S227  1  0.12976485  0.25508756  0.55056423  1
  S2-  S228  1  0.12139454  0.49914453  0.03848836  1
  S2-  S229  1  0.12659166  0.49566149  0.55230768  1
  S2-  S230  1  0.12204716  0.74712673  0.05511017  1
  S2-  S231  1  0.12710655  0.74829506  0.55461060  1
  S2-  S232  1  0.38012402  -0.00088640  0.05594367  1
  S2-  S233  1  0.37161191  -0.00089779  0.53793108  1
  S2-  S234  1  0.37284945  0.25019949  0.04695228  1
  S2-  S235  1  0.37685443  0.24979628  0.54820656  1
  S2-  S236  1  0.37979517  0.49470438  0.03994185  1
  S2-  S237  1  0.37923824  0.50315600  0.54432542  1
  S2-  S238  1  0.37809096  0.74433560  0.05863333  1
  S2-  S239  1  0.37174443  0.74792586  0.54615600  1
  S2-  S240  1  0.62423924  0.00107851  0.05340347  1
  S2-  S241  1  0.62792501  -0.00245313  0.53857101  1
  S2-  S242  1  0.62738362  0.25158730  0.03602449  1
  S2-  S243  1  0.62522650  0.24888845  0.54633316  1
  S2-  S244  1  0.62353774  0.49367236  0.04541860  1
  S2-  S245  1  0.62493046  0.50304575  0.54489339  1
  S2-  S246  1  0.62724770  0.74190015  0.05200146  1
  S2-  S247  1  0.62183904  0.75287457  0.54869343  1
  S2-  S248  1  0.87655465  0.00273857  0.03969307  1
  S2-  S249  1  0.87973293  -0.00311686  0.55267678  1
  S2-  S250  1  0.87806886  0.24501504  0.05418369  1
  S2-  S251  1  0.87233350  0.25139387  0.55013810  1
  S2-  S252  1  0.87369827  0.49750059  0.03571162  1
  S2-  S253  1  0.87610106  0.50020337  0.55643757  1
  S2-  S254  1  0.87032689  0.74299341  0.04296511  1
  S2-  S255  1  0.88372995  0.75059510  0.53798716  1
