# generated using pymatgen
data_La9Ce10Pr6Nd4Sm3(BiS2)32
_symmetry_space_group_name_H-M   'P 1'
_cell_length_a   16.16745997
_cell_length_b   16.09387912
_cell_length_c   27.10024697
_cell_angle_alpha   89.85308686
_cell_angle_beta   90.24386309
_cell_angle_gamma   89.87492823
_symmetry_Int_Tables_number   1
_chemical_formula_structural   La9Ce10Pr6Nd4Sm3(BiS2)32
_chemical_formula_sum   'La18 Ce20 Pr12 Nd8 Sm6 Bi64 S128'
_cell_volume   7051.30291082
_cell_formula_units_Z   2
loop_
 _symmetry_equiv_pos_site_id
 _symmetry_equiv_pos_as_xyz
  1  'x, y, z'
loop_
 _atom_type_symbol
 _atom_type_oxidation_number
  La3+  3.0
  Ce3+  3.0
  Pr3+  3.0
  Nd3+  3.0
  Sm3+  3.0
  Bi2+  2.0
  S2-  -2.0
loop_
 _atom_site_type_symbol
 _atom_site_label
 _atom_site_symmetry_multiplicity
 _atom_site_fract_x
 _atom_site_fract_y
 _atom_site_fract_z
 _atom_site_occupancy
  La3+  La0  1  0.25626145  0.14797259  0.07738721  1
  La3+  La1  1  -0.01307495  0.90985998  0.08936659  1
  La3+  La2  1  0.49710145  0.64201660  0.07813441  1
  La3+  La3  1  0.61859149  0.01935229  0.89702421  1
  La3+  La4  1  0.48373665  0.08698523  0.58560435  1
  La3+  La5  1  0.88585261  0.01053244  0.91398451  1
  La3+  La6  1  0.86215035  0.71114949  0.42860528  1
  La3+  La7  1  0.74506836  0.58912814  0.57408841  1
  La3+  La8  1  0.37369791  0.46579933  0.41631473  1
  La3+  La9  1  0.36887917  0.21601134  0.42684591  1
  La3+  La10  1  -0.00175657  0.84217520  0.56634827  1
  La3+  La11  1  0.37676502  -0.03008171  0.42022762  1
  La3+  La12  1  -0.00287024  0.09577594  0.57670415  1
  La3+  La13  1  0.12657162  0.28229007  0.93452958  1
  La3+  La14  1  0.75024377  0.64555806  0.07670934  1
  La3+  La15  1  0.75642226  0.38170748  0.07581865  1
  La3+  La16  1  0.87381714  0.28139222  0.92038555  1
  La3+  La17  1  0.37621161  0.27691029  0.93153794  1
  Ce3+  Ce18  1  0.87425349  0.77273855  0.94435587  1
  Ce3+  Ce19  1  0.61809926  -0.03237298  0.45205727  1
  Ce3+  Ce20  1  -0.00380061  0.34698786  0.57106950  1
  Ce3+  Ce21  1  0.00276989  0.39603377  0.06327480  1
  Ce3+  Ce22  1  0.11389971  0.46693265  0.43930081  1
  Ce3+  Ce23  1  0.87327990  0.52599795  0.94576382  1
  Ce3+  Ce24  1  0.87034785  -0.03803539  0.43596669  1
  Ce3+  Ce25  1  0.62052683  0.46623654  0.43798772  1
  Ce3+  Ce26  1  0.49273636  0.34005748  0.55395401  1
  Ce3+  Ce27  1  0.49841838  0.90227077  0.05737007  1
  Ce3+  Ce28  1  0.25286065  0.39681484  0.06576056  1
  Ce3+  Ce29  1  0.74926738  0.90074377  0.05078176  1
  Ce3+  Ce30  1  0.12511577  0.77774745  0.95968391  1
  Ce3+  Ce31  1  0.86879131  0.21404889  0.44813415  1
  Ce3+  Ce32  1  0.37371931  0.77325982  0.94224072  1
  Ce3+  Ce33  1  0.24692484  0.09114416  0.55292984  1
  Ce3+  Ce34  1  0.62305288  0.77033101  0.94571408  1
  Ce3+  Ce35  1  0.48276959  0.59054228  0.56531045  1
  Ce3+  Ce36  1  0.37136369  0.53267917  0.93261215  1
  Ce3+  Ce37  1  0.12483259  0.52690474  0.94633712  1
  Pr3+  Pr38  1  0.61715511  0.71406114  0.44145610  1
  Pr3+  Pr39  1  0.74632761  0.83493381  0.56733989  1
  Pr3+  Pr40  1  0.25860359  0.90231779  0.08928413  1
  Pr3+  Pr41  1  0.12650932  0.02359802  0.94353894  1
  Pr3+  Pr42  1  -0.00217647  0.64839705  0.07607094  1
  Pr3+  Pr43  1  0.74669981  0.08269736  0.57879577  1
  Pr3+  Pr44  1  0.11326186  -0.03186191  0.42311012  1
  Pr3+  Pr45  1  0.36997032  0.71982585  0.42632846  1
  Pr3+  Pr46  1  0.50260458  0.15197350  0.06182591  1
  Pr3+  Pr47  1  0.11518614  0.71405787  0.43367337  1
  Pr3+  Pr48  1  0.37521281  0.02891361  0.92963117  1
  Pr3+  Pr49  1  0.62499052  0.27544807  0.92759524  1
  Nd3+  Nd50  1  -0.00230733  0.14574142  0.05272851  1
  Nd3+  Nd51  1  0.49053667  0.83628479  0.56590802  1
  Nd3+  Nd52  1  0.11289005  0.21698699  0.44237167  1
  Nd3+  Nd53  1  0.62608317  0.52173202  0.94087516  1
  Nd3+  Nd54  1  0.24491498  0.84423182  0.54849986  1
  Nd3+  Nd55  1  0.24949863  0.64820704  0.07025809  1
  Nd3+  Nd56  1  0.74135662  0.34021999  0.56128514  1
  Nd3+  Nd57  1  0.50162798  0.39725100  0.06095837  1
  Sm3+  Sm58  1  0.24905426  0.34262795  0.55289742  1
  Sm3+  Sm59  1  0.86388857  0.46880676  0.43491833  1
  Sm3+  Sm60  1  -0.00295145  0.59307882  0.56762430  1
  Sm3+  Sm61  1  0.75099295  0.14506153  0.03800185  1
  Sm3+  Sm62  1  0.61947301  0.21046141  0.44894377  1
  Sm3+  Sm63  1  0.24835464  0.59001989  0.54919146  1
  Bi2+  Bi64  1  -0.00090709  0.12825644  0.29920186  1
  Bi2+  Bi65  1  -0.00851008  0.14747265  0.79323160  1
  Bi2+  Bi66  1  -0.05718034  0.36273411  0.28275774  1
  Bi2+  Bi67  1  0.00447904  0.41175849  0.79266687  1
  Bi2+  Bi68  1  0.05736491  0.60998800  0.29666336  1
  Bi2+  Bi69  1  -0.00814384  0.60914710  0.79068423  1
  Bi2+  Bi70  1  -0.02388400  0.86001394  0.28967026  1
  Bi2+  Bi71  1  0.10434187  0.91256700  0.78138637  1
  Bi2+  Bi72  1  0.24482723  0.12322832  0.28594772  1
  Bi2+  Bi73  1  0.24177857  0.15522310  0.77583367  1
  Bi2+  Bi74  1  0.26814253  0.43511615  0.28373711  1
  Bi2+  Bi75  1  0.24909311  0.45942556  0.78358108  1
  Bi2+  Bi76  1  0.34560652  0.61155396  0.30999320  1
  Bi2+  Bi77  1  0.19824558  0.64361163  0.81335629  1
  Bi2+  Bi78  1  0.25921995  0.77461821  0.27661077  1
  Bi2+  Bi79  1  0.29094354  0.82906289  0.81862333  1
  Bi2+  Bi80  1  0.53253888  0.12996507  0.29811146  1
  Bi2+  Bi81  1  0.48141174  0.11374498  0.78348425  1
  Bi2+  Bi82  1  0.48043124  0.38244300  0.27636588  1
  Bi2+  Bi83  1  0.49023297  0.35438673  0.79769268  1
  Bi2+  Bi84  1  0.54417620  0.65887230  0.31788741  1
  Bi2+  Bi85  1  0.59711074  0.62485334  0.81805440  1
  Bi2+  Bi86  1  0.51776808  0.86400001  0.29355265  1
  Bi2+  Bi87  1  0.45905202  0.85128583  0.74123044  1
  Bi2+  Bi88  1  0.73867521  0.07622071  0.28718541  1
  Bi2+  Bi89  1  0.73935910  0.15038603  0.77465300  1
  Bi2+  Bi90  1  0.75088875  0.32637190  0.29429052  1
  Bi2+  Bi91  1  0.73797603  0.45049477  0.78590441  1
  Bi2+  Bi92  1  0.78272320  0.58248363  0.29171304  1
  Bi2+  Bi93  1  0.80320201  0.62954354  0.82793288  1
  Bi2+  Bi94  1  0.73271938  0.87950174  0.28326129  1
  Bi2+  Bi95  1  0.76505380  0.81616732  0.79238842  1
  Bi2+  Bi96  1  0.11884549  -0.04950524  0.22469594  1
  Bi2+  Bi97  1  0.12843303  0.05625598  0.69895749  1
  Bi2+  Bi98  1  0.08949333  0.25352427  0.23094119  1
  Bi2+  Bi99  1  0.09766814  0.30173206  0.71628468  1
  Bi2+  Bi100  1  0.13022455  0.42547209  0.17736998  1
  Bi2+  Bi101  1  0.20203960  0.56886306  0.69281361  1
  Bi2+  Bi102  1  0.13217133  0.61977432  0.18925723  1
  Bi2+  Bi103  1  0.15280465  0.75893681  0.69428395  1
  Bi2+  Bi104  1  0.36189511  -0.00081610  0.21369811  1
  Bi2+  Bi105  1  0.29848389  -0.03033753  0.73440095  1
  Bi2+  Bi106  1  0.39420753  0.26129808  0.20668763  1
  Bi2+  Bi107  1  0.34115660  0.25507284  0.69818473  1
  Bi2+  Bi108  1  0.31373224  0.51000566  0.18189001  1
  Bi2+  Bi109  1  0.44770379  0.53443191  0.76068589  1
  Bi2+  Bi110  1  0.45264059  0.72332815  0.22534823  1
  Bi2+  Bi111  1  0.36194775  0.69402058  0.70248772  1
  Bi2+  Bi112  1  0.61061916  0.07602686  0.19989083  1
  Bi2+  Bi113  1  0.62624772  -0.01810188  0.70177348  1
  Bi2+  Bi114  1  0.65432836  0.28325806  0.20206449  1
  Bi2+  Bi115  1  0.58555362  0.30558425  0.70738954  1
  Bi2+  Bi116  1  0.58712712  0.52188380  0.22111751  1
  Bi2+  Bi117  1  0.62165569  0.54015058  0.70544852  1
  Bi2+  Bi118  1  0.61361248  0.88170861  0.19003120  1
  Bi2+  Bi119  1  0.62205451  0.73953027  0.71702372  1
  Bi2+  Bi120  1  0.86808346  0.01969114  0.20895264  1
  Bi2+  Bi121  1  0.88131185  0.00461691  0.71115951  1
  Bi2+  Bi122  1  0.90131635  0.23586766  0.19352628  1
  Bi2+  Bi123  1  0.87893815  0.40670076  0.70213019  1
  Bi2+  Bi124  1  0.95624586  0.52093540  0.20711837  1
  Bi2+  Bi125  1  0.83103927  0.59516967  0.70732939  1
  Bi2+  Bi126  1  0.74954216  0.72626847  0.21362245  1
  Bi2+  Bi127  1  0.96667887  0.77863581  0.73640852  1
  S2-  S128  1  -0.01381166  0.06868797  0.14371044  1
  S2-  S129  1  -0.00069719  0.23143635  0.65013623  1
  S2-  S130  1  -0.09806576  0.38339498  0.14238336  1
  S2-  S131  1  0.00032935  0.47303300  0.64159452  1
  S2-  S132  1  -0.12409800  0.65046508  0.15168365  1
  S2-  S133  1  0.00106371  0.71753562  0.64115876  1
  S2-  S134  1  0.00939314  0.84558278  0.18902530  1
  S2-  S135  1  0.00949378  0.96403939  0.64561601  1
  S2-  S136  1  0.22177648  0.03690679  0.15754644  1
  S2-  S137  1  0.33081451  0.11601802  0.63796752  1
  S2-  S138  1  0.26363271  0.28827900  0.14591300  1
  S2-  S139  1  0.21788776  0.34640622  0.65176551  1
  S2-  S140  1  0.36233148  0.66750452  0.14707030  1
  S2-  S141  1  0.34484363  0.56399319  0.63055169  1
  S2-  S142  1  0.22463738  0.83465332  0.18831520  1
  S2-  S143  1  0.24614762  0.87340626  0.64828872  1
  S2-  S144  1  0.40339423  0.12055155  0.14824876  1
  S2-  S145  1  0.54723223  0.13590545  0.68201581  1
  S2-  S146  1  0.52095471  0.28060532  0.13768743  1
  S2-  S147  1  0.44805232  0.35799721  0.64853432  1
  S2-  S148  1  0.47719062  0.49292596  0.14681245  1
  S2-  S149  1  0.49759933  0.71006091  0.63910041  1
  S2-  S150  1  0.41689058  0.90093161  0.14440918  1
  S2-  S151  1  0.47929400  0.93633668  0.64997239  1
  S2-  S152  1  0.76282483  0.21048630  0.13100856  1
  S2-  S153  1  0.79479745  0.13071401  0.67521578  1
  S2-  S154  1  0.70281320  0.44059071  0.17018554  1
  S2-  S155  1  0.72361563  0.35385494  0.66070860  1
  S2-  S156  1  0.62846895  0.65233074  0.15334280  1
  S2-  S157  1  0.75243318  0.71308466  0.64758677  1
  S2-  S158  1  0.82000986  0.91531318  0.13918972  1
  S2-  S159  1  0.76782087  0.93883055  0.64958949  1
  S2-  S160  1  0.18598370  -0.01186400  0.32469078  1
  S2-  S161  1  0.04318879  0.01120805  0.85358118  1
  S2-  S162  1  0.13168087  0.22237603  0.34218842  1
  S2-  S163  1  0.12243066  0.21828652  0.83835234  1
  S2-  S164  1  0.12220063  0.47185291  0.34104663  1
  S2-  S165  1  0.13118771  0.43036874  0.86253320  1
  S2-  S166  1  0.10599572  0.77234445  0.33714801  1
  S2-  S167  1  0.12947912  0.78382331  0.85940600  1
  S2-  S168  1  0.37308920  0.10189967  0.34734897  1
  S2-  S169  1  0.46884109  -0.01174422  0.84338542  1
  S2-  S170  1  0.36069326  0.33081274  0.34746413  1
  S2-  S171  1  0.36687237  0.16220231  0.85319561  1
  S2-  S172  1  0.52259071  0.48437672  0.35476479  1
  S2-  S173  1  0.36138724  0.40884330  0.85886656  1
  S2-  S174  1  0.36802371  0.84126569  0.34954333  1
  S2-  S175  1  0.35865095  0.67401712  0.86100871  1
  S2-  S176  1  0.55088770  -0.01474124  0.36212854  1
  S2-  S177  1  0.67005414  -0.01117246  0.79455491  1
  S2-  S178  1  0.61858407  0.24008255  0.34961241  1
  S2-  S179  1  0.60674939  0.17630969  0.84045325  1
  S2-  S180  1  0.73910052  0.45701083  0.36032962  1
  S2-  S181  1  0.62459251  0.40958628  0.85823287  1
  S2-  S182  1  0.71027221  0.68739493  0.35550120  1
  S2-  S183  1  0.61398745  0.79197621  0.84783996  1
  S2-  S184  1  0.97660060  -0.00282813  0.35696237  1
  S2-  S185  1  0.85392736  0.04847651  0.81334012  1
  S2-  S186  1  0.87786797  0.23302782  0.34889622  1
  S2-  S187  1  0.85723164  0.24386972  0.81797578  1
  S2-  S188  1  0.91086027  0.58568760  0.35785727  1
  S2-  S189  1  0.87152257  0.43630044  0.86073431  1
  S2-  S190  1  0.85653648  0.84047602  0.35702598  1
  S2-  S191  1  0.88461917  0.84746601  0.85554946  1
  S2-  S192  1  -0.00717376  0.09370577  0.46398351  1
  S2-  S193  1  -0.00120376  0.15224906  0.94659683  1
  S2-  S194  1  -0.01132669  0.34478212  0.45605383  1
  S2-  S195  1  -0.00047086  0.40305213  0.95938102  1
  S2-  S196  1  -0.00530427  0.58911250  0.46318308  1
  S2-  S197  1  0.00000642  0.65011462  0.96130163  1
  S2-  S198  1  -0.00449768  0.83854656  0.45646845  1
  S2-  S199  1  0.00075305  0.89559170  0.96462774  1
  S2-  S200  1  0.23794726  0.09176149  0.44785925  1
  S2-  S201  1  0.24671606  0.15133220  0.95744427  1
  S2-  S202  1  0.23739254  0.34221270  0.44826005  1
  S2-  S203  1  0.25046044  0.40453895  0.96237703  1
  S2-  S204  1  0.24366041  0.59107478  0.44372719  1
  S2-  S205  1  0.24588388  0.65088638  0.96429431  1
  S2-  S206  1  0.23855527  0.84278540  0.44392743  1
  S2-  S207  1  0.25244821  0.89987113  0.95353296  1
  S2-  S208  1  0.49545138  0.09416804  0.46415269  1
  S2-  S209  1  0.50711872  0.14422529  0.95278329  1
  S2-  S210  1  0.49990362  0.33666261  0.45020005  1
  S2-  S211  1  0.49857765  0.40366071  0.95608047  1
  S2-  S212  1  0.49020948  0.59447620  0.45694294  1
  S2-  S213  1  0.50127764  0.64665450  0.96183009  1
  S2-  S214  1  0.49558096  0.83956609  0.45745189  1
  S2-  S215  1  0.50076730  0.89778145  0.95234347  1
  S2-  S216  1  0.74506385  0.08943724  0.45910561  1
  S2-  S217  1  0.75196010  0.14281907  0.93463949  1
  S2-  S218  1  0.74256949  0.33565029  0.45699005  1
  S2-  S219  1  0.75101881  0.39949692  0.96092781  1
  S2-  S220  1  0.74276317  0.58674736  0.46468846  1
  S2-  S221  1  0.74837234  0.64898252  0.96234035  1
  S2-  S222  1  0.73962439  0.84135221  0.45988158  1
  S2-  S223  1  0.74161952  0.90210503  0.94524995  1
  S2-  S224  1  0.12648345  0.01887452  0.04908925  1
  S2-  S225  1  0.12201355  -0.03073255  0.53771708  1
  S2-  S226  1  0.12300552  0.26965153  0.04655355  1
  S2-  S227  1  0.12446875  0.21966067  0.54800629  1
  S2-  S228  1  0.12368607  0.52496593  0.05188892  1
  S2-  S229  1  0.12650323  0.46806279  0.54410105  1
  S2-  S230  1  0.12384993  0.77781227  0.06575507  1
  S2-  S231  1  0.12643564  0.71257299  0.54115103  1
  S2-  S232  1  0.37352998  0.02317223  0.03874451  1
  S2-  S233  1  0.36877508  -0.03462900  0.53540277  1
  S2-  S234  1  0.37466453  0.27480760  0.03936556  1
  S2-  S235  1  0.36808308  0.22014018  0.53646856  1
  S2-  S236  1  0.37015441  0.52344687  0.04111781  1
  S2-  S237  1  0.36852893  0.46101008  0.52783190  1
  S2-  S238  1  0.37176912  0.77697745  0.04562038  1
  S2-  S239  1  0.36425396  0.71810122  0.53492456  1
  S2-  S240  1  0.62727089  0.02567148  0.05197247  1
  S2-  S241  1  0.61709526  -0.03559162  0.55562447  1
  S2-  S242  1  0.62905442  0.27109118  0.03381714  1
  S2-  S243  1  0.61902601  0.21060867  0.55543288  1
  S2-  S244  1  0.62942923  0.51791596  0.04710156  1
  S2-  S245  1  0.61533734  0.46743343  0.55031801  1
  S2-  S246  1  0.62285490  0.77603636  0.05134502  1
  S2-  S247  1  0.61916862  0.71291823  0.54612535  1
  S2-  S248  1  0.87267089  0.02463707  0.03092151  1
  S2-  S249  1  0.87062178  -0.03332916  0.54389364  1
  S2-  S250  1  0.87863526  0.26774571  0.03121003  1
  S2-  S251  1  0.86435172  0.21630194  0.55299435  1
  S2-  S252  1  0.87726991  0.52144635  0.04962044  1
  S2-  S253  1  0.86560809  0.46433617  0.54418220  1
  S2-  S254  1  0.87572737  0.77484962  0.04923999  1
  S2-  S255  1  0.87199228  0.71262261  0.54202137  1
