# generated using pymatgen
data_La9Ce10Pr6Nd4Sm3(BiS2)32
_symmetry_space_group_name_H-M   'P 1'
_cell_length_a   16.22123389
_cell_length_b   16.21569996
_cell_length_c   27.14998715
_cell_angle_alpha   90.00929291
_cell_angle_beta   89.85307738
_cell_angle_gamma   90.15617173
_symmetry_Int_Tables_number   1
_chemical_formula_structural   La9Ce10Pr6Nd4Sm3(BiS2)32
_chemical_formula_sum   'La18 Ce20 Pr12 Nd8 Sm6 Bi64 S128'
_cell_volume   7141.44619034
_cell_formula_units_Z   2
loop_
 _symmetry_equiv_pos_site_id
 _symmetry_equiv_pos_as_xyz
  1  'x, y, z'
loop_
 _atom_type_symbol
 _atom_type_oxidation_number
  La3+  3.0
  Ce3+  3.0
  Pr3+  3.0
  Nd3+  3.0
  Sm3+  3.0
  Bi2+  2.0
  S2-  -2.0
loop_
 _atom_site_type_symbol
 _atom_site_label
 _atom_site_symmetry_multiplicity
 _atom_site_fract_x
 _atom_site_fract_y
 _atom_site_fract_z
 _atom_site_occupancy
  La3+  La0  1  0.62072221  -0.02146845  0.90826812  1
  La3+  La1  1  0.74048667  0.38693702  0.57279649  1
  La3+  La2  1  0.38719081  0.46982128  0.90874474  1
  La3+  La3  1  0.62404206  0.00410807  0.44008639  1
  La3+  La4  1  0.11959603  0.48357247  0.91143154  1
  La3+  La5  1  0.73928080  0.87655495  0.58076851  1
  La3+  La6  1  0.73244099  0.13951472  0.59041933  1
  La3+  La7  1  0.01458506  0.59554501  0.07473808  1
  La3+  La8  1  0.11249789  0.76050434  0.43044725  1
  La3+  La9  1  0.36728938  0.51733633  0.42396921  1
  La3+  La10  1  0.36674840  0.01052112  0.43298946  1
  La3+  La11  1  0.00220947  0.13235929  0.58939351  1
  La3+  La12  1  0.25683852  0.39610007  0.59323762  1
  La3+  La13  1  0.75636012  0.60303696  0.06533393  1
  La3+  La14  1  0.25172568  0.09897557  0.06983156  1
  La3+  La15  1  0.87109274  0.50494188  0.43952528  1
  La3+  La16  1  0.49042304  0.88008098  0.57354600  1
  La3+  La17  1  0.88365423  -0.02522128  0.91389435  1
  Ce3+  Ce18  1  0.37992298  0.72586951  0.94059476  1
  Ce3+  Ce19  1  0.24762092  0.13480445  0.57170584  1
  Ce3+  Ce20  1  0.36919216  0.25645783  0.43988099  1
  Ce3+  Ce21  1  0.50338868  0.10043633  0.04778249  1
  Ce3+  Ce22  1  0.49141677  0.13828529  0.56244562  1
  Ce3+  Ce23  1  0.50359275  0.85402712  0.05206647  1
  Ce3+  Ce24  1  0.50070614  0.35136885  0.05615953  1
  Ce3+  Ce25  1  0.74010690  0.63581942  0.55881835  1
  Ce3+  Ce26  1  0.62958091  0.47537773  0.93774338  1
  Ce3+  Ce27  1  0.62896531  0.22693998  0.93264209  1
  Ce3+  Ce28  1  0.25303248  0.35498217  0.04785191  1
  Ce3+  Ce29  1  0.87684076  0.48265913  0.93950562  1
  Ce3+  Ce30  1  0.87009765  0.76444813  0.44137263  1
  Ce3+  Ce31  1  0.62776967  0.25644237  0.43289644  1
  Ce3+  Ce32  1  0.25261915  0.85542625  0.05913880  1
  Ce3+  Ce33  1  0.61922675  0.75374055  0.43439253  1
  Ce3+  Ce34  1  0.86876522  0.25504085  0.45856042  1
  Ce3+  Ce35  1  0.00501464  0.35295699  0.05696510  1
  Ce3+  Ce36  1  0.37382013  0.22834053  0.93422633  1
  Ce3+  Ce37  1  0.48844735  0.63153869  0.55568629  1
  Pr3+  Pr38  1  -0.00374557  0.38769813  0.57108568  1
  Pr3+  Pr39  1  0.00046248  0.09114023  0.06274746  1
  Pr3+  Pr40  1  0.50179188  0.60102853  0.05911286  1
  Pr3+  Pr41  1  0.37498072  -0.02213890  0.92988746  1
  Pr3+  Pr42  1  0.61864820  0.72772136  0.91465844  1
  Pr3+  Pr43  1  0.12176577  0.26055313  0.45618446  1
  Pr3+  Pr44  1  0.75295182  0.09880951  0.04955933  1
  Pr3+  Pr45  1  0.87906484  0.22735697  0.93503013  1
  Pr3+  Pr46  1  0.24458950  0.88276229  0.56419087  1
  Pr3+  Pr47  1  0.12732972  0.22652494  0.93903526  1
  Pr3+  Pr48  1  0.87585064  0.72646093  0.93254562  1
  Pr3+  Pr49  1  0.49316037  0.38530538  0.55396845  1
  Nd3+  Nd50  1  0.12938269  0.72406245  0.93755642  1
  Nd3+  Nd51  1  -0.00360360  0.63388398  0.56303370  1
  Nd3+  Nd52  1  0.11564913  0.01641293  0.44533578  1
  Nd3+  Nd53  1  0.62078742  0.50394510  0.43362344  1
  Nd3+  Nd54  1  0.13190744  -0.02263651  0.93050561  1
  Nd3+  Nd55  1  -0.00605605  0.88284745  0.56519778  1
  Nd3+  Nd56  1  0.74974866  0.85498393  0.04780200  1
  Nd3+  Nd57  1  0.75192579  0.35193991  0.05953102  1
  Sm3+  Sm58  1  0.12201509  0.50844444  0.44568384  1
  Sm3+  Sm59  1  0.36789553  0.76683583  0.43342227  1
  Sm3+  Sm60  1  0.00083237  0.84958166  0.05083988  1
  Sm3+  Sm61  1  0.86659827  0.01248071  0.46309564  1
  Sm3+  Sm62  1  0.24338804  0.64092589  0.56384374  1
  Sm3+  Sm63  1  0.25399696  0.59728036  0.05071562  1
  Bi2+  Bi64  1  -0.04534674  0.07503603  0.31119687  1
  Bi2+  Bi65  1  -0.01563956  0.13601853  0.79339621  1
  Bi2+  Bi66  1  -0.04936649  0.40536808  0.29081674  1
  Bi2+  Bi67  1  0.00821026  0.37633008  0.77793530  1
  Bi2+  Bi68  1  0.01136178  0.61965450  0.30158176  1
  Bi2+  Bi69  1  -0.03904412  0.63286911  0.80574883  1
  Bi2+  Bi70  1  0.00790363  0.92639468  0.24315953  1
  Bi2+  Bi71  1  0.05781177  0.85684940  0.79965407  1
  Bi2+  Bi72  1  0.22041709  0.12587347  0.30296196  1
  Bi2+  Bi73  1  0.26388473  0.09865848  0.83453685  1
  Bi2+  Bi74  1  0.28754599  0.38364636  0.26465694  1
  Bi2+  Bi75  1  0.31483366  0.38102227  0.77374467  1
  Bi2+  Bi76  1  0.25356996  0.61930414  0.29189816  1
  Bi2+  Bi77  1  0.22884938  0.71534081  0.78587364  1
  Bi2+  Bi78  1  0.25187062  0.88383780  0.28438073  1
  Bi2+  Bi79  1  0.25065304  0.89617603  0.82703716  1
  Bi2+  Bi80  1  0.49508767  0.09653870  0.29306267  1
  Bi2+  Bi81  1  0.43026043  0.09923329  0.77784340  1
  Bi2+  Bi82  1  0.47479412  0.33077303  0.25031808  1
  Bi2+  Bi83  1  0.56887481  0.38874008  0.76762819  1
  Bi2+  Bi84  1  0.48896320  0.57495172  0.29363488  1
  Bi2+  Bi85  1  0.50345636  0.61309184  0.78625519  1
  Bi2+  Bi86  1  0.51041934  0.89053858  0.29087772  1
  Bi2+  Bi87  1  0.50750370  0.85251263  0.77628373  1
  Bi2+  Bi88  1  0.75688660  0.08410788  0.29747139  1
  Bi2+  Bi89  1  0.74677412  0.18565938  0.79008993  1
  Bi2+  Bi90  1  0.75804783  0.35500397  0.29512236  1
  Bi2+  Bi91  1  0.75219977  0.45396364  0.79303960  1
  Bi2+  Bi92  1  0.71227051  0.72617114  0.29870421  1
  Bi2+  Bi93  1  0.76265161  0.63910990  0.82733753  1
  Bi2+  Bi94  1  0.74536096  0.89943042  0.25271314  1
  Bi2+  Bi95  1  0.78095512  0.86639538  0.78184880  1
  Bi2+  Bi96  1  0.12088437  0.05763350  0.19250482  1
  Bi2+  Bi97  1  0.18186597  -0.01570860  0.72934648  1
  Bi2+  Bi98  1  0.11093010  0.29346920  0.26201397  1
  Bi2+  Bi99  1  0.18508704  0.18556477  0.73806079  1
  Bi2+  Bi100  1  0.13394437  0.46759498  0.20276168  1
  Bi2+  Bi101  1  0.12717836  0.51849463  0.71928626  1
  Bi2+  Bi102  1  0.16410696  0.73557958  0.21838380  1
  Bi2+  Bi103  1  0.09858707  0.76868316  0.70320579  1
  Bi2+  Bi104  1  0.37357453  -0.03270752  0.20654046  1
  Bi2+  Bi105  1  0.36455127  -0.02068443  0.68743044  1
  Bi2+  Bi106  1  0.37391857  0.16956979  0.21241425  1
  Bi2+  Bi107  1  0.37480246  0.17817628  0.67950404  1
  Bi2+  Bi108  1  0.33085261  0.54106620  0.18230574  1
  Bi2+  Bi109  1  0.39005786  0.55144828  0.70567383  1
  Bi2+  Bi110  1  0.35403536  0.75904638  0.20608485  1
  Bi2+  Bi111  1  0.36541083  0.78396105  0.70968738  1
  Bi2+  Bi112  1  0.62033343  0.01738307  0.17519119  1
  Bi2+  Bi113  1  0.63088436  0.01547951  0.71861216  1
  Bi2+  Bi114  1  0.63427535  0.22172873  0.25335218  1
  Bi2+  Bi115  1  0.53280077  0.29028141  0.67604033  1
  Bi2+  Bi116  1  0.63530299  0.48252813  0.18980681  1
  Bi2+  Bi117  1  0.67317659  0.49555678  0.68525620  1
  Bi2+  Bi118  1  0.54576536  0.72605647  0.23190323  1
  Bi2+  Bi119  1  0.65466029  0.67778184  0.72982421  1
  Bi2+  Bi120  1  0.86241894  0.02644345  0.17643612  1
  Bi2+  Bi121  1  0.89522633  0.01135569  0.71471725  1
  Bi2+  Bi122  1  0.92270575  0.22934357  0.24196135  1
  Bi2+  Bi123  1  0.87742120  0.32594641  0.69705522  1
  Bi2+  Bi124  1  0.87241578  0.53602405  0.19194522  1
  Bi2+  Bi125  1  0.86766423  0.51595940  0.70276907  1
  Bi2+  Bi126  1  0.89505749  0.76765550  0.26310046  1
  Bi2+  Bi127  1  0.85707132  0.71240246  0.72171817  1
  S2-  S128  1  -0.00617203  0.16330991  0.15634477  1
  S2-  S129  1  -0.03834335  0.17035140  0.68757195  1
  S2-  S130  1  0.00309720  0.44676601  0.14118502  1
  S2-  S131  1  0.04466946  0.39183115  0.66912697  1
  S2-  S132  1  -0.05962985  0.66691649  0.15602898  1
  S2-  S133  1  0.04734194  0.62075711  0.65969002  1
  S2-  S134  1  0.00364048  0.94054783  0.13402185  1
  S2-  S135  1  -0.00111771  0.90222991  0.66405386  1
  S2-  S136  1  0.22461855  0.17576859  0.16132959  1
  S2-  S137  1  0.14776224  0.10489346  0.65087808  1
  S2-  S138  1  0.26553453  0.39529780  0.14373104  1
  S2-  S139  1  0.24706418  0.31099563  0.68286380  1
  S2-  S140  1  0.17364821  0.60741908  0.13994298  1
  S2-  S141  1  0.24742385  0.54480760  0.64950670  1
  S2-  S142  1  0.24293900  0.95888130  0.13856443  1
  S2-  S143  1  0.23831847  0.76482864  0.63920186  1
  S2-  S144  1  0.51148195  0.12728907  0.14507361  1
  S2-  S145  1  0.57739251  0.12379107  0.64768390  1
  S2-  S146  1  0.53434763  0.36300464  0.15270009  1
  S2-  S147  1  0.42276440  0.41879141  0.64532548  1
  S2-  S148  1  0.49939012  0.58573917  0.16028469  1
  S2-  S149  1  0.46862079  0.67776358  0.64923462  1
  S2-  S150  1  0.50969180  0.90699499  0.14569941  1
  S2-  S151  1  0.55343438  0.89032925  0.66954401  1
  S2-  S152  1  0.75064594  0.13418057  0.14925576  1
  S2-  S153  1  0.76702913  0.11100601  0.69286695  1
  S2-  S154  1  0.76557767  0.40504310  0.15552315  1
  S2-  S155  1  0.72752696  0.29297286  0.65677448  1
  S2-  S156  1  0.73221232  0.61863283  0.16568856  1
  S2-  S157  1  0.73690507  0.72602131  0.64241447  1
  S2-  S158  1  0.75397938  0.89306229  0.14639402  1
  S2-  S159  1  0.76304492  0.92158412  0.67959987  1
  S2-  S160  1  0.16607401  -0.00640716  0.35007519  1
  S2-  S161  1  0.03229135  0.00235087  0.84973434  1
  S2-  S162  1  0.11336109  0.21573821  0.35790277  1
  S2-  S163  1  0.11582196  0.21466910  0.83804176  1
  S2-  S164  1  0.12680957  0.52665211  0.34635266  1
  S2-  S165  1  0.15577779  0.42576085  0.81263229  1
  S2-  S166  1  0.18956240  0.75704810  0.33913949  1
  S2-  S167  1  0.11998545  0.63623940  0.85055718  1
  S2-  S168  1  0.38184515  -0.11314358  0.35915982  1
  S2-  S169  1  0.46973263  -0.03164898  0.84272711  1
  S2-  S170  1  0.36573638  0.14854446  0.36046984  1
  S2-  S171  1  0.38722434  0.31303499  0.84827345  1
  S2-  S172  1  0.40583769  0.43760947  0.33355159  1
  S2-  S173  1  0.34265987  0.52814782  0.81431387  1
  S2-  S174  1  0.38329614  0.65638206  0.35467985  1
  S2-  S175  1  0.46711560  0.73027162  0.85456494  1
  S2-  S176  1  0.62665340  0.12633394  0.36467425  1
  S2-  S177  1  0.63739981  0.08471389  0.82176183  1
  S2-  S178  1  0.63734573  0.38023127  0.35988255  1
  S2-  S179  1  0.64615353  0.29147620  0.84247699  1
  S2-  S180  1  0.62289557  0.62080850  0.35709522  1
  S2-  S181  1  0.54321895  0.48790878  0.85344574  1
  S2-  S182  1  0.62417071  0.87568922  0.36516555  1
  S2-  S183  1  0.64533990  0.84823060  0.83822567  1
  S2-  S184  1  0.84364535  -0.01568432  0.36584510  1
  S2-  S185  1  0.84010816  0.04383523  0.82009100  1
  S2-  S186  1  0.84037996  0.25783392  0.36327397  1
  S2-  S187  1  0.89218222  0.26273572  0.83527976  1
  S2-  S188  1  0.87377414  0.53833439  0.33932439  1
  S2-  S189  1  0.96427940  0.48071555  0.85416151  1
  S2-  S190  1  0.97081931  0.76197011  0.36023217  1
  S2-  S191  1  0.89365064  0.83062764  0.84970911  1
  S2-  S192  1  -0.00667816  0.13411339  0.47242264  1
  S2-  S193  1  0.00239733  0.10347860  0.95391161  1
  S2-  S194  1  -0.00339429  0.38441602  0.46062111  1
  S2-  S195  1  0.00334867  0.35257681  0.95065048  1
  S2-  S196  1  -0.00502309  0.62894910  0.45757267  1
  S2-  S197  1  0.00021092  0.60666703  0.95988125  1
  S2-  S198  1  -0.00752351  0.89226077  0.45900543  1
  S2-  S199  1  0.00980929  0.84925367  0.94889626  1
  S2-  S200  1  0.24255644  0.13412956  0.46509476  1
  S2-  S201  1  0.25202515  0.10237906  0.95733227  1
  S2-  S202  1  0.24432979  0.38471502  0.44275583  1
  S2-  S203  1  0.24884552  0.35608955  0.94153903  1
  S2-  S204  1  0.23923046  0.63716517  0.45567578  1
  S2-  S205  1  0.25893491  0.59910812  0.94566437  1
  S2-  S206  1  0.23874337  0.88538086  0.45797148  1
  S2-  S207  1  0.25383866  0.84886518  0.95284195  1
  S2-  S208  1  0.49415785  0.13435835  0.45959358  1
  S2-  S209  1  0.49933909  0.10709647  0.94102710  1
  S2-  S210  1  0.49100865  0.38156872  0.44944964  1
  S2-  S211  1  0.50527766  0.34921805  0.95170624  1
  S2-  S212  1  0.49524200  0.63392843  0.45335953  1
  S2-  S213  1  0.50400771  0.60260036  0.95307938  1
  S2-  S214  1  0.49300068  0.88398188  0.46416299  1
  S2-  S215  1  0.50236692  0.85331576  0.94943314  1
  S2-  S216  1  0.74662781  0.13284037  0.47289413  1
  S2-  S217  1  0.75277596  0.10144406  0.94183590  1
  S2-  S218  1  0.74843341  0.38349465  0.46485597  1
  S2-  S219  1  0.75608793  0.35400818  0.95156445  1
  S2-  S220  1  0.75031706  0.63359794  0.45419677  1
  S2-  S221  1  0.74708966  0.60525518  0.95426628  1
  S2-  S222  1  0.75009493  0.88154656  0.46986150  1
  S2-  S223  1  0.74670182  0.84966421  0.94393165  1
  S2-  S224  1  0.12670287  -0.02652950  0.03497950  1
  S2-  S225  1  0.11974471  0.00410277  0.55127684  1
  S2-  S226  1  0.12599888  0.22740771  0.04643356  1
  S2-  S227  1  0.12556387  0.26698033  0.56232952  1
  S2-  S228  1  0.13197608  0.47615292  0.03245337  1
  S2-  S229  1  0.12252546  0.50858102  0.54928133  1
  S2-  S230  1  0.12929808  0.73122261  0.04396040  1
  S2-  S231  1  0.11482963  0.75901809  0.54223693  1
  S2-  S232  1  0.37887312  -0.02323837  0.03793042  1
  S2-  S233  1  0.36806491  0.00861000  0.54795295  1
  S2-  S234  1  0.37624967  0.22732915  0.04358366  1
  S2-  S235  1  0.36418702  0.26405737  0.54672578  1
  S2-  S236  1  0.37868073  0.47755645  0.03768175  1
  S2-  S237  1  0.36352799  0.51248764  0.53623992  1
  S2-  S238  1  0.37513369  0.72574511  0.04890643  1
  S2-  S239  1  0.36735913  0.75860790  0.53873458  1
  S2-  S240  1  0.62601136  -0.02148588  0.03137727  1
  S2-  S241  1  0.61834434  0.00368027  0.55143918  1
  S2-  S242  1  0.62937038  0.22787555  0.04072458  1
  S2-  S243  1  0.61664044  0.26109839  0.54303720  1
  S2-  S244  1  0.62855423  0.47701350  0.04459505  1
  S2-  S245  1  0.61681481  0.51136190  0.54304130  1
  S2-  S246  1  0.62678660  0.72779013  0.04904071  1
  S2-  S247  1  0.61339516  0.75561317  0.54358930  1
  S2-  S248  1  0.87679066  -0.02715840  0.02934650  1
  S2-  S249  1  0.86867457  0.01116270  0.56757858  1
  S2-  S250  1  0.87758588  0.22847438  0.04394663  1
  S2-  S251  1  0.87376302  0.25839433  0.56349446  1
  S2-  S252  1  0.87719728  0.47672763  0.04346313  1
  S2-  S253  1  0.86972476  0.51105282  0.55291967  1
  S2-  S254  1  0.87548981  0.73277562  0.04066945  1
  S2-  S255  1  0.87435336  0.75713920  0.54929524  1
