# generated using pymatgen
data_La9Ce10Pr6Nd4Sm3(BiS2)32
_symmetry_space_group_name_H-M   'P 1'
_cell_length_a   16.14577220
_cell_length_b   16.14239608
_cell_length_c   27.14623899
_cell_angle_alpha   89.99288890
_cell_angle_beta   90.05894899
_cell_angle_gamma   89.70750811
_symmetry_Int_Tables_number   1
_chemical_formula_structural   La9Ce10Pr6Nd4Sm3(BiS2)32
_chemical_formula_sum   'La18 Ce20 Pr12 Nd8 Sm6 Bi64 S128'
_cell_volume   7075.06762977
_cell_formula_units_Z   2
loop_
 _symmetry_equiv_pos_site_id
 _symmetry_equiv_pos_as_xyz
  1  'x, y, z'
loop_
 _atom_type_symbol
 _atom_type_oxidation_number
  La3+  3.0
  Ce3+  3.0
  Pr3+  3.0
  Nd3+  3.0
  Sm3+  3.0
  Bi2+  2.0
  S2-  -2.0
loop_
 _atom_site_type_symbol
 _atom_site_label
 _atom_site_symmetry_multiplicity
 _atom_site_fract_x
 _atom_site_fract_y
 _atom_site_fract_z
 _atom_site_occupancy
  La3+  La0  1  0.50144042  0.89934807  0.56410464  1
  La3+  La1  1  0.60865548  0.49658453  0.92596982  1
  La3+  La2  1  0.36815044  0.00656699  0.39391724  1
  La3+  La3  1  0.51060171  0.15452885  0.58398045  1
  La3+  La4  1  0.25571149  0.13719490  0.56966835  1
  La3+  La5  1  0.38548680  0.26568987  0.43269879  1
  La3+  La6  1  -0.01312428  0.86734498  0.08045455  1
  La3+  La7  1  0.10668200  0.00448679  0.91482958  1
  La3+  La8  1  0.87925850  0.02219288  0.42457311  1
  La3+  La9  1  0.25070171  0.87006699  0.61128764  1
  La3+  La10  1  -0.01499482  0.61879018  0.07300377  1
  La3+  La11  1  0.88015971  0.27430637  0.42375025  1
  La3+  La12  1  0.87520606  0.76010299  0.42886691  1
  La3+  La13  1  0.11150773  0.74389080  0.92295317  1
  La3+  La14  1  0.49010430  0.37340463  0.07226419  1
  La3+  La15  1  0.36906067  -0.00366250  0.93485654  1
  La3+  La16  1  0.50362994  0.64865356  0.58030833  1
  La3+  La17  1  -0.01079190  0.12057809  0.07636991  1
  Ce3+  Ce18  1  0.88135474  0.51935683  0.43868455  1
  Ce3+  Ce19  1  0.75451851  0.39859113  0.55074046  1
  Ce3+  Ce20  1  0.86445001  0.49633009  0.94230472  1
  Ce3+  Ce21  1  0.73954720  0.87002473  0.05773227  1
  Ce3+  Ce22  1  0.76034813  0.64439442  0.56988381  1
  Ce3+  Ce23  1  0.62209093  0.52735346  0.44073938  1
  Ce3+  Ce24  1  0.00215921  0.64782572  0.56093524  1
  Ce3+  Ce25  1  0.12947860  0.77561865  0.44215732  1
  Ce3+  Ce26  1  0.62469827  0.77038741  0.44883965  1
  Ce3+  Ce27  1  0.86908560  0.24149888  0.94104835  1
  Ce3+  Ce28  1  0.13110298  0.51731873  0.44313557  1
  Ce3+  Ce29  1  0.00573624  0.39027550  0.56102859  1
  Ce3+  Ce30  1  0.24273160  0.37054770  0.06714455  1
  Ce3+  Ce31  1  0.13629081  0.26562442  0.44038579  1
  Ce3+  Ce32  1  0.86738753  -0.00691298  0.94563758  1
  Ce3+  Ce33  1  0.11934206  0.24043440  0.95019577  1
  Ce3+  Ce34  1  0.38163310  0.51562771  0.43079447  1
  Ce3+  Ce35  1  0.61325091  -0.00732082  0.94218392  1
  Ce3+  Ce36  1  0.25198119  0.64324781  0.54962274  1
  Ce3+  Ce37  1  0.23706257  0.62669116  0.06263250  1
  Pr3+  Pr38  1  0.23641108  0.86729607  0.06019181  1
  Pr3+  Pr39  1  0.25694848  0.39184866  0.56950834  1
  Pr3+  Pr40  1  0.61393044  0.24994561  0.92499725  1
  Pr3+  Pr41  1  0.11615236  0.49585980  0.93924246  1
  Pr3+  Pr42  1  0.24913592  0.11077961  0.08344817  1
  Pr3+  Pr43  1  0.00198413  0.90319495  0.57329035  1
  Pr3+  Pr44  1  0.75958721  0.89776834  0.55830466  1
  Pr3+  Pr45  1  0.73760831  0.62001065  0.06506981  1
  Pr3+  Pr46  1  0.36764395  0.24108614  0.93579482  1
  Pr3+  Pr47  1  0.49068745  0.61999327  0.06468990  1
  Pr3+  Pr48  1  0.62290592  0.02281944  0.43906140  1
  Pr3+  Pr49  1  0.49232090  0.86778947  0.06773581  1
  Nd3+  Nd50  1  0.75541509  0.14947230  0.55775448  1
  Nd3+  Nd51  1  0.50214413  0.40232496  0.56644839  1
  Nd3+  Nd52  1  0.12575596  0.01765512  0.43790032  1
  Nd3+  Nd53  1  0.62535241  0.27103066  0.43859171  1
  Nd3+  Nd54  1  0.00374485  0.14744290  0.56125270  1
  Nd3+  Nd55  1  0.36229193  0.74705914  0.93484985  1
  Nd3+  Nd56  1  -0.00865428  0.36978639  0.05757102  1
  Nd3+  Nd57  1  0.49372689  0.12863837  0.06618009  1
  Sm3+  Sm58  1  0.37644235  0.77293348  0.44434447  1
  Sm3+  Sm59  1  0.36444480  0.49329974  0.94173013  1
  Sm3+  Sm60  1  0.73846354  0.12307713  0.05180608  1
  Sm3+  Sm61  1  0.73817982  0.36889429  0.05507689  1
  Sm3+  Sm62  1  0.86834613  0.74576145  0.94152971  1
  Sm3+  Sm63  1  0.61022206  0.74071989  0.93125030  1
  Bi2+  Bi64  1  -0.01730815  0.13043656  0.28632059  1
  Bi2+  Bi65  1  -0.03272137  0.13617356  0.79816346  1
  Bi2+  Bi66  1  -0.10658004  0.41999197  0.31768738  1
  Bi2+  Bi67  1  0.05337602  0.38964580  0.78546434  1
  Bi2+  Bi68  1  -0.00294771  0.58783792  0.29778927  1
  Bi2+  Bi69  1  -0.01069029  0.60601260  0.78660140  1
  Bi2+  Bi70  1  0.01950046  0.88085255  0.28308229  1
  Bi2+  Bi71  1  0.00593958  0.84549476  0.77865830  1
  Bi2+  Bi72  1  0.22950025  0.14615635  0.28267125  1
  Bi2+  Bi73  1  0.23641173  0.16856751  0.78946986  1
  Bi2+  Bi74  1  0.23274775  0.40702446  0.27874421  1
  Bi2+  Bi75  1  0.23522194  0.43928039  0.81397151  1
  Bi2+  Bi76  1  0.27631669  0.60156763  0.28909158  1
  Bi2+  Bi77  1  0.24255053  0.62358509  0.78061350  1
  Bi2+  Bi78  1  0.25289420  0.87444164  0.29140299  1
  Bi2+  Bi79  1  0.30385118  0.89086657  0.80990985  1
  Bi2+  Bi80  1  0.48648250  0.13241978  0.28798586  1
  Bi2+  Bi81  1  0.53361411  0.09993224  0.77965278  1
  Bi2+  Bi82  1  0.48927143  0.39483344  0.29635949  1
  Bi2+  Bi83  1  0.50674409  0.36628816  0.79092768  1
  Bi2+  Bi84  1  0.54232857  0.65041226  0.28416325  1
  Bi2+  Bi85  1  0.50809595  0.62141027  0.79237357  1
  Bi2+  Bi86  1  0.55575708  0.84328513  0.27209283  1
  Bi2+  Bi87  1  0.55607594  0.86646754  0.79294793  1
  Bi2+  Bi88  1  0.72985611  0.04174215  0.31844153  1
  Bi2+  Bi89  1  0.72733294  0.09438915  0.78355650  1
  Bi2+  Bi90  1  0.73078092  0.32282509  0.29897837  1
  Bi2+  Bi91  1  0.78952155  0.39463062  0.79316705  1
  Bi2+  Bi92  1  0.70298671  0.61670835  0.22014188  1
  Bi2+  Bi93  1  0.76762252  0.66649539  0.79065402  1
  Bi2+  Bi94  1  0.75112515  0.85303162  0.29179348  1
  Bi2+  Bi95  1  0.75399674  0.89537295  0.79588439  1
  Bi2+  Bi96  1  0.12552761  0.04449749  0.19932070  1
  Bi2+  Bi97  1  0.11565997  -0.00459946  0.71523891  1
  Bi2+  Bi98  1  0.04810055  0.33716998  0.26549484  1
  Bi2+  Bi99  1  0.12560689  0.25465630  0.70936742  1
  Bi2+  Bi100  1  0.21025664  0.50693614  0.17728015  1
  Bi2+  Bi101  1  0.11963943  0.44859104  0.67488689  1
  Bi2+  Bi102  1  0.14011398  0.68435653  0.21695380  1
  Bi2+  Bi103  1  0.10774076  0.63860960  0.69509332  1
  Bi2+  Bi104  1  0.40666154  -0.06174633  0.18677782  1
  Bi2+  Bi105  1  0.40392713  -0.04161838  0.70013149  1
  Bi2+  Bi106  1  0.38930692  0.24714831  0.19538610  1
  Bi2+  Bi107  1  0.39073092  0.27408280  0.71764506  1
  Bi2+  Bi108  1  0.40820538  0.53409295  0.21054932  1
  Bi2+  Bi109  1  0.31897955  0.45982808  0.70479564  1
  Bi2+  Bi110  1  0.36483583  0.73109713  0.21523974  1
  Bi2+  Bi111  1  0.39437996  0.64343130  0.70585092  1
  Bi2+  Bi112  1  0.59890699  -0.01962567  0.18871034  1
  Bi2+  Bi113  1  0.66524482  -0.03079181  0.69649262  1
  Bi2+  Bi114  1  0.66045688  0.16428762  0.23626351  1
  Bi2+  Bi115  1  0.65455945  0.26465872  0.70893945  1
  Bi2+  Bi116  1  0.63412866  0.42969149  0.21979027  1
  Bi2+  Bi117  1  0.71770813  0.52025193  0.71561199  1
  Bi2+  Bi118  1  0.64546108  0.78705780  0.17042411  1
  Bi2+  Bi119  1  0.65224353  0.76920379  0.71185697  1
  Bi2+  Bi120  1  0.80716685  -0.00571014  0.21608803  1
  Bi2+  Bi121  1  0.86237291  0.02666885  0.70667903  1
  Bi2+  Bi122  1  0.85127581  0.26439813  0.19908981  1
  Bi2+  Bi123  1  0.90235468  0.27884885  0.72336335  1
  Bi2+  Bi124  1  1.01734149  0.50502930  0.19560694  1
  Bi2+  Bi125  1  0.91865636  0.47896720  0.70333786  1
  Bi2+  Bi126  1  0.87315351  0.73050305  0.20670527  1
  Bi2+  Bi127  1  0.87131152  0.76425838  0.71233237  1
  S2-  S128  1  -0.01997170  0.13779747  0.17849514  1
  S2-  S129  1  -0.00051420  0.05323097  0.64825722  1
  S2-  S130  1  -0.01004020  0.34665600  0.15728945  1
  S2-  S131  1  -0.01116255  0.27282960  0.63583992  1
  S2-  S132  1  0.01153693  0.73112351  0.15016363  1
  S2-  S133  1  -0.10805736  0.64599744  0.63917951  1
  S2-  S134  1  0.02244688  0.92725365  0.18029517  1
  S2-  S135  1  0.09157561  0.86388072  0.66062319  1
  S2-  S136  1  0.22017687  0.19662637  0.17828341  1
  S2-  S137  1  0.23952560  0.03207474  0.65867093  1
  S2-  S138  1  0.35083894  0.37829676  0.14414551  1
  S2-  S139  1  0.26084030  0.26470604  0.64584694  1
  S2-  S140  1  0.23935134  0.73945202  0.13921604  1
  S2-  S141  1  0.25093032  0.69008328  0.64354344  1
  S2-  S142  1  0.24610345  0.95885696  0.14912082  1
  S2-  S143  1  0.28154106  0.85308589  0.71917908  1
  S2-  S144  1  0.39547845  0.09868556  0.14733168  1
  S2-  S145  1  0.45012923  0.12006352  0.68410375  1
  S2-  S146  1  0.53064324  0.24998035  0.14276111  1
  S2-  S147  1  0.51819559  0.30363629  0.65064035  1
  S2-  S148  1  0.53124242  0.50667952  0.14249811  1
  S2-  S149  1  0.46399686  0.51772247  0.64535530  1
  S2-  S150  1  0.48437799  0.74100419  0.14094756  1
  S2-  S151  1  0.46483098  0.82516380  0.65322873  1
  S2-  S152  1  0.76483683  0.13290235  0.14974237  1
  S2-  S153  1  0.67094448  0.14208900  0.64627232  1
  S2-  S154  1  0.76011874  0.37609411  0.15426482  1
  S2-  S155  1  0.73547523  0.38223155  0.64830067  1
  S2-  S156  1  0.84319440  0.60436133  0.14770931  1
  S2-  S157  1  0.64852042  0.63683454  0.64781397  1
  S2-  S158  1  0.82498892  0.86928189  0.14568415  1
  S2-  S159  1  0.86173375  0.89295087  0.64078148  1
  S2-  S160  1  0.20858124  0.01256629  0.34631884  1
  S2-  S161  1  0.13565652  -0.07299100  0.82196506  1
  S2-  S162  1  0.10156645  0.23471167  0.34324669  1
  S2-  S163  1  0.10567253  0.16378409  0.86088301  1
  S2-  S164  1  0.13540115  0.50885029  0.34435387  1
  S2-  S165  1  0.10598239  0.59634211  0.85618152  1
  S2-  S166  1  0.13021895  0.78666750  0.34229431  1
  S2-  S167  1  0.25309111  0.74763799  0.85416135  1
  S2-  S168  1  0.36295080  0.00883092  0.27074855  1
  S2-  S169  1  0.31462575  0.05947413  0.84273776  1
  S2-  S170  1  0.34540504  0.17075832  0.34822742  1
  S2-  S171  1  0.30613961  0.29275119  0.84365651  1
  S2-  S172  1  0.35014298  0.39490604  0.35673392  1
  S2-  S173  1  0.45367521  0.49821349  0.85402048  1
  S2-  S174  1  0.37601336  0.83558434  0.35072816  1
  S2-  S175  1  0.48056078  0.75320801  0.85900441  1
  S2-  S176  1  0.53133402  0.01952975  0.35180274  1
  S2-  S177  1  0.51496151  -0.00909096  0.86084697  1
  S2-  S178  1  0.53246614  0.26607246  0.35341848  1
  S2-  S179  1  0.49882740  0.22045459  0.84744511  1
  S2-  S180  1  0.51689325  0.53523285  0.36097142  1
  S2-  S181  1  0.63780412  0.37701904  0.84930022  1
  S2-  S182  1  0.64481934  0.74580925  0.35216512  1
  S2-  S183  1  0.64109487  0.62205960  0.85462921  1
  S2-  S184  1  1.00611220  0.00374731  0.35187277  1
  S2-  S185  1  0.94487036  0.00657449  0.85878238  1
  S2-  S186  1  0.86405278  0.15477980  0.34893360  1
  S2-  S187  1  0.85155740  0.24718934  0.84348300  1
  S2-  S188  1  0.85397649  0.59953580  0.35414059  1
  S2-  S189  1  0.86190104  0.52963363  0.84624644  1
  S2-  S190  1  0.90511649  0.80667403  0.33198623  1
  S2-  S191  1  0.96639322  0.76264711  0.85851610  1
  S2-  S192  1  0.00497569  0.14953911  0.45370902  1
  S2-  S193  1  -0.01045042  0.12050642  0.96599407  1
  S2-  S194  1  0.00834379  0.39314001  0.45119175  1
  S2-  S195  1  -0.00742691  0.36894333  0.94982716  1
  S2-  S196  1  0.00822528  0.64320708  0.45251877  1
  S2-  S197  1  -0.01396756  0.61825792  0.96120124  1
  S2-  S198  1  -0.00069763  0.89094965  0.45668863  1
  S2-  S199  1  -0.00977805  0.87415709  0.96247331  1
  S2-  S200  1  0.25459961  0.13868176  0.45842296  1
  S2-  S201  1  0.23912855  0.11810565  0.96167226  1
  S2-  S202  1  0.25217704  0.39346879  0.46112205  1
  S2-  S203  1  0.24022731  0.37125745  0.95935571  1
  S2-  S204  1  0.25542983  0.64586349  0.44351751  1
  S2-  S205  1  0.24290961  0.61694604  0.95608921  1
  S2-  S206  1  0.25485027  0.89500733  0.45211919  1
  S2-  S207  1  0.23276848  0.87911587  0.95139633  1
  S2-  S208  1  0.50788883  0.14735415  0.46432022  1
  S2-  S209  1  0.49512789  0.12223283  0.95944910  1
  S2-  S210  1  0.50662655  0.39866455  0.45971227  1
  S2-  S211  1  0.48558380  0.36901292  0.95800925  1
  S2-  S212  1  0.49988692  0.65099061  0.46511381  1
  S2-  S213  1  0.48543039  0.61960162  0.95851969  1
  S2-  S214  1  0.49910530  0.89530435  0.45633600  1
  S2-  S215  1  0.49356158  0.86762637  0.96170437  1
  S2-  S216  1  0.74993136  0.14860922  0.45227382  1
  S2-  S217  1  0.73926337  0.11917107  0.94598870  1
  S2-  S218  1  0.74943164  0.39976330  0.44381569  1
  S2-  S219  1  0.74559991  0.36893826  0.95131208  1
  S2-  S220  1  0.74885782  0.64349372  0.46140681  1
  S2-  S221  1  0.74461907  0.62435825  0.95742370  1
  S2-  S222  1  0.75255137  0.89484928  0.44971279  1
  S2-  S223  1  0.73878484  0.86594337  0.94811889  1
  S2-  S224  1  0.11043472  -0.00309210  0.05771964  1
  S2-  S225  1  0.12557551  0.01925192  0.54526566  1
  S2-  S226  1  0.11750148  0.24463722  0.05624777  1
  S2-  S227  1  0.13183888  0.27005691  0.54409266  1
  S2-  S228  1  0.11384218  0.49519231  0.04763979  1
  S2-  S229  1  0.12739786  0.51899669  0.54895893  1
  S2-  S230  1  0.11103581  0.74316262  0.03825575  1
  S2-  S231  1  0.12751375  0.77034544  0.54720244  1
  S2-  S232  1  0.37080187  -0.00845340  0.04298514  1
  S2-  S233  1  0.38621961  0.02288308  0.56763957  1
  S2-  S234  1  0.36134841  0.24324183  0.04458127  1
  S2-  S235  1  0.38416575  0.27228001  0.54584149  1
  S2-  S236  1  0.36184750  0.50123525  0.04508131  1
  S2-  S237  1  0.37297781  0.52064090  0.53948910  1
  S2-  S238  1  0.36458596  0.74620181  0.03966357  1
  S2-  S239  1  0.37157778  0.77123825  0.54799584  1
  S2-  S240  1  0.61699098  -0.00179500  0.04854768  1
  S2-  S241  1  0.63238616  0.02092965  0.54652146  1
  S2-  S242  1  0.62126673  0.24759980  0.03485699  1
  S2-  S243  1  0.63200172  0.27607652  0.54307875  1
  S2-  S244  1  0.62114781  0.49426555  0.03711611  1
  S2-  S245  1  0.62960784  0.52200736  0.54535659  1
  S2-  S246  1  0.61746442  0.74387037  0.03743919  1
  S2-  S247  1  0.63325611  0.77435357  0.55320452  1
  S2-  S248  1  0.86196033  -0.00110971  0.05023748  1
  S2-  S249  1  0.87709050  0.02695250  0.53684006  1
  S2-  S250  1  0.86418299  0.24629002  0.04754198  1
  S2-  S251  1  0.87488996  0.27254979  0.53399293  1
  S2-  S252  1  0.86338086  0.48921423  0.04728444  1
  S2-  S253  1  0.88315854  0.51574658  0.54369243  1
  S2-  S254  1  0.86174887  0.74523248  0.04431265  1
  S2-  S255  1  0.88098347  0.77025806  0.53804112  1
