# generated using pymatgen
data_La9Ce10Pr6Nd4Sm3(BiS2)32
_symmetry_space_group_name_H-M   'P 1'
_cell_length_a   16.14858315
_cell_length_b   16.12469586
_cell_length_c   27.30563745
_cell_angle_alpha   90.22247058
_cell_angle_beta   89.91006871
_cell_angle_gamma   90.05880132
_symmetry_Int_Tables_number   1
_chemical_formula_structural   La9Ce10Pr6Nd4Sm3(BiS2)32
_chemical_formula_sum   'La18 Ce20 Pr12 Nd8 Sm6 Bi64 S128'
_cell_volume   7110.07596317
_cell_formula_units_Z   2
loop_
 _symmetry_equiv_pos_site_id
 _symmetry_equiv_pos_as_xyz
  1  'x, y, z'
loop_
 _atom_type_symbol
 _atom_type_oxidation_number
  La3+  3.0
  Ce3+  3.0
  Pr3+  3.0
  Nd3+  3.0
  Sm3+  3.0
  Bi2+  2.0
  S2-  -2.0
loop_
 _atom_site_type_symbol
 _atom_site_label
 _atom_site_symmetry_multiplicity
 _atom_site_fract_x
 _atom_site_fract_y
 _atom_site_fract_z
 _atom_site_occupancy
  La3+  La0  1  0.76005294  0.86741511  0.57329744  1
  La3+  La1  1  0.26849963  0.85224958  0.58568308  1
  La3+  La2  1  0.71480048  0.12779423  0.07172210  1
  La3+  La3  1  0.34149215  0.24913561  0.91469160  1
  La3+  La4  1  0.72068056  0.87221386  0.07128463  1
  La3+  La5  1  0.26572798  0.36019876  0.58193619  1
  La3+  La6  1  0.00936553  0.86090166  0.59551986  1
  La3+  La7  1  0.22049894  0.12362555  0.07451334  1
  La3+  La8  1  0.63762191  0.47923943  0.42095575  1
  La3+  La9  1  0.64255234  0.73150150  0.42348695  1
  La3+  La10  1  0.61155425  0.49408791  0.91632449  1
  La3+  La11  1  0.37502817  0.52170855  0.87480660  1
  La3+  La12  1  -0.03162099  0.13286434  0.08331163  1
  La3+  La13  1  0.38310032  -0.01629388  0.44199335  1
  La3+  La14  1  0.88654343  0.48094486  0.43268934  1
  La3+  La15  1  0.63471769  0.23119532  0.41958930  1
  La3+  La16  1  0.25626788  0.60657645  0.56419824  1
  La3+  La17  1  0.22257708  0.62602169  0.06542592  1
  Ce3+  Ce18  1  0.60057312  0.25164433  0.93054754  1
  Ce3+  Ce19  1  0.34992838  0.75034411  0.94023392  1
  Ce3+  Ce20  1  0.00873187  0.61086623  0.55799126  1
  Ce3+  Ce21  1  0.34842822  0.00174317  0.94134625  1
  Ce3+  Ce22  1  0.76105852  0.11158932  0.55580121  1
  Ce3+  Ce23  1  0.85650960  0.49837080  0.93679952  1
  Ce3+  Ce24  1  0.38187392  0.23705969  0.44766326  1
  Ce3+  Ce25  1  0.63319831  -0.01942873  0.43346002  1
  Ce3+  Ce26  1  0.85257520  0.24568817  0.94621471  1
  Ce3+  Ce27  1  0.11117021  0.49699245  0.93633346  1
  Ce3+  Ce28  1  0.76069939  0.61256450  0.55596102  1
  Ce3+  Ce29  1  0.88408099  0.73867954  0.43951606  1
  Ce3+  Ce30  1  0.59924484  0.00144078  0.93699497  1
  Ce3+  Ce31  1  0.13883235  0.23266102  0.44955015  1
  Ce3+  Ce32  1  0.51428266  0.11153071  0.55800372  1
  Ce3+  Ce33  1  0.47035461  0.87600578  0.06420445  1
  Ce3+  Ce34  1  0.13831371  0.48381884  0.43424063  1
  Ce3+  Ce35  1  0.22292175  0.87518960  0.06907200  1
  Ce3+  Ce36  1  0.38944805  0.73386706  0.44382169  1
  Ce3+  Ce37  1  0.26221967  0.11110297  0.57266816  1
  Pr3+  Pr38  1  0.51608995  0.60942553  0.55459060  1
  Pr3+  Pr39  1  -0.02608913  0.37498452  0.06145383  1
  Pr3+  Pr40  1  0.60422075  0.75670871  0.92529404  1
  Pr3+  Pr41  1  0.38030508  0.48242165  0.42915999  1
  Pr3+  Pr42  1  0.75891141  0.35808625  0.56343533  1
  Pr3+  Pr43  1  0.13633972  0.73525212  0.44153977  1
  Pr3+  Pr44  1  0.88573636  -0.01463139  0.43434614  1
  Pr3+  Pr45  1  0.09816467  0.75489931  0.93243412  1
  Pr3+  Pr46  1  -0.02299266  0.62444108  0.06197906  1
  Pr3+  Pr47  1  0.09807378  0.23741644  0.93609014  1
  Pr3+  Pr48  1  0.85104935  0.75155025  0.93802614  1
  Pr3+  Pr49  1  0.88678603  0.22688463  0.42879533  1
  Nd3+  Nd50  1  -0.02699781  0.87643796  0.07400952  1
  Nd3+  Nd51  1  0.47447361  0.62325336  0.04889856  1
  Nd3+  Nd52  1  0.22730435  0.37411897  0.05869867  1
  Nd3+  Nd53  1  0.10405420  -0.00445837  0.94309380  1
  Nd3+  Nd54  1  0.85127458  0.00099988  0.94941645  1
  Nd3+  Nd55  1  0.51434211  0.86087592  0.56749654  1
  Nd3+  Nd56  1  0.13709232  -0.01856694  0.44899796  1
  Nd3+  Nd57  1  0.71907962  0.62497990  0.05652794  1
  Sm3+  Sm58  1  0.71982732  0.37938899  0.05326911  1
  Sm3+  Sm59  1  0.47570381  0.12944028  0.05399821  1
  Sm3+  Sm60  1  0.47169631  0.37868367  0.04581571  1
  Sm3+  Sm61  1  0.51357567  0.36251847  0.56407712  1
  Sm3+  Sm62  1  0.00993530  0.10795668  0.56397698  1
  Sm3+  Sm63  1  0.00952591  0.36009665  0.55070565  1
  Bi2+  Bi64  1  0.02344239  0.21523947  0.29930831  1
  Bi2+  Bi65  1  -0.02274086  0.15171285  0.72137989  1
  Bi2+  Bi66  1  -0.01975032  0.41206648  0.31158593  1
  Bi2+  Bi67  1  -0.01752415  0.31015837  0.79483349  1
  Bi2+  Bi68  1  0.02864781  0.59702092  0.32663350  1
  Bi2+  Bi69  1  -0.02110236  0.50050569  0.82162242  1
  Bi2+  Bi70  1  0.01509057  0.85072819  0.25745611  1
  Bi2+  Bi71  1  0.01078477  0.93191064  0.81782488  1
  Bi2+  Bi72  1  0.26981509  0.11666015  0.31358303  1
  Bi2+  Bi73  1  0.19430289  0.12294435  0.80019273  1
  Bi2+  Bi74  1  0.22329696  0.38235168  0.25704756  1
  Bi2+  Bi75  1  0.24415755  0.37750422  0.77781208  1
  Bi2+  Bi76  1  0.27802069  0.60954956  0.31044545  1
  Bi2+  Bi77  1  0.12873988  0.62911039  0.80317520  1
  Bi2+  Bi78  1  0.24261977  0.87409234  0.31138850  1
  Bi2+  Bi79  1  0.29847095  0.93005595  0.80951945  1
  Bi2+  Bi80  1  0.53397283  0.14478188  0.24021455  1
  Bi2+  Bi81  1  0.58671192  0.12891452  0.80601772  1
  Bi2+  Bi82  1  0.52004772  0.40556369  0.25225824  1
  Bi2+  Bi83  1  0.50372203  0.40984617  0.77277286  1
  Bi2+  Bi84  1  0.51410527  0.67487381  0.28838271  1
  Bi2+  Bi85  1  0.49286761  0.74897360  0.79461453  1
  Bi2+  Bi86  1  0.64784225  0.92981600  0.29616417  1
  Bi2+  Bi87  1  0.49395465  0.95195702  0.78691001  1
  Bi2+  Bi88  1  0.77661877  0.10509785  0.30241105  1
  Bi2+  Bi89  1  0.77592079  0.11342338  0.78554050  1
  Bi2+  Bi90  1  0.71073146  0.36159541  0.28260178  1
  Bi2+  Bi91  1  0.74709474  0.36177926  0.78877623  1
  Bi2+  Bi92  1  0.76963905  0.60534702  0.28701878  1
  Bi2+  Bi93  1  0.73903197  0.61920363  0.77897659  1
  Bi2+  Bi94  1  0.84552859  0.89623761  0.30961619  1
  Bi2+  Bi95  1  0.74720033  0.86798379  0.79270660  1
  Bi2+  Bi96  1  0.20086081  -0.01698805  0.19627738  1
  Bi2+  Bi97  1  0.15182747  0.02071906  0.71037251  1
  Bi2+  Bi98  1  0.14142889  0.22351243  0.20482944  1
  Bi2+  Bi99  1  0.12001490  0.28661497  0.70984043  1
  Bi2+  Bi100  1  0.08561056  0.51089230  0.22237878  1
  Bi2+  Bi101  1  0.07577441  0.51880482  0.70369276  1
  Bi2+  Bi102  1  0.17277349  0.73160770  0.20160753  1
  Bi2+  Bi103  1  0.08685934  0.76277260  0.72971654  1
  Bi2+  Bi104  1  0.46061043  -0.03227716  0.25103522  1
  Bi2+  Bi105  1  0.34729872  0.01285112  0.70008939  1
  Bi2+  Bi106  1  0.38209857  0.26561081  0.25325067  1
  Bi2+  Bi107  1  0.38356637  0.19515203  0.71811559  1
  Bi2+  Bi108  1  0.38611513  0.50977738  0.18966102  1
  Bi2+  Bi109  1  0.37824294  0.54020154  0.67410056  1
  Bi2+  Bi110  1  0.36734397  0.80254917  0.22958162  1
  Bi2+  Bi111  1  0.33771906  0.78344060  0.73130438  1
  Bi2+  Bi112  1  0.72145527  -0.03061151  0.19352914  1
  Bi2+  Bi113  1  0.64326764  -0.00152852  0.71363884  1
  Bi2+  Bi114  1  0.69748748  0.21938371  0.19903210  1
  Bi2+  Bi115  1  0.61873643  0.24781717  0.71225136  1
  Bi2+  Bi116  1  0.63232785  0.51089635  0.17781644  1
  Bi2+  Bi117  1  0.65529171  0.52087969  0.69159436  1
  Bi2+  Bi118  1  0.61756085  0.74631048  0.20283016  1
  Bi2+  Bi119  1  0.63358226  0.74488449  0.71544641  1
  Bi2+  Bi120  1  0.90996010  -0.00030797  0.21608283  1
  Bi2+  Bi121  1  0.90102032  -0.06699062  0.72782496  1
  Bi2+  Bi122  1  0.89808751  0.29897850  0.22745683  1
  Bi2+  Bi123  1  0.80246832  0.21253471  0.67986016  1
  Bi2+  Bi124  1  0.89696361  0.49246617  0.19875054  1
  Bi2+  Bi125  1  0.87906066  0.42059646  0.71727862  1
  Bi2+  Bi126  1  0.93227982  0.67670714  0.23469209  1
  Bi2+  Bi127  1  0.93018612  0.67836104  0.77864240  1
  S2-  S128  1  0.07930784  0.08486274  0.15868287  1
  S2-  S129  1  0.00146601  0.02233013  0.65022083  1
  S2-  S130  1  0.00308366  0.28816793  0.14817457  1
  S2-  S131  1  0.00960283  0.38125266  0.64823546  1
  S2-  S132  1  0.09250597  0.62713572  0.14049406  1
  S2-  S133  1  0.02017242  0.65505746  0.65300750  1
  S2-  S134  1  0.10362629  0.86045894  0.14524302  1
  S2-  S135  1  -0.13168271  0.83875626  0.65339548  1
  S2-  S136  1  0.27882188  0.12428697  0.17216701  1
  S2-  S137  1  0.25571956  0.22020498  0.65210523  1
  S2-  S138  1  0.25999504  0.40458982  0.15844202  1
  S2-  S139  1  0.21883542  0.49119772  0.64579231  1
  S2-  S140  1  0.30436753  0.63675579  0.15838369  1
  S2-  S141  1  0.28332254  0.69487799  0.65468819  1
  S2-  S142  1  0.33982139  0.88568813  0.14441136  1
  S2-  S143  1  0.14829785  0.86650108  0.66156847  1
  S2-  S144  1  0.57035816  0.13822136  0.13706345  1
  S2-  S145  1  0.50732630  0.14793153  0.65506355  1
  S2-  S146  1  0.50557661  0.39616601  0.14433376  1
  S2-  S147  1  0.41196557  0.38638659  0.64670385  1
  S2-  S148  1  0.52126505  0.63478877  0.14662601  1
  S2-  S149  1  0.52987201  0.62775252  0.65615282  1
  S2-  S150  1  0.58379102  0.87667073  0.14061415  1
  S2-  S151  1  0.40717302  0.86991067  0.65141524  1
  S2-  S152  1  0.82887728  0.12560525  0.15226917  1
  S2-  S153  1  0.75815946  0.04441722  0.64531028  1
  S2-  S154  1  0.73087885  0.37838598  0.15159774  1
  S2-  S155  1  0.63717231  0.37166648  0.63767486  1
  S2-  S156  1  0.73474870  0.65237710  0.15629130  1
  S2-  S157  1  0.76221339  0.62841877  0.65411213  1
  S2-  S158  1  0.84488064  0.87469591  0.14898626  1
  S2-  S159  1  0.62862821  0.86353381  0.64533038  1
  S2-  S160  1  0.15268268  -0.00435997  0.34856855  1
  S2-  S161  1  0.06267380  0.09289887  0.86226362  1
  S2-  S162  1  0.17249310  0.23418878  0.35340202  1
  S2-  S163  1  0.19330354  0.26731006  0.85138959  1
  S2-  S164  1  0.24182236  0.46290992  0.35689250  1
  S2-  S165  1  0.20474615  0.49176738  0.85294787  1
  S2-  S166  1  0.14822593  0.72344391  0.33991837  1
  S2-  S167  1  0.14905467  0.88409724  0.86341541  1
  S2-  S168  1  0.37885954  -0.01818147  0.34036679  1
  S2-  S169  1  0.33822090  0.09206792  0.85665677  1
  S2-  S170  1  0.39670129  0.20912232  0.35066364  1
  S2-  S171  1  0.38636095  0.34754758  0.83384021  1
  S2-  S172  1  0.42145921  0.54590286  0.33322062  1
  S2-  S173  1  0.35781333  0.50983496  0.76632600  1
  S2-  S174  1  0.35645637  0.74997468  0.34831849  1
  S2-  S175  1  0.35106815  0.69720697  0.84610951  1
  S2-  S176  1  0.62487513  0.08493818  0.35379510  1
  S2-  S177  1  0.61557595  -0.09993040  0.85775164  1
  S2-  S178  1  0.58807211  0.35704407  0.34994735  1
  S2-  S179  1  0.60835757  0.34276111  0.84650956  1
  S2-  S180  1  0.62855130  0.60479025  0.34466201  1
  S2-  S181  1  0.53562655  0.54156008  0.82824289  1
  S2-  S182  1  0.56485578  0.81436992  0.34691437  1
  S2-  S183  1  0.73958794  0.73679987  0.85718946  1
  S2-  S184  1  0.92356673  0.09759421  0.35670539  1
  S2-  S185  1  0.84576785  -0.01262844  0.84894900  1
  S2-  S186  1  0.77245330  0.24759509  0.35056288  1
  S2-  S187  1  0.84071978  0.24298210  0.84777301  1
  S2-  S188  1  0.78479891  0.47802064  0.34983620  1
  S2-  S189  1  0.76306686  0.49887503  0.85337385  1
  S2-  S190  1  0.79863838  0.73998781  0.35380465  1
  S2-  S191  1  0.96575525  0.77362327  0.86018622  1
  S2-  S192  1  0.01582640  0.10819082  0.46150995  1
  S2-  S193  1  -0.02817655  0.12394501  0.97011041  1
  S2-  S194  1  0.01232242  0.35486148  0.44692870  1
  S2-  S195  1  -0.02160471  0.37182205  0.95311390  1
  S2-  S196  1  0.00942564  0.60994210  0.45205520  1
  S2-  S197  1  -0.02181401  0.62124495  0.95516595  1
  S2-  S198  1  0.01119651  0.86067206  0.43866477  1
  S2-  S199  1  -0.02656701  0.87880405  0.96625279  1
  S2-  S200  1  0.26018446  0.10876620  0.46457452  1
  S2-  S201  1  0.22635448  0.12299002  0.96357543  1
  S2-  S202  1  0.25901218  0.35868801  0.46610194  1
  S2-  S203  1  0.22327001  0.36546832  0.95682596  1
  S2-  S204  1  0.25980822  0.61028955  0.45550287  1
  S2-  S205  1  0.22218185  0.63143498  0.95422993  1
  S2-  S206  1  0.26091547  0.85752524  0.46166041  1
  S2-  S207  1  0.23278691  0.87479531  0.96568584  1
  S2-  S208  1  0.50709686  0.11087523  0.45383765  1
  S2-  S209  1  0.47489269  0.13092814  0.95086852  1
  S2-  S210  1  0.50504359  0.36041134  0.45829843  1
  S2-  S211  1  0.47284280  0.37807190  0.94399029  1
  S2-  S212  1  0.50967187  0.60710705  0.44921721  1
  S2-  S213  1  0.47931376  0.62715549  0.94325358  1
  S2-  S214  1  0.50952490  0.86089869  0.45999065  1
  S2-  S215  1  0.47273376  0.87701780  0.95277228  1
  S2-  S216  1  0.75976965  0.10662883  0.45289762  1
  S2-  S217  1  0.72305021  0.12515854  0.95502339  1
  S2-  S218  1  0.76458775  0.35442400  0.45655209  1
  S2-  S219  1  0.73174495  0.37045070  0.95154731  1
  S2-  S220  1  0.76597134  0.60791208  0.45263753  1
  S2-  S221  1  0.72777107  0.62152449  0.95365846  1
  S2-  S222  1  0.75990352  0.86400589  0.45568328  1
  S2-  S223  1  0.72785081  0.87739391  0.96187408  1
  S2-  S224  1  0.09743891  -0.00046039  0.04840611  1
  S2-  S225  1  0.13770170  -0.01447171  0.55381340  1
  S2-  S226  1  0.10224536  0.24960466  0.04592056  1
  S2-  S227  1  0.13050020  0.23508112  0.55413059  1
  S2-  S228  1  0.10005974  0.49454542  0.04407238  1
  S2-  S229  1  0.12741260  0.48400409  0.53943597  1
  S2-  S230  1  0.09531711  0.75219651  0.03958912  1
  S2-  S231  1  0.13107636  0.73944596  0.54875522  1
  S2-  S232  1  0.35369567  0.00741526  0.04730223  1
  S2-  S233  1  0.38622493  -0.01133899  0.55034974  1
  S2-  S234  1  0.35396810  0.25071198  0.05535087  1
  S2-  S235  1  0.38990426  0.23471722  0.55097736  1
  S2-  S236  1  0.35027010  0.50046322  0.04657895  1
  S2-  S237  1  0.38819298  0.48752453  0.54061848  1
  S2-  S238  1  0.35196395  0.74851961  0.04549118  1
  S2-  S239  1  0.39059059  0.73432107  0.54758069  1
  S2-  S240  1  0.59510118  0.00084309  0.03996468  1
  S2-  S241  1  0.63472665  -0.01096100  0.54044810  1
  S2-  S242  1  0.59779927  0.25759995  0.03696954  1
  S2-  S243  1  0.63620637  0.23411483  0.54019859  1
  S2-  S244  1  0.59918794  0.49941827  0.03322990  1
  S2-  S245  1  0.64016839  0.48596310  0.53573187  1
  S2-  S246  1  0.59795132  0.74861089  0.03538219  1
  S2-  S247  1  0.63931285  0.73608517  0.54039864  1
  S2-  S248  1  0.84711368  0.00348359  0.05234442  1
  S2-  S249  1  0.89137744  -0.01553924  0.54153370  1
  S2-  S250  1  0.84278629  0.25610627  0.05062879  1
  S2-  S251  1  0.88926214  0.23387117  0.54394808  1
  S2-  S252  1  0.84846225  0.50064541  0.04609546  1
  S2-  S253  1  0.88533943  0.48307025  0.54532640  1
  S2-  S254  1  0.85069382  0.74462827  0.04662284  1
  S2-  S255  1  0.88816435  0.73830848  0.54432979  1
