# generated using pymatgen
data_La9Ce10Pr6Nd4Sm3(BiS2)32
_symmetry_space_group_name_H-M   'P 1'
_cell_length_a   16.18602569
_cell_length_b   16.18878424
_cell_length_c   27.16637241
_cell_angle_alpha   90.09376850
_cell_angle_beta   89.80975685
_cell_angle_gamma   89.90447689
_symmetry_Int_Tables_number   1
_chemical_formula_structural   La9Ce10Pr6Nd4Sm3(BiS2)32
_chemical_formula_sum   'La18 Ce20 Pr12 Nd8 Sm6 Bi64 S128'
_cell_volume   7118.40226985
_cell_formula_units_Z   2
loop_
 _symmetry_equiv_pos_site_id
 _symmetry_equiv_pos_as_xyz
  1  'x, y, z'
loop_
 _atom_type_symbol
 _atom_type_oxidation_number
  La3+  3.0
  Ce3+  3.0
  Pr3+  3.0
  Nd3+  3.0
  Sm3+  3.0
  Bi2+  2.0
  S2-  -2.0
loop_
 _atom_site_type_symbol
 _atom_site_label
 _atom_site_symmetry_multiplicity
 _atom_site_fract_x
 _atom_site_fract_y
 _atom_site_fract_z
 _atom_site_occupancy
  La3+  La0  1  0.87750728  0.75252197  0.90102718  1
  La3+  La1  1  0.73879391  0.60698429  0.57217461  1
  La3+  La2  1  0.11881930  0.22980556  0.42613970  1
  La3+  La3  1  0.37301336  0.73880138  0.43518708  1
  La3+  La4  1  0.74752320  0.36281400  0.55697553  1
  La3+  La5  1  0.49635325  0.86311572  0.56486842  1
  La3+  La6  1  0.88503535  0.26403214  0.92948582  1
  La3+  La7  1  0.36689120  0.22805050  0.42815757  1
  La3+  La8  1  0.87147526  0.00237879  0.92540400  1
  La3+  La9  1  0.50223480  0.62806181  0.06626928  1
  La3+  La10  1  0.75884738  0.37215253  0.08333673  1
  La3+  La11  1  -0.00963435  0.62192663  0.61512129  1
  La3+  La12  1  0.87085617  0.51322467  0.38495245  1
  La3+  La13  1  0.74896785  0.11664693  0.56936581  1
  La3+  La14  1  0.62954641  0.72933481  0.43095577  1
  La3+  La15  1  0.49176779  0.11904154  0.09032402  1
  La3+  La16  1  0.00012201  0.87013441  0.05858762  1
  La3+  La17  1  0.61178108  0.23180856  0.42459155  1
  Ce3+  Ce18  1  0.63070257  0.75186961  0.93916194  1
  Ce3+  Ce19  1  0.86572186  0.24853403  0.42870744  1
  Ce3+  Ce20  1  0.24804113  0.37738758  0.06202767  1
  Ce3+  Ce21  1  0.12970605  0.25289182  0.93503154  1
  Ce3+  Ce22  1  0.75644274  0.12824193  0.06202258  1
  Ce3+  Ce23  1  0.37887319  0.75248631  0.93579385  1
  Ce3+  Ce24  1  0.50159614  0.87942225  0.05389411  1
  Ce3+  Ce25  1  0.24447355  0.60733545  0.56914093  1
  Ce3+  Ce26  1  0.00609088  0.12611353  0.05519045  1
  Ce3+  Ce27  1  0.74375072  0.85945400  0.56119816  1
  Ce3+  Ce28  1  0.87243339  0.50585334  0.94543503  1
  Ce3+  Ce29  1  -0.00582816  0.11173381  0.54862623  1
  Ce3+  Ce30  1  0.38011318  0.50228543  0.94452669  1
  Ce3+  Ce31  1  0.49439324  0.60970489  0.56118604  1
  Ce3+  Ce32  1  0.37878386  0.00600753  0.94073258  1
  Ce3+  Ce33  1  0.50366720  0.37858157  0.06855405  1
  Ce3+  Ce34  1  0.12913314  0.00097925  0.93559829  1
  Ce3+  Ce35  1  0.24617490  0.35995105  0.55065175  1
  Ce3+  Ce36  1  0.86512782  -0.01448995  0.43817542  1
  Ce3+  Ce37  1  0.13439647  0.76357130  0.91581700  1
  Pr3+  Pr38  1  0.11863546  0.73479264  0.44055419  1
  Pr3+  Pr39  1  -0.00392751  0.36501777  0.55816606  1
  Pr3+  Pr40  1  0.38193725  0.25223639  0.94510069  1
  Pr3+  Pr41  1  0.37328890  -0.01452201  0.43675117  1
  Pr3+  Pr42  1  0.12753733  0.50476251  0.93600140  1
  Pr3+  Pr43  1  0.75222236  0.88182135  0.06167704  1
  Pr3+  Pr44  1  0.37301700  0.48954110  0.43062200  1
  Pr3+  Pr45  1  -0.00772492  0.86030966  0.57108251  1
  Pr3+  Pr46  1  0.49340061  0.11225123  0.58485799  1
  Pr3+  Pr47  1  0.11694348  -0.02064113  0.43643928  1
  Pr3+  Pr48  1  0.75723168  0.64096508  0.07659575  1
  Pr3+  Pr49  1  0.00532608  0.37974771  0.07018177  1
  Nd3+  Nd50  1  0.49521908  0.35813794  0.55663164  1
  Nd3+  Nd51  1  0.62559472  -0.01084552  0.43677479  1
  Nd3+  Nd52  1  0.87102588  0.72997237  0.45114005  1
  Nd3+  Nd53  1  0.24219895  0.85723156  0.56302167  1
  Nd3+  Nd54  1  0.11808088  0.48899847  0.43952478  1
  Nd3+  Nd55  1  0.24638859  0.11150232  0.56298893  1
  Nd3+  Nd56  1  0.24503057  0.12448003  0.06804175  1
  Nd3+  Nd57  1  0.62792426  0.00777397  0.94208095  1
  Sm3+  Sm58  1  0.00329817  0.63150152  0.04573732  1
  Sm3+  Sm59  1  0.63230614  0.50309216  0.95066328  1
  Sm3+  Sm60  1  0.25142023  0.63121223  0.05454743  1
  Sm3+  Sm61  1  0.63109590  0.25436744  0.94906073  1
  Sm3+  Sm62  1  0.61879416  0.48292102  0.43127913  1
  Sm3+  Sm63  1  0.25143566  0.87650437  0.05808965  1
  Bi2+  Bi64  1  -0.00803656  0.09342386  0.28864620  1
  Bi2+  Bi65  1  0.01211895  0.11285768  0.80223375  1
  Bi2+  Bi66  1  0.03885241  0.34783873  0.29764637  1
  Bi2+  Bi67  1  0.07023675  0.35254490  0.77218831  1
  Bi2+  Bi68  1  0.09122765  0.64034377  0.28419768  1
  Bi2+  Bi69  1  -0.01855676  0.56543749  0.80757456  1
  Bi2+  Bi70  1  -0.01713571  0.90252149  0.30834662  1
  Bi2+  Bi71  1  0.03003280  0.86411579  0.77691327  1
  Bi2+  Bi72  1  0.22862531  0.14149338  0.28146283  1
  Bi2+  Bi73  1  0.20933649  0.13170710  0.79933202  1
  Bi2+  Bi74  1  0.26511559  0.41769242  0.28166223  1
  Bi2+  Bi75  1  0.25349784  0.34706844  0.80533921  1
  Bi2+  Bi76  1  0.24914186  0.61977515  0.34936024  1
  Bi2+  Bi77  1  0.30791226  0.60298353  0.78380659  1
  Bi2+  Bi78  1  0.25858184  0.83600416  0.29638995  1
  Bi2+  Bi79  1  0.30175731  0.89047840  0.80557743  1
  Bi2+  Bi80  1  0.46798732  0.13613273  0.28867795  1
  Bi2+  Bi81  1  0.48115932  0.14320318  0.78894634  1
  Bi2+  Bi82  1  0.45984421  0.39539809  0.27100945  1
  Bi2+  Bi83  1  0.45607648  0.40505995  0.76317588  1
  Bi2+  Bi84  1  0.42596257  0.62903562  0.30650302  1
  Bi2+  Bi85  1  0.48000168  0.67587847  0.81963018  1
  Bi2+  Bi86  1  0.52423973  0.87897076  0.28873082  1
  Bi2+  Bi87  1  0.51009132  0.85578491  0.78091366  1
  Bi2+  Bi88  1  0.74176417  0.12428300  0.31215156  1
  Bi2+  Bi89  1  0.70352541  0.14429951  0.79199254  1
  Bi2+  Bi90  1  0.76451496  0.39961696  0.27422526  1
  Bi2+  Bi91  1  0.76954537  0.39466144  0.79337250  1
  Bi2+  Bi92  1  0.74026927  0.65035275  0.28414189  1
  Bi2+  Bi93  1  0.66393863  0.62579740  0.80291198  1
  Bi2+  Bi94  1  0.79983076  0.89193198  0.26914261  1
  Bi2+  Bi95  1  0.76126022  0.89487433  0.78295675  1
  Bi2+  Bi96  1  0.11681729  -0.00376724  0.20865414  1
  Bi2+  Bi97  1  0.10888994  0.01261207  0.71521708  1
  Bi2+  Bi98  1  0.06836543  0.24336767  0.20585110  1
  Bi2+  Bi99  1  0.13098904  0.20539732  0.70404993  1
  Bi2+  Bi100  1  0.10765423  0.48345729  0.21812188  1
  Bi2+  Bi101  1  0.21965451  0.47522464  0.70183193  1
  Bi2+  Bi102  1  0.18078527  0.75810575  0.20373166  1
  Bi2+  Bi103  1  0.23565753  0.74865161  0.71977113  1
  Bi2+  Bi104  1  0.38092586  -0.05108476  0.22037369  1
  Bi2+  Bi105  1  0.34982152  -0.00613044  0.71118629  1
  Bi2+  Bi106  1  0.28820271  0.26524942  0.20497084  1
  Bi2+  Bi107  1  0.36593378  0.25687382  0.70966596  1
  Bi2+  Bi108  1  0.35224901  0.54468680  0.20670977  1
  Bi2+  Bi109  1  0.39816059  0.52761158  0.67325204  1
  Bi2+  Bi110  1  0.38666567  0.75314199  0.21579124  1
  Bi2+  Bi111  1  0.42551203  0.72442450  0.70158281  1
  Bi2+  Bi112  1  0.65801728  0.01603561  0.22700067  1
  Bi2+  Bi113  1  0.58826357  0.01274030  0.72728434  1
  Bi2+  Bi114  1  0.64679034  0.25655523  0.22455590  1
  Bi2+  Bi115  1  0.63743531  0.27152757  0.69344102  1
  Bi2+  Bi116  1  0.58306246  0.53309783  0.19779110  1
  Bi2+  Bi117  1  0.59073433  0.51526660  0.71620709  1
  Bi2+  Bi118  1  0.62434449  0.83506644  0.18936228  1
  Bi2+  Bi119  1  0.62980618  0.77878207  0.69915220  1
  Bi2+  Bi120  1  0.83373228  -0.00214074  0.17413817  1
  Bi2+  Bi121  1  0.89963269  0.02424886  0.72524671  1
  Bi2+  Bi122  1  0.87235348  0.17660479  0.21643757  1
  Bi2+  Bi123  1  0.89252798  0.23041519  0.71147734  1
  Bi2+  Bi124  1  0.90940729  0.54167901  0.18152928  1
  Bi2+  Bi125  1  0.84747690  0.46346122  0.69810351  1
  Bi2+  Bi126  1  0.97965565  0.77054554  0.22412006  1
  Bi2+  Bi127  1  0.85379406  0.75440466  0.72008909  1
  S2-  S128  1  0.10797321  0.12252316  0.13666784  1
  S2-  S129  1  -0.07699623  0.10588506  0.63822345  1
  S2-  S130  1  -0.10448568  0.38924722  0.15093213  1
  S2-  S131  1  -0.03453735  0.34939523  0.65944854  1
  S2-  S132  1  -0.01376103  0.68753565  0.13825753  1
  S2-  S133  1  -0.01074892  0.54585173  0.71130169  1
  S2-  S134  1  -0.00654159  0.92506383  0.15556999  1
  S2-  S135  1  -0.01276704  0.78195845  0.66301518  1
  S2-  S136  1  0.34162964  0.14245779  0.15176318  1
  S2-  S137  1  0.34452776  0.11736532  0.64708130  1
  S2-  S138  1  0.13973765  0.37736080  0.14053208  1
  S2-  S139  1  0.23697617  0.32966970  0.64836210  1
  S2-  S140  1  0.22550131  0.61389553  0.15182123  1
  S2-  S141  1  0.15982034  0.62509871  0.65489678  1
  S2-  S142  1  0.24364908  0.93393033  0.15226764  1
  S2-  S143  1  0.23140058  0.89020122  0.66169424  1
  S2-  S144  1  0.54166523  0.15331354  0.18834042  1
  S2-  S145  1  0.63506946  0.11042375  0.65028458  1
  S2-  S146  1  0.45544722  0.41158120  0.16235218  1
  S2-  S147  1  0.49562635  0.26891944  0.64401007  1
  S2-  S148  1  0.52895111  0.68903387  0.15981732  1
  S2-  S149  1  0.60175584  0.63396145  0.63970369  1
  S2-  S150  1  0.49381493  0.95088037  0.14300267  1
  S2-  S151  1  0.48158713  0.96094934  0.64858390  1
  S2-  S152  1  0.75641884  0.21845715  0.14527598  1
  S2-  S153  1  0.77103158  0.24981710  0.63963720  1
  S2-  S154  1  0.66472595  0.40001305  0.17074664  1
  S2-  S155  1  0.69002418  0.42687493  0.65083647  1
  S2-  S156  1  0.73715107  0.58828807  0.17628979  1
  S2-  S157  1  0.82556822  0.62703587  0.66270729  1
  S2-  S158  1  0.76220298  0.78466571  0.14513643  1
  S2-  S159  1  0.75569010  0.87410639  0.66010575  1
  S2-  S160  1  0.12706687  0.08637657  0.35405456  1
  S2-  S161  1  0.14198301  -0.08803317  0.85051729  1
  S2-  S162  1  0.19745230  0.28148168  0.33905030  1
  S2-  S163  1  0.02554790  0.26487531  0.85641159  1
  S2-  S164  1  0.04185829  0.49113042  0.34832282  1
  S2-  S165  1  0.13571079  0.48470841  0.83544040  1
  S2-  S166  1  0.11972544  0.85388171  0.36311042  1
  S2-  S167  1  0.03361369  0.72726588  0.83641308  1
  S2-  S168  1  0.35418661  0.09560609  0.35446337  1
  S2-  S169  1  0.41998238  0.00820554  0.84526479  1
  S2-  S170  1  0.45865617  0.27248330  0.34163656  1
  S2-  S171  1  0.34946797  0.22404053  0.84646298  1
  S2-  S172  1  0.49461113  0.49233510  0.35412654  1
  S2-  S173  1  0.38369699  0.47422020  0.84768017  1
  S2-  S174  1  0.38838160  0.86238905  0.35931714  1
  S2-  S175  1  0.27550717  0.74117970  0.85490271  1
  S2-  S176  1  0.58494792  0.09049994  0.35558817  1
  S2-  S177  1  0.72118154  0.01361839  0.85693641  1
  S2-  S178  1  0.67790002  0.28329824  0.33087487  1
  S2-  S179  1  0.58488766  0.22003711  0.85499565  1
  S2-  S180  1  0.70485680  0.51277348  0.34341732  1
  S2-  S181  1  0.65569757  0.47042097  0.85386881  1
  S2-  S182  1  0.61467459  0.74619768  0.32975246  1
  S2-  S183  1  0.70530702  0.77749129  0.85193417  1
  S2-  S184  1  0.75858741  -0.03240549  0.36006545  1
  S2-  S185  1  0.89948538  -0.10256269  0.84259028  1
  S2-  S186  1  0.88008936  0.34377058  0.34448427  1
  S2-  S187  1  0.79890385  0.24030752  0.84157903  1
  S2-  S188  1  0.86926518  0.53056374  0.27553224  1
  S2-  S189  1  0.89175862  0.43339253  0.85688927  1
  S2-  S190  1  0.83978209  0.69155874  0.35393509  1
  S2-  S191  1  0.84382077  0.64352685  0.82026201  1
  S2-  S192  1  -0.01411741  0.11079633  0.44475351  1
  S2-  S193  1  0.00340977  0.12365926  0.94973100  1
  S2-  S194  1  0.00098495  0.35900435  0.45164286  1
  S2-  S195  1  0.00679042  0.38395852  0.96223104  1
  S2-  S196  1  -0.00575774  0.61115623  0.44712433  1
  S2-  S197  1  0.00083168  0.62975757  0.94354879  1
  S2-  S198  1  -0.01163476  0.85987314  0.46270501  1
  S2-  S199  1  0.00268002  0.87761517  0.94952316  1
  S2-  S200  1  0.24062981  0.10507463  0.45869416  1
  S2-  S201  1  0.25271197  0.12732358  0.95555187  1
  S2-  S202  1  0.24756054  0.36524265  0.44630785  1
  S2-  S203  1  0.25362217  0.37824680  0.95413299  1
  S2-  S204  1  0.24588009  0.61291091  0.46222580  1
  S2-  S205  1  0.25492049  0.62607259  0.95124429  1
  S2-  S206  1  0.24642887  0.85888090  0.45911120  1
  S2-  S207  1  0.25880347  0.87961023  0.95470826  1
  S2-  S208  1  0.49276028  0.10711978  0.46326406  1
  S2-  S209  1  0.50378407  0.12785482  0.96250102  1
  S2-  S210  1  0.49332187  0.36075088  0.45251959  1
  S2-  S211  1  0.50736638  0.37881944  0.95939080  1
  S2-  S212  1  0.49746162  0.61433201  0.45468506  1
  S2-  S213  1  0.50494730  0.62529704  0.95692686  1
  S2-  S214  1  0.50537212  0.86044423  0.45656914  1
  S2-  S215  1  0.50499132  0.87882291  0.94689244  1
  S2-  S216  1  0.74837317  0.11686457  0.45531750  1
  S2-  S217  1  0.75450673  0.13378378  0.95736873  1
  S2-  S218  1  0.74046655  0.36383314  0.44921429  1
  S2-  S219  1  0.75113660  0.37723432  0.96653302  1
  S2-  S220  1  0.74871859  0.60261177  0.45937173  1
  S2-  S221  1  0.75133470  0.62861287  0.95611758  1
  S2-  S222  1  0.74659268  0.85559553  0.45672682  1
  S2-  S223  1  0.75214013  0.87938022  0.95549797  1
  S2-  S224  1  0.12776987  -0.00388224  0.03991220  1
  S2-  S225  1  0.11823833  -0.01514781  0.54952691  1
  S2-  S226  1  0.12845578  0.25277917  0.03931842  1
  S2-  S227  1  0.12008346  0.23358496  0.54064170  1
  S2-  S228  1  0.12774359  0.51063964  0.04317934  1
  S2-  S229  1  0.12189154  0.48648313  0.54827036  1
  S2-  S230  1  0.13169388  0.75284212  0.03890462  1
  S2-  S231  1  0.11540876  0.73576520  0.54920183  1
  S2-  S232  1  0.37182377  0.00187517  0.04517262  1
  S2-  S233  1  0.36372208  -0.01817541  0.54508199  1
  S2-  S234  1  0.37630632  0.25619552  0.05146710  1
  S2-  S235  1  0.36656651  0.23473924  0.53869592  1
  S2-  S236  1  0.37327425  0.50405197  0.05091829  1
  S2-  S237  1  0.36980263  0.48415149  0.54031185  1
  S2-  S238  1  0.37598442  0.75424975  0.04738011  1
  S2-  S239  1  0.36906615  0.73602734  0.54963547  1
  S2-  S240  1  0.62764752  0.00735202  0.04893703  1
  S2-  S241  1  0.62478422  -0.01493695  0.54506412  1
  S2-  S242  1  0.61913044  0.24915102  0.05434219  1
  S2-  S243  1  0.62023770  0.23860415  0.53889753  1
  S2-  S244  1  0.63150565  0.50600106  0.05581923  1
  S2-  S245  1  0.61178226  0.48541086  0.53876039  1
  S2-  S246  1  0.62570605  0.75501807  0.04469775  1
  S2-  S247  1  0.62014874  0.73909498  0.54066467  1
  S2-  S248  1  0.87896993  0.00420709  0.03867085  1
  S2-  S249  1  0.86903210  -0.01706140  0.54479046  1
  S2-  S250  1  0.88519803  0.25008789  0.04353820  1
  S2-  S251  1  0.87643084  0.23870970  0.53433182  1
  S2-  S252  1  0.87737122  0.51251243  0.05005841  1
  S2-  S253  1  0.87671722  0.49115593  0.56361455  1
  S2-  S254  1  0.87652564  0.75351674  0.03655194  1
  S2-  S255  1  0.86982620  0.73449806  0.55509851  1
