# generated using pymatgen
data_La9Ce10Pr6Nd4Sm3(BiS2)32
_symmetry_space_group_name_H-M   'P 1'
_cell_length_a   16.15970467
_cell_length_b   16.18179587
_cell_length_c   27.30034519
_cell_angle_alpha   89.96630689
_cell_angle_beta   89.57085123
_cell_angle_gamma   90.10866334
_symmetry_Int_Tables_number   1
_chemical_formula_structural   La9Ce10Pr6Nd4Sm3(BiS2)32
_chemical_formula_sum   'La18 Ce20 Pr12 Nd8 Sm6 Bi64 S128'
_cell_volume   7138.63594040
_cell_formula_units_Z   2
loop_
 _symmetry_equiv_pos_site_id
 _symmetry_equiv_pos_as_xyz
  1  'x, y, z'
loop_
 _atom_type_symbol
 _atom_type_oxidation_number
  La3+  3.0
  Ce3+  3.0
  Pr3+  3.0
  Nd3+  3.0
  Sm3+  3.0
  Bi2+  2.0
  S2-  -2.0
loop_
 _atom_site_type_symbol
 _atom_site_label
 _atom_site_symmetry_multiplicity
 _atom_site_fract_x
 _atom_site_fract_y
 _atom_site_fract_z
 _atom_site_occupancy
  La3+  La0  1  0.48903735  0.37006510  0.07045943  1
  La3+  La1  1  0.12701706  0.00914216  0.43117255  1
  La3+  La2  1  -0.00098486  0.63100932  0.56223331  1
  La3+  La3  1  0.36156938  0.25364334  0.91183369  1
  La3+  La4  1  0.74601521  0.14651161  0.57143862  1
  La3+  La5  1  0.74043101  0.37068236  0.08848668  1
  La3+  La6  1  0.62905028  0.25755622  0.91210725  1
  La3+  La7  1  0.73162810  0.12045686  0.09393909  1
  La3+  La8  1  0.48913161  0.38806184  0.57744643  1
  La3+  La9  1  0.37372444  0.76541132  0.41809849  1
  La3+  La10  1  0.73403921  0.87087449  0.07841786  1
  La3+  La11  1  0.86392679  0.25687464  0.40135795  1
  La3+  La12  1  0.23949747  0.87815122  0.07300857  1
  La3+  La13  1  0.86422495  0.49402849  0.93941721  1
  La3+  La14  1  0.23911874  0.38997584  0.57138797  1
  La3+  La15  1  0.12486152  0.50182786  0.42233009  1
  La3+  La16  1  0.63349392  0.01425602  0.42965047  1
  La3+  La17  1  -0.00410132  0.13530641  0.55247725  1
  Ce3+  Ce18  1  0.12048204  0.24932489  0.94386972  1
  Ce3+  Ce19  1  -0.00987596  0.62663243  0.05599157  1
  Ce3+  Ce20  1  0.49769510  0.88587441  0.55627750  1
  Ce3+  Ce21  1  -0.00841096  0.37312569  0.06755817  1
  Ce3+  Ce22  1  0.49264649  0.87471481  0.05295183  1
  Ce3+  Ce23  1  0.37554461  0.50495457  0.42449287  1
  Ce3+  Ce24  1  0.37388021  0.01162376  0.44008217  1
  Ce3+  Ce25  1  0.12475228  0.75116498  0.93733525  1
  Ce3+  Ce26  1  -0.01293099  0.12189118  0.05849410  1
  Ce3+  Ce27  1  0.74505399  0.63096536  0.56386908  1
  Ce3+  Ce28  1  0.86592605  0.74977342  0.93922678  1
  Ce3+  Ce29  1  0.61547689  0.49264681  0.94917393  1
  Ce3+  Ce30  1  -0.01192789  0.87613155  0.04782517  1
  Ce3+  Ce31  1  0.86357397  0.24817957  0.95211848  1
  Ce3+  Ce32  1  0.36773270  0.74760113  0.93878830  1
  Ce3+  Ce33  1  0.24151340  0.12124354  0.06361454  1
  Ce3+  Ce34  1  0.62175537  0.50584938  0.44337493  1
  Ce3+  Ce35  1  0.74029852  0.62584256  0.06003254  1
  Ce3+  Ce36  1  0.12527379  0.75111737  0.42835180  1
  Ce3+  Ce37  1  0.36785137  0.49322121  0.94318970  1
  Pr3+  Pr38  1  0.49682702  0.13706885  0.56151728  1
  Pr3+  Pr39  1  0.12655935  0.25978125  0.43325522  1
  Pr3+  Pr40  1  0.11877364  0.49784553  0.94169853  1
  Pr3+  Pr41  1  0.49311624  0.63366488  0.56143082  1
  Pr3+  Pr42  1  0.37345907  0.26138288  0.44118378  1
  Pr3+  Pr43  1  0.62332185  0.26848631  0.43603243  1
  Pr3+  Pr44  1  -0.00316991  0.88328956  0.55638734  1
  Pr3+  Pr45  1  0.24088243  0.62938766  0.06775879  1
  Pr3+  Pr46  1  0.24064529  0.12609659  0.57613112  1
  Pr3+  Pr47  1  0.61850462  -0.00109653  0.93487762  1
  Pr3+  Pr48  1  0.24854048  0.88053001  0.56155263  1
  Pr3+  Pr49  1  0.23823705  0.37994125  0.07797138  1
  Nd3+  Nd50  1  0.24926077  0.63352040  0.55354810  1
  Nd3+  Nd51  1  0.86190548  0.00034076  0.94050053  1
  Nd3+  Nd52  1  0.87514082  0.00635419  0.44044134  1
  Nd3+  Nd53  1  0.74507206  0.88598192  0.56011374  1
  Nd3+  Nd54  1  0.12166804  0.00057337  0.93693777  1
  Nd3+  Nd55  1  0.87180262  0.50532393  0.43436924  1
  Nd3+  Nd56  1  0.49683527  0.12838397  0.04914470  1
  Nd3+  Nd57  1  0.87283054  0.75573000  0.44301040  1
  Sm3+  Sm58  1  0.61764351  0.74662442  0.93852883  1
  Sm3+  Sm59  1  0.62421641  0.75769876  0.44598690  1
  Sm3+  Sm60  1  -0.00135361  0.38301763  0.55280470  1
  Sm3+  Sm61  1  0.36997616  0.00211842  0.94210043  1
  Sm3+  Sm62  1  0.48961069  0.62578670  0.05447770  1
  Sm3+  Sm63  1  0.74874914  0.39214248  0.56462687  1
  Bi2+  Bi64  1  0.02566883  0.07302525  0.25632238  1
  Bi2+  Bi65  1  0.00255820  0.19005689  0.75878692  1
  Bi2+  Bi66  1  0.01873424  0.49762516  0.30086726  1
  Bi2+  Bi67  1  0.01539213  0.37667810  0.79701742  1
  Bi2+  Bi68  1  -0.12938033  0.63808587  0.32095664  1
  Bi2+  Bi69  1  -0.01351677  0.67207443  0.77455634  1
  Bi2+  Bi70  1  0.00604307  0.80696612  0.28195159  1
  Bi2+  Bi71  1  -0.00404946  0.87208136  0.76335206  1
  Bi2+  Bi72  1  0.25469524  0.13720593  0.35175827  1
  Bi2+  Bi73  1  0.25989185  0.10473572  0.79967265  1
  Bi2+  Bi74  1  0.26670692  0.35235118  0.30470021  1
  Bi2+  Bi75  1  0.23409047  0.37029889  0.78810101  1
  Bi2+  Bi76  1  0.24448323  0.64788165  0.29634593  1
  Bi2+  Bi77  1  0.27661868  0.64118608  0.78012516  1
  Bi2+  Bi78  1  0.23928214  0.95521215  0.30292814  1
  Bi2+  Bi79  1  0.17496390  0.84772031  0.80421637  1
  Bi2+  Bi80  1  0.43856160  0.15712097  0.30296342  1
  Bi2+  Bi81  1  0.50475207  0.08033709  0.78815578  1
  Bi2+  Bi82  1  0.53282759  0.41868784  0.25009495  1
  Bi2+  Bi83  1  0.49492085  0.44095828  0.78832814  1
  Bi2+  Bi84  1  0.50088154  0.61790120  0.27103156  1
  Bi2+  Bi85  1  0.46586725  0.62953985  0.80772226  1
  Bi2+  Bi86  1  0.49170918  0.87017950  0.28309183  1
  Bi2+  Bi87  1  0.49394559  0.82403535  0.77784181  1
  Bi2+  Bi88  1  0.77925894  0.14202730  0.27554402  1
  Bi2+  Bi89  1  0.76718645  0.13141501  0.80375191  1
  Bi2+  Bi90  1  0.73881719  0.38578528  0.29003370  1
  Bi2+  Bi91  1  0.76421020  0.40191210  0.79532673  1
  Bi2+  Bi92  1  0.68468945  0.58063030  0.32142101  1
  Bi2+  Bi93  1  0.66645075  0.64003651  0.80524741  1
  Bi2+  Bi94  1  0.72591641  0.89936235  0.31061832  1
  Bi2+  Bi95  1  0.76042672  0.89230846  0.80223380  1
  Bi2+  Bi96  1  0.14097891  -0.08761421  0.20615951  1
  Bi2+  Bi97  1  0.09867958  0.01219836  0.70529000  1
  Bi2+  Bi98  1  0.17636898  0.19886662  0.25156273  1
  Bi2+  Bi99  1  0.15915855  0.25674515  0.70444377  1
  Bi2+  Bi100  1  0.14316526  0.44256625  0.22259339  1
  Bi2+  Bi101  1  0.11470396  0.49913531  0.70493300  1
  Bi2+  Bi102  1  0.12172681  0.71221109  0.21188105  1
  Bi2+  Bi103  1  0.22960767  0.75428400  0.69091764  1
  Bi2+  Bi104  1  0.38751013  0.01531227  0.22584185  1
  Bi2+  Bi105  1  0.33707138  -0.09444450  0.72291552  1
  Bi2+  Bi106  1  0.35326315  0.21218484  0.20294517  1
  Bi2+  Bi107  1  0.41319332  0.24659683  0.70584156  1
  Bi2+  Bi108  1  0.37574129  0.50528147  0.20449910  1
  Bi2+  Bi109  1  0.35892889  0.50441319  0.70871885  1
  Bi2+  Bi110  1  0.40738538  0.78211782  0.19423543  1
  Bi2+  Bi111  1  0.42158184  0.71480697  0.68406010  1
  Bi2+  Bi112  1  0.59586674  -0.00551251  0.20946061  1
  Bi2+  Bi113  1  0.61188699  -0.08309672  0.70433304  1
  Bi2+  Bi114  1  0.55133396  0.23393347  0.22104145  1
  Bi2+  Bi115  1  0.64890869  0.21735778  0.70490680  1
  Bi2+  Bi116  1  0.69891605  0.51410795  0.20432347  1
  Bi2+  Bi117  1  0.62809823  0.52105354  0.71574549  1
  Bi2+  Bi118  1  0.66296874  0.71511633  0.23505531  1
  Bi2+  Bi119  1  0.62395112  0.71954883  0.69292286  1
  Bi2+  Bi120  1  0.88942506  -0.06175989  0.21541173  1
  Bi2+  Bi121  1  0.87608953  -0.00691703  0.70403053  1
  Bi2+  Bi122  1  0.91728201  0.26614263  0.20736021  1
  Bi2+  Bi123  1  0.88873795  0.33155546  0.71344936  1
  Bi2+  Bi124  1  0.89507421  0.53802548  0.21467585  1
  Bi2+  Bi125  1  0.88159195  0.53422930  0.71308062  1
  Bi2+  Bi126  1  0.85817190  0.74325690  0.21443758  1
  Bi2+  Bi127  1  0.80845513  0.73118451  0.73910590  1
  S2-  S128  1  -0.02013426  0.12917592  0.15662592  1
  S2-  S129  1  0.04839255  0.14014122  0.64843255  1
  S2-  S130  1  0.10289432  0.35543193  0.14522777  1
  S2-  S131  1  0.08937366  0.38230472  0.63898203  1
  S2-  S132  1  0.01223037  0.62244867  0.15346708  1
  S2-  S133  1  0.00847821  0.62347595  0.66287348  1
  S2-  S134  1  -0.00182974  0.87976405  0.14475769  1
  S2-  S135  1  0.00115618  0.88455450  0.65678679  1
  S2-  S136  1  0.23165919  0.01194152  0.14105046  1
  S2-  S137  1  0.28333424  0.15601609  0.67399190  1
  S2-  S138  1  0.36680871  0.36294502  0.14823951  1
  S2-  S139  1  0.35103593  0.36395534  0.64873253  1
  S2-  S140  1  0.23528549  0.52469370  0.14986734  1
  S2-  S141  1  0.22978958  0.54117902  0.63934780  1
  S2-  S142  1  0.26107888  0.75365710  0.14575660  1
  S2-  S143  1  0.22720885  0.96933187  0.64772618  1
  S2-  S144  1  0.56576863  0.11604509  0.14363081  1
  S2-  S145  1  0.51985058  0.12662524  0.66296185  1
  S2-  S146  1  0.59763828  0.37029478  0.15419841  1
  S2-  S147  1  0.55114328  0.32865935  0.67102066  1
  S2-  S148  1  0.46907032  0.63430674  0.15214495  1
  S2-  S149  1  0.49514681  0.53395780  0.64512349  1
  S2-  S150  1  0.54540797  0.86634597  0.14488978  1
  S2-  S151  1  0.46223207  0.90760833  0.65095776  1
  S2-  S152  1  0.76913297  0.22125193  0.17774149  1
  S2-  S153  1  0.77885582  0.10367656  0.66974743  1
  S2-  S154  1  0.88523418  0.39294024  0.14839143  1
  S2-  S155  1  0.75765236  0.30201299  0.64860576  1
  S2-  S156  1  0.73198270  0.72744922  0.14040174  1
  S2-  S157  1  0.75700915  0.52687502  0.64199587  1
  S2-  S158  1  0.74789533  0.98147521  0.15757138  1
  S2-  S159  1  0.76716061  0.88923859  0.65852675  1
  S2-  S160  1  0.06855042  -0.01494496  0.33623646  1
  S2-  S161  1  0.13858372  0.01774049  0.83776571  1
  S2-  S162  1  0.10427037  0.36180772  0.35100784  1
  S2-  S163  1  0.20510955  0.23957369  0.85748215  1
  S2-  S164  1  0.09391752  0.63209995  0.35238435  1
  S2-  S165  1  0.13201955  0.47401320  0.84114758  1
  S2-  S166  1  0.23116397  0.78395706  0.35029750  1
  S2-  S167  1  0.09891445  0.70251543  0.84488653  1
  S2-  S168  1  0.38819042  -0.08282396  0.35750172  1
  S2-  S169  1  0.37566818  0.00610403  0.84356623  1
  S2-  S170  1  0.40156310  0.36600035  0.36074020  1
  S2-  S171  1  0.40545260  0.20357419  0.81193100  1
  S2-  S172  1  0.25630107  0.50722729  0.34968426  1
  S2-  S173  1  0.36505294  0.40864193  0.85738721  1
  S2-  S174  1  0.40171233  0.63698424  0.34947028  1
  S2-  S175  1  0.30500625  0.77154260  0.84997282  1
  S2-  S176  1  0.60585273  0.00472880  0.32875605  1
  S2-  S177  1  0.64705555  0.01360237  0.83505936  1
  S2-  S178  1  0.71257744  0.22382644  0.34821122  1
  S2-  S179  1  0.61170311  0.20754476  0.81185744  1
  S2-  S180  1  0.61935744  0.40759085  0.36424718  1
  S2-  S181  1  0.62207746  0.41648695  0.86091485  1
  S2-  S182  1  0.61162224  0.78874460  0.34963446  1
  S2-  S183  1  0.63208429  0.80094040  0.84573869  1
  S2-  S184  1  0.80938086  0.02892768  0.35102789  1
  S2-  S185  1  0.86951517  0.01593508  0.84058463  1
  S2-  S186  1  0.92517831  0.20210987  0.30820069  1
  S2-  S187  1  0.80093607  0.26759276  0.86155357  1
  S2-  S188  1  0.86709516  0.41004461  0.34877565  1
  S2-  S189  1  0.87393357  0.49852842  0.83847483  1
  S2-  S190  1  0.86959711  0.81357403  0.34873775  1
  S2-  S191  1  0.86297311  0.74872895  0.84238605  1
  S2-  S192  1  -0.00510364  0.13598415  0.44310086  1
  S2-  S193  1  -0.00807378  0.12274897  0.94956025  1
  S2-  S194  1  -0.01092949  0.37557594  0.45198005  1
  S2-  S195  1  -0.00704411  0.37159382  0.95675904  1
  S2-  S196  1  -0.00737277  0.63203564  0.45517913  1
  S2-  S197  1  -0.00890881  0.62383267  0.94950127  1
  S2-  S198  1  -0.00053089  0.87962245  0.45040001  1
  S2-  S199  1  -0.00683004  0.87651044  0.94115403  1
  S2-  S200  1  0.24851070  0.13289773  0.46477473  1
  S2-  S201  1  0.24709385  0.12166274  0.95671045  1
  S2-  S202  1  0.24804558  0.38109563  0.45908815  1
  S2-  S203  1  0.24123273  0.37339117  0.96287669  1
  S2-  S204  1  0.25143242  0.63625367  0.45111971  1
  S2-  S205  1  0.24441786  0.62208938  0.95474759  1
  S2-  S206  1  0.24815810  0.88596831  0.45627967  1
  S2-  S207  1  0.24598840  0.88005567  0.95860016  1
  S2-  S208  1  0.50260088  0.13520974  0.45142515  1
  S2-  S209  1  0.49404608  0.12978848  0.94282915  1
  S2-  S210  1  0.49812146  0.38561020  0.46758143  1
  S2-  S211  1  0.49167769  0.36664624  0.95951098  1
  S2-  S212  1  0.50366860  0.63592813  0.45494232  1
  S2-  S213  1  0.49398888  0.62190462  0.94910687  1
  S2-  S214  1  0.50701394  0.88690044  0.45355575  1
  S2-  S215  1  0.49194626  0.87336075  0.94599796  1
  S2-  S216  1  0.75406801  0.13804930  0.46045804  1
  S2-  S217  1  0.73887831  0.12501999  0.95070736  1
  S2-  S218  1  0.75267963  0.38281428  0.46012215  1
  S2-  S219  1  0.74124743  0.37346336  0.96804718  1
  S2-  S220  1  0.74754323  0.63304817  0.45715019  1
  S2-  S221  1  0.73890123  0.62334529  0.95169435  1
  S2-  S222  1  0.74821983  0.88188016  0.45514937  1
  S2-  S223  1  0.74031040  0.87174579  0.95565215  1
  S2-  S224  1  0.11169859  0.00043423  0.04174969  1
  S2-  S225  1  0.12018871  0.00664477  0.53991867  1
  S2-  S226  1  0.11651012  0.24183391  0.04687740  1
  S2-  S227  1  0.12298046  0.25644961  0.54064723  1
  S2-  S228  1  0.11302137  0.50311123  0.04659050  1
  S2-  S229  1  0.11835316  0.51028977  0.53354149  1
  S2-  S230  1  0.11477041  0.75238765  0.04411539  1
  S2-  S231  1  0.12230172  0.75796973  0.54382635  1
  S2-  S232  1  0.37275763  0.00088374  0.04654971  1
  S2-  S233  1  0.37233247  0.01065020  0.54683117  1
  S2-  S234  1  0.36394991  0.24243485  0.04750768  1
  S2-  S235  1  0.36649929  0.25184102  0.54839889  1
  S2-  S236  1  0.36723707  0.50364695  0.04660514  1
  S2-  S237  1  0.36989043  0.51139219  0.53830129  1
  S2-  S238  1  0.36925514  0.75080157  0.04214081  1
  S2-  S239  1  0.37307407  0.75960770  0.54149995  1
  S2-  S240  1  0.61825306  -0.00148018  0.04116607  1
  S2-  S241  1  0.62456461  0.01196006  0.54653454  1
  S2-  S242  1  0.62181693  0.24749448  0.05021711  1
  S2-  S243  1  0.62066591  0.26450066  0.54578489  1
  S2-  S244  1  0.61457057  0.50339417  0.05376507  1
  S2-  S245  1  0.62260392  0.50953402  0.54666131  1
  S2-  S246  1  0.61250265  0.74702922  0.04076931  1
  S2-  S247  1  0.62232744  0.75884212  0.55108481  1
  S2-  S248  1  0.86090457  -0.00020205  0.04700230  1
  S2-  S249  1  0.87059148  0.00857282  0.54757266  1
  S2-  S250  1  0.86195083  0.24383414  0.05465122  1
  S2-  S251  1  0.87734092  0.26411677  0.55271472  1
  S2-  S252  1  0.86415647  0.50345210  0.04748770  1
  S2-  S253  1  0.87674978  0.50697822  0.54255376  1
  S2-  S254  1  0.86563196  0.75093745  0.04466986  1
  S2-  S255  1  0.86971672  0.75792495  0.55158987  1
