# generated using pymatgen
data_La9Ce10Pr6Nd4Sm3(BiS2)32
_symmetry_space_group_name_H-M   'P 1'
_cell_length_a   16.16523121
_cell_length_b   16.16655755
_cell_length_c   27.02305592
_cell_angle_alpha   90.01148229
_cell_angle_beta   89.95520923
_cell_angle_gamma   90.08896522
_symmetry_Int_Tables_number   1
_chemical_formula_structural   La9Ce10Pr6Nd4Sm3(BiS2)32
_chemical_formula_sum   'La18 Ce20 Pr12 Nd8 Sm6 Bi64 S128'
_cell_volume   7062.09032753
_cell_formula_units_Z   2
loop_
 _symmetry_equiv_pos_site_id
 _symmetry_equiv_pos_as_xyz
  1  'x, y, z'
loop_
 _atom_type_symbol
 _atom_type_oxidation_number
  La3+  3.0
  Ce3+  3.0
  Pr3+  3.0
  Nd3+  3.0
  Sm3+  3.0
  Bi2+  2.0
  S2-  -2.0
loop_
 _atom_site_type_symbol
 _atom_site_label
 _atom_site_symmetry_multiplicity
 _atom_site_fract_x
 _atom_site_fract_y
 _atom_site_fract_z
 _atom_site_occupancy
  La3+  La0  1  0.25426456  0.36720417  0.56872067  1
  La3+  La1  1  0.75227781  0.37879980  0.08993806  1
  La3+  La2  1  0.51177818  0.86538593  0.07590997  1
  La3+  La3  1  0.50863244  0.61900933  0.07322129  1
  La3+  La4  1  0.13545338  0.48356864  0.92324100  1
  La3+  La5  1  0.14013022  0.50904765  0.40324191  1
  La3+  La6  1  0.64279905  0.48892397  0.42165659  1
  La3+  La7  1  0.88297503  -0.00707962  0.93406126  1
  La3+  La8  1  0.52020523  0.12477262  0.57350428  1
  La3+  La9  1  0.14628709  0.23955540  0.41782900  1
  La3+  La10  1  0.75019676  0.87205832  0.57442030  1
  La3+  La11  1  0.01602165  0.62539513  0.57453464  1
  La3+  La12  1  0.24815014  0.62163163  0.07359469  1
  La3+  La13  1  0.86705824  0.74759524  0.88330933  1
  La3+  La14  1  0.51922717  0.12071144  0.07431448  1
  La3+  La15  1  0.62606038  -0.00462742  0.92856790  1
  La3+  La16  1  0.76653831  0.37248959  0.56539357  1
  La3+  La17  1  0.26770230  0.61902415  0.57870333  1
  Ce3+  Ce18  1  0.14203828  -0.00519840  0.43727645  1
  Ce3+  Ce19  1  0.38626204  0.49357213  0.44290324  1
  Ce3+  Ce20  1  0.88917366  0.24785330  0.43654585  1
  Ce3+  Ce21  1  0.63306655  0.24017695  0.43245046  1
  Ce3+  Ce22  1  0.88815546  -0.00696503  0.43726908  1
  Ce3+  Ce23  1  0.01549529  0.12068403  0.55205259  1
  Ce3+  Ce24  1  0.63396614  0.24948487  0.93889219  1
  Ce3+  Ce25  1  0.37824654  0.49552583  0.94424878  1
  Ce3+  Ce26  1  0.76568901  0.61991843  0.55929094  1
  Ce3+  Ce27  1  0.01903869  0.37360735  0.54637600  1
  Ce3+  Ce28  1  0.75892998  0.11999855  0.55609309  1
  Ce3+  Ce29  1  0.51044732  0.37088246  0.05738200  1
  Ce3+  Ce30  1  0.38759103  0.74104800  0.43223923  1
  Ce3+  Ce31  1  0.38524077  -0.00564257  0.94499198  1
  Ce3+  Ce32  1  0.51920233  0.62131789  0.54672755  1
  Ce3+  Ce33  1  0.26576944  0.86653836  0.07510764  1
  Ce3+  Ce34  1  0.89237721  0.74816912  0.44561554  1
  Ce3+  Ce35  1  0.25494212  0.37476484  0.07740821  1
  Ce3+  Ce36  1  0.26539997  0.11674943  0.07349811  1
  Ce3+  Ce37  1  0.38680889  0.24673218  0.44466686  1
  Pr3+  Pr38  1  0.01121308  0.36296244  0.07940100  1
  Pr3+  Pr39  1  0.13921314  0.74710315  0.44212253  1
  Pr3+  Pr40  1  0.64591146  -0.00767346  0.42233635  1
  Pr3+  Pr41  1  0.88367363  0.25218460  0.94366228  1
  Pr3+  Pr42  1  0.27209540  0.11786550  0.57076087  1
  Pr3+  Pr43  1  0.00705504  0.86435296  0.06395966  1
  Pr3+  Pr44  1  0.38322550  0.24519181  0.95394794  1
  Pr3+  Pr45  1  0.00389756  0.11714308  0.07406414  1
  Pr3+  Pr46  1  0.12811555  0.74230751  0.93567108  1
  Pr3+  Pr47  1  0.37809807  0.74102700  0.93788213  1
  Pr3+  Pr48  1  0.13547082  0.24252711  0.95118343  1
  Pr3+  Pr49  1  0.51974391  0.37383185  0.56684635  1
  Nd3+  Nd50  1  0.88402151  0.49275697  0.93313710  1
  Nd3+  Nd51  1  0.01195171  0.88353144  0.57087854  1
  Nd3+  Nd52  1  0.88756382  0.49821974  0.43259358  1
  Nd3+  Nd53  1  0.63274793  0.74493894  0.93979679  1
  Nd3+  Nd54  1  0.26620116  0.86749492  0.56076499  1
  Nd3+  Nd55  1  0.13356520  -0.00832107  0.95473790  1
  Nd3+  Nd56  1  0.76194869  0.61827657  0.05480640  1
  Nd3+  Nd57  1  0.75732386  0.11891336  0.05651857  1
  Sm3+  Sm58  1  0.63219038  0.49804884  0.93946322  1
  Sm3+  Sm59  1  0.64852948  0.74920342  0.42723502  1
  Sm3+  Sm60  1  0.00442923  0.60690417  0.05913842  1
  Sm3+  Sm61  1  0.75754677  0.86884715  0.06139272  1
  Sm3+  Sm62  1  0.39267032  -0.00321437  0.44119623  1
  Sm3+  Sm63  1  0.51572777  0.86995937  0.55192981  1
  Bi2+  Bi64  1  -0.03498102  0.05153066  0.31151113  1
  Bi2+  Bi65  1  -0.02959009  0.16218567  0.78329511  1
  Bi2+  Bi66  1  -0.02514974  0.38827839  0.29781723  1
  Bi2+  Bi67  1  0.01094428  0.36700814  0.78748549  1
  Bi2+  Bi68  1  -0.04701266  0.67806241  0.28867489  1
  Bi2+  Bi69  1  -0.01315414  0.62043831  0.77630002  1
  Bi2+  Bi70  1  -0.03596924  0.86054161  0.33149291  1
  Bi2+  Bi71  1  0.02388415  0.89024349  0.79427805  1
  Bi2+  Bi72  1  0.28237764  0.10788300  0.29131977  1
  Bi2+  Bi73  1  0.23681922  0.08524269  0.79527088  1
  Bi2+  Bi74  1  0.26265649  0.37277856  0.29015674  1
  Bi2+  Bi75  1  0.25692137  0.35277590  0.79955748  1
  Bi2+  Bi76  1  0.28199765  0.63489149  0.28848838  1
  Bi2+  Bi77  1  0.31506428  0.66888613  0.78019133  1
  Bi2+  Bi78  1  0.15602452  0.85580332  0.32012000  1
  Bi2+  Bi79  1  0.26704443  0.88771619  0.79616272  1
  Bi2+  Bi80  1  0.48456733  0.24347200  0.31636352  1
  Bi2+  Bi81  1  0.42881108  0.13053542  0.78682243  1
  Bi2+  Bi82  1  0.49558577  0.44258181  0.31310517  1
  Bi2+  Bi83  1  0.50871567  0.41408076  0.78608923  1
  Bi2+  Bi84  1  0.50396847  0.64401349  0.29241840  1
  Bi2+  Bi85  1  0.47174682  0.59384884  0.83892751  1
  Bi2+  Bi86  1  0.53221487  0.96691239  0.30366034  1
  Bi2+  Bi87  1  0.46675696  0.90448970  0.78049911  1
  Bi2+  Bi88  1  0.70240952  0.09333779  0.24520526  1
  Bi2+  Bi89  1  0.74782434  0.13798390  0.78372476  1
  Bi2+  Bi90  1  0.75197050  0.37225459  0.27565136  1
  Bi2+  Bi91  1  0.75200427  0.32940549  0.80226204  1
  Bi2+  Bi92  1  0.69716639  0.62777947  0.29820767  1
  Bi2+  Bi93  1  0.73904365  0.56679747  0.77193803  1
  Bi2+  Bi94  1  0.78298587  0.91391055  0.25861538  1
  Bi2+  Bi95  1  0.75324769  0.88772829  0.77360614  1
  Bi2+  Bi96  1  0.02752040  0.00899587  0.20585740  1
  Bi2+  Bi97  1  0.10374450  -0.06675587  0.69615707  1
  Bi2+  Bi98  1  0.11781613  0.22669241  0.22074895  1
  Bi2+  Bi99  1  0.14004249  0.21014226  0.72883348  1
  Bi2+  Bi100  1  0.11642801  0.51085156  0.19460850  1
  Bi2+  Bi101  1  0.13385515  0.46420911  0.70373365  1
  Bi2+  Bi102  1  0.13517350  0.75913268  0.21905681  1
  Bi2+  Bi103  1  0.16833430  0.74221173  0.71502669  1
  Bi2+  Bi104  1  0.21564164  -0.03691409  0.22996288  1
  Bi2+  Bi105  1  0.28952289  -0.02001503  0.69221581  1
  Bi2+  Bi106  1  0.39794079  0.33042878  0.21805834  1
  Bi2+  Bi107  1  0.36110156  0.27152210  0.71809778  1
  Bi2+  Bi108  1  0.41852232  0.53357343  0.20530980  1
  Bi2+  Bi109  1  0.38666071  0.51721919  0.72209931  1
  Bi2+  Bi110  1  0.38915173  0.78744119  0.21924043  1
  Bi2+  Bi111  1  0.44239460  0.77729734  0.69411106  1
  Bi2+  Bi112  1  0.53031022  -0.00812048  0.19502267  1
  Bi2+  Bi113  1  0.56026206  0.01172236  0.69620880  1
  Bi2+  Bi114  1  0.56841002  0.22818977  0.21096257  1
  Bi2+  Bi115  1  0.60880634  0.29045239  0.71809331  1
  Bi2+  Bi116  1  0.61130615  0.49778129  0.21500876  1
  Bi2+  Bi117  1  0.58536669  0.54010632  0.70283536  1
  Bi2+  Bi118  1  0.65384695  0.76368166  0.21486843  1
  Bi2+  Bi119  1  0.56727676  0.72735505  0.77994600  1
  Bi2+  Bi120  1  0.84251190  0.02281775  0.16555485  1
  Bi2+  Bi121  1  0.86613154  0.06202010  0.70150169  1
  Bi2+  Bi122  1  0.87833134  0.18720294  0.23101572  1
  Bi2+  Bi123  1  0.87021081  0.26354652  0.69983374  1
  Bi2+  Bi124  1  0.85979057  0.57321144  0.21311006  1
  Bi2+  Bi125  1  0.81579123  0.45175096  0.69485026  1
  Bi2+  Bi126  1  0.85008767  0.76521465  0.19296615  1
  Bi2+  Bi127  1  0.85398243  0.73166807  0.67645048  1
  S2-  S128  1  -0.00946369  0.22633334  0.15404656  1
  S2-  S129  1  0.00930353  0.03746790  0.63818945  1
  S2-  S130  1  -0.02966287  0.49224727  0.14623543  1
  S2-  S131  1  0.06131243  0.36545168  0.64263980  1
  S2-  S132  1  0.09467265  0.64637663  0.14327812  1
  S2-  S133  1  -0.08751095  0.57377808  0.65768259  1
  S2-  S134  1  0.01493094  0.84873969  0.16680126  1
  S2-  S135  1  0.01974175  0.78596901  0.65483458  1
  S2-  S136  1  0.21791002  0.11412214  0.16957815  1
  S2-  S137  1  0.24405533  0.23629625  0.64628687  1
  S2-  S138  1  0.14528997  0.35040867  0.15714454  1
  S2-  S139  1  0.28007213  0.47452698  0.64901473  1
  S2-  S140  1  0.27396631  0.50607038  0.15112066  1
  S2-  S141  1  0.13595174  0.61074764  0.65339058  1
  S2-  S142  1  0.26841807  0.74624753  0.15156239  1
  S2-  S143  1  0.28916837  0.76556615  0.64341000  1
  S2-  S144  1  0.44102387  0.12395411  0.16761050  1
  S2-  S145  1  0.40856177  0.07274295  0.64958304  1
  S2-  S146  1  0.59275440  0.36705983  0.14436942  1
  S2-  S147  1  0.49673807  0.26536596  0.64940571  1
  S2-  S148  1  0.51258261  0.72431245  0.15468854  1
  S2-  S149  1  0.47266095  0.62797836  0.64285038  1
  S2-  S150  1  0.38913882  0.90455372  0.15189622  1
  S2-  S151  1  0.59752345  0.88177768  0.63984170  1
  S2-  S152  1  0.66214217  0.12720989  0.14167147  1
  S2-  S153  1  0.66444899  0.10887511  0.63996954  1
  S2-  S154  1  0.79935654  0.32150679  0.18885672  1
  S2-  S155  1  0.64927759  0.40481944  0.64222630  1
  S2-  S156  1  0.73797066  0.53923807  0.14471796  1
  S2-  S157  1  0.70886335  0.67681701  0.64582799  1
  S2-  S158  1  0.65008423  0.88594868  0.14227603  1
  S2-  S159  1  0.81325735  0.90697939  0.67070693  1
  S2-  S160  1  0.14395895  0.08169030  0.35256791  1
  S2-  S161  1  0.11500187  0.00065645  0.85484877  1
  S2-  S162  1  0.07451521  0.27031827  0.32139480  1
  S2-  S163  1  0.12470495  0.32147274  0.86092224  1
  S2-  S164  1  0.13089148  0.46545647  0.29589759  1
  S2-  S165  1  0.08343444  0.52092140  0.82059613  1
  S2-  S166  1  0.16337432  0.66783778  0.35137496  1
  S2-  S167  1  0.03623427  0.74511069  0.84517399  1
  S2-  S168  1  0.36775553  -0.00364245  0.34142807  1
  S2-  S169  1  0.48152881  0.01445091  0.86256608  1
  S2-  S170  1  0.29963419  0.24266548  0.35768614  1
  S2-  S171  1  0.36383045  0.24256581  0.85286491  1
  S2-  S172  1  0.30749972  0.50204324  0.35483364  1
  S2-  S173  1  0.28411062  0.48069272  0.86239108  1
  S2-  S174  1  0.38397886  0.75968374  0.33132709  1
  S2-  S175  1  0.25681709  0.75191850  0.86272033  1
  S2-  S176  1  0.59866900  0.12437868  0.35675576  1
  S2-  S177  1  0.69793006  -0.00242487  0.83438937  1
  S2-  S178  1  0.63033459  0.34685010  0.35219361  1
  S2-  S179  1  0.62329409  0.22144901  0.84106381  1
  S2-  S180  1  0.77177751  0.50077399  0.35027581  1
  S2-  S181  1  0.67043673  0.47347769  0.84240772  1
  S2-  S182  1  0.62632627  0.86046244  0.34983948  1
  S2-  S183  1  0.69680403  0.77226394  0.84640961  1
  S2-  S184  1  0.80161044  0.00529835  0.35214996  1
  S2-  S185  1  0.88319403  -0.08320978  0.84265331  1
  S2-  S186  1  0.85714309  0.27522771  0.33982240  1
  S2-  S187  1  0.89531374  0.36064700  0.86193384  1
  S2-  S188  1  0.98084764  0.53582604  0.35067952  1
  S2-  S189  1  0.87283609  0.58251895  0.84372993  1
  S2-  S190  1  0.82699939  0.74149112  0.35397841  1
  S2-  S191  1  0.86335821  0.75072714  0.77307179  1
  S2-  S192  1  0.01142563  0.12006894  0.44827573  1
  S2-  S193  1  0.00626632  0.12066726  0.96011046  1
  S2-  S194  1  0.01850084  0.37281867  0.44095075  1
  S2-  S195  1  0.01172728  0.36738955  0.96734626  1
  S2-  S196  1  0.01458734  0.62477106  0.45995521  1
  S2-  S197  1  0.01152185  0.61015109  0.95393318  1
  S2-  S198  1  0.01601111  0.87479250  0.46131096  1
  S2-  S199  1  0.00684787  0.87063022  0.95638720  1
  S2-  S200  1  0.26839823  0.11480404  0.46089762  1
  S2-  S201  1  0.25973849  0.11690814  0.96209653  1
  S2-  S202  1  0.25913689  0.37397765  0.45566459  1
  S2-  S203  1  0.25877424  0.36666418  0.96841013  1
  S2-  S204  1  0.26634298  0.62173265  0.46089210  1
  S2-  S205  1  0.25472513  0.61628389  0.96116038  1
  S2-  S206  1  0.26877642  0.87091880  0.45291613  1
  S2-  S207  1  0.26053894  0.87367759  0.96439083  1
  S2-  S208  1  0.50523406  0.12139460  0.46248206  1
  S2-  S209  1  0.51057461  0.12616737  0.96355679  1
  S2-  S210  1  0.51106323  0.37056201  0.45697262  1
  S2-  S211  1  0.50783842  0.37357259  0.94929690  1
  S2-  S212  1  0.51888676  0.62162252  0.43903967  1
  S2-  S213  1  0.50921058  0.62049857  0.96112422  1
  S2-  S214  1  0.51081319  0.86743144  0.44830330  1
  S2-  S215  1  0.50560492  0.86373971  0.95505595  1
  S2-  S216  1  0.76569714  0.12424245  0.45128554  1
  S2-  S217  1  0.75940446  0.12287187  0.94883411  1
  S2-  S218  1  0.76648616  0.36792105  0.45583501  1
  S2-  S219  1  0.75255729  0.37385055  0.95657958  1
  S2-  S220  1  0.76423483  0.62477416  0.45356612  1
  S2-  S221  1  0.75676480  0.62158435  0.94860418  1
  S2-  S222  1  0.76556198  0.86842641  0.45820801  1
  S2-  S223  1  0.75928259  0.86741544  0.95542789  1
  S2-  S224  1  0.13339697  -0.00706646  0.06141030  1
  S2-  S225  1  0.14671548  -0.00415997  0.54565776  1
  S2-  S226  1  0.13679042  0.23420013  0.05546837  1
  S2-  S227  1  0.13655497  0.24007814  0.53441761  1
  S2-  S228  1  0.13066337  0.48963438  0.04621573  1
  S2-  S229  1  0.13750965  0.49756918  0.54481775  1
  S2-  S230  1  0.13183352  0.74950340  0.04242747  1
  S2-  S231  1  0.13805048  0.75237355  0.54821923  1
  S2-  S232  1  0.38829223  -0.00204418  0.04868186  1
  S2-  S233  1  0.39218985  -0.01191108  0.54476704  1
  S2-  S234  1  0.38427897  0.24802562  0.06125718  1
  S2-  S235  1  0.38804939  0.24921327  0.54767568  1
  S2-  S236  1  0.38697468  0.49402641  0.04994833  1
  S2-  S237  1  0.39432479  0.49507216  0.54692556  1
  S2-  S238  1  0.38582386  0.74163624  0.04548842  1
  S2-  S239  1  0.39481975  0.74592932  0.53805986  1
  S2-  S240  1  0.63641484  -0.00803627  0.03785175  1
  S2-  S241  1  0.63755693  -0.00524906  0.53228891  1
  S2-  S242  1  0.63950690  0.25184228  0.04364004  1
  S2-  S243  1  0.64271178  0.24961586  0.54015696  1
  S2-  S244  1  0.63116898  0.49746154  0.04309064  1
  S2-  S245  1  0.64220164  0.49957593  0.53443794  1
  S2-  S246  1  0.63838121  0.74120509  0.04591927  1
  S2-  S247  1  0.63721680  0.74667869  0.53288630  1
  S2-  S248  1  0.88236650  -0.00791138  0.04430524  1
  S2-  S249  1  0.88148433  -0.00281643  0.54380212  1
  S2-  S250  1  0.87641207  0.24662237  0.05140009  1
  S2-  S251  1  0.89106026  0.24438615  0.54650916  1
  S2-  S252  1  0.87646498  0.48914613  0.04112623  1
  S2-  S253  1  0.89078719  0.49436100  0.54110539  1
  S2-  S254  1  0.88253914  0.74175140  0.05632027  1
  S2-  S255  1  0.88533778  0.75276876  0.55199892  1
