# generated using pymatgen
data_La9Ce10Pr6Nd4Sm3(BiS2)32
_symmetry_space_group_name_H-M   'P 1'
_cell_length_a   16.15760498
_cell_length_b   16.17320902
_cell_length_c   27.21064326
_cell_angle_alpha   89.98800476
_cell_angle_beta   90.10165110
_cell_angle_gamma   89.93956544
_symmetry_Int_Tables_number   1
_chemical_formula_structural   La9Ce10Pr6Nd4Sm3(BiS2)32
_chemical_formula_sum   'La18 Ce20 Pr12 Nd8 Sm6 Bi64 S128'
_cell_volume   7110.67876971
_cell_formula_units_Z   2
loop_
 _symmetry_equiv_pos_site_id
 _symmetry_equiv_pos_as_xyz
  1  'x, y, z'
loop_
 _atom_type_symbol
 _atom_type_oxidation_number
  La3+  3.0
  Ce3+  3.0
  Pr3+  3.0
  Nd3+  3.0
  Sm3+  3.0
  Bi2+  2.0
  S2-  -2.0
loop_
 _atom_site_type_symbol
 _atom_site_label
 _atom_site_symmetry_multiplicity
 _atom_site_fract_x
 _atom_site_fract_y
 _atom_site_fract_z
 _atom_site_occupancy
  La3+  La0  1  0.38537849  0.48660328  0.43393653  1
  La3+  La1  1  0.49751958  0.61584207  0.59627272  1
  La3+  La2  1  0.61785653  0.25248014  0.93669034  1
  La3+  La3  1  0.50796179  0.86725481  0.58025803  1
  La3+  La4  1  0.25014169  0.61299495  0.56476863  1
  La3+  La5  1  0.60228883  0.74648582  0.92735845  1
  La3+  La6  1  0.36511048  -0.00240197  0.93525784  1
  La3+  La7  1  0.73193700  0.13261144  0.09656197  1
  La3+  La8  1  0.00544495  0.10797399  0.56375098  1
  La3+  La9  1  0.13379742  0.49728583  0.41844976  1
  La3+  La10  1  0.12644219  0.24172391  0.42763679  1
  La3+  La11  1  0.47771399  0.61905902  0.07191322  1
  La3+  La12  1  0.62944041  -0.01251907  0.43585392  1
  La3+  La13  1  0.12790917  -0.00576807  0.42379982  1
  La3+  La14  1  0.51153279  0.36436357  0.58143538  1
  La3+  La15  1  -0.01019598  0.87963486  0.07054882  1
  La3+  La16  1  0.87594583  0.23521460  0.39223227  1
  La3+  La17  1  0.25140594  0.88875817  0.08731199  1
  Ce3+  Ce18  1  0.36483136  0.25263621  0.93990668  1
  Ce3+  Ce19  1  0.86264354  0.00104967  0.94922276  1
  Ce3+  Ce20  1  0.13863985  0.74341807  0.41992934  1
  Ce3+  Ce21  1  0.38315744  0.24366319  0.44756405  1
  Ce3+  Ce22  1  -0.00572834  0.62788603  0.06434109  1
  Ce3+  Ce23  1  0.75531877  0.36323542  0.55572559  1
  Ce3+  Ce24  1  0.87963370  -0.01621185  0.43317298  1
  Ce3+  Ce25  1  0.50716986  0.11696390  0.56755541  1
  Ce3+  Ce26  1  0.61495408  -0.00262732  0.94149314  1
  Ce3+  Ce27  1  0.49477374  0.12547315  0.05588888  1
  Ce3+  Ce28  1  0.62395542  0.49220902  0.44735827  1
  Ce3+  Ce29  1  0.11987046  0.75253782  0.94355669  1
  Ce3+  Ce30  1  0.86340871  0.24927820  0.95267156  1
  Ce3+  Ce31  1  -0.00854783  0.12202483  0.07496482  1
  Ce3+  Ce32  1  0.24279608  0.12517240  0.05533960  1
  Ce3+  Ce33  1  0.25133428  0.36694449  0.55609020  1
  Ce3+  Ce34  1  0.10822352  0.24737322  0.94230462  1
  Ce3+  Ce35  1  0.62325453  0.73372107  0.44625745  1
  Ce3+  Ce36  1  0.87920645  0.74017278  0.43297337  1
  Ce3+  Ce37  1  0.86455739  0.75114917  0.94307169  1
  Pr3+  Pr38  1  0.25289854  0.11185554  0.55828169  1
  Pr3+  Pr39  1  0.63073408  0.24280602  0.43318186  1
  Pr3+  Pr40  1  -0.00541923  0.36810888  0.07724382  1
  Pr3+  Pr41  1  0.10998979  0.49833847  0.93723014  1
  Pr3+  Pr42  1  0.73935418  0.62496813  0.06558860  1
  Pr3+  Pr43  1  0.35919361  0.49579644  0.92365089  1
  Pr3+  Pr44  1  0.75550612  0.61466578  0.57025372  1
  Pr3+  Pr45  1  0.11073832  0.00080662  0.94117899  1
  Pr3+  Pr46  1  0.86510389  0.50160750  0.94627084  1
  Pr3+  Pr47  1  0.38335328  -0.00940559  0.44224973  1
  Pr3+  Pr48  1  0.73772692  0.87343985  0.06236763  1
  Pr3+  Pr49  1  0.75599760  0.86053680  0.56178918  1
  Nd3+  Nd50  1  0.75745893  0.11395996  0.55473866  1
  Nd3+  Nd51  1  0.23291973  0.62424076  0.06646577  1
  Nd3+  Nd52  1  0.00214022  0.36277685  0.54913172  1
  Nd3+  Nd53  1  0.00700157  0.86024950  0.55733844  1
  Nd3+  Nd54  1  0.38592175  0.73854626  0.43865060  1
  Nd3+  Nd55  1  0.73994669  0.38338307  0.07094919  1
  Nd3+  Nd56  1  0.48933166  0.37658332  0.06005062  1
  Nd3+  Nd57  1  0.87484069  0.49218300  0.43340444  1
  Sm3+  Sm58  1  0.50155321  0.86766195  0.07335022  1
  Sm3+  Sm59  1  0.25422410  0.86223653  0.55222077  1
  Sm3+  Sm60  1  0.00706238  0.61208956  0.55568165  1
  Sm3+  Sm61  1  0.35585818  0.74918988  0.94380751  1
  Sm3+  Sm62  1  0.23979082  0.37469917  0.05242648  1
  Sm3+  Sm63  1  0.61167618  0.50241443  0.94107428  1
  Bi2+  Bi64  1  0.01609404  0.08940730  0.28109096  1
  Bi2+  Bi65  1  -0.01460008  0.12098995  0.82612935  1
  Bi2+  Bi66  1  0.00867099  0.41760926  0.29095365  1
  Bi2+  Bi67  1  0.02760158  0.43373411  0.80560694  1
  Bi2+  Bi68  1  -0.04568943  0.63614328  0.28526691  1
  Bi2+  Bi69  1  0.02486362  0.67805709  0.79533691  1
  Bi2+  Bi70  1  -0.01017741  0.88338343  0.27821352  1
  Bi2+  Bi71  1  -0.02388465  0.87284496  0.79197769  1
  Bi2+  Bi72  1  0.27121406  0.14471945  0.27840696  1
  Bi2+  Bi73  1  0.26906908  0.09556718  0.80476871  1
  Bi2+  Bi74  1  0.27942653  0.38216910  0.28663003  1
  Bi2+  Bi75  1  0.22058270  0.35676863  0.74920423  1
  Bi2+  Bi76  1  0.22496289  0.62072763  0.28143232  1
  Bi2+  Bi77  1  0.21749625  0.63376495  0.78757305  1
  Bi2+  Bi78  1  0.25783738  0.86077906  0.28970782  1
  Bi2+  Bi79  1  0.18907446  0.82879624  0.77297517  1
  Bi2+  Bi80  1  0.48366794  0.16408286  0.29052522  1
  Bi2+  Bi81  1  0.52957922  0.11578979  0.78059628  1
  Bi2+  Bi82  1  0.54254683  0.35496725  0.32196900  1
  Bi2+  Bi83  1  0.51603167  0.40264584  0.80258550  1
  Bi2+  Bi84  1  0.58848792  0.63317904  0.29824096  1
  Bi2+  Bi85  1  0.52824698  0.63703523  0.79444704  1
  Bi2+  Bi86  1  0.52207456  0.88147537  0.29547817  1
  Bi2+  Bi87  1  0.51532096  0.88043495  0.80970692  1
  Bi2+  Bi88  1  0.75326684  0.09430294  0.27505700  1
  Bi2+  Bi89  1  0.80302785  0.16610446  0.75794759  1
  Bi2+  Bi90  1  0.72529238  0.37684263  0.28794060  1
  Bi2+  Bi91  1  0.77530585  0.36700284  0.79791925  1
  Bi2+  Bi92  1  0.77605249  0.62554558  0.33606179  1
  Bi2+  Bi93  1  0.83371398  0.62300311  0.77420956  1
  Bi2+  Bi94  1  0.77716861  0.80657969  0.27972744  1
  Bi2+  Bi95  1  0.81664836  0.89160351  0.72894301  1
  Bi2+  Bi96  1  0.14158052  -0.00740689  0.21224738  1
  Bi2+  Bi97  1  0.17188204  -0.00579661  0.69778432  1
  Bi2+  Bi98  1  0.17647345  0.25386514  0.20449627  1
  Bi2+  Bi99  1  0.10280993  0.20208995  0.74598818  1
  Bi2+  Bi100  1  0.10516973  0.48170854  0.20590307  1
  Bi2+  Bi101  1  0.09666434  0.49606915  0.70396831  1
  Bi2+  Bi102  1  0.04787039  0.74618646  0.20251673  1
  Bi2+  Bi103  1  0.06054368  0.76339805  0.69042529  1
  Bi2+  Bi104  1  0.40267083  0.00639134  0.23655959  1
  Bi2+  Bi105  1  0.38159794  0.02384708  0.71965286  1
  Bi2+  Bi106  1  0.38411788  0.26745689  0.20726521  1
  Bi2+  Bi107  1  0.37907545  0.23739427  0.75913549  1
  Bi2+  Bi108  1  0.38486261  0.51424619  0.22559516  1
  Bi2+  Bi109  1  0.36009836  0.49571512  0.71472410  1
  Bi2+  Bi110  1  0.37048626  0.76115066  0.20245928  1
  Bi2+  Bi111  1  0.35038428  0.76017886  0.71868026  1
  Bi2+  Bi112  1  0.61555774  0.00015743  0.21976967  1
  Bi2+  Bi113  1  0.64000720  0.00087929  0.70966153  1
  Bi2+  Bi114  1  0.58480174  0.26426310  0.20744444  1
  Bi2+  Bi115  1  0.62960610  0.24334029  0.70796546  1
  Bi2+  Bi116  1  0.58523244  0.48308265  0.22298457  1
  Bi2+  Bi117  1  0.71795640  0.49512061  0.71661489  1
  Bi2+  Bi118  1  0.65209725  0.73958614  0.20467668  1
  Bi2+  Bi119  1  0.63729811  0.74689832  0.71801688  1
  Bi2+  Bi120  1  0.87005368  -0.11497068  0.18572196  1
  Bi2+  Bi121  1  0.91198972  0.04875598  0.69238636  1
  Bi2+  Bi122  1  0.88510897  0.26848040  0.20467302  1
  Bi2+  Bi123  1  0.92375830  0.31528940  0.72898910  1
  Bi2+  Bi124  1  0.81440557  0.52600571  0.22679886  1
  Bi2+  Bi125  1  0.89095341  0.55228284  0.67391078  1
  Bi2+  Bi126  1  0.86197233  0.69319340  0.16994019  1
  Bi2+  Bi127  1  0.87513490  0.75031473  0.65584694  1
  S2-  S128  1  0.02068280  0.23144727  0.15075574  1
  S2-  S129  1  0.01458917  0.17686054  0.66016360  1
  S2-  S130  1  -0.05550476  0.42533921  0.17021274  1
  S2-  S131  1  -0.00926409  0.39805284  0.64841605  1
  S2-  S132  1  0.10484051  0.61287546  0.14078826  1
  S2-  S133  1  0.11488400  0.62329673  0.63579497  1
  S2-  S134  1  0.00582614  0.99580580  0.14736675  1
  S2-  S135  1  0.03066490  0.97165830  0.63521216  1
  S2-  S136  1  0.24039560  0.05436443  0.14370251  1
  S2-  S137  1  0.26064872  0.11476904  0.65975843  1
  S2-  S138  1  0.22235856  0.39036947  0.15010852  1
  S2-  S139  1  0.24266688  0.40497543  0.65176461  1
  S2-  S140  1  0.32910878  0.61724145  0.15019905  1
  S2-  S141  1  0.33853657  0.62418279  0.65548512  1
  S2-  S142  1  0.20518512  0.82113539  0.17969044  1
  S2-  S143  1  0.26691677  0.86910924  0.65170147  1
  S2-  S144  1  0.57244934  0.11987944  0.14503302  1
  S2-  S145  1  0.49817811  0.00668017  0.64772308  1
  S2-  S146  1  0.48157872  0.47700080  0.14087107  1
  S2-  S147  1  0.50499792  0.22628332  0.64657015  1
  S2-  S148  1  0.50975845  0.72550304  0.15054826  1
  S2-  S149  1  0.48903100  0.47315501  0.66188110  1
  S2-  S150  1  0.39821801  0.90145504  0.15084285  1
  S2-  S151  1  0.48680924  0.76168428  0.66419774  1
  S2-  S152  1  0.82263375  0.11074515  0.18595118  1
  S2-  S153  1  0.73940125  0.11902921  0.65576706  1
  S2-  S154  1  0.73369651  0.28684633  0.15493178  1
  S2-  S155  1  0.68947403  0.36266714  0.64750286  1
  S2-  S156  1  0.71982945  0.51066675  0.14380552  1
  S2-  S157  1  0.65047134  0.62238279  0.65502339  1
  S2-  S158  1  0.63533070  0.88609950  0.14542112  1
  S2-  S159  1  0.66124906  0.87356171  0.64759143  1
  S2-  S160  1  0.13926558  0.11964997  0.34913124  1
  S2-  S161  1  0.12535740  0.01985264  0.84088006  1
  S2-  S162  1  0.13018178  0.36339712  0.34915964  1
  S2-  S163  1  0.08199914  0.27351628  0.84672756  1
  S2-  S164  1  0.09624755  0.62831881  0.34650279  1
  S2-  S165  1  0.18541109  0.50146461  0.84629339  1
  S2-  S166  1  0.12822917  0.87462803  0.34794005  1
  S2-  S167  1  0.23135963  0.75253264  0.86671468  1
  S2-  S168  1  0.38627771  -0.04168507  0.34233534  1
  S2-  S169  1  0.36825810  -0.04287349  0.83720081  1
  S2-  S170  1  0.38530182  0.32877633  0.36279811  1
  S2-  S171  1  0.38157990  0.32630708  0.85245949  1
  S2-  S172  1  0.28017510  0.51801698  0.35108467  1
  S2-  S173  1  0.40551056  0.53504297  0.82660853  1
  S2-  S174  1  0.29070627  0.73476289  0.34972841  1
  S2-  S175  1  0.45418002  0.75049037  0.86212051  1
  S2-  S176  1  0.64696628  -0.01476171  0.33496658  1
  S2-  S177  1  0.62096891  0.00500419  0.84220394  1
  S2-  S178  1  0.71854376  0.22505550  0.34332230  1
  S2-  S179  1  0.62285378  0.29984932  0.83936433  1
  S2-  S180  1  0.52312173  0.51194426  0.36566078  1
  S2-  S181  1  0.62100351  0.52720579  0.84225563  1
  S2-  S182  1  0.51842708  0.75218483  0.36552273  1
  S2-  S183  1  0.64486952  0.76550834  0.82652440  1
  S2-  S184  1  0.87980191  0.07259554  0.34668824  1
  S2-  S185  1  0.88752588  -0.00684057  0.85171157  1
  S2-  S186  1  0.96500884  0.24515938  0.29763173  1
  S2-  S187  1  0.85031999  0.23713413  0.85461223  1
  S2-  S188  1  0.86615681  0.40246482  0.34727662  1
  S2-  S189  1  0.87592418  0.49185283  0.84563382  1
  S2-  S190  1  0.87705607  0.85790095  0.35916536  1
  S2-  S191  1  0.87938686  0.75008383  0.84513249  1
  S2-  S192  1  -0.00152711  0.11929686  0.45155754  1
  S2-  S193  1  -0.01300312  0.12429890  0.96467256  1
  S2-  S194  1  -0.00702817  0.36138069  0.44552460  1
  S2-  S195  1  -0.01275447  0.37361475  0.96139708  1
  S2-  S196  1  -0.00087762  0.61457049  0.45146515  1
  S2-  S197  1  -0.00772551  0.62787813  0.95480317  1
  S2-  S198  1  0.00795450  0.86163259  0.45312509  1
  S2-  S199  1  -0.01029192  0.87459568  0.95869417  1
  S2-  S200  1  0.25967668  0.11810989  0.45067289  1
  S2-  S201  1  0.23950380  0.12737725  0.94881046  1
  S2-  S202  1  0.25316664  0.36516809  0.45409044  1
  S2-  S203  1  0.23517423  0.37119233  0.94873243  1
  S2-  S204  1  0.25677297  0.61883567  0.45710293  1
  S2-  S205  1  0.23827969  0.61903540  0.95934162  1
  S2-  S206  1  0.26008061  0.86810385  0.44981413  1
  S2-  S207  1  0.23948066  0.88095045  0.96127485  1
  S2-  S208  1  0.50688312  0.11731632  0.45197377  1
  S2-  S209  1  0.49000630  0.12769799  0.94715515  1
  S2-  S210  1  0.50949446  0.36180447  0.46765621  1
  S2-  S211  1  0.49046429  0.37889415  0.95477488  1
  S2-  S212  1  0.50218715  0.61487157  0.46974353  1
  S2-  S213  1  0.48233760  0.61770927  0.95703683  1
  S2-  S214  1  0.50574391  0.86785271  0.46570118  1
  S2-  S215  1  0.48964220  0.87554519  0.96201184  1
  S2-  S216  1  0.75589924  0.11457261  0.44990428  1
  S2-  S217  1  0.73801929  0.12442168  0.95168948  1
  S2-  S218  1  0.75115510  0.36726543  0.45130634  1
  S2-  S219  1  0.73910987  0.38046312  0.95880044  1
  S2-  S220  1  0.75178009  0.61504297  0.46078905  1
  S2-  S221  1  0.73767681  0.62535079  0.95309903  1
  S2-  S222  1  0.74850618  0.85833586  0.45511298  1
  S2-  S223  1  0.73822408  0.87255417  0.95291387  1
  S2-  S224  1  0.11909407  0.00112620  0.04609011  1
  S2-  S225  1  0.13412610  -0.01326451  0.53312625  1
  S2-  S226  1  0.11950823  0.24821727  0.04647784  1
  S2-  S227  1  0.12805524  0.23897298  0.54217328  1
  S2-  S228  1  0.11323173  0.49268100  0.04371417  1
  S2-  S229  1  0.12380065  0.48704277  0.53372091  1
  S2-  S230  1  0.11846896  0.75932914  0.04946654  1
  S2-  S231  1  0.12961410  0.74265051  0.53534005  1
  S2-  S232  1  0.37324618  0.00499021  0.04349019  1
  S2-  S233  1  0.37722783  -0.01071085  0.54768884  1
  S2-  S234  1  0.36666170  0.25174319  0.04796205  1
  S2-  S235  1  0.37444659  0.23988281  0.55145747  1
  S2-  S236  1  0.35755453  0.49435635  0.03721736  1
  S2-  S237  1  0.37744771  0.48555381  0.54738917  1
  S2-  S238  1  0.36154846  0.75539669  0.04825201  1
  S2-  S239  1  0.37780905  0.74318821  0.54746987  1
  S2-  S240  1  0.61793798  0.00354043  0.04488802  1
  S2-  S241  1  0.63273728  -0.00718021  0.54373910  1
  S2-  S242  1  0.61589513  0.25549995  0.04543250  1
  S2-  S243  1  0.63432964  0.23629175  0.54125044  1
  S2-  S244  1  0.61268344  0.50180269  0.04279396  1
  S2-  S245  1  0.63246878  0.49066762  0.55095746  1
  S2-  S246  1  0.61632456  0.74463312  0.04058377  1
  S2-  S247  1  0.62859000  0.73669174  0.55016846  1
  S2-  S248  1  0.85485464  0.00581779  0.05478198  1
  S2-  S249  1  0.87708352  -0.01620226  0.54170181  1
  S2-  S250  1  0.86187261  0.24951732  0.05653308  1
  S2-  S251  1  0.87873302  0.23899275  0.55451208  1
  S2-  S252  1  0.87155811  0.50235246  0.05183469  1
  S2-  S253  1  0.87960749  0.49129332  0.54093177  1
  S2-  S254  1  0.86593333  0.75101433  0.04765591  1
  S2-  S255  1  0.88273605  0.73607356  0.53887534  1
