# generated using pymatgen
data_La9Ce10Pr6Nd4Sm3(BiS2)32
_symmetry_space_group_name_H-M   'P 1'
_cell_length_a   16.24336871
_cell_length_b   16.22994652
_cell_length_c   27.07756575
_cell_angle_alpha   90.08005572
_cell_angle_beta   90.06220136
_cell_angle_gamma   90.02606719
_symmetry_Int_Tables_number   1
_chemical_formula_structural   La9Ce10Pr6Nd4Sm3(BiS2)32
_chemical_formula_sum   'La18 Ce20 Pr12 Nd8 Sm6 Bi64 S128'
_cell_volume   7138.41981339
_cell_formula_units_Z   2
loop_
 _symmetry_equiv_pos_site_id
 _symmetry_equiv_pos_as_xyz
  1  'x, y, z'
loop_
 _atom_type_symbol
 _atom_type_oxidation_number
  La3+  3.0
  Ce3+  3.0
  Pr3+  3.0
  Nd3+  3.0
  Sm3+  3.0
  Bi2+  2.0
  S2-  -2.0
loop_
 _atom_site_type_symbol
 _atom_site_label
 _atom_site_symmetry_multiplicity
 _atom_site_fract_x
 _atom_site_fract_y
 _atom_site_fract_z
 _atom_site_occupancy
  La3+  La0  1  0.76698160  0.85881258  0.06923920  1
  La3+  La1  1  0.86757192  0.25684297  0.41023247  1
  La3+  La2  1  0.11805685  0.73994279  0.42363451  1
  La3+  La3  1  0.25539725  0.36471221  0.59428676  1
  La3+  La4  1  0.12562476  -0.00798389  0.41855073  1
  La3+  La5  1  0.14596485  -0.00625922  0.93897134  1
  La3+  La6  1  0.01936512  0.61889526  0.05658082  1
  La3+  La7  1  0.89405879  0.74881630  0.92132258  1
  La3+  La8  1  0.52077150  0.61210684  0.06080033  1
  La3+  La9  1  0.23951322  0.62945604  0.57897544  1
  La3+  La10  1  0.01856984  0.36727922  0.06431439  1
  La3+  La11  1  0.02442129  0.11743106  0.07898681  1
  La3+  La12  1  -0.00871372  0.36223068  0.57448304  1
  La3+  La13  1  0.64243952  -0.01266187  0.93531270  1
  La3+  La14  1  0.61942963  0.24403654  0.43312111  1
  La3+  La15  1  0.62435982  0.74554034  0.43269005  1
  La3+  La16  1  0.39881683  0.23753696  0.91851634  1
  La3+  La17  1  0.13092178  0.25949756  0.42302314  1
  Ce3+  Ce18  1  0.14251544  0.24003253  0.93685496  1
  Ce3+  Ce19  1  0.51757430  0.11572386  0.05719608  1
  Ce3+  Ce20  1  0.64352141  0.49052075  0.93605657  1
  Ce3+  Ce21  1  0.62215736  0.49401283  0.44284942  1
  Ce3+  Ce22  1  0.26842787  0.61686171  0.06190065  1
  Ce3+  Ce23  1  0.01940693  0.86588316  0.05664046  1
  Ce3+  Ce24  1  0.36861483  0.49596766  0.45135370  1
  Ce3+  Ce25  1  0.26821504  0.11884179  0.06154656  1
  Ce3+  Ce26  1  0.37163526  -0.00667576  0.44787280  1
  Ce3+  Ce27  1  0.74834534  0.62227762  0.55368684  1
  Ce3+  Ce28  1  0.74757741  0.36725495  0.56273252  1
  Ce3+  Ce29  1  0.87567458  0.49099237  0.44894493  1
  Ce3+  Ce30  1  0.49860326  0.62097326  0.56130839  1
  Ce3+  Ce31  1  0.74929787  0.86622991  0.55915273  1
  Ce3+  Ce32  1  0.24299984  0.87037586  0.55661832  1
  Ce3+  Ce33  1  0.38753763  0.74266281  0.93889841  1
  Ce3+  Ce34  1  0.49982822  0.11875057  0.56381917  1
  Ce3+  Ce35  1  0.87157878  0.74464827  0.43453271  1
  Ce3+  Ce36  1  0.87177274  -0.00335790  0.43237410  1
  Ce3+  Ce37  1  -0.00231561  0.62358016  0.56123938  1
  Pr3+  Pr38  1  0.39843352  0.49368643  0.93147169  1
  Pr3+  Pr39  1  0.14415246  0.48775918  0.93269235  1
  Pr3+  Pr40  1  0.24335919  0.11985435  0.56269629  1
  Pr3+  Pr41  1  -0.00203532  0.12407441  0.54102508  1
  Pr3+  Pr42  1  0.49766718  0.37072666  0.56097156  1
  Pr3+  Pr43  1  -0.00198143  0.87361762  0.55347498  1
  Pr3+  Pr44  1  0.49710572  0.86870325  0.56080983  1
  Pr3+  Pr45  1  0.51893518  0.86129231  0.06347913  1
  Pr3+  Pr46  1  0.76298432  0.10962270  0.07732832  1
  Pr3+  Pr47  1  0.26466390  0.86110821  0.07796816  1
  Pr3+  Pr48  1  0.64539456  0.23438798  0.93129947  1
  Pr3+  Pr49  1  0.64855889  0.74176750  0.92347622  1
  Nd3+  Nd50  1  0.37192062  0.74020719  0.43534077  1
  Nd3+  Nd51  1  0.12615710  0.49333455  0.45476609  1
  Nd3+  Nd52  1  0.75014241  0.12053623  0.55372435  1
  Nd3+  Nd53  1  0.14465840  0.74125083  0.92860568  1
  Nd3+  Nd54  1  0.89364397  -0.00506154  0.94566062  1
  Nd3+  Nd55  1  0.37289945  0.24306098  0.44052976  1
  Nd3+  Nd56  1  0.27125481  0.36696456  0.05086962  1
  Nd3+  Nd57  1  0.89181390  0.48988256  0.94428707  1
  Sm3+  Sm58  1  0.51968390  0.36310708  0.05513885  1
  Sm3+  Sm59  1  0.39294399  -0.01085579  0.95039711  1
  Sm3+  Sm60  1  0.62092541  -0.00608097  0.44160417  1
  Sm3+  Sm61  1  0.76601331  0.36389144  0.05501119  1
  Sm3+  Sm62  1  0.89330694  0.23788447  0.95085049  1
  Sm3+  Sm63  1  0.76667751  0.61846133  0.05662673  1
  Bi2+  Bi64  1  0.00169611  0.10323397  0.28259836  1
  Bi2+  Bi65  1  -0.03998121  0.09514415  0.79084124  1
  Bi2+  Bi66  1  -0.00251504  0.36476927  0.29614656  1
  Bi2+  Bi67  1  -0.00902963  0.40909825  0.78583643  1
  Bi2+  Bi68  1  -0.05888630  0.58062319  0.30278501  1
  Bi2+  Bi69  1  -0.09087386  0.65815271  0.78817121  1
  Bi2+  Bi70  1  0.00415345  0.84122463  0.27981804  1
  Bi2+  Bi71  1  -0.01873293  0.88904418  0.79224724  1
  Bi2+  Bi72  1  0.25906173  0.16571891  0.27673712  1
  Bi2+  Bi73  1  0.20699069  0.12537794  0.80781980  1
  Bi2+  Bi74  1  0.26007051  0.42275615  0.30551599  1
  Bi2+  Bi75  1  0.22876799  0.37887618  0.80297056  1
  Bi2+  Bi76  1  0.14011892  0.61320585  0.30999062  1
  Bi2+  Bi77  1  0.30133563  0.64255416  0.78243103  1
  Bi2+  Bi78  1  0.25051205  0.91072109  0.28488204  1
  Bi2+  Bi79  1  0.24269432  0.86723572  0.77938942  1
  Bi2+  Bi80  1  0.50308117  0.19559183  0.31985192  1
  Bi2+  Bi81  1  0.53372924  0.11898603  0.79807106  1
  Bi2+  Bi82  1  0.45015094  0.36930015  0.28501351  1
  Bi2+  Bi83  1  0.55386727  0.38458876  0.77428561  1
  Bi2+  Bi84  1  0.46640361  0.56265560  0.27081519  1
  Bi2+  Bi85  1  0.48733827  0.69271041  0.77268831  1
  Bi2+  Bi86  1  0.49328700  0.88190070  0.31232528  1
  Bi2+  Bi87  1  0.49352049  0.88436796  0.79698790  1
  Bi2+  Bi88  1  0.66831171  0.12660210  0.28179604  1
  Bi2+  Bi89  1  0.76641356  0.20057822  0.78239016  1
  Bi2+  Bi90  1  0.70917603  0.38811075  0.28041845  1
  Bi2+  Bi91  1  0.75187356  0.39400278  0.79138101  1
  Bi2+  Bi92  1  0.72679154  0.59789910  0.29353836  1
  Bi2+  Bi93  1  0.67080397  0.62371283  0.78815876  1
  Bi2+  Bi94  1  0.74592917  0.78535836  0.31943954  1
  Bi2+  Bi95  1  0.72837991  0.97507453  0.79059316  1
  Bi2+  Bi96  1  0.10854892  -0.01044445  0.19109707  1
  Bi2+  Bi97  1  0.16438949  -0.02702328  0.67206401  1
  Bi2+  Bi98  1  0.15088576  0.27162364  0.20730117  1
  Bi2+  Bi99  1  0.10688407  0.14895744  0.70915081  1
  Bi2+  Bi100  1  0.12940848  0.51027365  0.21232449  1
  Bi2+  Bi101  1  0.12594844  0.53263628  0.71474340  1
  Bi2+  Bi102  1  0.12344688  0.73010121  0.20215468  1
  Bi2+  Bi103  1  0.11280281  0.78983258  0.70713996  1
  Bi2+  Bi104  1  0.41134569  0.05136552  0.24889722  1
  Bi2+  Bi105  1  0.32484118  0.02178660  0.72916842  1
  Bi2+  Bi106  1  0.40065331  0.23144889  0.20449841  1
  Bi2+  Bi107  1  0.36809559  0.23124794  0.71592469  1
  Bi2+  Bi108  1  0.32098436  0.51478702  0.19439668  1
  Bi2+  Bi109  1  0.39199941  0.48683562  0.71236281  1
  Bi2+  Bi110  1  0.30660183  0.67524337  0.26272232  1
  Bi2+  Bi111  1  0.38775842  0.83160427  0.70005604  1
  Bi2+  Bi112  1  0.59205708  0.00021782  0.20571123  1
  Bi2+  Bi113  1  0.59499489  0.03127472  0.70842663  1
  Bi2+  Bi114  1  0.59363905  0.29396739  0.20643837  1
  Bi2+  Bi115  1  0.66594345  0.29313406  0.69536578  1
  Bi2+  Bi116  1  0.62153267  0.53904423  0.19777996  1
  Bi2+  Bi117  1  0.64426396  0.48860094  0.68684268  1
  Bi2+  Bi118  1  0.63136804  0.79269101  0.19122352  1
  Bi2+  Bi119  1  0.65320919  0.76558744  0.70721089  1
  Bi2+  Bi120  1  0.82651309  -0.08733201  0.24901975  1
  Bi2+  Bi121  1  0.84251943  0.04702902  0.70204854  1
  Bi2+  Bi122  1  0.87114275  0.24335877  0.19973863  1
  Bi2+  Bi123  1  0.94509282  0.27109253  0.71036779  1
  Bi2+  Bi124  1  0.83546791  0.49605989  0.21426112  1
  Bi2+  Bi125  1  0.83012574  0.52783779  0.71920439  1
  Bi2+  Bi126  1  0.86039776  0.71968168  0.22788275  1
  Bi2+  Bi127  1  0.85217270  0.79456869  0.71243747  1
  S2-  S128  1  -0.03585261  0.09812904  0.17583576  1
  S2-  S129  1  -0.03163026  0.12887930  0.64151908  1
  S2-  S130  1  0.01912977  0.33031833  0.16350963  1
  S2-  S131  1  0.04055100  0.40438754  0.67223391  1
  S2-  S132  1  0.02521303  0.60525347  0.15781769  1
  S2-  S133  1  0.06701940  0.64048377  0.65085716  1
  S2-  S134  1  0.01726119  0.85237068  0.15466316  1
  S2-  S135  1  -0.01501257  0.85964917  0.65514883  1
  S2-  S136  1  0.17245391  0.12897454  0.14394335  1
  S2-  S137  1  0.24317399  0.21381852  0.64912793  1
  S2-  S138  1  0.26030074  0.36335581  0.15064264  1
  S2-  S139  1  0.23955248  0.40194283  0.70246830  1
  S2-  S140  1  0.25752644  0.71937384  0.14108046  1
  S2-  S141  1  0.27947279  0.59047148  0.67815120  1
  S2-  S142  1  0.25371175  0.92852387  0.17647519  1
  S2-  S143  1  0.25001793  0.77942423  0.63900850  1
  S2-  S144  1  0.53619945  0.14645979  0.15240311  1
  S2-  S145  1  0.47454397  0.13626736  0.66111248  1
  S2-  S146  1  0.52634095  0.42251106  0.14831351  1
  S2-  S147  1  0.41590607  0.35439225  0.64974576  1
  S2-  S148  1  0.53317097  0.67201071  0.15607663  1
  S2-  S149  1  0.50511559  0.58646553  0.65799279  1
  S2-  S150  1  0.49444354  0.87604747  0.16457324  1
  S2-  S151  1  0.54412364  0.88099992  0.65831440  1
  S2-  S152  1  0.75038112  0.15371968  0.17665804  1
  S2-  S153  1  0.71300722  0.13089478  0.65239898  1
  S2-  S154  1  0.78295589  0.36938495  0.15309324  1
  S2-  S155  1  0.84676770  0.33255410  0.63808781  1
  S2-  S156  1  0.76591261  0.72051090  0.13681229  1
  S2-  S157  1  0.76366959  0.68675359  0.64450273  1
  S2-  S158  1  0.73840963  0.94322349  0.15742902  1
  S2-  S159  1  0.77135017  0.91336861  0.65251846  1
  S2-  S160  1  0.15676470  0.04186615  0.32031789  1
  S2-  S161  1  0.08894396  0.00206075  0.84322913  1
  S2-  S162  1  0.08192174  0.23088665  0.32300969  1
  S2-  S163  1  0.11707604  0.26341515  0.84023579  1
  S2-  S164  1  0.12031389  0.41930208  0.36371741  1
  S2-  S165  1  0.11272522  0.50258153  0.83134960  1
  S2-  S166  1  0.13630877  0.85437295  0.34510195  1
  S2-  S167  1  0.02619817  0.74509743  0.85160605  1
  S2-  S168  1  0.37109404  -0.00274529  0.34943670  1
  S2-  S169  1  0.42498181  0.01219291  0.85379157  1
  S2-  S170  1  0.27893642  0.26912022  0.35804588  1
  S2-  S171  1  0.33219053  0.24463606  0.82143805  1
  S2-  S172  1  0.35889324  0.54270931  0.35709730  1
  S2-  S173  1  0.33853734  0.50057920  0.83560651  1
  S2-  S174  1  0.35220218  0.78537917  0.33802284  1
  S2-  S175  1  0.27705622  0.75414577  0.86043774  1
  S2-  S176  1  0.62062768  -0.01258173  0.34213458  1
  S2-  S177  1  0.67400990  0.10244974  0.85940411  1
  S2-  S178  1  0.71440420  0.25563268  0.34907402  1
  S2-  S179  1  0.53433003  0.26177564  0.85179183  1
  S2-  S180  1  0.61444586  0.48576460  0.34509384  1
  S2-  S181  1  0.56898368  0.50620705  0.84850698  1
  S2-  S182  1  0.56601697  0.74670189  0.33651839  1
  S2-  S183  1  0.63350939  0.87593463  0.85459030  1
  S2-  S184  1  0.89460056  -0.00606422  0.33456195  1
  S2-  S185  1  0.86112975  -0.07620125  0.85476827  1
  S2-  S186  1  0.89525438  0.22249717  0.30483145  1
  S2-  S187  1  0.89188129  0.21378420  0.85267646  1
  S2-  S188  1  0.88057981  0.41969278  0.35947418  1
  S2-  S189  1  0.88331244  0.48654517  0.84472445  1
  S2-  S190  1  0.97057276  0.73122634  0.35486061  1
  S2-  S191  1  0.77390691  0.71642201  0.84877639  1
  S2-  S192  1  0.00005230  0.12433209  0.43456818  1
  S2-  S193  1  0.01791681  0.11809157  0.96169426  1
  S2-  S194  1  -0.00121310  0.36834655  0.46258066  1
  S2-  S195  1  0.01519709  0.36486075  0.95448803  1
  S2-  S196  1  -0.00189888  0.61403815  0.45615181  1
  S2-  S197  1  0.01822350  0.61028049  0.94886201  1
  S2-  S198  1  -0.00503018  0.87265956  0.44676725  1
  S2-  S199  1  0.02040765  0.87145666  0.95250046  1
  S2-  S200  1  0.24688280  0.11947260  0.45282962  1
  S2-  S201  1  0.27313107  0.11774554  0.95269240  1
  S2-  S202  1  0.25286290  0.37225846  0.46891060  1
  S2-  S203  1  0.27210770  0.36445061  0.94412857  1
  S2-  S204  1  0.24507489  0.62256237  0.46050060  1
  S2-  S205  1  0.26663556  0.61230364  0.95411683  1
  S2-  S206  1  0.25003429  0.86664061  0.45128371  1
  S2-  S207  1  0.26844990  0.87048258  0.96118975  1
  S2-  S208  1  0.49753884  0.11631148  0.45522094  1
  S2-  S209  1  0.51585750  0.11448682  0.95394148  1
  S2-  S210  1  0.49450623  0.37071294  0.45212269  1
  S2-  S211  1  0.51916837  0.36716883  0.95259455  1
  S2-  S212  1  0.49864957  0.61958342  0.45335833  1
  S2-  S213  1  0.51797886  0.62166583  0.94995996  1
  S2-  S214  1  0.49720810  0.86980376  0.45273010  1
  S2-  S215  1  0.51129203  0.86378859  0.95584070  1
  S2-  S216  1  0.74514826  0.11612858  0.44529024  1
  S2-  S217  1  0.77239061  0.11609453  0.96715307  1
  S2-  S218  1  0.74409353  0.37231849  0.45648360  1
  S2-  S219  1  0.76868912  0.36140175  0.94924389  1
  S2-  S220  1  0.75041828  0.61681434  0.44665826  1
  S2-  S221  1  0.76774652  0.61241478  0.95277737  1
  S2-  S222  1  0.74743232  0.87347733  0.45072098  1
  S2-  S223  1  0.76822817  0.86679890  0.96010244  1
  S2-  S224  1  0.14609562  -0.01095358  0.04781554  1
  S2-  S225  1  0.12140758  -0.00315966  0.53320955  1
  S2-  S226  1  0.14470750  0.24504758  0.04318366  1
  S2-  S227  1  0.12275547  0.24697103  0.54588960  1
  S2-  S228  1  0.14525781  0.49048006  0.04418794  1
  S2-  S229  1  0.12543953  0.49184879  0.55991000  1
  S2-  S230  1  0.14251039  0.74267230  0.03700488  1
  S2-  S231  1  0.11770430  0.74828510  0.53692445  1
  S2-  S232  1  0.39029701  -0.01066218  0.05600246  1
  S2-  S233  1  0.37145931  -0.00580759  0.55581976  1
  S2-  S234  1  0.39490598  0.24305678  0.04342240  1
  S2-  S235  1  0.37540357  0.24052258  0.54586945  1
  S2-  S236  1  0.39545639  0.48952681  0.04154007  1
  S2-  S237  1  0.37029796  0.49932854  0.55661622  1
  S2-  S238  1  0.39314571  0.73946523  0.04513863  1
  S2-  S239  1  0.37593369  0.74342129  0.54381024  1
  S2-  S240  1  0.63869883  -0.00975395  0.04680037  1
  S2-  S241  1  0.62447960  -0.00577887  0.54693873  1
  S2-  S242  1  0.64382594  0.24192524  0.04496128  1
  S2-  S243  1  0.62176495  0.24489532  0.54394339  1
  S2-  S244  1  0.64787810  0.48951683  0.04391455  1
  S2-  S245  1  0.62402368  0.49534464  0.54862625  1
  S2-  S246  1  0.64074413  0.73740749  0.03550353  1
  S2-  S247  1  0.62217982  0.74503652  0.54296992  1
  S2-  S248  1  0.89444639  -0.00806999  0.05420251  1
  S2-  S249  1  0.87183170  -0.00342996  0.53986052  1
  S2-  S250  1  0.89019461  0.23951652  0.05586015  1
  S2-  S251  1  0.86777475  0.24092116  0.52863589  1
  S2-  S252  1  0.88872092  0.49170730  0.05097830  1
  S2-  S253  1  0.87213624  0.49851714  0.55520311  1
  S2-  S254  1  0.89597611  0.73928934  0.03749086  1
  S2-  S255  1  0.87519455  0.74641321  0.54093258  1
