# generated using pymatgen
data_La9Ce10Pr6Nd4Sm3(BiS2)32
_symmetry_space_group_name_H-M   'P 1'
_cell_length_a   16.25837707
_cell_length_b   16.24118572
_cell_length_c   27.13967485
_cell_angle_alpha   90.04147540
_cell_angle_beta   90.11040426
_cell_angle_gamma   90.00813032
_symmetry_Int_Tables_number   1
_chemical_formula_structural   La9Ce10Pr6Nd4Sm3(BiS2)32
_chemical_formula_sum   'La18 Ce20 Pr12 Nd8 Sm6 Bi64 S128'
_cell_volume   7166.36031249
_cell_formula_units_Z   2
loop_
 _symmetry_equiv_pos_site_id
 _symmetry_equiv_pos_as_xyz
  1  'x, y, z'
loop_
 _atom_type_symbol
 _atom_type_oxidation_number
  La3+  3.0
  Ce3+  3.0
  Pr3+  3.0
  Nd3+  3.0
  Sm3+  3.0
  Bi2+  2.0
  S2-  -2.0
loop_
 _atom_site_type_symbol
 _atom_site_label
 _atom_site_symmetry_multiplicity
 _atom_site_fract_x
 _atom_site_fract_y
 _atom_site_fract_z
 _atom_site_occupancy
  La3+  La0  1  0.76055362  0.37512348  0.07300479  1
  La3+  La1  1  0.12372140  0.50725809  0.42858645  1
  La3+  La2  1  0.24718625  0.38257559  0.07046512  1
  La3+  La3  1  0.86582418  0.00307589  0.43824620  1
  La3+  La4  1  0.61739488  0.49817323  0.42650887  1
  La3+  La5  1  0.75381522  0.63001674  0.07414426  1
  La3+  La6  1  0.36017134  0.24457082  0.41990408  1
  La3+  La7  1  -0.01067924  0.12465752  0.57272794  1
  La3+  La8  1  0.86681140  0.75452388  0.93631533  1
  La3+  La9  1  0.62559900  0.26185647  0.89909109  1
  La3+  La10  1  0.86568344  0.00165577  0.92781792  1
  La3+  La11  1  0.86735198  0.50112384  0.43305985  1
  La3+  La12  1  0.12385110  0.74741661  0.89220069  1
  La3+  La13  1  0.87261831  0.50464901  0.93756131  1
  La3+  La14  1  0.75988615  0.12757774  0.05969460  1
  La3+  La15  1  0.49894276  0.62124891  0.07748470  1
  La3+  La16  1  0.87791852  0.25292600  0.92592439  1
  La3+  La17  1  0.74437915  0.88387902  0.07935159  1
  Ce3+  Ce18  1  0.50081273  0.87861884  0.06557255  1
  Ce3+  Ce19  1  0.00280743  0.12266297  0.05591170  1
  Ce3+  Ce20  1  0.11900839  0.25063131  0.44330975  1
  Ce3+  Ce21  1  0.50277085  0.36895903  0.07083965  1
  Ce3+  Ce22  1  0.13086550  0.50490220  0.93578881  1
  Ce3+  Ce23  1  0.24822452  0.62976835  0.06044819  1
  Ce3+  Ce24  1  0.00037914  0.37696859  0.05348184  1
  Ce3+  Ce25  1  0.62387909  0.49753441  0.95137882  1
  Ce3+  Ce26  1  0.74207758  0.62273344  0.56129577  1
  Ce3+  Ce27  1  0.50168427  0.13658775  0.05898662  1
  Ce3+  Ce28  1  0.37789888  0.50104978  0.94686583  1
  Ce3+  Ce29  1  0.25103306  0.87624879  0.05213478  1
  Ce3+  Ce30  1  0.86571355  0.75156896  0.43973232  1
  Ce3+  Ce31  1  0.24399614  0.87596320  0.56041809  1
  Ce3+  Ce32  1  0.24543407  0.12579816  0.56229515  1
  Ce3+  Ce33  1  -0.00637345  0.37723335  0.55627550  1
  Ce3+  Ce34  1  0.24375614  0.37234839  0.55869400  1
  Ce3+  Ce35  1  0.11968775  0.75028823  0.44050200  1
  Ce3+  Ce36  1  0.49389740  0.87645114  0.56127611  1
  Ce3+  Ce37  1  0.37624001  0.00435029  0.94626248  1
  Pr3+  Pr38  1  0.73512377  0.13429517  0.58810174  1
  Pr3+  Pr39  1  -0.00765996  0.62552451  0.56040927  1
  Pr3+  Pr40  1  0.12529411  0.25305237  0.92982879  1
  Pr3+  Pr41  1  0.86597715  0.24992809  0.44536719  1
  Pr3+  Pr42  1  0.61701751  0.00423119  0.44907616  1
  Pr3+  Pr43  1  0.24780538  0.12647317  0.06068820  1
  Pr3+  Pr44  1  0.74274710  0.38023140  0.56795751  1
  Pr3+  Pr45  1  0.37863248  0.75186790  0.93871367  1
  Pr3+  Pr46  1  0.48991336  0.13590566  0.57479154  1
  Pr3+  Pr47  1  0.37499642  0.25390352  0.93655505  1
  Pr3+  Pr48  1  0.24295906  0.62191634  0.56900279  1
  Pr3+  Pr49  1  0.00207233  0.63283456  0.05608062  1
  Nd3+  Nd50  1  0.62270723  0.00365770  0.93695992  1
  Nd3+  Nd51  1  0.12521783  0.00151862  0.92987663  1
  Nd3+  Nd52  1  0.61771923  0.75094152  0.43954753  1
  Nd3+  Nd53  1  0.36941021  0.75259864  0.44652511  1
  Nd3+  Nd54  1  0.49088537  0.37887346  0.55917600  1
  Nd3+  Nd55  1  0.61728914  0.24790167  0.44478769  1
  Nd3+  Nd56  1  0.36812844  0.49986457  0.43990111  1
  Nd3+  Nd57  1  -0.00882545  0.87268363  0.56223792  1
  Sm3+  Sm58  1  0.00117794  0.87728789  0.04713297  1
  Sm3+  Sm59  1  0.36820644  0.00206459  0.44271678  1
  Sm3+  Sm60  1  0.62698594  0.75127269  0.94667697  1
  Sm3+  Sm61  1  0.11743381  0.00032895  0.44935356  1
  Sm3+  Sm62  1  0.74280064  0.87468915  0.55710203  1
  Sm3+  Sm63  1  0.49422188  0.62542117  0.55365261  1
  Bi2+  Bi64  1  0.03769466  0.11536912  0.27152357  1
  Bi2+  Bi65  1  0.03145213  0.10647558  0.78243046  1
  Bi2+  Bi66  1  0.01562025  0.39150676  0.25313397  1
  Bi2+  Bi67  1  0.02338822  0.35382542  0.77824409  1
  Bi2+  Bi68  1  -0.00477893  0.66149609  0.28609950  1
  Bi2+  Bi69  1  -0.02869078  0.60784360  0.78391106  1
  Bi2+  Bi70  1  0.08449806  0.83093477  0.26639860  1
  Bi2+  Bi71  1  -0.02863452  0.86018015  0.77989211  1
  Bi2+  Bi72  1  0.23198126  0.10965938  0.29611992  1
  Bi2+  Bi73  1  0.25474222  0.20651381  0.82174392  1
  Bi2+  Bi74  1  0.24232607  0.38155692  0.29900394  1
  Bi2+  Bi75  1  0.20149329  0.38717832  0.82597411  1
  Bi2+  Bi76  1  0.23699963  0.67235539  0.28381292  1
  Bi2+  Bi77  1  0.28072278  0.61733944  0.78774833  1
  Bi2+  Bi78  1  0.24860370  0.91775671  0.29762624  1
  Bi2+  Bi79  1  0.36255375  0.86232331  0.78056355  1
  Bi2+  Bi80  1  0.46073195  0.06306465  0.27115281  1
  Bi2+  Bi81  1  0.42924075  0.13808510  0.79407052  1
  Bi2+  Bi82  1  0.52449861  0.32069182  0.26589181  1
  Bi2+  Bi83  1  0.49184584  0.41867624  0.79251249  1
  Bi2+  Bi84  1  0.42318444  0.59990525  0.28555822  1
  Bi2+  Bi85  1  0.53506915  0.64205823  0.79993278  1
  Bi2+  Bi86  1  0.44563867  0.88153910  0.31207664  1
  Bi2+  Bi87  1  0.53021830  0.82701571  0.83902788  1
  Bi2+  Bi88  1  0.79100592  0.10425827  0.31202096  1
  Bi2+  Bi89  1  0.76339897  0.11020404  0.78972394  1
  Bi2+  Bi90  1  0.75248572  0.36045577  0.30620904  1
  Bi2+  Bi91  1  0.75593929  0.40145453  0.78607317  1
  Bi2+  Bi92  1  0.73657606  0.62520386  0.30864372  1
  Bi2+  Bi93  1  0.73067726  0.62325466  0.79670882  1
  Bi2+  Bi94  1  0.71639842  0.91958436  0.29223816  1
  Bi2+  Bi95  1  0.70141062  0.86522080  0.78414714  1
  Bi2+  Bi96  1  0.13471012  0.06620342  0.17789525  1
  Bi2+  Bi97  1  0.23710954  -0.01069347  0.73782886  1
  Bi2+  Bi98  1  0.12117737  0.25621858  0.19803853  1
  Bi2+  Bi99  1  0.15808245  0.24714786  0.72251764  1
  Bi2+  Bi100  1  0.10821806  0.55266624  0.21428887  1
  Bi2+  Bi101  1  0.12654235  0.51198361  0.74765447  1
  Bi2+  Bi102  1  0.18521086  0.73644814  0.17695325  1
  Bi2+  Bi103  1  0.13498208  0.76709607  0.69305449  1
  Bi2+  Bi104  1  0.37270209  -0.09106241  0.20388710  1
  Bi2+  Bi105  1  0.39053107  0.06417900  0.69178324  1
  Bi2+  Bi106  1  0.38403503  0.22286273  0.21514791  1
  Bi2+  Bi107  1  0.34774471  0.32734904  0.71347575  1
  Bi2+  Bi108  1  0.35318265  0.47785637  0.20926432  1
  Bi2+  Bi109  1  0.35883522  0.51796223  0.70334870  1
  Bi2+  Bi110  1  0.38279697  0.70992611  0.19136670  1
  Bi2+  Bi111  1  0.45751921  0.72127862  0.70438394  1
  Bi2+  Bi112  1  0.61505140  0.02423391  0.21105405  1
  Bi2+  Bi113  1  0.53502352  -0.04497824  0.74657491  1
  Bi2+  Bi114  1  0.67745084  0.20646121  0.24024701  1
  Bi2+  Bi115  1  0.60052333  0.24151831  0.71220167  1
  Bi2+  Bi116  1  0.61815360  0.52170585  0.21236692  1
  Bi2+  Bi117  1  0.62223509  0.50026812  0.72106174  1
  Bi2+  Bi118  1  0.57956244  0.79778479  0.24032017  1
  Bi2+  Bi119  1  0.65782169  0.72175463  0.70391514  1
  Bi2+  Bi120  1  0.87595518  -0.01322418  0.19482977  1
  Bi2+  Bi121  1  0.87975479  -0.04586108  0.70272757  1
  Bi2+  Bi122  1  0.91385286  0.23861506  0.21395822  1
  Bi2+  Bi123  1  0.89101286  0.24612877  0.69510524  1
  Bi2+  Bi124  1  0.85027773  0.48848052  0.20218980  1
  Bi2+  Bi125  1  0.85680567  0.50314843  0.70613095  1
  Bi2+  Bi126  1  0.95982363  0.76458661  0.18568746  1
  Bi2+  Bi127  1  0.85258640  0.69992011  0.69798726  1
  S2-  S128  1  -0.09630639  0.13118928  0.13674895  1
  S2-  S129  1  0.02049320  0.14153404  0.67272168  1
  S2-  S130  1  -0.09078861  0.36402299  0.13708860  1
  S2-  S131  1  -0.04093372  0.38615082  0.65165836  1
  S2-  S132  1  -0.03112230  0.59148320  0.15304666  1
  S2-  S133  1  0.00589227  0.66176355  0.65893581  1
  S2-  S134  1  0.00106274  0.92199287  0.14354005  1
  S2-  S135  1  0.01899196  0.89439841  0.66052117  1
  S2-  S136  1  0.29504438  0.11281816  0.15862435  1
  S2-  S137  1  0.26992598  0.17862213  0.65428530  1
  S2-  S138  1  0.27534964  0.33355827  0.16788405  1
  S2-  S139  1  0.23772676  0.42151845  0.65247327  1
  S2-  S140  1  0.23448387  0.52745560  0.14185217  1
  S2-  S141  1  0.24668391  0.65902613  0.66789470  1
  S2-  S142  1  0.22677512  0.90119153  0.14842743  1
  S2-  S143  1  0.24992592  0.88534321  0.65875137  1
  S2-  S144  1  0.49764350  0.23717406  0.14096312  1
  S2-  S145  1  0.59781666  0.11635033  0.65398647  1
  S2-  S146  1  0.48926039  0.47605880  0.14885151  1
  S2-  S147  1  0.48713994  0.30156380  0.64956925  1
  S2-  S148  1  0.55558390  0.67152192  0.17102561  1
  S2-  S149  1  0.49551408  0.57275521  0.64716929  1
  S2-  S150  1  0.59100992  0.88255401  0.14955723  1
  S2-  S151  1  0.50918716  0.86772717  0.65832515  1
  S2-  S152  1  0.74195364  0.02641749  0.14209154  1
  S2-  S153  1  0.80554474  0.09473837  0.68130906  1
  S2-  S154  1  0.70743005  0.40303983  0.17330987  1
  S2-  S155  1  0.73793553  0.28164059  0.65377495  1
  S2-  S156  1  0.75488651  0.60994170  0.17653117  1
  S2-  S157  1  0.72935330  0.51045224  0.63691941  1
  S2-  S158  1  0.81125557  0.83119668  0.17164321  1
  S2-  S159  1  0.76834905  0.85783068  0.65359799  1
  S2-  S160  1  0.11166767  0.01650470  0.35164238  1
  S2-  S161  1  0.14601117  0.01848973  0.83004703  1
  S2-  S162  1  0.20544305  0.24544941  0.35841027  1
  S2-  S163  1  0.00626329  0.23639420  0.85161260  1
  S2-  S164  1  0.10015896  0.42589126  0.33947384  1
  S2-  S165  1  0.12421037  0.58812383  0.84843412  1
  S2-  S166  1  0.11982140  0.64754845  0.36129422  1
  S2-  S167  1  0.12203430  0.80519110  0.79017837  1
  S2-  S168  1  0.37653388  0.09788216  0.36097460  1
  S2-  S169  1  0.38587412  0.00061254  0.84895216  1
  S2-  S170  1  0.40093923  0.32368074  0.32913001  1
  S2-  S171  1  0.46825583  0.28397571  0.85255192  1
  S2-  S172  1  0.30702171  0.51500573  0.34752964  1
  S2-  S173  1  0.37433419  0.50909962  0.84823085  1
  S2-  S174  1  0.36930010  0.73337662  0.34777032  1
  S2-  S175  1  0.29222312  0.74602737  0.85001095  1
  S2-  S176  1  0.64075999  0.03304908  0.35088096  1
  S2-  S177  1  0.72890403  -0.00809820  0.85525863  1
  S2-  S178  1  0.61904356  0.26294957  0.34539375  1
  S2-  S179  1  0.61564600  0.15925657  0.80875470  1
  S2-  S180  1  0.61831344  0.49737172  0.32471376  1
  S2-  S181  1  0.63032270  0.42928161  0.85963514  1
  S2-  S182  1  0.62406511  0.72897435  0.33993930  1
  S2-  S183  1  0.73599788  0.75354473  0.86415051  1
  S2-  S184  1  0.87006299  -0.03832152  0.33964233  1
  S2-  S185  1  0.92978466  0.01421233  0.83086895  1
  S2-  S186  1  0.86647766  0.25929648  0.34452567  1
  S2-  S187  1  0.77972759  0.25762896  0.84131084  1
  S2-  S188  1  0.84528087  0.48949072  0.33265408  1
  S2-  S189  1  0.88976660  0.48166720  0.83783146  1
  S2-  S190  1  0.85620399  0.72195753  0.34261447  1
  S2-  S191  1  0.95683138  0.74036499  0.84818026  1
  S2-  S192  1  -0.00591206  0.12460463  0.45925018  1
  S2-  S193  1  0.00273084  0.12200866  0.95028688  1
  S2-  S194  1  -0.00698760  0.37565328  0.44976852  1
  S2-  S195  1  0.00469023  0.38269404  0.94769399  1
  S2-  S196  1  -0.01096721  0.62799904  0.45398462  1
  S2-  S197  1  0.00050019  0.62974024  0.95035388  1
  S2-  S198  1  -0.00606599  0.87573335  0.45391650  1
  S2-  S199  1  0.00427503  0.87620318  0.94170129  1
  S2-  S200  1  0.23970360  0.11972535  0.45877006  1
  S2-  S201  1  0.24912763  0.12654358  0.95221836  1
  S2-  S202  1  0.24330331  0.37827173  0.45387461  1
  S2-  S203  1  0.25076569  0.37799259  0.95772811  1
  S2-  S204  1  0.24914539  0.62934498  0.46098767  1
  S2-  S205  1  0.25278913  0.62742793  0.95508973  1
  S2-  S206  1  0.24427646  0.87857642  0.45230316  1
  S2-  S207  1  0.25015888  0.87786183  0.94555860  1
  S2-  S208  1  0.49278935  0.12717643  0.46289013  1
  S2-  S209  1  0.50326329  0.13119275  0.95056900  1
  S2-  S210  1  0.49114760  0.37429915  0.44997579  1
  S2-  S211  1  0.50065026  0.37631142  0.96325173  1
  S2-  S212  1  0.49292291  0.62606671  0.44789809  1
  S2-  S213  1  0.50264077  0.62712780  0.95957293  1
  S2-  S214  1  0.49307329  0.87804884  0.45371759  1
  S2-  S215  1  0.50105633  0.87812628  0.95958161  1
  S2-  S216  1  0.74215864  0.12730770  0.46314046  1
  S2-  S217  1  0.74360548  0.13264630  0.94987460  1
  S2-  S218  1  0.74140784  0.37528660  0.45504480  1
  S2-  S219  1  0.75204504  0.37676501  0.95856246  1
  S2-  S220  1  0.73993510  0.62554127  0.45251752  1
  S2-  S221  1  0.74550599  0.62436652  0.96274001  1
  S2-  S222  1  0.74010041  0.87562360  0.45152903  1
  S2-  S223  1  0.74233295  0.87917029  0.96451383  1
  S2-  S224  1  0.12650686  -0.00064495  0.03724282  1
  S2-  S225  1  0.11698729  0.00041296  0.55482248  1
  S2-  S226  1  0.12448425  0.25269994  0.04325142  1
  S2-  S227  1  0.11666597  0.24951356  0.55186242  1
  S2-  S228  1  0.12016392  0.50394045  0.04213647  1
  S2-  S229  1  0.11746717  0.50231282  0.54432038  1
  S2-  S230  1  0.12553250  0.75608822  0.04629688  1
  S2-  S231  1  0.11942744  0.75133774  0.54756248  1
  S2-  S232  1  0.37833955  0.00526024  0.05168825  1
  S2-  S233  1  0.37039769  0.00166773  0.54854138  1
  S2-  S234  1  0.36825513  0.25337907  0.04403587  1
  S2-  S235  1  0.36647865  0.25258985  0.54123509  1
  S2-  S236  1  0.37408807  0.50243771  0.04906899  1
  S2-  S237  1  0.36857747  0.50248362  0.54638567  1
  S2-  S238  1  0.37696344  0.75241159  0.04869696  1
  S2-  S239  1  0.37022772  0.74864118  0.55337952  1
  S2-  S240  1  0.61794735  0.00847494  0.04258859  1
  S2-  S241  1  0.62107039  -0.00165042  0.55493124  1
  S2-  S242  1  0.63661319  0.25223528  0.05412372  1
  S2-  S243  1  0.61627028  0.25582993  0.54856583  1
  S2-  S244  1  0.63115703  0.50119563  0.05569702  1
  S2-  S245  1  0.61235283  0.50070695  0.53602654  1
  S2-  S246  1  0.62432886  0.74941780  0.05097102  1
  S2-  S247  1  0.61841326  0.74921318  0.54768024  1
  S2-  S248  1  0.87946986  -0.00266687  0.03570248  1
  S2-  S249  1  0.86566957  -0.00178969  0.55014875  1
  S2-  S250  1  0.88304074  0.25116176  0.03390010  1
  S2-  S251  1  0.86830829  0.25056132  0.55187629  1
  S2-  S252  1  0.87694160  0.50679442  0.04462221  1
  S2-  S253  1  0.87002865  0.50186723  0.54174070  1
  S2-  S254  1  0.87493855  0.75634688  0.04592750  1
  S2-  S255  1  0.86574573  0.75022560  0.54718831  1
