# generated using pymatgen
data_La9Ce10Pr6Nd4Sm3(BiS2)32
_symmetry_space_group_name_H-M   'P 1'
_cell_length_a   16.18493181
_cell_length_b   16.20596213
_cell_length_c   27.24389025
_cell_angle_alpha   90.12349932
_cell_angle_beta   89.96022472
_cell_angle_gamma   89.98703767
_symmetry_Int_Tables_number   1
_chemical_formula_structural   La9Ce10Pr6Nd4Sm3(BiS2)32
_chemical_formula_sum   'La18 Ce20 Pr12 Nd8 Sm6 Bi64 S128'
_cell_volume   7145.84663213
_cell_formula_units_Z   2
loop_
 _symmetry_equiv_pos_site_id
 _symmetry_equiv_pos_as_xyz
  1  'x, y, z'
loop_
 _atom_type_symbol
 _atom_type_oxidation_number
  La3+  3.0
  Ce3+  3.0
  Pr3+  3.0
  Nd3+  3.0
  Sm3+  3.0
  Bi2+  2.0
  S2-  -2.0
loop_
 _atom_site_type_symbol
 _atom_site_label
 _atom_site_symmetry_multiplicity
 _atom_site_fract_x
 _atom_site_fract_y
 _atom_site_fract_z
 _atom_site_occupancy
  La3+  La0  1  0.25420041  0.37446563  0.57662406  1
  La3+  La1  1  0.49141624  0.63600441  0.08027666  1
  La3+  La2  1  0.12089467  0.25218083  0.92186969  1
  La3+  La3  1  -0.01304312  0.60754960  0.61351246  1
  La3+  La4  1  0.52062572  0.86160929  0.58697255  1
  La3+  La5  1  0.76040056  0.37838046  0.56382803  1
  La3+  La6  1  0.13812781  0.00059749  0.44304783  1
  La3+  La7  1  0.24673307  0.12752416  0.05273587  1
  La3+  La8  1  0.00360047  0.38658803  0.09845872  1
  La3+  La9  1  0.89018721  0.74583584  0.42357015  1
  La3+  La10  1  0.75104989  0.12804777  0.06468333  1
  La3+  La11  1  0.63127248  -0.00096317  0.92748584  1
  La3+  La12  1  0.86564734  0.23208867  0.38615414  1
  La3+  La13  1  0.89101510  0.51317033  0.88956997  1
  La3+  La14  1  0.26522447  0.12197626  0.58891977  1
  La3+  La15  1  0.63581060  0.00321147  0.43491479  1
  La3+  La16  1  0.63327240  0.74743604  0.41789589  1
  La3+  La17  1  0.13415588  0.24688026  0.43730845  1
  Ce3+  Ce18  1  0.87207058  0.00284533  0.94069427  1
  Ce3+  Ce19  1  0.37193070  0.75476212  0.92945428  1
  Ce3+  Ce20  1  0.37979189  0.49942028  0.45068193  1
  Ce3+  Ce21  1  0.00212358  0.87543911  0.05328676  1
  Ce3+  Ce22  1  0.50697062  0.37483355  0.55569573  1
  Ce3+  Ce23  1  0.88491642  0.00072899  0.44932019  1
  Ce3+  Ce24  1  0.75624661  0.12049347  0.56778233  1
  Ce3+  Ce25  1  0.24644485  0.37807674  0.05190108  1
  Ce3+  Ce26  1  0.76061025  0.62487910  0.54679015  1
  Ce3+  Ce27  1  0.00695920  0.37301397  0.55615567  1
  Ce3+  Ce28  1  0.12250355  0.00635895  0.92738729  1
  Ce3+  Ce29  1  0.75637884  0.86808912  0.54996692  1
  Ce3+  Ce30  1  0.50969298  0.62584056  0.55159918  1
  Ce3+  Ce31  1  0.50082240  0.37613632  0.06767717  1
  Ce3+  Ce32  1  0.62285719  0.74703358  0.94631810  1
  Ce3+  Ce33  1  0.49804112  0.12083419  0.05523331  1
  Ce3+  Ce34  1  0.00434677  0.86403955  0.56142982  1
  Ce3+  Ce35  1  0.74916102  0.87380532  0.06387743  1
  Ce3+  Ce36  1  0.24941491  0.62492754  0.05623222  1
  Ce3+  Ce37  1  0.37520857  0.24661077  0.44547681  1
  Pr3+  Pr38  1  0.88812240  0.49429710  0.43027826  1
  Pr3+  Pr39  1  0.38235129  0.75061055  0.44400421  1
  Pr3+  Pr40  1  0.49538847  0.88261780  0.06384519  1
  Pr3+  Pr41  1  0.00632039  0.12290136  0.56586746  1
  Pr3+  Pr42  1  0.37935651  0.25147905  0.93650487  1
  Pr3+  Pr43  1  0.87389571  0.74862698  0.93832790  1
  Pr3+  Pr44  1  0.38465001  -0.00233544  0.91097309  1
  Pr3+  Pr45  1  0.87451009  0.26294839  0.94409640  1
  Pr3+  Pr46  1  0.00146359  0.12751433  0.05702637  1
  Pr3+  Pr47  1  0.63347077  0.49439073  0.43401956  1
  Pr3+  Pr48  1  -0.00176415  0.62438135  0.06287764  1
  Pr3+  Pr49  1  0.51413618  0.12269484  0.56695022  1
  Nd3+  Nd50  1  0.74566857  0.37973203  0.07019408  1
  Nd3+  Nd51  1  0.13252628  0.50275801  0.92710218  1
  Nd3+  Nd52  1  0.74736371  0.62156167  0.06428354  1
  Nd3+  Nd53  1  0.13389186  0.74766264  0.44770685  1
  Nd3+  Nd54  1  0.37732153  0.50427247  0.93692135  1
  Nd3+  Nd55  1  0.25138344  0.62776920  0.57280989  1
  Nd3+  Nd56  1  0.13320359  0.50070190  0.44658285  1
  Nd3+  Nd57  1  0.63246811  0.25013408  0.44104627  1
  Sm3+  Sm58  1  0.62611326  0.25436348  0.94655803  1
  Sm3+  Sm59  1  0.25073726  0.87851815  0.04549658  1
  Sm3+  Sm60  1  0.38595784  -0.00252273  0.45475007  1
  Sm3+  Sm61  1  0.12363528  0.75101810  0.93994950  1
  Sm3+  Sm62  1  0.62748133  0.50312824  0.94405671  1
  Sm3+  Sm63  1  0.25943697  0.87739159  0.57014001  1
  Bi2+  Bi64  1  0.01317289  0.10064724  0.28961229  1
  Bi2+  Bi65  1  -0.01833829  0.07352212  0.79275333  1
  Bi2+  Bi66  1  -0.00490210  0.36576320  0.29363428  1
  Bi2+  Bi67  1  -0.02245301  0.28211044  0.77763770  1
  Bi2+  Bi68  1  0.02734528  0.62049501  0.29247939  1
  Bi2+  Bi69  1  0.03326007  0.69195427  0.81145861  1
  Bi2+  Bi70  1  -0.03003257  0.84711761  0.30895224  1
  Bi2+  Bi71  1  -0.01056119  0.88132536  0.80261377  1
  Bi2+  Bi72  1  0.27115980  0.10544654  0.29979097  1
  Bi2+  Bi73  1  0.22845741  0.20910531  0.78953691  1
  Bi2+  Bi74  1  0.28231566  0.31537955  0.26871504  1
  Bi2+  Bi75  1  0.33403556  0.42404609  0.77023615  1
  Bi2+  Bi76  1  0.21855992  0.56803297  0.29304274  1
  Bi2+  Bi77  1  0.28903088  0.63107585  0.78893688  1
  Bi2+  Bi78  1  0.17924712  0.84033704  0.26409679  1
  Bi2+  Bi79  1  0.24280874  0.87235746  0.78682268  1
  Bi2+  Bi80  1  0.49066761  0.16999040  0.28990001  1
  Bi2+  Bi81  1  0.49121356  0.15724187  0.80854891  1
  Bi2+  Bi82  1  0.47722963  0.36665717  0.29892435  1
  Bi2+  Bi83  1  0.52128438  0.44831910  0.80937979  1
  Bi2+  Bi84  1  0.40288587  0.62882962  0.28123242  1
  Bi2+  Bi85  1  0.47616131  0.62931521  0.83969076  1
  Bi2+  Bi86  1  0.46051149  0.88408157  0.31350513  1
  Bi2+  Bi87  1  0.46701973  0.77867861  0.76820777  1
  Bi2+  Bi88  1  0.74711664  -0.00341994  0.29439688  1
  Bi2+  Bi89  1  0.77508763  0.11943361  0.78280898  1
  Bi2+  Bi90  1  0.67482903  0.37226554  0.31511989  1
  Bi2+  Bi91  1  0.70706167  0.36744552  0.79447051  1
  Bi2+  Bi92  1  0.76306572  0.61012906  0.28359701  1
  Bi2+  Bi93  1  0.72042563  0.63366552  0.79200016  1
  Bi2+  Bi94  1  0.77493597  0.80333545  0.31207684  1
  Bi2+  Bi95  1  0.71208100  0.88757862  0.78766985  1
  Bi2+  Bi96  1  0.17776145  -0.01424138  0.18952119  1
  Bi2+  Bi97  1  0.11233361  -0.02554806  0.72478230  1
  Bi2+  Bi98  1  0.15495718  0.23383312  0.19310072  1
  Bi2+  Bi99  1  0.10703611  0.30121153  0.68323244  1
  Bi2+  Bi100  1  0.17836128  0.59940483  0.18360832  1
  Bi2+  Bi101  1  0.11275405  0.51974543  0.73128406  1
  Bi2+  Bi102  1  0.08242623  0.76278557  0.17571265  1
  Bi2+  Bi103  1  0.11891920  0.78215866  0.70573049  1
  Bi2+  Bi104  1  0.43000187  0.01591722  0.23152996  1
  Bi2+  Bi105  1  0.36198704  0.03883858  0.71902134  1
  Bi2+  Bi106  1  0.42926414  0.27798202  0.18921501  1
  Bi2+  Bi107  1  0.45380469  0.27777573  0.71892014  1
  Bi2+  Bi108  1  0.37469997  0.46518622  0.21426809  1
  Bi2+  Bi109  1  0.43092611  0.57277740  0.71437808  1
  Bi2+  Bi110  1  0.34081596  0.76890902  0.21013417  1
  Bi2+  Bi111  1  0.31291365  0.76263705  0.69541393  1
  Bi2+  Bi112  1  0.62131410  -0.00967506  0.20533975  1
  Bi2+  Bi113  1  0.62197916  -0.01088256  0.71082060  1
  Bi2+  Bi114  1  0.61720093  0.23838035  0.21320766  1
  Bi2+  Bi115  1  0.64520404  0.25385719  0.71019318  1
  Bi2+  Bi116  1  0.61642163  0.48112388  0.22687898  1
  Bi2+  Bi117  1  0.61866780  0.52072490  0.71572583  1
  Bi2+  Bi118  1  0.60022915  0.74658156  0.21459581  1
  Bi2+  Bi119  1  0.64630273  0.72785802  0.70580344  1
  Bi2+  Bi120  1  0.89928536  -0.04193006  0.22354074  1
  Bi2+  Bi121  1  0.83569545  0.00608483  0.69466951  1
  Bi2+  Bi122  1  0.88294295  0.21602721  0.18340659  1
  Bi2+  Bi123  1  0.89393278  0.19058053  0.68597112  1
  Bi2+  Bi124  1  0.87354384  0.52069997  0.20907798  1
  Bi2+  Bi125  1  0.85253404  0.47955349  0.70606003  1
  Bi2+  Bi126  1  0.89498193  0.75872182  0.21513445  1
  Bi2+  Bi127  1  0.85790615  0.81946625  0.72370739  1
  S2-  S128  1  0.02766548  0.13453154  0.15650403  1
  S2-  S129  1  0.05068883  0.13408631  0.66373576  1
  S2-  S130  1  0.01326821  0.32876336  0.19786114  1
  S2-  S131  1  -0.00681248  0.43047858  0.64930054  1
  S2-  S132  1  0.01619811  0.53873263  0.15207712  1
  S2-  S133  1  -0.02827731  0.59697581  0.72288244  1
  S2-  S134  1  0.02448164  0.92398637  0.14646496  1
  S2-  S135  1  -0.02623116  0.77912143  0.64572047  1
  S2-  S136  1  0.26536746  0.11439967  0.15293124  1
  S2-  S137  1  0.23983494  0.21285383  0.68116539  1
  S2-  S138  1  0.17937048  0.37294092  0.14004909  1
  S2-  S139  1  0.23074101  0.42193380  0.67441374  1
  S2-  S140  1  0.33835686  0.63479646  0.14115639  1
  S2-  S141  1  0.15074207  0.61888838  0.65721882  1
  S2-  S142  1  0.28619736  0.89096832  0.14180971  1
  S2-  S143  1  0.24808352  0.98096161  0.65133931  1
  S2-  S144  1  0.49306540  0.01835012  0.13451049  1
  S2-  S145  1  0.41569610  0.13938742  0.65133476  1
  S2-  S146  1  0.61494530  0.37670687  0.14519812  1
  S2-  S147  1  0.52791515  0.37728500  0.65244293  1
  S2-  S148  1  0.60175298  0.60880341  0.16021287  1
  S2-  S149  1  0.52092308  0.70226586  0.63822441  1
  S2-  S150  1  0.48701188  0.78206863  0.14957782  1
  S2-  S151  1  0.47696176  0.93255954  0.67948313  1
  S2-  S152  1  0.72656243  0.12892978  0.16503458  1
  S2-  S153  1  0.64008575  0.11858201  0.64196999  1
  S2-  S154  1  0.83637812  0.37758547  0.15604515  1
  S2-  S155  1  0.76651344  0.34384318  0.66352172  1
  S2-  S156  1  0.81581523  0.64725854  0.15443804  1
  S2-  S157  1  0.81076256  0.59488418  0.63892465  1
  S2-  S158  1  0.69521260  0.86415670  0.15852246  1
  S2-  S159  1  0.67960852  0.85908032  0.63846657  1
  S2-  S160  1  0.12924484  0.03230259  0.34266638  1
  S2-  S161  1  0.12129050  0.11434026  0.84906489  1
  S2-  S162  1  0.03732513  0.23669693  0.35092498  1
  S2-  S163  1  0.13311651  0.32219457  0.82684318  1
  S2-  S164  1  0.09770892  0.47481769  0.34852901  1
  S2-  S165  1  0.05113470  0.53688082  0.83989739  1
  S2-  S166  1  0.10872289  0.75057245  0.34798172  1
  S2-  S167  1  0.19652634  0.74230655  0.85048781  1
  S2-  S168  1  0.34496031  0.00222143  0.35790966  1
  S2-  S169  1  0.33549111  0.07526535  0.82234152  1
  S2-  S170  1  0.26762847  0.24090510  0.36750209  1
  S2-  S171  1  0.36672744  0.28497750  0.83775264  1
  S2-  S172  1  0.35118790  0.50921298  0.35583307  1
  S2-  S173  1  0.27080429  0.50235706  0.85526183  1
  S2-  S174  1  0.35651347  0.76332740  0.34455752  1
  S2-  S175  1  0.38816260  0.85398697  0.84647515  1
  S2-  S176  1  0.59201468  -0.00195167  0.33774214  1
  S2-  S177  1  0.53364639  0.01476319  0.84431301  1
  S2-  S178  1  0.69734765  0.21660031  0.35156301  1
  S2-  S179  1  0.62891632  0.23939581  0.84843552  1
  S2-  S180  1  0.63271023  0.54834261  0.33692549  1
  S2-  S181  1  0.71930863  0.50082236  0.85967663  1
  S2-  S182  1  0.58489233  0.77128264  0.32044295  1
  S2-  S183  1  0.65405816  0.76607966  0.85026236  1
  S2-  S184  1  0.88395012  0.05675986  0.35733464  1
  S2-  S185  1  0.77268326  -0.00153401  0.85983389  1
  S2-  S186  1  0.87714501  0.22023939  0.27696476  1
  S2-  S187  1  0.87185044  0.20812645  0.84721941  1
  S2-  S188  1  0.85662401  0.39593679  0.34648504  1
  S2-  S189  1  0.88274903  0.41098492  0.80204303  1
  S2-  S190  1  0.89869004  0.61392878  0.35090966  1
  S2-  S191  1  0.87006764  0.67227999  0.84643814  1
  S2-  S192  1  0.00937598  0.12112333  0.45966294  1
  S2-  S193  1  -0.00611963  0.12722680  0.95126443  1
  S2-  S194  1  0.01125350  0.37332495  0.45382603  1
  S2-  S195  1  -0.00265724  0.38446822  0.93439962  1
  S2-  S196  1  0.01379090  0.62529619  0.45215307  1
  S2-  S197  1  0.00205442  0.62799811  0.95447787  1
  S2-  S198  1  0.01020276  0.87471666  0.45380759  1
  S2-  S199  1  -0.00001478  0.87634003  0.94651021  1
  S2-  S200  1  0.26240262  0.11873764  0.47234554  1
  S2-  S201  1  0.25378582  0.12679570  0.94534541  1
  S2-  S202  1  0.25758824  0.37679951  0.46667613  1
  S2-  S203  1  0.25208978  0.37368236  0.94851781  1
  S2-  S204  1  0.25728618  0.62596500  0.46359830  1
  S2-  S205  1  0.25123341  0.63019728  0.95343236  1
  S2-  S206  1  0.25967156  0.87501789  0.46327032  1
  S2-  S207  1  0.24464256  0.88188697  0.94275385  1
  S2-  S208  1  0.50511274  0.12543656  0.45482094  1
  S2-  S209  1  0.50333311  0.12751706  0.95109750  1
  S2-  S210  1  0.50376614  0.37195904  0.44932794  1
  S2-  S211  1  0.50284884  0.37918738  0.95598253  1
  S2-  S212  1  0.50653569  0.62367563  0.44501794  1
  S2-  S213  1  0.49886536  0.62591225  0.96175717  1
  S2-  S214  1  0.50884827  0.87379512  0.44940351  1
  S2-  S215  1  0.50278292  0.87483892  0.95360268  1
  S2-  S216  1  0.76105286  0.12556759  0.46067239  1
  S2-  S217  1  0.75050679  0.13295327  0.95741246  1
  S2-  S218  1  0.75664399  0.37150795  0.45510161  1
  S2-  S219  1  0.74371886  0.37630830  0.96194374  1
  S2-  S220  1  0.75675167  0.62229624  0.44307497  1
  S2-  S221  1  0.75103198  0.62523998  0.95883653  1
  S2-  S222  1  0.76025765  0.87346351  0.44378792  1
  S2-  S223  1  0.75177613  0.87153893  0.95826751  1
  S2-  S224  1  0.12467814  0.00067843  0.03539510  1
  S2-  S225  1  0.12817675  -0.00706150  0.55225571  1
  S2-  S226  1  0.12038338  0.25466695  0.03676146  1
  S2-  S227  1  0.13334437  0.24647265  0.55144057  1
  S2-  S228  1  0.12365004  0.50125688  0.03710046  1
  S2-  S229  1  0.13010145  0.50249790  0.55266995  1
  S2-  S230  1  0.12806443  0.75215094  0.04345738  1
  S2-  S231  1  0.13850777  0.75482211  0.55267807  1
  S2-  S232  1  0.37112790  0.00238141  0.03012037  1
  S2-  S233  1  0.39412082  -0.01150524  0.55603294  1
  S2-  S234  1  0.37621826  0.25159911  0.04454090  1
  S2-  S235  1  0.38206523  0.25289795  0.55133527  1
  S2-  S236  1  0.37603449  0.49828624  0.04508057  1
  S2-  S237  1  0.38029725  0.50402140  0.55813170  1
  S2-  S238  1  0.37100282  0.75634150  0.03733589  1
  S2-  S239  1  0.37926707  0.75127445  0.55092086  1
  S2-  S240  1  0.62974425  0.00043921  0.04040394  1
  S2-  S241  1  0.63232004  -0.00792238  0.54209325  1
  S2-  S242  1  0.62069603  0.24728375  0.05018502  1
  S2-  S243  1  0.63348454  0.25303167  0.54650496  1
  S2-  S244  1  0.62014628  0.50428113  0.04713532  1
  S2-  S245  1  0.63164863  0.50075637  0.54303824  1
  S2-  S246  1  0.62530048  0.75119905  0.05015458  1
  S2-  S247  1  0.63413792  0.74513542  0.52969712  1
  S2-  S248  1  0.87496289  0.00041491  0.04913317  1
  S2-  S249  1  0.88155619  -0.00677124  0.55480693  1
  S2-  S250  1  0.87927997  0.25613380  0.05122773  1
  S2-  S251  1  0.88120965  0.24742073  0.55749479  1
  S2-  S252  1  0.87454755  0.50031882  0.05397669  1
  S2-  S253  1  0.88666267  0.49954845  0.53910667  1
  S2-  S254  1  0.87661107  0.75226185  0.04691159  1
  S2-  S255  1  0.88018684  0.74814812  0.53457472  1
