# generated using pymatgen
data_La9Ce10Pr6Nd4Sm3(BiS2)32
_symmetry_space_group_name_H-M   'P 1'
_cell_length_a   16.13012049
_cell_length_b   16.13378089
_cell_length_c   27.19124316
_cell_angle_alpha   90.10535284
_cell_angle_beta   90.16980396
_cell_angle_gamma   89.91189732
_symmetry_Int_Tables_number   1
_chemical_formula_structural   La9Ce10Pr6Nd4Sm3(BiS2)32
_chemical_formula_sum   'La18 Ce20 Pr12 Nd8 Sm6 Bi64 S128'
_cell_volume   7076.19314221
_cell_formula_units_Z   2
loop_
 _symmetry_equiv_pos_site_id
 _symmetry_equiv_pos_as_xyz
  1  'x, y, z'
loop_
 _atom_type_symbol
 _atom_type_oxidation_number
  La3+  3.0
  Ce3+  3.0
  Pr3+  3.0
  Nd3+  3.0
  Sm3+  3.0
  Bi2+  2.0
  S2-  -2.0
loop_
 _atom_site_type_symbol
 _atom_site_label
 _atom_site_symmetry_multiplicity
 _atom_site_fract_x
 _atom_site_fract_y
 _atom_site_fract_z
 _atom_site_occupancy
  La3+  La0  1  0.38261816  0.48776968  0.93524600  1
  La3+  La1  1  0.01553150  0.10641228  0.08046027  1
  La3+  La2  1  0.49919272  0.60761714  0.08938161  1
  La3+  La3  1  0.75725386  0.86709403  0.56485192  1
  La3+  La4  1  0.88611547  0.72892632  0.92220204  1
  La3+  La5  1  0.63405704  -0.00963047  0.91489844  1
  La3+  La6  1  0.76283690  0.60780644  0.07977188  1
  La3+  La7  1  0.00898891  0.61176750  0.06992371  1
  La3+  La8  1  0.49512355  0.11120115  0.57662876  1
  La3+  La9  1  0.36119446  0.23731172  0.90376621  1
  La3+  La10  1  0.74974240  0.86840138  0.06714588  1
  La3+  La11  1  0.12315326  0.74207850  0.43554106  1
  La3+  La12  1  0.62593409  0.24739997  0.89752103  1
  La3+  La13  1  -0.00082996  0.11784665  0.55528676  1
  La3+  La14  1  0.51787836  0.36451252  0.60767730  1
  La3+  La15  1  0.74581472  0.12263979  0.56078743  1
  La3+  La16  1  0.61947695  0.48811581  0.42149331  1
  La3+  La17  1  0.61529383  0.24071425  0.42855839  1
  Ce3+  Ce18  1  0.75468681  0.36276774  0.06110826  1
  Ce3+  Ce19  1  0.12637524  0.73714490  0.94364920  1
  Ce3+  Ce20  1  0.25727960  0.61295029  0.06108051  1
  Ce3+  Ce21  1  0.13161650  0.48409763  0.94499055  1
  Ce3+  Ce22  1  0.25723279  0.86204319  0.05079965  1
  Ce3+  Ce23  1  -0.00386943  0.86199501  0.07020719  1
  Ce3+  Ce24  1  0.37730979  0.24198472  0.45013399  1
  Ce3+  Ce25  1  0.63565760  0.72931136  0.94942059  1
  Ce3+  Ce26  1  0.37679271  -0.00813057  0.44592476  1
  Ce3+  Ce27  1  0.50769271  0.11558345  0.04504496  1
  Ce3+  Ce28  1  0.87095979  -0.00762071  0.42461797  1
  Ce3+  Ce29  1  0.25155120  0.62024003  0.55476741  1
  Ce3+  Ce30  1  0.12747748  0.24430002  0.44251607  1
  Ce3+  Ce31  1  0.50264445  0.61294386  0.56240152  1
  Ce3+  Ce32  1  0.50874621  0.36494732  0.05657739  1
  Ce3+  Ce33  1  0.75406649  0.11406672  0.05110704  1
  Ce3+  Ce34  1  0.87429585  0.24254797  0.42626886  1
  Ce3+  Ce35  1  0.88282404  -0.01439371  0.93704827  1
  Ce3+  Ce36  1  0.38205332  -0.00987884  0.92726819  1
  Ce3+  Ce37  1  0.50863271  0.86431276  0.05523369  1
  Pr3+  Pr38  1  0.75527555  0.37144399  0.55717329  1
  Pr3+  Pr39  1  0.88077145  0.48333299  0.94068767  1
  Pr3+  Pr40  1  0.62677674  0.73702598  0.43236118  1
  Pr3+  Pr41  1  0.00031610  0.36958485  0.56562274  1
  Pr3+  Pr42  1  0.38212014  0.73351827  0.93612679  1
  Pr3+  Pr43  1  0.27060789  0.10715619  0.06645946  1
  Pr3+  Pr44  1  0.12689633  0.48868101  0.44065268  1
  Pr3+  Pr45  1  0.62239715  -0.00987325  0.43649967  1
  Pr3+  Pr46  1  0.24944744  0.11549601  0.56515302  1
  Pr3+  Pr47  1  0.74979060  0.61493451  0.55573951  1
  Pr3+  Pr48  1  0.25438148  0.37109638  0.56956627  1
  Pr3+  Pr49  1  0.88091635  0.23448264  0.93664749  1
  Nd3+  Nd50  1  0.37676952  0.49029147  0.43778759  1
  Nd3+  Nd51  1  0.25929393  0.35983920  0.06270817  1
  Nd3+  Nd52  1  0.37941783  0.74373385  0.44441576  1
  Nd3+  Nd53  1  0.63241346  0.49490560  0.93755794  1
  Nd3+  Nd54  1  -0.00061442  0.61765453  0.55994162  1
  Nd3+  Nd55  1  0.50859905  0.86488068  0.57758217  1
  Nd3+  Nd56  1  0.87634323  0.49067636  0.42529830  1
  Nd3+  Nd57  1  0.12492349  -0.00761792  0.43875874  1
  Sm3+  Sm58  1  0.24809512  0.86419243  0.55658511  1
  Sm3+  Sm59  1  -0.00436699  0.86667376  0.55801307  1
  Sm3+  Sm60  1  0.12560305  -0.01344561  0.94035960  1
  Sm3+  Sm61  1  0.12884850  0.23177300  0.94742524  1
  Sm3+  Sm62  1  0.87227638  0.74232161  0.42754536  1
  Sm3+  Sm63  1  0.00772959  0.35718421  0.06000775  1
  Bi2+  Bi64  1  -0.08017816  0.21427394  0.26607342  1
  Bi2+  Bi65  1  0.01731025  0.19499126  0.82052739  1
  Bi2+  Bi66  1  0.05114078  0.39388929  0.26481352  1
  Bi2+  Bi67  1  -0.03604955  0.38666926  0.80005234  1
  Bi2+  Bi68  1  0.01642915  0.61658218  0.27755904  1
  Bi2+  Bi69  1  0.06862410  0.62094752  0.78456457  1
  Bi2+  Bi70  1  0.05057099  0.87172145  0.28192202  1
  Bi2+  Bi71  1  0.10175040  0.88382122  0.80583650  1
  Bi2+  Bi72  1  0.24557799  0.21501124  0.29391318  1
  Bi2+  Bi73  1  0.19830451  0.11407803  0.78301126  1
  Bi2+  Bi74  1  0.24277178  0.40624019  0.32108655  1
  Bi2+  Bi75  1  0.20469336  0.38116871  0.78167229  1
  Bi2+  Bi76  1  0.24642314  0.65337336  0.28363065  1
  Bi2+  Bi77  1  0.26290202  0.65358961  0.79099440  1
  Bi2+  Bi78  1  0.24808643  0.92952256  0.29735375  1
  Bi2+  Bi79  1  0.29553435  0.84286929  0.80332810  1
  Bi2+  Bi80  1  0.48567235  0.11030814  0.29519147  1
  Bi2+  Bi81  1  0.48130127  0.08785335  0.78952049  1
  Bi2+  Bi82  1  0.48790364  0.37403338  0.29628784  1
  Bi2+  Bi83  1  0.48240685  0.42267932  0.80525108  1
  Bi2+  Bi84  1  0.50462065  0.66347292  0.30323021  1
  Bi2+  Bi85  1  0.51837947  0.62554347  0.78658438  1
  Bi2+  Bi86  1  0.45612242  0.93393089  0.24875359  1
  Bi2+  Bi87  1  0.50680747  0.82305467  0.78316820  1
  Bi2+  Bi88  1  0.73795796  0.12927009  0.27922586  1
  Bi2+  Bi89  1  0.84878742  0.11376769  0.78971123  1
  Bi2+  Bi90  1  0.76002464  0.41867610  0.28733829  1
  Bi2+  Bi91  1  0.77502091  0.38516785  0.78607779  1
  Bi2+  Bi92  1  0.76836540  0.69346042  0.29274035  1
  Bi2+  Bi93  1  0.76878637  0.62976796  0.79388151  1
  Bi2+  Bi94  1  0.70785471  0.91443282  0.30576452  1
  Bi2+  Bi95  1  0.70591812  0.87376524  0.78923096  1
  Bi2+  Bi96  1  0.01569346  0.04901891  0.23157175  1
  Bi2+  Bi97  1  0.11339046  0.00131982  0.70862808  1
  Bi2+  Bi98  1  0.13827833  0.27253209  0.19887295  1
  Bi2+  Bi99  1  0.13300661  0.23993765  0.69972155  1
  Bi2+  Bi100  1  0.14639695  0.60841080  0.18198292  1
  Bi2+  Bi101  1  0.12286049  0.43115307  0.67419262  1
  Bi2+  Bi102  1  0.11708854  0.80312859  0.18140036  1
  Bi2+  Bi103  1  0.13448066  0.74620282  0.70597070  1
  Bi2+  Bi104  1  0.28088639  0.05256435  0.21035271  1
  Bi2+  Bi105  1  0.37253399  -0.10970397  0.70094601  1
  Bi2+  Bi106  1  0.38897892  0.22302600  0.20910442  1
  Bi2+  Bi107  1  0.37103340  0.24016025  0.71258925  1
  Bi2+  Bi108  1  0.29551104  0.49201699  0.22349699  1
  Bi2+  Bi109  1  0.29573026  0.51015875  0.71294123  1
  Bi2+  Bi110  1  0.32179661  0.79743674  0.21938128  1
  Bi2+  Bi111  1  0.46267614  0.71566188  0.68526707  1
  Bi2+  Bi112  1  0.58806427  0.04334353  0.18662170  1
  Bi2+  Bi113  1  0.64826997  -0.01191343  0.70812198  1
  Bi2+  Bi114  1  0.56506878  0.30862348  0.19804708  1
  Bi2+  Bi115  1  0.65146713  0.23173930  0.71854676  1
  Bi2+  Bi116  1  0.63093701  0.53537007  0.20684826  1
  Bi2+  Bi117  1  0.65572574  0.48797067  0.70584353  1
  Bi2+  Bi118  1  0.63342304  0.79185240  0.22092688  1
  Bi2+  Bi119  1  0.66432145  0.71550963  0.70563394  1
  Bi2+  Bi120  1  0.82072918  -0.02882271  0.22084025  1
  Bi2+  Bi121  1  0.92983683  -0.03989164  0.73549433  1
  Bi2+  Bi122  1  0.75890417  0.28200833  0.20311949  1
  Bi2+  Bi123  1  0.93088457  0.25264061  0.71293776  1
  Bi2+  Bi124  1  0.88930657  0.47915796  0.21119182  1
  Bi2+  Bi125  1  0.95362484  0.50970612  0.70413446  1
  Bi2+  Bi126  1  0.92484230  0.75614216  0.21845087  1
  Bi2+  Bi127  1  0.90060358  0.77534041  0.71986978  1
  S2-  S128  1  -0.04965991  0.17395826  0.17177168  1
  S2-  S129  1  0.01115002  0.12367964  0.65611736  1
  S2-  S130  1  0.02036437  0.39098493  0.15708572  1
  S2-  S131  1  -0.10989403  0.38342688  0.64344723  1
  S2-  S132  1  -0.09098111  0.61298466  0.15194180  1
  S2-  S133  1  -0.01083793  0.67574268  0.65450535  1
  S2-  S134  1  0.03402419  0.96762966  0.14689978  1
  S2-  S135  1  -0.10857437  0.87872641  0.63890681  1
  S2-  S136  1  0.16863479  0.12894695  0.14773757  1
  S2-  S137  1  0.31258996  0.12155124  0.65980655  1
  S2-  S138  1  0.28484119  0.34747994  0.16231838  1
  S2-  S139  1  0.35428883  0.37026606  0.65367961  1
  S2-  S140  1  0.33795641  0.60456768  0.14556819  1
  S2-  S141  1  0.23900499  0.63993399  0.65187560  1
  S2-  S142  1  0.27091383  0.90752395  0.14523102  1
  S2-  S143  1  0.20862435  0.87863696  0.65214448  1
  S2-  S144  1  0.43557420  0.09602872  0.13554172  1
  S2-  S145  1  0.52002705  0.20425156  0.66167382  1
  S2-  S146  1  0.51164417  0.45222936  0.14440450  1
  S2-  S147  1  0.53541118  0.36607362  0.72204011  1
  S2-  S148  1  0.52084434  0.66412473  0.19487709  1
  S2-  S149  1  0.51992097  0.53329654  0.64810051  1
  S2-  S150  1  0.60494208  0.89075426  0.13678025  1
  S2-  S151  1  0.49673336  0.98470215  0.65302401  1
  S2-  S152  1  0.74327322  0.05672225  0.14426011  1
  S2-  S153  1  0.73830017  0.10900277  0.66312810  1
  S2-  S154  1  0.75191827  0.45824639  0.14478143  1
  S2-  S155  1  0.68562000  0.34595801  0.64932610  1
  S2-  S156  1  0.71599528  0.67182333  0.17511911  1
  S2-  S157  1  0.76346522  0.59890432  0.65679964  1
  S2-  S158  1  0.86131026  0.85682896  0.14509680  1
  S2-  S159  1  0.65170493  0.85401974  0.64441904  1
  S2-  S160  1  0.11115152  0.00903583  0.33977945  1
  S2-  S161  1  0.00968625  -0.01626942  0.86630086  1
  S2-  S162  1  0.10478608  0.25236849  0.34595884  1
  S2-  S163  1  0.18981510  0.24287249  0.85461829  1
  S2-  S164  1  0.09242882  0.49852478  0.34225703  1
  S2-  S165  1  0.10774724  0.48207908  0.84713808  1
  S2-  S166  1  0.11280175  0.73152930  0.33543402  1
  S2-  S167  1  0.03980413  0.73860180  0.85880552  1
  S2-  S168  1  0.40042809  -0.02046147  0.34904742  1
  S2-  S169  1  0.33326109  0.08423196  0.84601663  1
  S2-  S170  1  0.44730054  0.23899676  0.36032654  1
  S2-  S171  1  0.48128209  0.25177873  0.82899867  1
  S2-  S172  1  0.46488969  0.51030299  0.34933910  1
  S2-  S173  1  0.33466868  0.39696054  0.85111303  1
  S2-  S174  1  0.37271926  0.72794200  0.34465436  1
  S2-  S175  1  0.39532804  0.61418439  0.85925765  1
  S2-  S176  1  0.61817850  0.10404224  0.35741956  1
  S2-  S177  1  0.49548341  -0.04254770  0.85137018  1
  S2-  S178  1  0.63235886  0.35566689  0.34877043  1
  S2-  S179  1  0.62371155  0.11292006  0.82829815  1
  S2-  S180  1  0.65518101  0.60997321  0.34423430  1
  S2-  S181  1  0.64135277  0.40882512  0.84755242  1
  S2-  S182  1  0.58423821  0.80983686  0.34262432  1
  S2-  S183  1  0.63813236  0.63382489  0.86581548  1
  S2-  S184  1  0.86954965  0.11707503  0.35216789  1
  S2-  S185  1  0.78359738  -0.01362494  0.85374769  1
  S2-  S186  1  0.87850712  0.36707951  0.35315074  1
  S2-  S187  1  0.79001923  0.24631940  0.84820106  1
  S2-  S188  1  0.88341651  0.62303289  0.35161443  1
  S2-  S189  1  0.87558867  0.57899635  0.85659218  1
  S2-  S190  1  0.86003279  0.86409354  0.35566260  1
  S2-  S191  1  0.83716389  0.78019817  0.82315831  1
  S2-  S192  1  0.00347709  0.11817795  0.44913484  1
  S2-  S193  1  0.00652630  0.11360587  0.96489710  1
  S2-  S194  1  0.00237390  0.36580038  0.45733972  1
  S2-  S195  1  0.00769116  0.35804745  0.95418094  1
  S2-  S196  1  0.00169838  0.61620296  0.45263716  1
  S2-  S197  1  0.00884745  0.60700560  0.96121145  1
  S2-  S198  1  -0.00064251  0.86865827  0.45263989  1
  S2-  S199  1  0.00498314  0.85932291  0.96408610  1
  S2-  S200  1  0.24936076  0.11596118  0.45529434  1
  S2-  S201  1  0.25058470  0.10936226  0.95849129  1
  S2-  S202  1  0.25280579  0.36713421  0.45993729  1
  S2-  S203  1  0.25182376  0.35741633  0.95835708  1
  S2-  S204  1  0.25142705  0.61761370  0.44721085  1
  S2-  S205  1  0.25072040  0.61302850  0.95413413  1
  S2-  S206  1  0.25016623  0.86651173  0.45038281  1
  S2-  S207  1  0.25362284  0.86216018  0.94461623  1
  S2-  S208  1  0.49665124  0.11276713  0.46571346  1
  S2-  S209  1  0.50126449  0.12255023  0.94172064  1
  S2-  S210  1  0.49619607  0.36912465  0.45515435  1
  S2-  S211  1  0.50777799  0.36199484  0.94998740  1
  S2-  S212  1  0.49930111  0.61810303  0.45583455  1
  S2-  S213  1  0.50576298  0.61328544  0.96749574  1
  S2-  S214  1  0.50079197  0.86621959  0.46185748  1
  S2-  S215  1  0.50973056  0.85289724  0.95120040  1
  S2-  S216  1  0.74866414  0.11775080  0.45423723  1
  S2-  S217  1  0.75166260  0.11847688  0.94857176  1
  S2-  S218  1  0.74988002  0.36667611  0.45178788  1
  S2-  S219  1  0.75465534  0.36139492  0.95556418  1
  S2-  S220  1  0.75314387  0.61533772  0.45076958  1
  S2-  S221  1  0.76255585  0.60991822  0.96628639  1
  S2-  S222  1  0.74648868  0.86524673  0.45605959  1
  S2-  S223  1  0.75789206  0.85500773  0.95389607  1
  S2-  S224  1  0.13630235  -0.01431376  0.04249488  1
  S2-  S225  1  0.12338331  -0.01193943  0.54614364  1
  S2-  S226  1  0.13344563  0.23772487  0.05002311  1
  S2-  S227  1  0.12780048  0.24424099  0.55066303  1
  S2-  S228  1  0.13263009  0.48257200  0.05178205  1
  S2-  S229  1  0.12604819  0.49584513  0.54700715  1
  S2-  S230  1  0.13181759  0.73990247  0.04928597  1
  S2-  S231  1  0.12089596  0.74529308  0.54397788  1
  S2-  S232  1  0.38550639  -0.01756272  0.03378595  1
  S2-  S233  1  0.36976562  -0.01568861  0.55086893  1
  S2-  S234  1  0.38354914  0.24047234  0.04588642  1
  S2-  S235  1  0.37452180  0.24151166  0.55333594  1
  S2-  S236  1  0.37825527  0.48563454  0.04336916  1
  S2-  S237  1  0.37337154  0.49685547  0.54506835  1
  S2-  S238  1  0.38288625  0.73871858  0.04625660  1
  S2-  S239  1  0.37649705  0.74597488  0.55088163  1
  S2-  S240  1  0.62871984  -0.00840511  0.02858366  1
  S2-  S241  1  0.62692844  -0.00829080  0.54512594  1
  S2-  S242  1  0.63070882  0.23841058  0.05666642  1
  S2-  S243  1  0.62083385  0.24536148  0.54471340  1
  S2-  S244  1  0.63138095  0.48881319  0.04441083  1
  S2-  S245  1  0.62566191  0.49111531  0.54087144  1
  S2-  S246  1  0.62752691  0.73115593  0.05465005  1
  S2-  S247  1  0.62503563  0.73795961  0.54285169  1
  S2-  S248  1  0.88026023  -0.00767429  0.04388321  1
  S2-  S249  1  0.87566749  -0.00397000  0.53626894  1
  S2-  S250  1  0.88243708  0.23818422  0.04771885  1
  S2-  S251  1  0.87643330  0.24261447  0.54164280  1
  S2-  S252  1  0.88803680  0.47986874  0.04636464  1
  S2-  S253  1  0.87939871  0.49610825  0.53636575  1
  S2-  S254  1  0.87992578  0.73458502  0.04458854  1
  S2-  S255  1  0.87813762  0.73988933  0.53661065  1
