# generated using pymatgen
data_La9Ce10Pr6Nd4Sm3(BiS2)32
_symmetry_space_group_name_H-M   'P 1'
_cell_length_a   16.24829575
_cell_length_b   16.23510919
_cell_length_c   27.13463350
_cell_angle_alpha   89.90318196
_cell_angle_beta   89.98207216
_cell_angle_gamma   90.05341616
_symmetry_Int_Tables_number   1
_chemical_formula_structural   La9Ce10Pr6Nd4Sm3(BiS2)32
_chemical_formula_sum   'La18 Ce20 Pr12 Nd8 Sm6 Bi64 S128'
_cell_volume   7157.90877373
_cell_formula_units_Z   2
loop_
 _symmetry_equiv_pos_site_id
 _symmetry_equiv_pos_as_xyz
  1  'x, y, z'
loop_
 _atom_type_symbol
 _atom_type_oxidation_number
  La3+  3.0
  Ce3+  3.0
  Pr3+  3.0
  Nd3+  3.0
  Sm3+  3.0
  Bi2+  2.0
  S2-  -2.0
loop_
 _atom_site_type_symbol
 _atom_site_label
 _atom_site_symmetry_multiplicity
 _atom_site_fract_x
 _atom_site_fract_y
 _atom_site_fract_z
 _atom_site_occupancy
  La3+  La0  1  0.12731774  0.50380189  0.92742043  1
  La3+  La1  1  0.10958412  0.24084713  0.91278110  1
  La3+  La2  1  0.73904806  0.37391131  0.10980169  1
  La3+  La3  1  0.87271572  0.75387630  0.93367557  1
  La3+  La4  1  0.49820400  0.12585516  0.06581984  1
  La3+  La5  1  0.49296353  0.62883441  0.58313266  1
  La3+  La6  1  0.11838440  0.75569004  0.91983694  1
  La3+  La7  1  0.62024729  0.75866202  0.90756403  1
  La3+  La8  1  0.49480965  0.36833921  0.57193068  1
  La3+  La9  1  0.87060699  0.49755682  0.93916168  1
  La3+  La10  1  0.48995873  0.38008630  0.07421052  1
  La3+  La11  1  0.00653006  0.86441340  0.08851711  1
  La3+  La12  1  0.87165569  0.00059742  0.42975626  1
  La3+  La13  1  0.37075160  -0.00213883  0.44061021  1
  La3+  La14  1  0.75727104  0.11573422  0.08495778  1
  La3+  La15  1  0.01002170  0.13537119  0.07974807  1
  La3+  La16  1  0.38278105  0.24797909  0.90811618  1
  La3+  La17  1  -0.01584054  0.36378275  0.58616081  1
  Ce3+  Ce18  1  0.86712056  0.25798165  0.43006016  1
  Ce3+  Ce19  1  0.37139408  0.49915295  0.44915987  1
  Ce3+  Ce20  1  0.11816887  -0.00341645  0.44616262  1
  Ce3+  Ce21  1  -0.00116743  0.62617991  0.05395032  1
  Ce3+  Ce22  1  0.23845012  0.87151333  0.55813885  1
  Ce3+  Ce23  1  0.74215245  0.62287867  0.55737869  1
  Ce3+  Ce24  1  0.86789059  0.74682597  0.44106931  1
  Ce3+  Ce25  1  0.74853157  0.87335462  0.06396468  1
  Ce3+  Ce26  1  0.74191922  0.37317041  0.55329330  1
  Ce3+  Ce27  1  0.24733184  0.87480325  0.05999806  1
  Ce3+  Ce28  1  0.74595113  0.62350950  0.05735156  1
  Ce3+  Ce29  1  0.87543748  0.00269066  0.95459375  1
  Ce3+  Ce30  1  0.36856285  0.00628058  0.93727408  1
  Ce3+  Ce31  1  0.61588413  0.74688484  0.44205221  1
  Ce3+  Ce32  1  0.61804945  -0.00020053  0.44490451  1
  Ce3+  Ce33  1  -0.00876947  0.87259965  0.56092375  1
  Ce3+  Ce34  1  0.11989637  0.00421416  0.94464785  1
  Ce3+  Ce35  1  0.11261020  0.50060467  0.44967211  1
  Ce3+  Ce36  1  0.74275086  0.12451560  0.54796311  1
  Ce3+  Ce37  1  0.23921937  0.62224220  0.56431175  1
  Pr3+  Pr38  1  0.36978283  0.74484908  0.44662497  1
  Pr3+  Pr39  1  0.62165616  0.49884280  0.94342364  1
  Pr3+  Pr40  1  0.86495592  0.49842020  0.44312508  1
  Pr3+  Pr41  1  0.24248851  0.37297543  0.56364040  1
  Pr3+  Pr42  1  0.11581169  0.25121135  0.44333176  1
  Pr3+  Pr43  1  0.11107849  0.73939799  0.42915786  1
  Pr3+  Pr44  1  0.62721250  0.00531310  0.93482123  1
  Pr3+  Pr45  1  0.00116401  0.37783578  0.06202708  1
  Pr3+  Pr46  1  0.49132843  0.87515176  0.56592752  1
  Pr3+  Pr47  1  0.49710278  0.87630463  0.05159387  1
  Pr3+  Pr48  1  0.25233159  0.37751176  0.04902751  1
  Pr3+  Pr49  1  0.36892376  0.25136047  0.43712093  1
  Nd3+  Nd50  1  0.37832388  0.50126115  0.92977257  1
  Nd3+  Nd51  1  0.24803048  0.63117348  0.04958861  1
  Nd3+  Nd52  1  0.62427144  0.25124337  0.95002287  1
  Nd3+  Nd53  1  -0.00938266  0.63007853  0.57475977  1
  Nd3+  Nd54  1  0.49340435  0.12213037  0.56479827  1
  Nd3+  Nd55  1  0.60526115  0.50663158  0.42047080  1
  Nd3+  Nd56  1  0.37256827  0.75749737  0.92752099  1
  Nd3+  Nd57  1  -0.01177100  0.12159608  0.56078734  1
  Sm3+  Sm58  1  0.49812685  0.62916767  0.05176619  1
  Sm3+  Sm59  1  0.61060151  0.24941622  0.42771186  1
  Sm3+  Sm60  1  0.74348192  0.87317106  0.55467974  1
  Sm3+  Sm61  1  0.87243041  0.25004090  0.95478017  1
  Sm3+  Sm62  1  0.24610417  0.13026998  0.05387553  1
  Sm3+  Sm63  1  0.24144567  0.12467975  0.56068437  1
  Bi2+  Bi64  1  0.00878039  0.12496909  0.29923301  1
  Bi2+  Bi65  1  -0.01497351  0.10343244  0.80134964  1
  Bi2+  Bi66  1  0.04659317  0.38640754  0.29875961  1
  Bi2+  Bi67  1  -0.00373585  0.34072527  0.78503347  1
  Bi2+  Bi68  1  -0.00179197  0.62042962  0.29082729  1
  Bi2+  Bi69  1  0.00829045  0.60782851  0.79446441  1
  Bi2+  Bi70  1  0.01591164  0.87744338  0.30091340  1
  Bi2+  Bi71  1  -0.00516406  0.88815667  0.78649532  1
  Bi2+  Bi72  1  0.26499007  0.13237505  0.27164934  1
  Bi2+  Bi73  1  0.26530409  0.02711949  0.78281776  1
  Bi2+  Bi74  1  0.24278683  0.39006730  0.29357690  1
  Bi2+  Bi75  1  0.24327441  0.42163186  0.79865262  1
  Bi2+  Bi76  1  0.24075406  0.58586209  0.28685328  1
  Bi2+  Bi77  1  0.25619794  0.67938104  0.77268051  1
  Bi2+  Bi78  1  0.27109780  0.85452334  0.27197632  1
  Bi2+  Bi79  1  0.25545457  0.85137480  0.82613837  1
  Bi2+  Bi80  1  0.45535090  0.10338642  0.29489363  1
  Bi2+  Bi81  1  0.51727788  0.12213539  0.79110950  1
  Bi2+  Bi82  1  0.43200211  0.37139916  0.28713767  1
  Bi2+  Bi83  1  0.54590785  0.36761593  0.78504309  1
  Bi2+  Bi84  1  0.44403966  0.63652465  0.30114372  1
  Bi2+  Bi85  1  0.54518825  0.64038182  0.78855836  1
  Bi2+  Bi86  1  0.52654791  0.81658445  0.29242701  1
  Bi2+  Bi87  1  0.51809447  0.91727956  0.78683044  1
  Bi2+  Bi88  1  0.68419782  0.10466464  0.28253109  1
  Bi2+  Bi89  1  0.70658175  0.11742261  0.81486620  1
  Bi2+  Bi90  1  0.78695098  0.37009601  0.29426185  1
  Bi2+  Bi91  1  0.76430386  0.29441064  0.78006330  1
  Bi2+  Bi92  1  0.73805325  0.62581025  0.28815932  1
  Bi2+  Bi93  1  0.74256684  0.55917574  0.78140177  1
  Bi2+  Bi94  1  0.72573716  0.82519925  0.29295861  1
  Bi2+  Bi95  1  0.78484145  0.95141004  0.77376383  1
  Bi2+  Bi96  1  0.15502806  0.00362112  0.21303663  1
  Bi2+  Bi97  1  0.12615200  -0.00509545  0.70819073  1
  Bi2+  Bi98  1  0.16029621  0.28791409  0.19530749  1
  Bi2+  Bi99  1  0.13317471  0.24742819  0.70554598  1
  Bi2+  Bi100  1  0.08525840  0.49006377  0.20490717  1
  Bi2+  Bi101  1  0.16763670  0.51077628  0.70800749  1
  Bi2+  Bi102  1  0.12907137  0.69529872  0.21490414  1
  Bi2+  Bi103  1  0.12700462  0.79611736  0.72195798  1
  Bi2+  Bi104  1  0.35005789  -0.01152382  0.19927607  1
  Bi2+  Bi105  1  0.44375033  0.02189779  0.69307391  1
  Bi2+  Bi106  1  0.35568066  0.26048052  0.20148179  1
  Bi2+  Bi107  1  0.36991688  0.28011461  0.70599296  1
  Bi2+  Bi108  1  0.36390191  0.53176136  0.20352414  1
  Bi2+  Bi109  1  0.40701812  0.54516830  0.72474158  1
  Bi2+  Bi110  1  0.35884222  0.79654289  0.17956853  1
  Bi2+  Bi111  1  0.37911785  0.84099305  0.72125826  1
  Bi2+  Bi112  1  0.61226817  -0.04674507  0.22411134  1
  Bi2+  Bi113  1  0.63718567  0.01404587  0.70630034  1
  Bi2+  Bi114  1  0.60046812  0.25365874  0.22537686  1
  Bi2+  Bi115  1  0.63345367  0.23380685  0.70076825  1
  Bi2+  Bi116  1  0.61599554  0.52815892  0.21617454  1
  Bi2+  Bi117  1  0.67143330  0.42683174  0.70249519  1
  Bi2+  Bi118  1  0.62735308  0.72787510  0.20332701  1
  Bi2+  Bi119  1  0.64281830  0.74912040  0.69866507  1
  Bi2+  Bi120  1  0.83848562  -0.00553426  0.22482609  1
  Bi2+  Bi121  1  0.93519411  -0.02177872  0.68604710  1
  Bi2+  Bi122  1  0.90706777  0.23445042  0.22279659  1
  Bi2+  Bi123  1  0.87649114  0.15910768  0.71447201  1
  Bi2+  Bi124  1  0.89016550  0.55631748  0.20465238  1
  Bi2+  Bi125  1  0.86688071  0.45629711  0.71258127  1
  Bi2+  Bi126  1  0.82229814  0.74920337  0.19978455  1
  Bi2+  Bi127  1  0.87627732  0.72677677  0.69780085  1
  S2-  S128  1  -0.09829455  0.10326692  0.15827954  1
  S2-  S129  1  -0.00118350  0.20864257  0.64662785  1
  S2-  S130  1  0.01447436  0.28152861  0.14670323  1
  S2-  S131  1  0.04263941  0.39659934  0.68384362  1
  S2-  S132  1  0.02428925  0.70167614  0.13957668  1
  S2-  S133  1  -0.03398792  0.59418518  0.67636636  1
  S2-  S134  1  -0.06714642  0.87986883  0.18603265  1
  S2-  S135  1  0.01064299  0.77390908  0.64026219  1
  S2-  S136  1  0.16308519  0.13453461  0.14250262  1
  S2-  S137  1  0.25713590  0.16682400  0.65655284  1
  S2-  S138  1  0.34596403  0.40015325  0.13627402  1
  S2-  S139  1  0.23847765  0.37257886  0.66515848  1
  S2-  S140  1  0.26635804  0.65385279  0.14888818  1
  S2-  S141  1  0.27845569  0.61968426  0.66054818  1
  S2-  S142  1  0.15553661  0.87958815  0.14398653  1
  S2-  S143  1  0.24107536  0.87964566  0.65619962  1
  S2-  S144  1  0.48598213  0.16822576  0.16471511  1
  S2-  S145  1  0.49277539  0.23041606  0.64169960  1
  S2-  S146  1  0.58656854  0.38831838  0.16103291  1
  S2-  S147  1  0.43960301  0.42091094  0.66632320  1
  S2-  S148  1  0.49580579  0.59798766  0.15002235  1
  S2-  S149  1  0.55117290  0.60174781  0.67949840  1
  S2-  S150  1  0.48785371  0.90678870  0.15087745  1
  S2-  S151  1  0.49819655  0.78364960  0.65147471  1
  S2-  S152  1  0.71813873  0.21560693  0.16534157  1
  S2-  S153  1  0.74178679  0.12192806  0.64611215  1
  S2-  S154  1  0.84669766  0.38211379  0.19383743  1
  S2-  S155  1  0.82714184  0.35786053  0.63899766  1
  S2-  S156  1  0.74409476  0.54457074  0.14567940  1
  S2-  S157  1  0.75919468  0.63906144  0.65594089  1
  S2-  S158  1  0.72701254  0.96896469  0.14647851  1
  S2-  S159  1  0.75200663  0.84819905  0.65327766  1
  S2-  S160  1  0.09529819  0.00701963  0.34991356  1
  S2-  S161  1  0.11871527  0.08240011  0.85691295  1
  S2-  S162  1  0.10840852  0.23740359  0.34249529  1
  S2-  S163  1  0.15067510  0.27389837  0.81036759  1
  S2-  S164  1  0.11380108  0.59235672  0.36550774  1
  S2-  S165  1  0.07002517  0.45688672  0.83452516  1
  S2-  S166  1  0.14614641  0.81105254  0.33792952  1
  S2-  S167  1  0.14320517  0.63360911  0.84682670  1
  S2-  S168  1  0.33803817  0.02092479  0.34322950  1
  S2-  S169  1  0.37301801  0.09537911  0.85121449  1
  S2-  S170  1  0.47340264  0.24678260  0.35741840  1
  S2-  S171  1  0.35955415  0.31111457  0.80860983  1
  S2-  S172  1  0.45628103  0.49411134  0.36275259  1
  S2-  S173  1  0.36470452  0.52988059  0.83088357  1
  S2-  S174  1  0.37799232  0.78245453  0.34773805  1
  S2-  S175  1  0.47593316  0.74821161  0.84545132  1
  S2-  S176  1  0.57653110  0.02144720  0.35184264  1
  S2-  S177  1  0.64709275  -0.09176365  0.85076124  1
  S2-  S178  1  0.67521477  0.25173237  0.33268528  1
  S2-  S179  1  0.54394280  0.26017334  0.85962266  1
  S2-  S180  1  0.68540403  0.47449459  0.33192572  1
  S2-  S181  1  0.59993212  0.49343120  0.84245608  1
  S2-  S182  1  0.58858106  0.66022539  0.35960671  1
  S2-  S183  1  0.70119339  0.70583962  0.81960449  1
  S2-  S184  1  0.88309399  -0.01479604  0.32914860  1
  S2-  S185  1  0.88135659  -0.01448431  0.85502178  1
  S2-  S186  1  0.88351706  0.21839530  0.33369307  1
  S2-  S187  1  0.94570145  0.24163421  0.86429493  1
  S2-  S188  1  0.90903353  0.43650346  0.35196133  1
  S2-  S189  1  0.87567730  0.52669972  0.83916075  1
  S2-  S190  1  0.93960378  0.75158811  0.35208089  1
  S2-  S191  1  0.96745897  0.74918473  0.84783796  1
  S2-  S192  1  -0.00754764  0.12574415  0.45374419  1
  S2-  S193  1  -0.00463163  0.12645484  0.96849087  1
  S2-  S194  1  -0.00704032  0.37400548  0.46292542  1
  S2-  S195  1  -0.00147572  0.37618597  0.95515468  1
  S2-  S196  1  -0.01289429  0.62220368  0.46493298  1
  S2-  S197  1  -0.00247658  0.62342251  0.94994143  1
  S2-  S198  1  -0.00685596  0.87289155  0.45514501  1
  S2-  S199  1  -0.00103664  0.87878604  0.95308882  1
  S2-  S200  1  0.24287873  0.12581700  0.45342995  1
  S2-  S201  1  0.24785170  0.13351820  0.95070061  1
  S2-  S202  1  0.24284462  0.37597363  0.45413107  1
  S2-  S203  1  0.25289049  0.37460302  0.93963908  1
  S2-  S204  1  0.24589879  0.62147898  0.45851756  1
  S2-  S205  1  0.25596375  0.62955323  0.94465944  1
  S2-  S206  1  0.24341227  0.87180515  0.45252775  1
  S2-  S207  1  0.24713902  0.88011520  0.95175239  1
  S2-  S208  1  0.49333614  0.12381934  0.45966678  1
  S2-  S209  1  0.49928437  0.12485266  0.95707588  1
  S2-  S210  1  0.49612291  0.37404892  0.46181063  1
  S2-  S211  1  0.49402065  0.37658739  0.95802548  1
  S2-  S212  1  0.49316275  0.62308879  0.46963781  1
  S2-  S213  1  0.50021152  0.62913130  0.94725356  1
  S2-  S214  1  0.49435925  0.87255312  0.45753219  1
  S2-  S215  1  0.49609865  0.88346667  0.94627123  1
  S2-  S216  1  0.74191676  0.12632247  0.44193918  1
  S2-  S217  1  0.75004500  0.12776208  0.96429815  1
  S2-  S218  1  0.73442233  0.37609081  0.44778176  1
  S2-  S219  1  0.74831159  0.37097301  0.94408429  1
  S2-  S220  1  0.74047690  0.62158915  0.45061778  1
  S2-  S221  1  0.74401769  0.62914153  0.94873212  1
  S2-  S222  1  0.74346067  0.87401865  0.44803062  1
  S2-  S223  1  0.74914584  0.87569406  0.95659275  1
  S2-  S224  1  0.12438085  0.00138578  0.04718708  1
  S2-  S225  1  0.11657164  0.00111333  0.55329277  1
  S2-  S226  1  0.12853345  0.25710084  0.03540659  1
  S2-  S227  1  0.11943862  0.24761988  0.54936245  1
  S2-  S228  1  0.12728697  0.50306006  0.04154561  1
  S2-  S229  1  0.11238751  0.49754443  0.55777051  1
  S2-  S230  1  0.12462618  0.75217218  0.03254802  1
  S2-  S231  1  0.11989596  0.74567267  0.54101421  1
  S2-  S232  1  0.36761518  0.00338693  0.04564566  1
  S2-  S233  1  0.36518412  0.00054818  0.55059813  1
  S2-  S234  1  0.37138826  0.24774717  0.04486077  1
  S2-  S235  1  0.36353775  0.24641875  0.54373118  1
  S2-  S236  1  0.37314925  0.51080803  0.03637236  1
  S2-  S237  1  0.36746709  0.49976330  0.55409924  1
  S2-  S238  1  0.37457410  0.75178249  0.03545484  1
  S2-  S239  1  0.36453417  0.74887719  0.55333850  1
  S2-  S240  1  0.62169302  0.00138456  0.04357067  1
  S2-  S241  1  0.61833305  -0.00340956  0.55174515  1
  S2-  S242  1  0.62177745  0.25493106  0.05398533  1
  S2-  S243  1  0.62028337  0.24646824  0.53797585  1
  S2-  S244  1  0.61842933  0.50235392  0.04777314  1
  S2-  S245  1  0.61796114  0.49848053  0.55594966  1
  S2-  S246  1  0.62154438  0.75088627  0.04820137  1
  S2-  S247  1  0.62033870  0.75096998  0.54812430  1
  S2-  S248  1  0.88347324  -0.01159030  0.05690173  1
  S2-  S249  1  0.86589720  -0.00276489  0.54088374  1
  S2-  S250  1  0.86576064  0.25933405  0.05706724  1
  S2-  S251  1  0.86661824  0.24466848  0.53756824  1
  S2-  S252  1  0.87424713  0.49924347  0.04778513  1
  S2-  S253  1  0.86937938  0.50143555  0.55044171  1
  S2-  S254  1  0.87327348  0.74911944  0.04478300  1
  S2-  S255  1  0.86473381  0.75021744  0.54565448  1
