# generated using pymatgen
data_La9Ce10Pr6Nd4Sm3(BiS2)32
_symmetry_space_group_name_H-M   'P 1'
_cell_length_a   16.20042473
_cell_length_b   16.19508948
_cell_length_c   27.10738412
_cell_angle_alpha   89.75821146
_cell_angle_beta   89.90752958
_cell_angle_gamma   89.96907611
_symmetry_Int_Tables_number   1
_chemical_formula_structural   La9Ce10Pr6Nd4Sm3(BiS2)32
_chemical_formula_sum   'La18 Ce20 Pr12 Nd8 Sm6 Bi64 S128'
_cell_volume   7112.01834409
_cell_formula_units_Z   2
loop_
 _symmetry_equiv_pos_site_id
 _symmetry_equiv_pos_as_xyz
  1  'x, y, z'
loop_
 _atom_type_symbol
 _atom_type_oxidation_number
  La3+  3.0
  Ce3+  3.0
  Pr3+  3.0
  Nd3+  3.0
  Sm3+  3.0
  Bi2+  2.0
  S2-  -2.0
loop_
 _atom_site_type_symbol
 _atom_site_label
 _atom_site_symmetry_multiplicity
 _atom_site_fract_x
 _atom_site_fract_y
 _atom_site_fract_z
 _atom_site_occupancy
  La3+  La0  1  0.75189685  0.37108559  0.06764566  1
  La3+  La1  1  0.63438680  0.75057186  0.94355187  1
  La3+  La2  1  0.62582102  0.25530343  0.91513680  1
  La3+  La3  1  0.38880995  0.74978146  0.92704846  1
  La3+  La4  1  0.12573052  0.49524521  0.92138951  1
  La3+  La5  1  0.48577147  0.12126888  0.59185838  1
  La3+  La6  1  0.50980190  0.88238348  0.06689530  1
  La3+  La7  1  0.87045290  -0.01048874  0.43739393  1
  La3+  La8  1  0.24139576  0.86948772  0.57879747  1
  La3+  La9  1  0.49762223  0.62352588  0.07265714  1
  La3+  La10  1  0.24457781  0.36224289  0.56340129  1
  La3+  La11  1  0.24979662  0.13289008  0.11391927  1
  La3+  La12  1  0.63000621  0.50063223  0.93524683  1
  La3+  La13  1  0.62713068  0.74832805  0.39340227  1
  La3+  La14  1  0.87062193  0.49442001  0.43391039  1
  La3+  La15  1  -0.01551345  0.36065948  0.58052405  1
  La3+  La16  1  0.12719900  0.75671938  0.89838010  1
  La3+  La17  1  -0.00892095  0.61025131  0.58035886  1
  Ce3+  Ce18  1  0.11839809  0.49365476  0.44729490  1
  Ce3+  Ce19  1  0.12801953  0.24820418  0.93665909  1
  Ce3+  Ce20  1  0.00865601  0.12455893  0.06292252  1
  Ce3+  Ce21  1  0.88092658  0.50045960  0.94337674  1
  Ce3+  Ce22  1  0.61895064  0.24427233  0.42933705  1
  Ce3+  Ce23  1  0.49840074  0.61523268  0.56116961  1
  Ce3+  Ce24  1  0.75108311  0.12992364  0.05884537  1
  Ce3+  Ce25  1  0.62014877  0.49031429  0.43192104  1
  Ce3+  Ce26  1  0.01043198  0.37277676  0.05922866  1
  Ce3+  Ce27  1  0.74011433  0.61482851  0.55825592  1
  Ce3+  Ce28  1  0.24505401  0.61679561  0.56043852  1
  Ce3+  Ce29  1  0.25427751  0.62700543  0.04694490  1
  Ce3+  Ce30  1  0.00620169  0.62200353  0.05681195  1
  Ce3+  Ce31  1  0.24200013  0.11729791  0.55338069  1
  Ce3+  Ce32  1  0.76383038  0.61609324  0.08883259  1
  Ce3+  Ce33  1  0.88030349  -0.00233763  0.95118277  1
  Ce3+  Ce34  1  0.61598249  -0.01031637  0.44952384  1
  Ce3+  Ce35  1  -0.00776195  0.86194808  0.57446095  1
  Ce3+  Ce36  1  0.11865892  0.74376412  0.44905476  1
  Ce3+  Ce37  1  0.37629506  0.50155525  0.93818130  1
  Pr3+  Pr38  1  0.88037201  0.25031828  0.93925632  1
  Pr3+  Pr39  1  0.76378579  0.86406704  0.08214629  1
  Pr3+  Pr40  1  0.38014255  -0.00046989  0.93172948  1
  Pr3+  Pr41  1  0.25653213  0.87895239  0.05691555  1
  Pr3+  Pr42  1  0.74154004  0.11632991  0.55690427  1
  Pr3+  Pr43  1  0.00603457  0.87318388  0.06421209  1
  Pr3+  Pr44  1  0.63460468  0.00450049  0.93596225  1
  Pr3+  Pr45  1  0.12868536  0.00077237  0.93602337  1
  Pr3+  Pr46  1  0.11813213  0.25233475  0.42248118  1
  Pr3+  Pr47  1  0.49656093  0.36618675  0.56091198  1
  Pr3+  Pr48  1  0.74375495  0.86736332  0.56533810  1
  Pr3+  Pr49  1  0.37696178  0.74502599  0.44516137  1
  Nd3+  Nd50  1  0.50162509  0.37149565  0.05376958  1
  Nd3+  Nd51  1  0.12333140  -0.01821835  0.43109128  1
  Nd3+  Nd52  1  0.37049785  0.49378486  0.44179071  1
  Nd3+  Nd53  1  0.50531858  0.85428805  0.59139804  1
  Nd3+  Nd54  1  0.37216383  -0.00935161  0.45073221  1
  Nd3+  Nd55  1  0.37570237  0.25074956  0.93026734  1
  Nd3+  Nd56  1  0.37152955  0.24109582  0.43542604  1
  Nd3+  Nd57  1  0.88125089  0.74992029  0.93882822  1
  Sm3+  Sm58  1  0.87131028  0.24187554  0.43773205  1
  Sm3+  Sm59  1  0.49725212  0.12812292  0.04990404  1
  Sm3+  Sm60  1  -0.00426383  0.11836715  0.55077041  1
  Sm3+  Sm61  1  0.74188378  0.36371792  0.55479156  1
  Sm3+  Sm62  1  0.25454662  0.37002288  0.05485847  1
  Sm3+  Sm63  1  0.86728754  0.74242917  0.44731298  1
  Bi2+  Bi64  1  0.00274946  0.12932435  0.28511176  1
  Bi2+  Bi65  1  0.04346625  0.13655746  0.81918737  1
  Bi2+  Bi66  1  -0.02136686  0.46530735  0.30638790  1
  Bi2+  Bi67  1  -0.01154484  0.31787693  0.78562830  1
  Bi2+  Bi68  1  0.02992846  0.65316518  0.29549461  1
  Bi2+  Bi69  1  -0.01593765  0.62681883  0.78441630  1
  Bi2+  Bi70  1  0.01748468  0.86718463  0.28763119  1
  Bi2+  Bi71  1  -0.01361395  0.89720083  0.78225169  1
  Bi2+  Bi72  1  0.25911198  0.11663316  0.31711402  1
  Bi2+  Bi73  1  0.23151845  0.12768911  0.78091318  1
  Bi2+  Bi74  1  0.25750609  0.41699902  0.29476529  1
  Bi2+  Bi75  1  0.26282988  0.31719227  0.79636680  1
  Bi2+  Bi76  1  0.22527621  0.62909630  0.29456118  1
  Bi2+  Bi77  1  0.26766241  0.59103736  0.77475265  1
  Bi2+  Bi78  1  0.24929041  0.84153754  0.29059297  1
  Bi2+  Bi79  1  0.24740684  0.88454416  0.78132399  1
  Bi2+  Bi80  1  0.49978419  0.14415366  0.30647117  1
  Bi2+  Bi81  1  0.52378160  0.10528411  0.79652374  1
  Bi2+  Bi82  1  0.50183430  0.34239249  0.29019696  1
  Bi2+  Bi83  1  0.47081509  0.38535490  0.78638040  1
  Bi2+  Bi84  1  0.47742551  0.61938506  0.29143969  1
  Bi2+  Bi85  1  0.59611115  0.60718347  0.80111557  1
  Bi2+  Bi86  1  0.48263425  0.94902765  0.29569630  1
  Bi2+  Bi87  1  0.48531194  0.85794536  0.79141396  1
  Bi2+  Bi88  1  0.69557332  0.13692967  0.31642554  1
  Bi2+  Bi89  1  0.85332206  0.08892330  0.78369467  1
  Bi2+  Bi90  1  0.78001146  0.30215690  0.28121893  1
  Bi2+  Bi91  1  0.73519028  0.36572209  0.78150274  1
  Bi2+  Bi92  1  0.75118039  0.62325388  0.28548446  1
  Bi2+  Bi93  1  0.75478053  0.70978075  0.83150803  1
  Bi2+  Bi94  1  0.76324584  0.88290683  0.29682556  1
  Bi2+  Bi95  1  0.73487620  0.89019631  0.79478590  1
  Bi2+  Bi96  1  0.06837107  -0.04533338  0.18716158  1
  Bi2+  Bi97  1  0.08656539  0.03477999  0.71603171  1
  Bi2+  Bi98  1  0.09256112  0.36242212  0.23523666  1
  Bi2+  Bi99  1  0.11515976  0.23773133  0.70931066  1
  Bi2+  Bi100  1  0.12304181  0.54658776  0.20078006  1
  Bi2+  Bi101  1  0.12271634  0.49111250  0.71432198  1
  Bi2+  Bi102  1  0.14019204  0.77188336  0.20175107  1
  Bi2+  Bi103  1  0.13388765  0.75461747  0.69432817  1
  Bi2+  Bi104  1  0.37934446  -0.01212501  0.20238170  1
  Bi2+  Bi105  1  0.36590211  0.00632508  0.70202037  1
  Bi2+  Bi106  1  0.38239886  0.26028517  0.20376291  1
  Bi2+  Bi107  1  0.36028624  0.28001188  0.70015103  1
  Bi2+  Bi108  1  0.31481238  0.50873019  0.20271921  1
  Bi2+  Bi109  1  0.44237415  0.46621630  0.68227032  1
  Bi2+  Bi110  1  0.35318137  0.72673554  0.22299774  1
  Bi2+  Bi111  1  0.43620785  0.63997426  0.73495465  1
  Bi2+  Bi112  1  0.61413835  0.03222146  0.21994148  1
  Bi2+  Bi113  1  0.69680012  0.01391980  0.70760694  1
  Bi2+  Bi114  1  0.62436892  0.23562548  0.21749273  1
  Bi2+  Bi115  1  0.66532477  0.32176596  0.68206728  1
  Bi2+  Bi116  1  0.60176251  0.46272400  0.21577847  1
  Bi2+  Bi117  1  0.63790501  0.51232600  0.69165444  1
  Bi2+  Bi118  1  0.59191993  0.76921656  0.19057725  1
  Bi2+  Bi119  1  0.65557080  0.72304421  0.70108489  1
  Bi2+  Bi120  1  0.81354375  0.03692661  0.23429657  1
  Bi2+  Bi121  1  0.89479342  -0.01918079  0.68541104  1
  Bi2+  Bi122  1  0.88177566  0.20619332  0.19998082  1
  Bi2+  Bi123  1  0.86584168  0.23467913  0.70619093  1
  Bi2+  Bi124  1  0.88529572  0.47273325  0.20467671  1
  Bi2+  Bi125  1  0.80687812  0.54704388  0.77402520  1
  Bi2+  Bi126  1  0.92386774  0.74658632  0.21274807  1
  Bi2+  Bi127  1  0.85804861  0.79403261  0.71936112  1
  S2-  S128  1  0.07962159  0.11532699  0.15278849  1
  S2-  S129  1  -0.00447603  0.20829710  0.63642167  1
  S2-  S130  1  -0.01801315  0.34289775  0.15693970  1
  S2-  S131  1  0.00094262  0.48583933  0.65422951  1
  S2-  S132  1  -0.07684837  0.61113677  0.14454171  1
  S2-  S133  1  -0.01908976  0.73254749  0.65296104  1
  S2-  S134  1  -0.08955887  0.88074271  0.15095662  1
  S2-  S135  1  0.10265149  0.90563887  0.64557648  1
  S2-  S136  1  0.27034757  0.13461453  0.22270604  1
  S2-  S137  1  0.31184181  0.13898391  0.64304093  1
  S2-  S138  1  0.25758428  0.30446164  0.14728188  1
  S2-  S139  1  0.21044283  0.36985045  0.66276524  1
  S2-  S140  1  0.34204484  0.62798728  0.13335477  1
  S2-  S141  1  0.21074356  0.61084393  0.65745046  1
  S2-  S142  1  0.24804607  0.96321387  0.14659151  1
  S2-  S143  1  0.27992057  0.84152892  0.67901562  1
  S2-  S144  1  0.43008670  0.12447251  0.14212999  1
  S2-  S145  1  0.52066127  0.07449762  0.69040661  1
  S2-  S146  1  0.50191417  0.37062577  0.15435764  1
  S2-  S147  1  0.50450184  0.27019712  0.64602010  1
  S2-  S148  1  0.56034609  0.59912024  0.16861434  1
  S2-  S149  1  0.50361375  0.69864218  0.64851438  1
  S2-  S150  1  0.43515816  0.84136917  0.15618281  1
  S2-  S151  1  0.46907334  0.88570679  0.69369718  1
  S2-  S152  1  0.74242336  0.23501781  0.13783446  1
  S2-  S153  1  0.72491297  0.15283986  0.65504397  1
  S2-  S154  1  0.74507516  0.47283426  0.15348503  1
  S2-  S155  1  0.82747143  0.36121670  0.64149343  1
  S2-  S156  1  0.74602014  0.73585229  0.15784370  1
  S2-  S157  1  0.77117894  0.60689424  0.65576714  1
  S2-  S158  1  0.63895482  0.91763987  0.14660528  1
  S2-  S159  1  0.65664537  0.86646953  0.65285737  1
  S2-  S160  1  0.11598562  0.03365774  0.33301224  1
  S2-  S161  1  0.12169187  -0.08524371  0.84813758  1
  S2-  S162  1  0.12278147  0.22281921  0.31869130  1
  S2-  S163  1  0.12467009  0.34725817  0.85448648  1
  S2-  S164  1  0.12210538  0.41218443  0.36221378  1
  S2-  S165  1  0.12830107  0.54956336  0.82325330  1
  S2-  S166  1  0.13135009  0.83594838  0.36614150  1
  S2-  S167  1  0.16984303  0.73300519  0.79385573  1
  S2-  S168  1  0.33654219  -0.03463327  0.35243093  1
  S2-  S169  1  0.39035429  -0.00471637  0.82886560  1
  S2-  S170  1  0.33419653  0.27053954  0.33874288  1
  S2-  S171  1  0.46032953  0.24182427  0.84149422  1
  S2-  S172  1  0.39628121  0.50058450  0.34256453  1
  S2-  S173  1  0.37971199  0.50707595  0.84015364  1
  S2-  S174  1  0.45872378  0.74388587  0.35493694  1
  S2-  S175  1  0.34545992  0.78126822  0.82935975  1
  S2-  S176  1  0.62624842  -0.08024768  0.35949973  1
  S2-  S177  1  0.60023594  -0.03821430  0.83987873  1
  S2-  S178  1  0.61989188  0.36594789  0.35804307  1
  S2-  S179  1  0.65766041  0.16210838  0.83180415  1
  S2-  S180  1  0.61885090  0.58745732  0.34784012  1
  S2-  S181  1  0.61802668  0.40152306  0.85057238  1
  S2-  S182  1  0.64309146  0.76345746  0.28152527  1
  S2-  S183  1  0.53461049  0.73666486  0.86011182  1
  S2-  S184  1  0.89986791  -0.02660950  0.33844849  1
  S2-  S185  1  0.86785301  -0.03647821  0.85485982  1
  S2-  S186  1  0.90690800  0.24465559  0.34010079  1
  S2-  S187  1  0.84933277  0.28819296  0.84214284  1
  S2-  S188  1  0.81131543  0.50474287  0.33699956  1
  S2-  S189  1  0.92508783  0.50558860  0.84887102  1
  S2-  S190  1  0.80730192  0.74547833  0.35359691  1
  S2-  S191  1  0.97068426  0.74574580  0.85025915  1
  S2-  S192  1  -0.00291215  0.11824530  0.44625314  1
  S2-  S193  1  0.00314034  0.12408960  0.95483242  1
  S2-  S194  1  -0.00881118  0.36534966  0.45804904  1
  S2-  S195  1  0.00406869  0.37385220  0.95470844  1
  S2-  S196  1  -0.00636335  0.62030674  0.45460208  1
  S2-  S197  1  0.01000579  0.62624215  0.95168067  1
  S2-  S198  1  -0.00879447  0.86410263  0.46172448  1
  S2-  S199  1  0.00644142  0.87153017  0.95697013  1
  S2-  S200  1  0.24226505  0.11769066  0.44751986  1
  S2-  S201  1  0.25374115  0.12570585  0.93321236  1
  S2-  S202  1  0.24883754  0.36676773  0.45533287  1
  S2-  S203  1  0.25524251  0.37523151  0.95032418  1
  S2-  S204  1  0.24587922  0.61933564  0.45216298  1
  S2-  S205  1  0.24867910  0.63001544  0.93919608  1
  S2-  S206  1  0.24887715  0.86595996  0.46752401  1
  S2-  S207  1  0.25368400  0.87231462  0.94802210  1
  S2-  S208  1  0.49512677  0.11644315  0.44822112  1
  S2-  S209  1  0.50386482  0.12550578  0.94561411  1
  S2-  S210  1  0.49020288  0.36680770  0.45365342  1
  S2-  S211  1  0.49745653  0.37573030  0.94904125  1
  S2-  S212  1  0.49575479  0.61433974  0.45689156  1
  S2-  S213  1  0.50398862  0.61826349  0.95951077  1
  S2-  S214  1  0.49441729  0.86975909  0.46529713  1
  S2-  S215  1  0.50830166  0.88058239  0.95608664  1
  S2-  S216  1  0.74629993  0.11756889  0.44927531  1
  S2-  S217  1  0.75726346  0.12708093  0.95063792  1
  S2-  S218  1  0.75054340  0.36407648  0.45109748  1
  S2-  S219  1  0.75588695  0.37536271  0.95558488  1
  S2-  S220  1  0.74323421  0.62071604  0.45279915  1
  S2-  S221  1  0.75790395  0.62214723  0.95554493  1
  S2-  S222  1  0.74560316  0.86645162  0.45895623  1
  S2-  S223  1  0.75668448  0.87571778  0.96371365  1
  S2-  S224  1  0.12806399  -0.00017268  0.04231083  1
  S2-  S225  1  0.11733103  -0.00262293  0.53967768  1
  S2-  S226  1  0.13359816  0.24612537  0.04450025  1
  S2-  S227  1  0.11980215  0.24139493  0.53779518  1
  S2-  S228  1  0.13357306  0.49716029  0.04235085  1
  S2-  S229  1  0.11950779  0.49005258  0.54997798  1
  S2-  S230  1  0.13141737  0.74854493  0.05546294  1
  S2-  S231  1  0.11904986  0.73848574  0.55294420  1
  S2-  S232  1  0.37938068  0.00270397  0.03906194  1
  S2-  S233  1  0.37260781  -0.00941764  0.55794792  1
  S2-  S234  1  0.37597144  0.24932330  0.03710840  1
  S2-  S235  1  0.37113127  0.24016296  0.54130405  1
  S2-  S236  1  0.37568305  0.49341058  0.04368877  1
  S2-  S237  1  0.36822815  0.49155680  0.54882110  1
  S2-  S238  1  0.37978384  0.75398047  0.03636615  1
  S2-  S239  1  0.36993973  0.74172391  0.55394458  1
  S2-  S240  1  0.62717750  0.01338385  0.04276749  1
  S2-  S241  1  0.61134715  -0.00415066  0.55577163  1
  S2-  S242  1  0.62233433  0.24838857  0.03499049  1
  S2-  S243  1  0.61899066  0.24014209  0.53897567  1
  S2-  S244  1  0.62581427  0.49774836  0.04581185  1
  S2-  S245  1  0.62090594  0.48826175  0.54365069  1
  S2-  S246  1  0.62881724  0.74614953  0.05155036  1
  S2-  S247  1  0.62203897  0.74085715  0.54957411  1
  S2-  S248  1  0.87597162  0.00463071  0.05566999  1
  S2-  S249  1  0.87152341  -0.00613250  0.54686553  1
  S2-  S250  1  0.88521874  0.24881568  0.04546117  1
  S2-  S251  1  0.86602575  0.23746724  0.54007566  1
  S2-  S252  1  0.88270893  0.49310761  0.04677137  1
  S2-  S253  1  0.86653663  0.49111297  0.54285564  1
  S2-  S254  1  0.88289768  0.74435751  0.04541072  1
  S2-  S255  1  0.86498862  0.74003056  0.55081263  1
