# generated using pymatgen
data_La9Ce10Pr6Nd4Sm3(BiS2)32
_symmetry_space_group_name_H-M   'P 1'
_cell_length_a   16.17665865
_cell_length_b   16.20186136
_cell_length_c   27.17698033
_cell_angle_alpha   90.13394099
_cell_angle_beta   90.38402349
_cell_angle_gamma   89.91780358
_symmetry_Int_Tables_number   1
_chemical_formula_structural   La9Ce10Pr6Nd4Sm3(BiS2)32
_chemical_formula_sum   'La18 Ce20 Pr12 Nd8 Sm6 Bi64 S128'
_cell_volume   7122.68198438
_cell_formula_units_Z   2
loop_
 _symmetry_equiv_pos_site_id
 _symmetry_equiv_pos_as_xyz
  1  'x, y, z'
loop_
 _atom_type_symbol
 _atom_type_oxidation_number
  La3+  3.0
  Ce3+  3.0
  Pr3+  3.0
  Nd3+  3.0
  Sm3+  3.0
  Bi2+  2.0
  S2-  -2.0
loop_
 _atom_site_type_symbol
 _atom_site_label
 _atom_site_symmetry_multiplicity
 _atom_site_fract_x
 _atom_site_fract_y
 _atom_site_fract_z
 _atom_site_occupancy
  La3+  La0  1  0.72896755  0.12666820  0.57818066  1
  La3+  La1  1  0.25334353  0.36067874  0.58251757  1
  La3+  La2  1  0.38894403  0.50086424  0.92729844  1
  La3+  La3  1  0.61453779  0.24371698  0.42640086  1
  La3+  La4  1  0.36763922  0.49479921  0.38768111  1
  La3+  La5  1  0.74453544  0.86993247  0.57924014  1
  La3+  La6  1  0.40617689  0.76176117  0.87972129  1
  La3+  La7  1  -0.00453749  0.61295934  0.56693064  1
  La3+  La8  1  0.64091727  0.25047202  0.93183793  1
  La3+  La9  1  -0.00872529  0.36495703  0.57235100  1
  La3+  La10  1  0.73996668  0.61568381  0.57608919  1
  La3+  La11  1  0.11593574  0.24576973  0.44034693  1
  La3+  La12  1  0.48746771  0.62105021  0.57409072  1
  La3+  La13  1  0.35672159  0.24179301  0.42121091  1
  La3+  La14  1  0.86398060  -0.00429699  0.43839375  1
  La3+  La15  1  0.63876349  0.50206884  0.93558481  1
  La3+  La16  1  0.26999090  0.11770352  0.07664726  1
  La3+  La17  1  0.76082774  0.87363824  0.07736814  1
  Ce3+  Ce18  1  0.86219772  0.49271218  0.43814136  1
  Ce3+  Ce19  1  0.51043372  0.62479176  0.05636184  1
  Ce3+  Ce20  1  -0.01052090  0.86392067  0.57707255  1
  Ce3+  Ce21  1  0.86517009  0.24464217  0.44453776  1
  Ce3+  Ce22  1  0.88493584  -0.00331680  0.94408460  1
  Ce3+  Ce23  1  0.48876902  0.11996512  0.54712335  1
  Ce3+  Ce24  1  0.38240441  -0.00482703  0.94244912  1
  Ce3+  Ce25  1  0.26650147  0.37245688  0.06250849  1
  Ce3+  Ce26  1  0.48501361  0.36928334  0.54773133  1
  Ce3+  Ce27  1  0.50962914  0.87056013  0.05307554  1
  Ce3+  Ce28  1  0.75831089  0.12341790  0.06168173  1
  Ce3+  Ce29  1  0.24205757  0.11598397  0.55905000  1
  Ce3+  Ce30  1  0.76033476  0.62436315  0.06242995  1
  Ce3+  Ce31  1  0.00888701  0.62591886  0.05971017  1
  Ce3+  Ce32  1  0.73488792  0.36763319  0.55571380  1
  Ce3+  Ce33  1  0.12057864  0.49039453  0.44116094  1
  Ce3+  Ce34  1  0.13759143  0.24815621  0.94742142  1
  Ce3+  Ce35  1  -0.00958944  0.11852972  0.56834828  1
  Ce3+  Ce36  1  0.11335091  0.74167484  0.44258469  1
  Ce3+  Ce37  1  0.01278051  0.37369791  0.05581435  1
  Pr3+  Pr38  1  0.36933155  0.74081999  0.43609336  1
  Pr3+  Pr39  1  0.10938256  -0.01261984  0.43381652  1
  Pr3+  Pr40  1  0.13701718  -0.00054226  0.94343852  1
  Pr3+  Pr41  1  0.13576039  0.49883697  0.94258268  1
  Pr3+  Pr42  1  0.76215857  0.37471085  0.06969026  1
  Pr3+  Pr43  1  0.35961715  -0.00720539  0.42148503  1
  Pr3+  Pr44  1  0.26271104  0.62374373  0.05895270  1
  Pr3+  Pr45  1  0.61946475  -0.01140683  0.43253435  1
  Pr3+  Pr46  1  0.88589233  0.75242302  0.93623426  1
  Pr3+  Pr47  1  0.38795852  0.25135519  0.93175416  1
  Pr3+  Pr48  1  0.24338397  0.61835194  0.55622896  1
  Pr3+  Pr49  1  0.49667181  0.87488468  0.56833481  1
  Nd3+  Nd50  1  0.01008793  0.12351950  0.05983592  1
  Nd3+  Nd51  1  0.00817354  0.87358653  0.06897201  1
  Nd3+  Nd52  1  0.86352808  0.74114426  0.44534178  1
  Nd3+  Nd53  1  0.25566125  0.86874824  0.07215694  1
  Nd3+  Nd54  1  0.63645501  -0.00300440  0.93940179  1
  Nd3+  Nd55  1  0.14023520  0.75107525  0.93572141  1
  Nd3+  Nd56  1  0.24032030  0.87177719  0.55939719  1
  Nd3+  Nd57  1  0.51790551  0.37197648  0.06925428  1
  Sm3+  Sm58  1  0.51334735  0.12540228  0.05306251  1
  Sm3+  Sm59  1  0.88178764  0.24873336  0.94299023  1
  Sm3+  Sm60  1  0.88619667  0.50049985  0.94592829  1
  Sm3+  Sm61  1  0.64287881  0.75124610  0.93676137  1
  Sm3+  Sm62  1  0.61581940  0.74299978  0.44982417  1
  Sm3+  Sm63  1  0.61738455  0.49952017  0.43690686  1
  Bi2+  Bi64  1  -0.00500498  0.10997210  0.29122122  1
  Bi2+  Bi65  1  -0.04983863  0.11154665  0.78999600  1
  Bi2+  Bi66  1  -0.02753657  0.38811802  0.33380941  1
  Bi2+  Bi67  1  0.01209086  0.29058447  0.78377221  1
  Bi2+  Bi68  1  -0.05920432  0.56281427  0.28534890  1
  Bi2+  Bi69  1  0.01516263  0.65326587  0.79285992  1
  Bi2+  Bi70  1  0.08420961  0.90852706  0.28825028  1
  Bi2+  Bi71  1  0.00041740  0.83182823  0.83126730  1
  Bi2+  Bi72  1  0.24652134  0.10918918  0.29168263  1
  Bi2+  Bi73  1  0.23214793  0.10909076  0.79019947  1
  Bi2+  Bi74  1  0.24689721  0.36733042  0.28326181  1
  Bi2+  Bi75  1  0.22522316  0.36073762  0.78831320  1
  Bi2+  Bi76  1  0.13071204  0.61587926  0.29100578  1
  Bi2+  Bi77  1  0.21525799  0.61942156  0.79954227  1
  Bi2+  Bi78  1  0.32791275  0.80884828  0.30591227  1
  Bi2+  Bi79  1  0.24110045  0.90417317  0.78539286  1
  Bi2+  Bi80  1  0.56195068  0.05766075  0.27240380  1
  Bi2+  Bi81  1  0.41246093  0.17659963  0.80138998  1
  Bi2+  Bi82  1  0.50281049  0.39182206  0.27390930  1
  Bi2+  Bi83  1  0.48293296  0.37791720  0.78363332  1
  Bi2+  Bi84  1  0.53821601  0.64031005  0.28562563  1
  Bi2+  Bi85  1  0.51409598  0.61744060  0.78426750  1
  Bi2+  Bi86  1  0.50022018  0.90161718  0.32857577  1
  Bi2+  Bi87  1  0.48120281  0.99820711  0.77167777  1
  Bi2+  Bi88  1  0.72709634  0.13854915  0.30650937  1
  Bi2+  Bi89  1  0.69411725  0.12330300  0.81284235  1
  Bi2+  Bi90  1  0.72395443  0.40760342  0.28270246  1
  Bi2+  Bi91  1  0.75727259  0.38081534  0.79106100  1
  Bi2+  Bi92  1  0.76493753  0.66268925  0.30700542  1
  Bi2+  Bi93  1  0.75686476  0.59816645  0.78106079  1
  Bi2+  Bi94  1  0.77927984  0.88424850  0.27965672  1
  Bi2+  Bi95  1  0.82280739  0.86535350  0.79063786  1
  Bi2+  Bi96  1  0.14270412  0.00534355  0.19145969  1
  Bi2+  Bi97  1  0.13208504  0.00206063  0.65347867  1
  Bi2+  Bi98  1  0.06113891  0.28276263  0.25142349  1
  Bi2+  Bi99  1  0.10973918  0.17516546  0.70747954  1
  Bi2+  Bi100  1  0.08252019  0.47702234  0.21550947  1
  Bi2+  Bi101  1  0.10850491  0.52943781  0.71658792  1
  Bi2+  Bi102  1  0.19003223  0.76260242  0.22345235  1
  Bi2+  Bi103  1  0.10680361  0.79164641  0.72264108  1
  Bi2+  Bi104  1  0.38856998  -0.03450061  0.23870837  1
  Bi2+  Bi105  1  0.32807053  0.00125365  0.69600365  1
  Bi2+  Bi106  1  0.35337943  0.24823824  0.19440193  1
  Bi2+  Bi107  1  0.40926127  0.19106737  0.68518508  1
  Bi2+  Bi108  1  0.35896320  0.51607809  0.17786532  1
  Bi2+  Bi109  1  0.35107752  0.47005977  0.70316605  1
  Bi2+  Bi110  1  0.46161820  0.77812208  0.21878802  1
  Bi2+  Bi111  1  0.34906709  0.71047634  0.69649050  1
  Bi2+  Bi112  1  0.68869425  -0.01302987  0.18916493  1
  Bi2+  Bi113  1  0.64499627  0.05406574  0.71403776  1
  Bi2+  Bi114  1  0.61467296  0.21864955  0.19415316  1
  Bi2+  Bi115  1  0.62208983  0.32151704  0.71496180  1
  Bi2+  Bi116  1  0.66655544  0.56927193  0.20553707  1
  Bi2+  Bi117  1  0.67675892  0.50495872  0.69021876  1
  Bi2+  Bi118  1  0.65823426  0.79673182  0.20456751  1
  Bi2+  Bi119  1  0.60513774  0.79375465  0.71378445  1
  Bi2+  Bi120  1  0.89324853  0.00205766  0.21554138  1
  Bi2+  Bi121  1  0.98540786  -0.04763727  0.72386916  1
  Bi2+  Bi122  1  0.86441663  0.28902355  0.24923552  1
  Bi2+  Bi123  1  0.85003728  0.22407882  0.71329569  1
  Bi2+  Bi124  1  0.83405443  0.45997823  0.19234186  1
  Bi2+  Bi125  1  0.86233558  0.48224411  0.71318932  1
  Bi2+  Bi126  1  0.93182404  0.73032293  0.21034645  1
  Bi2+  Bi127  1  0.87111868  0.73357048  0.70710908  1
  S2-  S128  1  0.00117293  0.09405336  0.15811075  1
  S2-  S129  1  -0.01450691  0.23657281  0.64510833  1
  S2-  S130  1  -0.01647254  0.38408475  0.15167655  1
  S2-  S131  1  -0.00906477  0.49283899  0.64443693  1
  S2-  S132  1  0.03041087  0.64124672  0.15760545  1
  S2-  S133  1  0.00950811  0.72665558  0.64695339  1
  S2-  S134  1  0.12379068  0.85798674  0.14420249  1
  S2-  S135  1  -0.12715217  0.88125136  0.65212584  1
  S2-  S136  1  0.22252531  0.16274567  0.17204661  1
  S2-  S137  1  0.25908196  0.20762806  0.64284837  1
  S2-  S138  1  0.24797255  0.38125811  0.16093003  1
  S2-  S139  1  0.19179779  0.39274823  0.68212463  1
  S2-  S140  1  0.26689654  0.66660412  0.15897624  1
  S2-  S141  1  0.23277361  0.59348779  0.65732568  1
  S2-  S142  1  0.29848420  0.97442912  0.15031572  1
  S2-  S143  1  0.24539771  0.81684771  0.65498483  1
  S2-  S144  1  0.47625742  0.14574300  0.14884285  1
  S2-  S145  1  0.56078904  0.13190903  0.63727366  1
  S2-  S146  1  0.45581121  0.37777073  0.16463013  1
  S2-  S147  1  0.41900416  0.35084964  0.64015011  1
  S2-  S148  1  0.51311936  0.58848404  0.15293042  1
  S2-  S149  1  0.47293211  0.56284818  0.67672123  1
  S2-  S150  1  0.53547028  0.88899037  0.14982808  1
  S2-  S151  1  0.48327766  0.75867910  0.64502294  1
  S2-  S152  1  0.75577870  0.14577498  0.15912468  1
  S2-  S153  1  0.79814190  0.08285919  0.67014754  1
  S2-  S154  1  0.64990849  0.35088746  0.14486992  1
  S2-  S155  1  0.73245060  0.28274302  0.64121718  1
  S2-  S156  1  0.80377928  0.64782905  0.15695184  1
  S2-  S157  1  0.71803751  0.72546052  0.65744830  1
  S2-  S158  1  0.89423052  0.86535767  0.14735277  1
  S2-  S159  1  0.61649761  0.91265408  0.64960414  1
  S2-  S160  1  0.21542431  -0.01742761  0.35007322  1
  S2-  S161  1  0.13292347  0.00042355  0.84163385  1
  S2-  S162  1  0.19998748  0.24101038  0.35133511  1
  S2-  S163  1  0.14759811  0.24687924  0.84927684  1
  S2-  S164  1  0.19539669  0.48428628  0.35128331  1
  S2-  S165  1  0.14630339  0.47162562  0.84188535  1
  S2-  S166  1  0.10308830  0.76689241  0.34520486  1
  S2-  S167  1  0.23143760  0.76479331  0.85065473  1
  S2-  S168  1  0.37709043  0.11570279  0.34602791  1
  S2-  S169  1  0.37970997  -0.06614583  0.85095856  1
  S2-  S170  1  0.39230861  0.33769853  0.33721650  1
  S2-  S171  1  0.36249318  0.37066736  0.85634849  1
  S2-  S172  1  0.36077450  0.49480969  0.27223361  1
  S2-  S173  1  0.37345515  0.59799197  0.84140652  1
  S2-  S174  1  0.37354186  0.66088347  0.34635817  1
  S2-  S175  1  0.43237579  0.77167416  0.77029508  1
  S2-  S176  1  0.74370172  -0.01040540  0.35917693  1
  S2-  S177  1  0.61869983  -0.01824051  0.83912233  1
  S2-  S178  1  0.61663191  0.28123716  0.32651594  1
  S2-  S179  1  0.56065759  0.23252415  0.84130435  1
  S2-  S180  1  0.53426262  0.50726199  0.34791554  1
  S2-  S181  1  0.56433115  0.48347973  0.84430443  1
  S2-  S182  1  0.63079582  0.73959229  0.34984493  1
  S2-  S183  1  0.57044786  0.72633494  0.84733349  1
  S2-  S184  1  0.98323398  -0.01589287  0.36061588  1
  S2-  S185  1  0.84089651  0.02034133  0.84871453  1
  S2-  S186  1  0.86731905  0.17544076  0.35424265  1
  S2-  S187  1  0.78038388  0.25576633  0.86255445  1
  S2-  S188  1  0.74714350  0.51148503  0.36295929  1
  S2-  S189  1  0.83131360  0.50527909  0.85308558  1
  S2-  S190  1  0.86831633  0.77418593  0.34566028  1
  S2-  S191  1  0.77093944  0.76215068  0.85966922  1
  S2-  S192  1  -0.00828662  0.12312367  0.46058536  1
  S2-  S193  1  0.00764136  0.12637561  0.95172151  1
  S2-  S194  1  -0.01068242  0.37011522  0.46145177  1
  S2-  S195  1  0.00580351  0.37265934  0.94804398  1
  S2-  S196  1  -0.01020036  0.61424113  0.45379616  1
  S2-  S197  1  0.00977112  0.62443819  0.95003820  1
  S2-  S198  1  -0.01219080  0.86182132  0.46425762  1
  S2-  S199  1  0.01207167  0.87509806  0.96037559  1
  S2-  S200  1  0.23580082  0.11092234  0.45418255  1
  S2-  S201  1  0.26344431  0.12514890  0.95595223  1
  S2-  S202  1  0.24308122  0.37078156  0.45526496  1
  S2-  S203  1  0.25809805  0.37313624  0.95778204  1
  S2-  S204  1  0.24083581  0.61865007  0.45008697  1
  S2-  S205  1  0.25743822  0.62165995  0.95320837  1
  S2-  S206  1  0.24131292  0.86467332  0.45238941  1
  S2-  S207  1  0.25726206  0.87541443  0.96299511  1
  S2-  S208  1  0.49392312  0.11332232  0.44265987  1
  S2-  S209  1  0.50903961  0.11989467  0.94850364  1
  S2-  S210  1  0.49189431  0.37432131  0.44449804  1
  S2-  S211  1  0.51410237  0.37308419  0.95755474  1
  S2-  S212  1  0.49546683  0.62073032  0.45976123  1
  S2-  S213  1  0.51228418  0.62906107  0.95173098  1
  S2-  S214  1  0.49148514  0.86840269  0.45739564  1
  S2-  S215  1  0.51330514  0.87072900  0.94790098  1
  S2-  S216  1  0.73805436  0.12412731  0.45959887  1
  S2-  S217  1  0.76207472  0.12069052  0.95746653  1
  S2-  S218  1  0.73872434  0.36761739  0.45074368  1
  S2-  S219  1  0.76462033  0.37862446  0.96196571  1
  S2-  S220  1  0.73829893  0.62074621  0.46569583  1
  S2-  S221  1  0.76319465  0.62444586  0.95689104  1
  S2-  S222  1  0.74139763  0.86343451  0.46270536  1
  S2-  S223  1  0.76000850  0.87699403  0.96440162  1
  S2-  S224  1  0.13562330  0.00260713  0.04938888  1
  S2-  S225  1  0.11095457  -0.00790423  0.54220943  1
  S2-  S226  1  0.13682270  0.24670417  0.05360699  1
  S2-  S227  1  0.12044996  0.24296822  0.54746104  1
  S2-  S228  1  0.13545095  0.49844073  0.05069382  1
  S2-  S229  1  0.12436743  0.48635660  0.54762453  1
  S2-  S230  1  0.13364976  0.74445370  0.04227491  1
  S2-  S231  1  0.11918839  0.74444618  0.54648143  1
  S2-  S232  1  0.39249471  -0.00085417  0.04582445  1
  S2-  S233  1  0.36744557  -0.00725219  0.54267170  1
  S2-  S234  1  0.38910484  0.24885674  0.04279362  1
  S2-  S235  1  0.36585618  0.24023943  0.53170468  1
  S2-  S236  1  0.38860505  0.49683628  0.04278805  1
  S2-  S237  1  0.36610360  0.49519255  0.55266099  1
  S2-  S238  1  0.38578308  0.75053510  0.05717406  1
  S2-  S239  1  0.36425546  0.74796760  0.54347257  1
  S2-  S240  1  0.63466524  -0.00074680  0.04673449  1
  S2-  S241  1  0.61766407  -0.00250160  0.53887551  1
  S2-  S242  1  0.63664961  0.24582394  0.04030463  1
  S2-  S243  1  0.60897381  0.24870332  0.53496537  1
  S2-  S244  1  0.63774096  0.50020693  0.04589808  1
  S2-  S245  1  0.61208350  0.49375494  0.54804701  1
  S2-  S246  1  0.63787869  0.74874811  0.04703260  1
  S2-  S247  1  0.61775165  0.74405921  0.55097502  1
  S2-  S248  1  0.88392440  0.00109183  0.04996145  1
  S2-  S249  1  0.86634436  -0.00127351  0.54889059  1
  S2-  S250  1  0.88493397  0.24906748  0.04851680  1
  S2-  S251  1  0.86129579  0.24296797  0.54674803  1
  S2-  S252  1  0.88679061  0.49954481  0.04974310  1
  S2-  S253  1  0.85936546  0.49032022  0.54652705  1
  S2-  S254  1  0.88474991  0.74817785  0.04392092  1
  S2-  S255  1  0.86515616  0.73561172  0.55094053  1
