# generated using pymatgen
data_La9Ce10Pr6Nd4Sm3(BiS2)32
_symmetry_space_group_name_H-M   'P 1'
_cell_length_a   16.11991032
_cell_length_b   16.14916588
_cell_length_c   27.15039485
_cell_angle_alpha   90.07668404
_cell_angle_beta   89.73146314
_cell_angle_gamma   89.98267476
_symmetry_Int_Tables_number   1
_chemical_formula_structural   La9Ce10Pr6Nd4Sm3(BiS2)32
_chemical_formula_sum   'La18 Ce20 Pr12 Nd8 Sm6 Bi64 S128'
_cell_volume   7067.79081377
_cell_formula_units_Z   2
loop_
 _symmetry_equiv_pos_site_id
 _symmetry_equiv_pos_as_xyz
  1  'x, y, z'
loop_
 _atom_type_symbol
 _atom_type_oxidation_number
  La3+  3.0
  Ce3+  3.0
  Pr3+  3.0
  Nd3+  3.0
  Sm3+  3.0
  Bi2+  2.0
  S2-  -2.0
loop_
 _atom_site_type_symbol
 _atom_site_label
 _atom_site_symmetry_multiplicity
 _atom_site_fract_x
 _atom_site_fract_y
 _atom_site_fract_z
 _atom_site_occupancy
  La3+  La0  1  0.15473987  0.75317744  0.42448685  1
  La3+  La1  1  0.09428052  0.24498569  0.93371199  1
  La3+  La2  1  0.35119211  0.00005796  0.90944824  1
  La3+  La3  1  0.89909532  0.50176732  0.39631502  1
  La3+  La4  1  0.27561465  0.63821483  0.57463688  1
  La3+  La5  1  0.27052433  0.38624771  0.58558713  1
  La3+  La6  1  0.21679359  0.61836604  0.06525147  1
  La3+  La7  1  0.34701575  0.50150172  0.90608322  1
  La3+  La8  1  0.34040466  0.25123285  0.91671756  1
  La3+  La9  1  0.71440206  0.62624967  0.07086346  1
  La3+  La10  1  0.71134618  0.36818519  0.07435994  1
  La3+  La11  1  0.52912522  0.89031832  0.57215622  1
  La3+  La12  1  -0.03755595  0.62889054  0.08242333  1
  La3+  La13  1  0.60364348  0.48884968  0.92562404  1
  La3+  La14  1  0.64690270  0.01529417  0.42333996  1
  La3+  La15  1  0.22007482  0.11978422  0.07397905  1
  La3+  La16  1  0.83930396  0.74707813  0.92597635  1
  La3+  La17  1  0.27543149  0.88999929  0.57613153  1
  Ce3+  Ce18  1  0.02406017  0.38668671  0.55130604  1
  Ce3+  Ce19  1  0.59315155  -0.00128856  0.93483982  1
  Ce3+  Ce20  1  0.84475279  0.49814507  0.95005341  1
  Ce3+  Ce21  1  0.46915280  0.36955702  0.05547870  1
  Ce3+  Ce22  1  0.77110030  0.88731461  0.55828236  1
  Ce3+  Ce23  1  0.39893224  0.76202879  0.44436496  1
  Ce3+  Ce24  1  0.71747708  0.11915427  0.05424756  1
  Ce3+  Ce25  1  -0.03541664  0.87098168  0.06024568  1
  Ce3+  Ce26  1  0.15910936  0.01200832  0.43639850  1
  Ce3+  Ce27  1  0.84496064  -0.00470305  0.93449735  1
  Ce3+  Ce28  1  0.52225667  0.63308732  0.56418672  1
  Ce3+  Ce29  1  0.02371110  0.13711955  0.55693058  1
  Ce3+  Ce30  1  0.02524005  0.88656811  0.54978971  1
  Ce3+  Ce31  1  -0.03035722  0.11943251  0.06868022  1
  Ce3+  Ce32  1  0.65223419  0.75848802  0.44331690  1
  Ce3+  Ce33  1  0.46636355  0.87529159  0.05091780  1
  Ce3+  Ce34  1  0.39986181  0.26295805  0.45011914  1
  Ce3+  Ce35  1  0.47208405  0.61807265  0.06037756  1
  Ce3+  Ce36  1  0.89835539  0.26485965  0.44417955  1
  Ce3+  Ce37  1  0.90757423  0.75526616  0.42974060  1
  Pr3+  Pr38  1  0.22036012  0.87281624  0.05762159  1
  Pr3+  Pr39  1  0.02343834  0.63570652  0.55813000  1
  Pr3+  Pr40  1  0.15115409  0.25472794  0.43278037  1
  Pr3+  Pr41  1  0.59015222  0.74013388  0.93270465  1
  Pr3+  Pr42  1  0.40018261  0.50759441  0.43930382  1
  Pr3+  Pr43  1  0.08677445  0.73978278  0.93387026  1
  Pr3+  Pr44  1  -0.03625351  0.36990676  0.07257956  1
  Pr3+  Pr45  1  0.84927332  0.24638319  0.93772186  1
  Pr3+  Pr46  1  0.09410242  0.49750937  0.93783727  1
  Pr3+  Pr47  1  0.89737249  0.01128130  0.43115695  1
  Pr3+  Pr48  1  0.77688291  0.63440208  0.56142125  1
  Pr3+  Pr49  1  0.09600907  -0.00478929  0.94136829  1
  Nd3+  Nd50  1  0.27310171  0.14032603  0.57370476  1
  Nd3+  Nd51  1  0.65022363  0.50966006  0.43630798  1
  Nd3+  Nd52  1  0.15823321  0.50791103  0.43467450  1
  Nd3+  Nd53  1  0.64926514  0.26493866  0.44162627  1
  Nd3+  Nd54  1  0.40122415  0.01377561  0.43798794  1
  Nd3+  Nd55  1  0.34045823  0.74359206  0.94147142  1
  Nd3+  Nd56  1  0.59374289  0.24690839  0.93649548  1
  Nd3+  Nd57  1  0.21830773  0.37062965  0.05927777  1
  Sm3+  Sm58  1  0.76926946  0.38815463  0.56400933  1
  Sm3+  Sm59  1  0.71527518  0.87364262  0.05200920  1
  Sm3+  Sm60  1  0.52589130  0.38823524  0.57461512  1
  Sm3+  Sm61  1  0.46338806  0.12053942  0.05336205  1
  Sm3+  Sm62  1  0.77322130  0.13580335  0.55550748  1
  Sm3+  Sm63  1  0.52574731  0.13696049  0.56371752  1
  Bi2+  Bi64  1  -0.04746249  0.10628833  0.31139320  1
  Bi2+  Bi65  1  -0.02103110  0.10548896  0.80384856  1
  Bi2+  Bi66  1  0.01618212  0.31164950  0.29301844  1
  Bi2+  Bi67  1  0.00906609  0.42383758  0.80160336  1
  Bi2+  Bi68  1  0.02223202  0.65647265  0.28586852  1
  Bi2+  Bi69  1  -0.02076863  0.60428292  0.76518566  1
  Bi2+  Bi70  1  -0.02927558  0.91174785  0.28600305  1
  Bi2+  Bi71  1  -0.02949991  0.87172688  0.73446641  1
  Bi2+  Bi72  1  0.25408817  0.14905897  0.30734382  1
  Bi2+  Bi73  1  0.19790075  0.09611268  0.81088096  1
  Bi2+  Bi74  1  0.35458029  0.39833554  0.27718689  1
  Bi2+  Bi75  1  0.31919971  0.26361131  0.76947527  1
  Bi2+  Bi76  1  0.28200108  0.62125051  0.30117320  1
  Bi2+  Bi77  1  0.25529063  0.61577915  0.78861715  1
  Bi2+  Bi78  1  0.26331411  0.88060917  0.28607358  1
  Bi2+  Bi79  1  0.18215936  0.85879417  0.77854154  1
  Bi2+  Bi80  1  0.52006403  0.13466439  0.29379573  1
  Bi2+  Bi81  1  0.59321815  0.17099113  0.80207261  1
  Bi2+  Bi82  1  0.52609571  0.41035484  0.33806818  1
  Bi2+  Bi83  1  0.53371937  0.41760041  0.78083180  1
  Bi2+  Bi84  1  0.48372283  0.60625829  0.31952648  1
  Bi2+  Bi85  1  0.51472177  0.69125620  0.79414173  1
  Bi2+  Bi86  1  0.55271840  0.87707331  0.28530745  1
  Bi2+  Bi87  1  0.55450894  0.88820665  0.77889041  1
  Bi2+  Bi88  1  0.78106253  0.07898957  0.25280721  1
  Bi2+  Bi89  1  0.78709605  0.14903614  0.82142908  1
  Bi2+  Bi90  1  0.69649691  0.32152718  0.30852895  1
  Bi2+  Bi91  1  0.81180641  0.39427275  0.78860025  1
  Bi2+  Bi92  1  0.74211780  0.63135068  0.28984698  1
  Bi2+  Bi93  1  0.70732177  0.60025999  0.78454111  1
  Bi2+  Bi94  1  0.76910851  0.88020485  0.28329320  1
  Bi2+  Bi95  1  0.73917896  0.95934113  0.79141785  1
  Bi2+  Bi96  1  0.12283764  -0.05027233  0.21526207  1
  Bi2+  Bi97  1  0.11792911  0.01169137  0.71088595  1
  Bi2+  Bi98  1  0.17729345  0.24257353  0.20869732  1
  Bi2+  Bi99  1  0.10797726  0.21965665  0.70722612  1
  Bi2+  Bi100  1  0.14885756  0.48622238  0.20831065  1
  Bi2+  Bi101  1  0.15329073  0.43971961  0.72480483  1
  Bi2+  Bi102  1  0.21274192  0.77039554  0.19806146  1
  Bi2+  Bi103  1  0.09646792  0.70322183  0.69592918  1
  Bi2+  Bi104  1  0.37114685  0.02550382  0.19957645  1
  Bi2+  Bi105  1  0.37048656  0.00686107  0.71908260  1
  Bi2+  Bi106  1  0.49357537  0.29035547  0.22950428  1
  Bi2+  Bi107  1  0.50322147  0.26389309  0.71118993  1
  Bi2+  Bi108  1  0.40899899  0.55100804  0.21199179  1
  Bi2+  Bi109  1  0.37495289  0.51134883  0.71677613  1
  Bi2+  Bi110  1  0.41144560  0.76518255  0.23326406  1
  Bi2+  Bi111  1  0.36544790  0.76155247  0.71452823  1
  Bi2+  Bi112  1  0.59846900  -0.01565615  0.18309232  1
  Bi2+  Bi113  1  0.61589549  0.03166950  0.70073776  1
  Bi2+  Bi114  1  0.68419851  0.26986013  0.20196387  1
  Bi2+  Bi115  1  0.72224080  0.25126194  0.72552997  1
  Bi2+  Bi116  1  0.60263498  0.52804638  0.23862695  1
  Bi2+  Bi117  1  0.57822194  0.55488981  0.68957828  1
  Bi2+  Bi118  1  0.60850253  0.73777911  0.20904668  1
  Bi2+  Bi119  1  0.61248487  0.75715719  0.69653272  1
  Bi2+  Bi120  1  0.93395803  -0.01594970  0.17804874  1
  Bi2+  Bi121  1  0.86812889  0.03661400  0.71477397  1
  Bi2+  Bi122  1  0.93415320  0.17534891  0.20446925  1
  Bi2+  Bi123  1  0.93240670  0.30942614  0.71273762  1
  Bi2+  Bi124  1  0.90454799  0.48230914  0.20783142  1
  Bi2+  Bi125  1  0.76993915  0.51098341  0.68814971  1
  Bi2+  Bi126  1  0.83638563  0.75202402  0.20557258  1
  Bi2+  Bi127  1  0.84409449  0.74997010  0.78539638  1
  S2-  S128  1  0.08307397  0.14851786  0.14356589  1
  S2-  S129  1  -0.00097682  0.10724243  0.65302276  1
  S2-  S130  1  0.03037186  0.38526661  0.16803535  1
  S2-  S131  1  0.04262408  0.39271374  0.64940842  1
  S2-  S132  1  0.03566396  0.59202569  0.17736446  1
  S2-  S133  1  -0.02820288  0.62668767  0.65681817  1
  S2-  S134  1  -0.03622051  0.78290638  0.14365813  1
  S2-  S135  1  0.04507102  0.85501644  0.64509483  1
  S2-  S136  1  0.30164198  0.16715687  0.16518017  1
  S2-  S137  1  0.25770634  0.02165544  0.64988629  1
  S2-  S138  1  0.25098583  0.37324150  0.15945212  1
  S2-  S139  1  0.24590013  0.25131138  0.65540218  1
  S2-  S140  1  0.25449666  0.60855170  0.16453590  1
  S2-  S141  1  0.23064547  0.52067268  0.65335775  1
  S2-  S142  1  0.24164054  0.97522601  0.13899981  1
  S2-  S143  1  0.24546576  0.76487045  0.64902778  1
  S2-  S144  1  0.50048453  0.10517432  0.15193738  1
  S2-  S145  1  0.47053632  0.11770930  0.65930100  1
  S2-  S146  1  0.56548900  0.36232412  0.14031792  1
  S2-  S147  1  0.41411485  0.39083776  0.65397778  1
  S2-  S148  1  0.57977553  0.61599836  0.13937041  1
  S2-  S149  1  0.42106023  0.63979658  0.64589758  1
  S2-  S150  1  0.45691940  0.89383917  0.14950611  1
  S2-  S151  1  0.41886381  0.89186648  0.65604935  1
  S2-  S152  1  0.71533565  0.10630039  0.15261736  1
  S2-  S153  1  0.74142515  0.12822010  0.65298678  1
  S2-  S154  1  0.81742633  0.36882418  0.15767100  1
  S2-  S155  1  0.65758770  0.39836433  0.64151941  1
  S2-  S156  1  0.82145247  0.60798419  0.15338352  1
  S2-  S157  1  0.75373339  0.68362495  0.65900640  1
  S2-  S158  1  0.71036368  0.85048784  0.15066744  1
  S2-  S159  1  0.66880319  0.90209785  0.64024039  1
  S2-  S160  1  0.11561789  0.10668242  0.35431397  1
  S2-  S161  1  0.08049332  -0.03238529  0.84152828  1
  S2-  S162  1  0.16484259  0.30301660  0.33210993  1
  S2-  S163  1  0.19202352  0.25192619  0.84475811  1
  S2-  S164  1  0.13809948  0.61447581  0.35258039  1
  S2-  S165  1  0.19585762  0.50448589  0.85136304  1
  S2-  S166  1  0.03408192  0.78600649  0.34773639  1
  S2-  S167  1  0.16180469  0.73236591  0.84057057  1
  S2-  S168  1  0.28392834  0.00370674  0.36184663  1
  S2-  S169  1  0.31866296  -0.06553982  0.81310110  1
  S2-  S170  1  0.39419082  0.20692998  0.35586707  1
  S2-  S171  1  0.35980685  0.13758637  0.83688966  1
  S2-  S172  1  0.28933606  0.48019664  0.36026033  1
  S2-  S173  1  0.37191104  0.36573592  0.83547595  1
  S2-  S174  1  0.30150616  0.76568804  0.36154297  1
  S2-  S175  1  0.36984550  0.71537579  0.84401694  1
  S2-  S176  1  0.51243528  -0.00412037  0.35537927  1
  S2-  S177  1  0.52391850  0.00992986  0.84674193  1
  S2-  S178  1  0.64311692  0.17280345  0.35461599  1
  S2-  S179  1  0.60995869  0.34307306  0.85369264  1
  S2-  S180  1  0.74169182  0.49697965  0.34916602  1
  S2-  S181  1  0.49925961  0.54082544  0.84851515  1
  S2-  S182  1  0.66290278  0.76853681  0.34446615  1
  S2-  S183  1  0.70140538  0.73036553  0.85330658  1
  S2-  S184  1  0.77763022  0.00225339  0.35366970  1
  S2-  S185  1  0.85472116  -0.10778414  0.85534749  1
  S2-  S186  1  0.87269856  0.31884840  0.35202267  1
  S2-  S187  1  0.96789070  0.24222345  0.85914981  1
  S2-  S188  1  0.98588064  0.48340985  0.30338448  1
  S2-  S189  1  0.76063374  0.50425542  0.86400208  1
  S2-  S190  1  0.88398683  0.65912159  0.34637103  1
  S2-  S191  1  0.95811748  0.68954914  0.85717671  1
  S2-  S192  1  0.01873446  0.13740641  0.45456065  1
  S2-  S193  1  -0.03196409  0.11590232  0.95987585  1
  S2-  S194  1  0.02656249  0.38735178  0.44453241  1
  S2-  S195  1  -0.03062999  0.37500361  0.96073518  1
  S2-  S196  1  0.01784786  0.62345723  0.45156105  1
  S2-  S197  1  -0.03064482  0.61673879  0.96764335  1
  S2-  S198  1  0.02680544  0.89193345  0.44667778  1
  S2-  S199  1  -0.02906744  0.86964534  0.95511487  1
  S2-  S200  1  0.27659172  0.13924283  0.46387705  1
  S2-  S201  1  0.22242501  0.11776403  0.95034840  1
  S2-  S202  1  0.27362518  0.37945892  0.46487575  1
  S2-  S203  1  0.22198217  0.37660164  0.95302748  1
  S2-  S204  1  0.28015024  0.63346430  0.46263948  1
  S2-  S205  1  0.22045330  0.61967243  0.95675908  1
  S2-  S206  1  0.27853646  0.88607910  0.46552813  1
  S2-  S207  1  0.22078696  0.86957343  0.94883521  1
  S2-  S208  1  0.52461350  0.14003345  0.46017073  1
  S2-  S209  1  0.46898850  0.12552804  0.94932433  1
  S2-  S210  1  0.52651669  0.38620445  0.46713737  1
  S2-  S211  1  0.46598227  0.37087692  0.95134060  1
  S2-  S212  1  0.52587330  0.63452370  0.45507327  1
  S2-  S213  1  0.46484306  0.61846141  0.95663584  1
  S2-  S214  1  0.52772828  0.88247605  0.45910643  1
  S2-  S215  1  0.46762284  0.86882075  0.94330390  1
  S2-  S216  1  0.77643005  0.14122589  0.45242898  1
  S2-  S217  1  0.71956073  0.12167497  0.94792284  1
  S2-  S218  1  0.77361268  0.38791166  0.46016204  1
  S2-  S219  1  0.72524729  0.36513248  0.96285707  1
  S2-  S220  1  0.77521338  0.63197346  0.45411862  1
  S2-  S221  1  0.71712818  0.62201318  0.96234879  1
  S2-  S222  1  0.77888976  0.87953209  0.45321423  1
  S2-  S223  1  0.71153825  0.87445393  0.94909786  1
  S2-  S224  1  0.09121259  -0.00572808  0.04729539  1
  S2-  S225  1  0.14638578  0.01365395  0.54383623  1
  S2-  S226  1  0.09285415  0.24995728  0.04239454  1
  S2-  S227  1  0.14666319  0.25970244  0.54384844  1
  S2-  S228  1  0.09105789  0.49501915  0.05011015  1
  S2-  S229  1  0.14774061  0.51005452  0.54234489  1
  S2-  S230  1  0.09702021  0.74705668  0.04474784  1
  S2-  S231  1  0.14541289  0.75967417  0.53698062  1
  S2-  S232  1  0.34583091  -0.00143745  0.03222732  1
  S2-  S233  1  0.40348694  0.01680743  0.54598351  1
  S2-  S234  1  0.34395781  0.24593387  0.04373336  1
  S2-  S235  1  0.40299816  0.26014198  0.55505517  1
  S2-  S236  1  0.34681399  0.49446267  0.05365163  1
  S2-  S237  1  0.40101258  0.50709222  0.54765363  1
  S2-  S238  1  0.34515901  0.74536091  0.04974475  1
  S2-  S239  1  0.40399490  0.76420541  0.54770183  1
  S2-  S240  1  0.59090145  -0.00170694  0.04095504  1
  S2-  S241  1  0.65049669  0.01680129  0.53730307  1
  S2-  S242  1  0.59135729  0.23891106  0.04175954  1
  S2-  S243  1  0.64897415  0.25861214  0.54861744  1
  S2-  S244  1  0.59280559  0.49342522  0.03756309  1
  S2-  S245  1  0.64855680  0.51396164  0.54312087  1
  S2-  S246  1  0.58976054  0.75250395  0.04063701  1
  S2-  S247  1  0.64920031  0.75765947  0.54714483  1
  S2-  S248  1  0.84055955  -0.00489730  0.04316182  1
  S2-  S249  1  0.89533055  0.01141245  0.54314984  1
  S2-  S250  1  0.84454512  0.24132221  0.04866453  1
  S2-  S251  1  0.89307555  0.26312941  0.55328850  1
  S2-  S252  1  0.84078596  0.49457688  0.05311406  1
  S2-  S253  1  0.89586194  0.50506672  0.55421126  1
  S2-  S254  1  0.83707558  0.75215512  0.04090193  1
  S2-  S255  1  0.89800715  0.76309130  0.54276833  1
