# generated using pymatgen
data_La9Ce10Pr6Nd4Sm3(BiS2)32
_symmetry_space_group_name_H-M   'P 1'
_cell_length_a   16.13027402
_cell_length_b   16.18002019
_cell_length_c   27.26219718
_cell_angle_alpha   90.09974994
_cell_angle_beta   90.13780786
_cell_angle_gamma   89.92337474
_symmetry_Int_Tables_number   1
_chemical_formula_structural   La9Ce10Pr6Nd4Sm3(BiS2)32
_chemical_formula_sum   'La18 Ce20 Pr12 Nd8 Sm6 Bi64 S128'
_cell_volume   7115.07297559
_cell_formula_units_Z   2
loop_
 _symmetry_equiv_pos_site_id
 _symmetry_equiv_pos_as_xyz
  1  'x, y, z'
loop_
 _atom_type_symbol
 _atom_type_oxidation_number
  La3+  3.0
  Ce3+  3.0
  Pr3+  3.0
  Nd3+  3.0
  Sm3+  3.0
  Bi2+  2.0
  S2-  -2.0
loop_
 _atom_site_type_symbol
 _atom_site_label
 _atom_site_symmetry_multiplicity
 _atom_site_fract_x
 _atom_site_fract_y
 _atom_site_fract_z
 _atom_site_occupancy
  La3+  La0  1  0.01188821  0.12328076  0.05085545  1
  La3+  La1  1  0.50624222  0.12313758  0.09390079  1
  La3+  La2  1  0.72683276  0.37052611  0.58103637  1
  La3+  La3  1  0.51263295  0.62550629  0.08149436  1
  La3+  La4  1  0.24960741  0.12742486  0.09165448  1
  La3+  La5  1  0.60412940  0.24410624  0.42995856  1
  La3+  La6  1  0.14392381  0.25930744  0.90497044  1
  La3+  La7  1  0.38031690  0.00075811  0.94734749  1
  La3+  La8  1  0.34924321  0.24162007  0.42828231  1
  La3+  La9  1  0.87169441  0.74166136  0.90056589  1
  La3+  La10  1  -0.02031260  0.86528030  0.58792549  1
  La3+  La11  1  0.88002598  -0.00046650  0.92616122  1
  La3+  La12  1  0.38057446  0.50476752  0.94081070  1
  La3+  La13  1  0.87971145  0.49999956  0.93230472  1
  La3+  La14  1  0.61388403  0.73622012  0.39768231  1
  La3+  La15  1  0.88152740  0.24952644  0.92996675  1
  La3+  La16  1  0.61753993  0.75201560  0.91634250  1
  La3+  La17  1  0.13990246  -0.00835089  0.91917383  1
  Ce3+  Ce18  1  0.35874596  0.49392236  0.44028818  1
  Ce3+  Ce19  1  0.23149384  0.11707638  0.56753061  1
  Ce3+  Ce20  1  0.75306941  0.87602749  0.04951284  1
  Ce3+  Ce21  1  0.13333843  0.74929764  0.93923991  1
  Ce3+  Ce22  1  0.35401787  -0.00964221  0.44235301  1
  Ce3+  Ce23  1  0.85986258  -0.00980016  0.44913261  1
  Ce3+  Ce24  1  0.86329424  0.24350614  0.43919010  1
  Ce3+  Ce25  1  0.62704597  0.50438898  0.94268792  1
  Ce3+  Ce26  1  0.23750092  0.36730749  0.56328239  1
  Ce3+  Ce27  1  0.60660632  0.49376484  0.43980971  1
  Ce3+  Ce28  1  0.25679222  0.63105802  0.07959193  1
  Ce3+  Ce29  1  0.75568444  0.62568273  0.05746602  1
  Ce3+  Ce30  1  0.00335311  0.87449699  0.04639044  1
  Ce3+  Ce31  1  0.00311592  0.62632189  0.05440349  1
  Ce3+  Ce32  1  0.25489906  0.37210692  0.05886986  1
  Ce3+  Ce33  1  0.62795529  0.00387639  0.93772916  1
  Ce3+  Ce34  1  0.62827077  0.24567033  0.93403282  1
  Ce3+  Ce35  1  0.50620221  0.36692968  0.05985582  1
  Ce3+  Ce36  1  0.38016904  0.74787804  0.95133461  1
  Ce3+  Ce37  1  0.75626913  0.36981437  0.05165089  1
  Pr3+  Pr38  1  0.10367090  0.74387736  0.44173620  1
  Pr3+  Pr39  1  0.10058149  0.49437045  0.43506130  1
  Pr3+  Pr40  1  -0.03222746  0.13589860  0.58622626  1
  Pr3+  Pr41  1  0.75759430  0.13036114  0.06716576  1
  Pr3+  Pr42  1  0.51153401  0.87414927  0.07257955  1
  Pr3+  Pr43  1  0.23136233  0.86083963  0.57316269  1
  Pr3+  Pr44  1  0.73145323  0.12143736  0.55564567  1
  Pr3+  Pr45  1  0.73212388  0.61934761  0.56975449  1
  Pr3+  Pr46  1  -0.01554522  0.61490565  0.57179541  1
  Pr3+  Pr47  1  0.48383366  0.86777254  0.55938698  1
  Pr3+  Pr48  1  0.37893067  0.24860350  0.94367991  1
  Pr3+  Pr49  1  0.73326173  0.86244997  0.57078555  1
  Nd3+  Nd50  1  0.10408566  0.24063809  0.43886602  1
  Nd3+  Nd51  1  0.48298686  0.11820491  0.55289320  1
  Nd3+  Nd52  1  0.25340322  0.87607263  0.06877155  1
  Nd3+  Nd53  1  0.23252423  0.61738776  0.55771947  1
  Nd3+  Nd54  1  0.10185771  -0.00716243  0.45298900  1
  Nd3+  Nd55  1  0.13192986  0.50469216  0.94094584  1
  Nd3+  Nd56  1  0.60828861  -0.01138454  0.44007782  1
  Nd3+  Nd57  1  0.48569015  0.61898174  0.55779972  1
  Sm3+  Sm58  1  0.86035021  0.74202007  0.44232877  1
  Sm3+  Sm59  1  0.36034849  0.74377920  0.43909428  1
  Sm3+  Sm60  1  -0.01246783  0.37121068  0.56468730  1
  Sm3+  Sm61  1  0.85449828  0.49492801  0.44889516  1
  Sm3+  Sm62  1  0.00907369  0.37447187  0.05058486  1
  Sm3+  Sm63  1  0.47887715  0.36470116  0.56219770  1
  Bi2+  Bi64  1  0.00480943  0.10611534  0.30382685  1
  Bi2+  Bi65  1  -0.00990538  0.13933094  0.78358440  1
  Bi2+  Bi66  1  -0.02471607  0.38617650  0.29654317  1
  Bi2+  Bi67  1  -0.07957849  0.44735743  0.80070479  1
  Bi2+  Bi68  1  0.05694103  0.61615482  0.31519424  1
  Bi2+  Bi69  1  0.08840097  0.56604735  0.80919846  1
  Bi2+  Bi70  1  0.05922595  0.84384945  0.28967699  1
  Bi2+  Bi71  1  0.02550040  0.88878855  0.78707376  1
  Bi2+  Bi72  1  0.24931663  0.11561202  0.30327153  1
  Bi2+  Bi73  1  0.25592755  0.13592628  0.79597109  1
  Bi2+  Bi74  1  0.22511786  0.43978958  0.25749708  1
  Bi2+  Bi75  1  0.27737055  0.46368142  0.78906870  1
  Bi2+  Bi76  1  0.24672517  0.63780741  0.29931379  1
  Bi2+  Bi77  1  0.25932255  0.63234552  0.85782888  1
  Bi2+  Bi78  1  0.24829489  0.83052083  0.28142799  1
  Bi2+  Bi79  1  0.26438480  0.77989757  0.78307064  1
  Bi2+  Bi80  1  0.52566932  0.12989619  0.28764139  1
  Bi2+  Bi81  1  0.52097198  0.13642014  0.77889552  1
  Bi2+  Bi82  1  0.54819043  0.37543833  0.30865444  1
  Bi2+  Bi83  1  0.53473525  0.33251509  0.79851847  1
  Bi2+  Bi84  1  0.49992988  0.59121250  0.28888277  1
  Bi2+  Bi85  1  0.46374630  0.60940229  0.79921413  1
  Bi2+  Bi86  1  0.48145292  0.88742490  0.30429667  1
  Bi2+  Bi87  1  0.42507031  0.88904889  0.80475157  1
  Bi2+  Bi88  1  0.80990622  0.14614807  0.27235188  1
  Bi2+  Bi89  1  0.72679559  0.12772591  0.77455409  1
  Bi2+  Bi90  1  0.74276679  0.40916823  0.27864045  1
  Bi2+  Bi91  1  0.73515980  0.33446902  0.80786059  1
  Bi2+  Bi92  1  0.79457090  0.60020362  0.29645868  1
  Bi2+  Bi93  1  0.71282802  0.52566647  0.78492367  1
  Bi2+  Bi94  1  0.82231897  0.94889750  0.26825704  1
  Bi2+  Bi95  1  0.69739155  0.90625128  0.78413549  1
  Bi2+  Bi96  1  0.08569803  0.01480848  0.21178038  1
  Bi2+  Bi97  1  0.16646590  0.00607290  0.70579155  1
  Bi2+  Bi98  1  0.12079951  0.27172584  0.21125249  1
  Bi2+  Bi99  1  0.20187485  0.35609520  0.69458437  1
  Bi2+  Bi100  1  0.13165347  0.58898694  0.20692852  1
  Bi2+  Bi101  1  0.07114064  0.49082089  0.67163368  1
  Bi2+  Bi102  1  0.02880777  0.75703615  0.18780003  1
  Bi2+  Bi103  1  0.12920714  0.68154559  0.71938767  1
  Bi2+  Bi104  1  0.35327918  -0.02169053  0.21533879  1
  Bi2+  Bi105  1  0.40110921  0.03529462  0.68974891  1
  Bi2+  Bi106  1  0.38573693  0.26377918  0.22046412  1
  Bi2+  Bi107  1  0.37870432  0.30307704  0.73154061  1
  Bi2+  Bi108  1  0.40536077  0.45919865  0.21512274  1
  Bi2+  Bi109  1  0.26633467  0.55067625  0.68508405  1
  Bi2+  Bi110  1  0.36905806  0.73374074  0.21076038  1
  Bi2+  Bi111  1  0.45711755  0.75412910  0.72052087  1
  Bi2+  Bi112  1  0.64098582  -0.01501700  0.21310788  1
  Bi2+  Bi113  1  0.61080060  0.00470887  0.70448684  1
  Bi2+  Bi114  1  0.65126116  0.25041567  0.20787819  1
  Bi2+  Bi115  1  0.64567862  0.24170111  0.69425036  1
  Bi2+  Bi116  1  0.60270144  0.48483673  0.20873493  1
  Bi2+  Bi117  1  0.54336246  0.48805832  0.71955009  1
  Bi2+  Bi118  1  0.65444398  0.74728172  0.20647912  1
  Bi2+  Bi119  1  0.64986809  0.72505580  0.74403395  1
  Bi2+  Bi120  1  0.89393428  0.05708618  0.18038938  1
  Bi2+  Bi121  1  0.87768432  0.02202200  0.70918287  1
  Bi2+  Bi122  1  0.91081128  0.26393815  0.20182059  1
  Bi2+  Bi123  1  0.82778530  0.36079713  0.70236490  1
  Bi2+  Bi124  1  0.88376283  0.49113874  0.21478871  1
  Bi2+  Bi125  1  0.88873111  0.54958205  0.70064999  1
  Bi2+  Bi126  1  0.86354479  0.76212570  0.24889695  1
  Bi2+  Bi127  1  0.85094159  0.75614041  0.71708738  1
  S2-  S128  1  0.09351521  0.14224723  0.14217482  1
  S2-  S129  1  0.02854649  0.10397245  0.68094880  1
  S2-  S130  1  0.02040119  0.36489326  0.15002228  1
  S2-  S131  1  -0.04862344  0.29544348  0.64911173  1
  S2-  S132  1  -0.04022495  0.60691802  0.14991599  1
  S2-  S133  1  -0.02853442  0.71465629  0.65476632  1
  S2-  S134  1  -0.00794951  0.91751328  0.14166591  1
  S2-  S135  1  0.06693030  0.89261345  0.68087223  1
  S2-  S136  1  0.22878791  -0.02211680  0.15267747  1
  S2-  S137  1  0.26980596  0.13497592  0.66422281  1
  S2-  S138  1  0.25071884  0.29689804  0.14844491  1
  S2-  S139  1  0.35847771  0.35605911  0.63774207  1
  S2-  S140  1  0.37794848  0.59417413  0.15018177  1
  S2-  S141  1  0.23726327  0.71254032  0.64158406  1
  S2-  S142  1  0.24315205  0.76024427  0.14737582  1
  S2-  S143  1  0.28818493  0.91901179  0.66384495  1
  S2-  S144  1  0.37338923  0.12936591  0.16700149  1
  S2-  S145  1  0.50907465  0.15480980  0.64865068  1
  S2-  S146  1  0.51454529  0.28574440  0.14818266  1
  S2-  S147  1  0.58086929  0.37130285  0.64426493  1
  S2-  S148  1  0.51804947  0.76009126  0.15376229  1
  S2-  S149  1  0.49394444  0.61195557  0.65848800  1
  S2-  S150  1  0.50176321  0.97259049  0.15954886  1
  S2-  S151  1  0.51143910  0.88809232  0.65888553  1
  S2-  S152  1  0.65519050  0.11112990  0.15109400  1
  S2-  S153  1  0.80965336  0.12497661  0.64631075  1
  S2-  S154  1  0.76701217  0.28596212  0.13662212  1
  S2-  S155  1  0.74779268  0.50545287  0.64977424  1
  S2-  S156  1  0.67026986  0.60798174  0.14371787  1
  S2-  S157  1  0.71665286  0.73529601  0.65033582  1
  S2-  S158  1  0.72398751  0.87430694  0.14723183  1
  S2-  S159  1  0.83927001  0.89297887  0.65363218  1
  S2-  S160  1  0.13296525  0.03396248  0.35582242  1
  S2-  S161  1  0.11467979  0.03607930  0.82025071  1
  S2-  S162  1  0.21605812  0.23681823  0.35939597  1
  S2-  S163  1  0.11626823  0.23439619  0.80186283  1
  S2-  S164  1  0.12796726  0.43280677  0.34062618  1
  S2-  S165  1  0.13900332  0.42093262  0.85202811  1
  S2-  S166  1  -0.01164091  0.74970704  0.36637148  1
  S2-  S167  1  0.14676754  0.83885174  0.85358386  1
  S2-  S168  1  0.35712658  -0.00105358  0.34398199  1
  S2-  S169  1  0.32350514  -0.00234718  0.85019184  1
  S2-  S170  1  0.43002163  0.23238107  0.33559466  1
  S2-  S171  1  0.30894583  0.25257525  0.85030421  1
  S2-  S172  1  0.41624771  0.47283874  0.34836347  1
  S2-  S173  1  0.42663276  0.45773224  0.84579101  1
  S2-  S174  1  0.44659328  0.74043820  0.35367440  1
  S2-  S175  1  0.46045220  0.74679106  0.86388943  1
  S2-  S176  1  0.60041414  -0.00104229  0.34064388  1
  S2-  S177  1  0.57938948  -0.08246318  0.85703924  1
  S2-  S178  1  0.64398330  0.22886827  0.33205347  1
  S2-  S179  1  0.63572391  0.12669542  0.86034781  1
  S2-  S180  1  0.62389483  0.57572523  0.35320690  1
  S2-  S181  1  0.60892737  0.58741831  0.85813046  1
  S2-  S182  1  0.61565974  0.80140748  0.29602774  1
  S2-  S183  1  0.73325071  0.76682923  0.83745070  1
  S2-  S184  1  0.91430395  -0.01611182  0.35702135  1
  S2-  S185  1  0.89515473  -0.00585300  0.82421354  1
  S2-  S186  1  0.97738994  0.24385063  0.36428438  1
  S2-  S187  1  0.90118768  0.25900684  0.83017132  1
  S2-  S188  1  0.93060221  0.51139643  0.36120568  1
  S2-  S189  1  0.84849974  0.58219234  0.84495262  1
  S2-  S190  1  0.77805554  0.73409099  0.35549078  1
  S2-  S191  1  0.94887325  0.75680341  0.80755348  1
  S2-  S192  1  -0.01900044  0.11816657  0.46891447  1
  S2-  S193  1  0.01040447  0.12525558  0.93889101  1
  S2-  S194  1  -0.01832624  0.37100850  0.46102202  1
  S2-  S195  1  0.00839495  0.37480446  0.94628919  1
  S2-  S196  1  -0.01952974  0.61703339  0.46569955  1
  S2-  S197  1  0.00339600  0.62843352  0.94684304  1
  S2-  S198  1  -0.01815719  0.86811928  0.47013992  1
  S2-  S199  1  -0.00244362  0.86780757  0.94117284  1
  S2-  S200  1  0.23002599  0.11368114  0.46235282  1
  S2-  S201  1  0.25044129  0.12612546  0.94693415  1
  S2-  S202  1  0.23027848  0.37313874  0.45684318  1
  S2-  S203  1  0.25634995  0.37887058  0.95450147  1
  S2-  S204  1  0.23306198  0.62057116  0.44965165  1
  S2-  S205  1  0.25424474  0.62555755  0.97162099  1
  S2-  S206  1  0.23094213  0.86524744  0.45606245  1
  S2-  S207  1  0.25737874  0.87015941  0.96104442  1
  S2-  S208  1  0.48211755  0.11445359  0.44748931  1
  S2-  S209  1  0.50264939  0.12680168  0.95393954  1
  S2-  S210  1  0.48045552  0.36767373  0.45537336  1
  S2-  S211  1  0.50719495  0.37239587  0.95441842  1
  S2-  S212  1  0.48313092  0.62042249  0.45302006  1
  S2-  S213  1  0.50457355  0.62399219  0.96782937  1
  S2-  S214  1  0.48386344  0.86709087  0.45262537  1
  S2-  S215  1  0.50316820  0.87488475  0.96604961  1
  S2-  S216  1  0.73391090  0.11701208  0.44797270  1
  S2-  S217  1  0.76067646  0.12674010  0.95509985  1
  S2-  S218  1  0.73532282  0.36936368  0.44393241  1
  S2-  S219  1  0.75193976  0.37554648  0.94534210  1
  S2-  S220  1  0.73436497  0.61767378  0.46079516  1
  S2-  S221  1  0.75278375  0.62883624  0.95338073  1
  S2-  S222  1  0.73239394  0.86637626  0.45605238  1
  S2-  S223  1  0.75627358  0.87429863  0.94389337  1
  S2-  S224  1  0.13088233  -0.00358206  0.03463375  1
  S2-  S225  1  0.10740364  -0.00732891  0.55956868  1
  S2-  S226  1  0.13051991  0.25345438  0.03674516  1
  S2-  S227  1  0.10824222  0.24405040  0.55252568  1
  S2-  S228  1  0.13085415  0.50143282  0.05006569  1
  S2-  S229  1  0.11139813  0.49198434  0.54435704  1
  S2-  S230  1  0.12525294  0.74969694  0.04602994  1
  S2-  S231  1  0.10541174  0.74197375  0.54736794  1
  S2-  S232  1  0.37698968  0.00295319  0.05414841  1
  S2-  S233  1  0.35767945  -0.00733962  0.54784250  1
  S2-  S234  1  0.37895587  0.24386567  0.04849546  1
  S2-  S235  1  0.35837533  0.23866477  0.53879049  1
  S2-  S236  1  0.38295328  0.49114020  0.04897346  1
  S2-  S237  1  0.36002152  0.49648016  0.54511141  1
  S2-  S238  1  0.38257499  0.75105342  0.05340041  1
  S2-  S239  1  0.36024395  0.74300577  0.54329045  1
  S2-  S240  1  0.63159119  0.00431687  0.04396157  1
  S2-  S241  1  0.61047264  -0.00724531  0.54723282  1
  S2-  S242  1  0.63030084  0.24674819  0.03943857  1
  S2-  S243  1  0.60696263  0.24548619  0.53848704  1
  S2-  S244  1  0.63117580  0.49158031  0.04676304  1
  S2-  S245  1  0.60582554  0.49231590  0.54433108  1
  S2-  S246  1  0.63496642  0.74905360  0.04211449  1
  S2-  S247  1  0.60577431  0.74382313  0.54816824  1
  S2-  S248  1  0.87898502  0.00267368  0.03579525  1
  S2-  S249  1  0.85828294  -0.00429309  0.55135251  1
  S2-  S250  1  0.88738134  0.25059353  0.03759011  1
  S2-  S251  1  0.84994280  0.25387228  0.54234844  1
  S2-  S252  1  0.88023924  0.49544017  0.04183286  1
  S2-  S253  1  0.86069457  0.48880413  0.55085311  1
  S2-  S254  1  0.87844273  0.75045018  0.04799583  1
  S2-  S255  1  0.85835510  0.74050807  0.54826371  1
