# generated using pymatgen
data_La9Ce10Pr6Nd4Sm3(BiS2)32
_symmetry_space_group_name_H-M   'P 1'
_cell_length_a   16.21814719
_cell_length_b   16.24278904
_cell_length_c   27.08778930
_cell_angle_alpha   90.09345206
_cell_angle_beta   90.15574469
_cell_angle_gamma   89.98774751
_symmetry_Int_Tables_number   1
_chemical_formula_structural   La9Ce10Pr6Nd4Sm3(BiS2)32
_chemical_formula_sum   'La18 Ce20 Pr12 Nd8 Sm6 Bi64 S128'
_cell_volume   7135.64461732
_cell_formula_units_Z   2
loop_
 _symmetry_equiv_pos_site_id
 _symmetry_equiv_pos_as_xyz
  1  'x, y, z'
loop_
 _atom_type_symbol
 _atom_type_oxidation_number
  La3+  3.0
  Ce3+  3.0
  Pr3+  3.0
  Nd3+  3.0
  Sm3+  3.0
  Bi2+  2.0
  S2-  -2.0
loop_
 _atom_site_type_symbol
 _atom_site_label
 _atom_site_symmetry_multiplicity
 _atom_site_fract_x
 _atom_site_fract_y
 _atom_site_fract_z
 _atom_site_occupancy
  La3+  La0  1  0.12721492  0.74029378  0.43008178  1
  La3+  La1  1  0.25663702  0.11809721  0.08547265  1
  La3+  La2  1  0.75560111  0.86150781  0.58195782  1
  La3+  La3  1  0.86988904  -0.00229132  0.93928854  1
  La3+  La4  1  0.74243242  0.61872377  0.09678774  1
  La3+  La5  1  0.38986546  -0.01366943  0.42398110  1
  La3+  La6  1  0.76441848  0.36818674  0.56861456  1
  La3+  La7  1  0.12650405  0.23181681  0.41140147  1
  La3+  La8  1  0.86760849  0.49614145  0.93524500  1
  La3+  La9  1  0.50242567  0.11642550  0.56889962  1
  La3+  La10  1  0.87641573  0.73871223  0.94620846  1
  La3+  La11  1  0.63137906  0.49120920  0.43894054  1
  La3+  La12  1  0.75100450  0.11290733  0.61751715  1
  La3+  La13  1  0.12208546  0.74972399  0.93138389  1
  La3+  La14  1  0.11341363  0.49986522  0.89023171  1
  La3+  La15  1  0.00425437  0.62571519  0.09391609  1
  La3+  La16  1  0.61161984  -0.01234217  0.92024974  1
  La3+  La17  1  0.62142486  0.24811803  0.92699937  1
  Ce3+  Ce18  1  0.88287755  0.23955600  0.44146176  1
  Ce3+  Ce19  1  0.50382610  0.61701764  0.55631604  1
  Ce3+  Ce20  1  -0.00223768  0.87022678  0.06448966  1
  Ce3+  Ce21  1  0.49733683  0.37369827  0.05242587  1
  Ce3+  Ce22  1  0.00661991  0.61607072  0.55358914  1
  Ce3+  Ce23  1  0.38317074  0.74378547  0.43670845  1
  Ce3+  Ce24  1  0.00318484  0.11904247  0.56393534  1
  Ce3+  Ce25  1  0.36849664  -0.00048969  0.93673319  1
  Ce3+  Ce26  1  0.36567937  0.49632864  0.93947129  1
  Ce3+  Ce27  1  0.49759056  0.62072501  0.05939292  1
  Ce3+  Ce28  1  0.24353508  0.62180311  0.05966836  1
  Ce3+  Ce29  1  0.62105069  0.49979602  0.94033435  1
  Ce3+  Ce30  1  0.88089034  0.49157282  0.43085636  1
  Ce3+  Ce31  1  0.50374592  0.86735517  0.56298487  1
  Ce3+  Ce32  1  0.36612756  0.24464920  0.94157604  1
  Ce3+  Ce33  1  0.24667725  0.87211408  0.06220151  1
  Ce3+  Ce34  1  0.25928205  0.11865324  0.55522440  1
  Ce3+  Ce35  1  0.87371300  0.24868679  0.94440871  1
  Ce3+  Ce36  1  0.50578660  0.36667390  0.56189354  1
  Ce3+  Ce37  1  0.74812481  0.87047367  0.05609075  1
  Pr3+  Pr38  1  0.13053133  0.48777628  0.42248879  1
  Pr3+  Pr39  1  0.12478973  -0.00368563  0.93802731  1
  Pr3+  Pr40  1  0.63570548  -0.01032648  0.44818261  1
  Pr3+  Pr41  1  0.63273643  0.23993293  0.44561051  1
  Pr3+  Pr42  1  0.37831250  0.48846284  0.43990248  1
  Pr3+  Pr43  1  0.62169837  0.74330392  0.93481068  1
  Pr3+  Pr44  1  0.87786785  -0.00914286  0.44812246  1
  Pr3+  Pr45  1  0.12525238  0.24771845  0.93988817  1
  Pr3+  Pr46  1  0.75786796  0.61764689  0.56462809  1
  Pr3+  Pr47  1  0.74612845  0.12396965  0.06265553  1
  Pr3+  Pr48  1  0.50324570  0.12259690  0.06086594  1
  Pr3+  Pr49  1  0.01247750  0.36843679  0.55842424  1
  Nd3+  Nd50  1  0.50153594  0.87131077  0.05760732  1
  Nd3+  Nd51  1  0.24999738  0.36534156  0.54988308  1
  Nd3+  Nd52  1  0.39053489  0.23338489  0.42312352  1
  Nd3+  Nd53  1  0.13021594  -0.00600362  0.44105842  1
  Nd3+  Nd54  1  -0.00187576  0.37765733  0.05567611  1
  Nd3+  Nd55  1  0.00674492  0.86901045  0.55971042  1
  Nd3+  Nd56  1  0.36737467  0.74359777  0.94606353  1
  Nd3+  Nd57  1  0.74826202  0.37565706  0.06421613  1
  Sm3+  Sm58  1  0.25493690  0.86635642  0.55127775  1
  Sm3+  Sm59  1  0.24371350  0.37540452  0.06266913  1
  Sm3+  Sm60  1  0.25344173  0.61782540  0.54807626  1
  Sm3+  Sm61  1  0.87872164  0.74286841  0.44171715  1
  Sm3+  Sm62  1  -0.00067922  0.12522534  0.05493770  1
  Sm3+  Sm63  1  0.63346261  0.74162387  0.44469580  1
  Bi2+  Bi64  1  0.01234696  0.08551742  0.28581872  1
  Bi2+  Bi65  1  0.07352996  0.13237510  0.79326277  1
  Bi2+  Bi66  1  -0.07370437  0.31356837  0.27832982  1
  Bi2+  Bi67  1  0.02078064  0.33273169  0.78037314  1
  Bi2+  Bi68  1  -0.00595541  0.63848133  0.29667422  1
  Bi2+  Bi69  1  -0.02371946  0.62722807  0.78772706  1
  Bi2+  Bi70  1  -0.01279308  0.89147637  0.28954391  1
  Bi2+  Bi71  1  0.06576057  0.86361912  0.75567608  1
  Bi2+  Bi72  1  0.25685010  0.15877637  0.28861161  1
  Bi2+  Bi73  1  0.24105926  0.11963967  0.85303753  1
  Bi2+  Bi74  1  0.26920440  0.39396984  0.27222152  1
  Bi2+  Bi75  1  0.28119162  0.36759489  0.78344443  1
  Bi2+  Bi76  1  0.28826032  0.60799369  0.29414505  1
  Bi2+  Bi77  1  0.26280171  0.64011435  0.78728505  1
  Bi2+  Bi78  1  0.26558036  0.87800872  0.27697129  1
  Bi2+  Bi79  1  0.25170783  0.93260421  0.81309067  1
  Bi2+  Bi80  1  0.52184627  0.12025032  0.28966462  1
  Bi2+  Bi81  1  0.40942254  0.13146214  0.79020763  1
  Bi2+  Bi82  1  0.53386757  0.39021254  0.30198677  1
  Bi2+  Bi83  1  0.51504400  0.39497130  0.79065035  1
  Bi2+  Bi84  1  0.48056776  0.66432389  0.27894314  1
  Bi2+  Bi85  1  0.47945379  0.57811550  0.82002669  1
  Bi2+  Bi86  1  0.48885425  0.88373298  0.28022808  1
  Bi2+  Bi87  1  0.43384923  0.85477695  0.78552902  1
  Bi2+  Bi88  1  0.78239649  0.10480068  0.30069820  1
  Bi2+  Bi89  1  0.80677254  0.12785023  0.81504938  1
  Bi2+  Bi90  1  0.73144463  0.29506247  0.29275943  1
  Bi2+  Bi91  1  0.78437986  0.39411925  0.79680449  1
  Bi2+  Bi92  1  0.75043684  0.63419371  0.29723127  1
  Bi2+  Bi93  1  0.66057023  0.63484003  0.79800329  1
  Bi2+  Bi94  1  0.70553564  0.89621067  0.30671764  1
  Bi2+  Bi95  1  0.76655824  0.87449775  0.81247856  1
  Bi2+  Bi96  1  0.12296210  -0.03452218  0.21744608  1
  Bi2+  Bi97  1  0.15430635  0.02349652  0.70947788  1
  Bi2+  Bi98  1  0.09471754  0.26433931  0.19903867  1
  Bi2+  Bi99  1  0.13086164  0.21995103  0.69314552  1
  Bi2+  Bi100  1  0.10879540  0.49235096  0.20605845  1
  Bi2+  Bi101  1  0.09871221  0.50882244  0.68318228  1
  Bi2+  Bi102  1  0.14686583  0.76888932  0.20305590  1
  Bi2+  Bi103  1  0.19706685  0.75098041  0.70146850  1
  Bi2+  Bi104  1  0.38808527  0.00558731  0.20905122  1
  Bi2+  Bi105  1  0.35611621  -0.01009863  0.71352066  1
  Bi2+  Bi106  1  0.46753459  0.26050021  0.21752437  1
  Bi2+  Bi107  1  0.32397864  0.23961305  0.70491805  1
  Bi2+  Bi108  1  0.38109180  0.54791360  0.19835488  1
  Bi2+  Bi109  1  0.38863263  0.50240253  0.72406599  1
  Bi2+  Bi110  1  0.34270332  0.74207652  0.20352333  1
  Bi2+  Bi111  1  0.39610791  0.70488077  0.70593180  1
  Bi2+  Bi112  1  0.65809476  0.02646178  0.22407804  1
  Bi2+  Bi113  1  0.62529017  0.00245021  0.72749895  1
  Bi2+  Bi114  1  0.65999886  0.26479408  0.18621660  1
  Bi2+  Bi115  1  0.62376164  0.25382653  0.72199082  1
  Bi2+  Bi116  1  0.57022082  0.51456858  0.22019195  1
  Bi2+  Bi117  1  0.61832463  0.50397006  0.71235246  1
  Bi2+  Bi118  1  0.59498345  0.77548345  0.20502963  1
  Bi2+  Bi119  1  0.58088254  0.76378059  0.72186331  1
  Bi2+  Bi120  1  0.86837810  0.01603134  0.20608375  1
  Bi2+  Bi121  1  0.91563169  -0.02485667  0.71513146  1
  Bi2+  Bi122  1  0.84386007  0.20838389  0.18847224  1
  Bi2+  Bi123  1  0.90547709  0.27479671  0.70083583  1
  Bi2+  Bi124  1  0.85807468  0.45992518  0.22279521  1
  Bi2+  Bi125  1  0.84283441  0.55133828  0.69014491  1
  Bi2+  Bi126  1  0.85072280  0.81660180  0.21442985  1
  Bi2+  Bi127  1  0.82072560  0.72600015  0.74015732  1
  S2-  S128  1  0.00438446  0.14698159  0.15299626  1
  S2-  S129  1  -0.07656003  0.11818950  0.65269440  1
  S2-  S130  1  -0.00588179  0.39169458  0.15595718  1
  S2-  S131  1  -0.08846142  0.40834241  0.64226417  1
  S2-  S132  1  -0.03061241  0.58356926  0.19500115  1
  S2-  S133  1  -0.01569171  0.62704024  0.65270548  1
  S2-  S134  1  -0.00283825  0.78467211  0.15064825  1
  S2-  S135  1  -0.01884505  0.86241498  0.65916209  1
  S2-  S136  1  0.21440855  0.16872510  0.18368556  1
  S2-  S137  1  0.36375637  0.11456025  0.63535605  1
  S2-  S138  1  0.23055670  0.38225842  0.16377077  1
  S2-  S139  1  0.14450721  0.37325991  0.63093906  1
  S2-  S140  1  0.16173377  0.61848090  0.14844765  1
  S2-  S141  1  0.22239971  0.59837672  0.64400960  1
  S2-  S142  1  0.25134315  0.96570982  0.14456380  1
  S2-  S143  1  0.26310525  0.88034898  0.64924070  1
  S2-  S144  1  0.40921276  0.13227809  0.14731883  1
  S2-  S145  1  0.58544837  0.11949855  0.66001432  1
  S2-  S146  1  0.51815350  0.37778407  0.15038029  1
  S2-  S147  1  0.54636689  0.36914369  0.65801093  1
  S2-  S148  1  0.58372360  0.63468844  0.14506641  1
  S2-  S149  1  0.53724569  0.62731234  0.65319443  1
  S2-  S150  1  0.49186254  0.89043436  0.15713378  1
  S2-  S151  1  0.54394146  0.89165703  0.65863526  1
  S2-  S152  1  0.62874713  0.11064017  0.13691008  1
  S2-  S153  1  0.74196439  0.12721273  0.72737527  1
  S2-  S154  1  0.75190366  0.46653960  0.15085713  1
  S2-  S155  1  0.74919790  0.28267533  0.65702037  1
  S2-  S156  1  0.77695658  0.67295589  0.19848406  1
  S2-  S157  1  0.75947541  0.72285374  0.64591138  1
  S2-  S158  1  0.71709482  0.86341844  0.15200051  1
  S2-  S159  1  0.76097733  0.95568228  0.66809681  1
  S2-  S160  1  0.14005624  0.07802064  0.35270220  1
  S2-  S161  1  0.10805042  -0.11724118  0.85838273  1
  S2-  S162  1  0.15037092  0.31247632  0.31549151  1
  S2-  S163  1  0.13844139  0.33385224  0.85128100  1
  S2-  S164  1  0.12190307  0.53955887  0.32536151  1
  S2-  S165  1  0.08865522  0.49376556  0.77927926  1
  S2-  S166  1  0.09066537  0.76500013  0.33222687  1
  S2-  S167  1  0.11670971  0.65863999  0.84402831  1
  S2-  S168  1  0.37260790  0.09501663  0.34569927  1
  S2-  S169  1  0.46221648  0.00340248  0.85355133  1
  S2-  S170  1  0.33977837  0.28317800  0.32918608  1
  S2-  S171  1  0.40120507  0.28518701  0.84592626  1
  S2-  S172  1  0.38971696  0.48878759  0.33909143  1
  S2-  S173  1  0.28149005  0.49970726  0.85285150  1
  S2-  S174  1  0.38158984  0.84500645  0.35677362  1
  S2-  S175  1  0.33117928  0.76619691  0.84845082  1
  S2-  S176  1  0.56665410  -0.01594105  0.35501665  1
  S2-  S177  1  0.67250497  0.04366112  0.83011306  1
  S2-  S178  1  0.54211707  0.24528321  0.35922666  1
  S2-  S179  1  0.65053849  0.28023195  0.82734320  1
  S2-  S180  1  0.64772725  0.50973440  0.33907180  1
  S2-  S181  1  0.71749691  0.49339872  0.85901074  1
  S2-  S182  1  0.65391052  0.75011301  0.34613655  1
  S2-  S183  1  0.62385953  0.84406290  0.85192523  1
  S2-  S184  1  0.85570252  -0.04257053  0.34931019  1
  S2-  S185  1  0.89403967  -0.01581086  0.83841110  1
  S2-  S186  1  0.96730627  0.21398313  0.35637591  1
  S2-  S187  1  0.88266738  0.27734593  0.84710646  1
  S2-  S188  1  0.87732015  0.51822088  0.33175019  1
  S2-  S189  1  0.91438852  0.49521359  0.83582125  1
  S2-  S190  1  0.87016914  0.72698201  0.34338112  1
  S2-  S191  1  0.87915817  0.74586178  0.84406350  1
  S2-  S192  1  0.00452059  0.11115785  0.45841538  1
  S2-  S193  1  -0.00125339  0.12276242  0.94921361  1
  S2-  S194  1  0.00696022  0.36769556  0.44590109  1
  S2-  S195  1  -0.00053621  0.37349789  0.94984840  1
  S2-  S196  1  0.00296315  0.61681288  0.44538496  1
  S2-  S197  1  0.00068057  0.61506122  0.94623098  1
  S2-  S198  1  0.00476739  0.86723944  0.45190901  1
  S2-  S199  1  -0.00648112  0.87339948  0.95917578  1
  S2-  S200  1  0.25898516  0.11626586  0.45145109  1
  S2-  S201  1  0.24645218  0.12086802  0.96954855  1
  S2-  S202  1  0.25305440  0.36274490  0.44340786  1
  S2-  S203  1  0.24800245  0.37189149  0.95807120  1
  S2-  S204  1  0.25612424  0.61758407  0.44220317  1
  S2-  S205  1  0.24372382  0.62038272  0.95521149  1
  S2-  S206  1  0.24998115  0.86729048  0.44700154  1
  S2-  S207  1  0.24966746  0.87322579  0.95811434  1
  S2-  S208  1  0.50909133  0.11332660  0.45971083  1
  S2-  S209  1  0.49682367  0.12750687  0.95264673  1
  S2-  S210  1  0.50469232  0.36902704  0.45551207  1
  S2-  S211  1  0.49645145  0.37498263  0.94755734  1
  S2-  S212  1  0.50557866  0.61862943  0.44778552  1
  S2-  S213  1  0.49412756  0.62195294  0.95363156  1
  S2-  S214  1  0.51156607  0.86119036  0.45749564  1
  S2-  S215  1  0.48995589  0.86427257  0.95249204  1
  S2-  S216  1  0.75671005  0.11729503  0.44824328  1
  S2-  S217  1  0.74626038  0.12450873  0.95279742  1
  S2-  S218  1  0.75809536  0.36621446  0.45177156  1
  S2-  S219  1  0.74627605  0.36891870  0.95756711  1
  S2-  S220  1  0.75714569  0.61896451  0.45482844  1
  S2-  S221  1  0.74475813  0.62328584  0.95519276  1
  S2-  S222  1  0.75612314  0.86127706  0.46268520  1
  S2-  S223  1  0.75023166  0.86859765  0.95144162  1
  S2-  S224  1  0.11692446  -0.00067070  0.04781183  1
  S2-  S225  1  0.13219955  -0.00787989  0.54832594  1
  S2-  S226  1  0.12329869  0.24885578  0.04942351  1
  S2-  S227  1  0.13111135  0.23678093  0.53523026  1
  S2-  S228  1  0.12098655  0.49728106  0.05220051  1
  S2-  S229  1  0.13192287  0.49687113  0.53012151  1
  S2-  S230  1  0.12135456  0.74797260  0.04403677  1
  S2-  S231  1  0.13091979  0.74300865  0.54106727  1
  S2-  S232  1  0.37820389  -0.00566442  0.04388847  1
  S2-  S233  1  0.37945363  -0.01579266  0.53733561  1
  S2-  S234  1  0.37015690  0.25384503  0.04906151  1
  S2-  S235  1  0.37922317  0.24827007  0.53789705  1
  S2-  S236  1  0.36951789  0.49715846  0.04889100  1
  S2-  S237  1  0.37587618  0.49165561  0.54856975  1
  S2-  S238  1  0.37269622  0.74672314  0.05353181  1
  S2-  S239  1  0.37657709  0.74108560  0.54486060  1
  S2-  S240  1  0.62443913  -0.00750851  0.03502863  1
  S2-  S241  1  0.63399716  -0.00927775  0.55413549  1
  S2-  S242  1  0.62495298  0.25312409  0.03928699  1
  S2-  S243  1  0.63198097  0.24385147  0.55085914  1
  S2-  S244  1  0.62325835  0.49829685  0.04579858  1
  S2-  S245  1  0.63263138  0.49291347  0.54852857  1
  S2-  S246  1  0.62448505  0.74604949  0.04294687  1
  S2-  S247  1  0.62668305  0.74078345  0.54870176  1
  S2-  S248  1  0.87402227  0.00086402  0.05029089  1
  S2-  S249  1  0.87964256  -0.01012501  0.55372154  1
  S2-  S250  1  0.87340052  0.24884371  0.04973886  1
  S2-  S251  1  0.88540711  0.24479778  0.54572203  1
  S2-  S252  1  0.87563129  0.50423878  0.04957271  1
  S2-  S253  1  0.88178631  0.49686916  0.53640266  1
  S2-  S254  1  0.86856969  0.73967644  0.05481418  1
  S2-  S255  1  0.88504265  0.74285782  0.54606444  1
