# generated using pymatgen
data_La9Ce10Pr6Nd4Sm3(BiS2)32
_symmetry_space_group_name_H-M   'P 1'
_cell_length_a   16.10583906
_cell_length_b   16.20336453
_cell_length_c   27.14189359
_cell_angle_alpha   89.90872490
_cell_angle_beta   90.25744896
_cell_angle_gamma   89.81949169
_symmetry_Int_Tables_number   1
_chemical_formula_structural   La9Ce10Pr6Nd4Sm3(BiS2)32
_chemical_formula_sum   'La18 Ce20 Pr12 Nd8 Sm6 Bi64 S128'
_cell_volume   7083.07108626
_cell_formula_units_Z   2
loop_
 _symmetry_equiv_pos_site_id
 _symmetry_equiv_pos_as_xyz
  1  'x, y, z'
loop_
 _atom_type_symbol
 _atom_type_oxidation_number
  La3+  3.0
  Ce3+  3.0
  Pr3+  3.0
  Nd3+  3.0
  Sm3+  3.0
  Bi2+  2.0
  S2-  -2.0
loop_
 _atom_site_type_symbol
 _atom_site_label
 _atom_site_symmetry_multiplicity
 _atom_site_fract_x
 _atom_site_fract_y
 _atom_site_fract_z
 _atom_site_occupancy
  La3+  La0  1  0.48560387  0.60919228  0.09704841  1
  La3+  La1  1  0.74116964  0.87349918  0.56148383  1
  La3+  La2  1  0.61793569  0.50267099  0.43311244  1
  La3+  La3  1  0.49372150  0.10564479  0.06760358  1
  La3+  La4  1  0.49790292  0.37218163  0.57182093  1
  La3+  La5  1  0.73779330  0.62048894  0.57970500  1
  La3+  La6  1  0.37340711  0.74763499  0.42711533  1
  La3+  La7  1  0.50399720  0.11503688  0.59070857  1
  La3+  La8  1  0.61672975  0.73415376  0.93606444  1
  La3+  La9  1  0.00624753  0.10656770  0.08486319  1
  La3+  La10  1  -0.00688864  0.61632550  0.06728522  1
  La3+  La11  1  0.36464318  0.48391893  0.91702909  1
  La3+  La12  1  0.74910908  0.11067095  0.05836481  1
  La3+  La13  1  0.63133484  0.77332050  0.37813348  1
  La3+  La14  1  0.23224313  0.13083666  0.58297495  1
  La3+  La15  1  0.12691700  0.24438402  0.41904420  1
  La3+  La16  1  0.24093983  0.87353933  0.56821913  1
  La3+  La17  1  0.87436614  0.25959633  0.41839080  1
  Ce3+  Ce18  1  0.24809507  0.85998460  0.05206539  1
  Ce3+  Ce19  1  0.74095583  0.36588281  0.56810112  1
  Ce3+  Ce20  1  0.86226399  0.74216124  0.44766311  1
  Ce3+  Ce21  1  0.11766280  0.48902331  0.94031020  1
  Ce3+  Ce22  1  0.86731495  0.48808471  0.94338266  1
  Ce3+  Ce23  1  0.37518603  0.73899101  0.93253616  1
  Ce3+  Ce24  1  0.74120369  0.86173434  0.05244070  1
  Ce3+  Ce25  1  0.87447196  -0.00897990  0.93310188  1
  Ce3+  Ce26  1  0.24614141  0.61349663  0.04975247  1
  Ce3+  Ce27  1  -0.00452362  0.61463146  0.56501096  1
  Ce3+  Ce28  1  0.61550243  0.25402903  0.43974619  1
  Ce3+  Ce29  1  0.74431269  0.61261177  0.06966611  1
  Ce3+  Ce30  1  0.11974818  0.49593883  0.44369959  1
  Ce3+  Ce31  1  -0.00627430  0.12673331  0.55332013  1
  Ce3+  Ce32  1  0.86788368  0.49460335  0.45255701  1
  Ce3+  Ce33  1  0.74498150  0.36256677  0.05976906  1
  Ce3+  Ce34  1  -0.00433277  0.86466760  0.05535686  1
  Ce3+  Ce35  1  0.61768187  0.00574426  0.43963148  1
  Ce3+  Ce36  1  0.61661361  -0.00820343  0.93515126  1
  Ce3+  Ce37  1  0.11612846  0.74847206  0.43668229  1
  Pr3+  Pr38  1  0.11239658  0.73575382  0.92186232  1
  Pr3+  Pr39  1  0.49068004  0.36557529  0.06225846  1
  Pr3+  Pr40  1  -0.00498971  0.36693397  0.56443728  1
  Pr3+  Pr41  1  0.86516245  -0.00037176  0.43465444  1
  Pr3+  Pr42  1  0.24963616  0.11163501  0.06172797  1
  Pr3+  Pr43  1  0.49483438  0.62450556  0.56221258  1
  Pr3+  Pr44  1  0.37388220  -0.00600255  0.92111933  1
  Pr3+  Pr45  1  0.24809352  0.62339556  0.56439937  1
  Pr3+  Pr46  1  0.12010755  -0.01623910  0.92454681  1
  Pr3+  Pr47  1  -0.00702787  0.86902939  0.56082854  1
  Pr3+  Pr48  1  0.36816849  0.00133297  0.44781371  1
  Pr3+  Pr49  1  0.49395641  0.87154413  0.55292727  1
  Nd3+  Nd50  1  0.36648001  0.49481120  0.43800597  1
  Nd3+  Nd51  1  0.86136558  0.73448380  0.93217799  1
  Nd3+  Nd52  1  0.74731371  0.12502705  0.55899971  1
  Nd3+  Nd53  1  0.11071431  0.23402788  0.93686252  1
  Nd3+  Nd54  1  0.25029585  0.37329286  0.57051239  1
  Nd3+  Nd55  1  0.61579100  0.48600580  0.94306603  1
  Nd3+  Nd56  1  0.11934811  -0.00705293  0.43430071  1
  Nd3+  Nd57  1  0.36090703  0.23621309  0.92588582  1
  Sm3+  Sm58  1  0.48676962  0.86114488  0.06251549  1
  Sm3+  Sm59  1  0.61636774  0.23882718  0.94555481  1
  Sm3+  Sm60  1  0.36609960  0.24487588  0.45252106  1
  Sm3+  Sm61  1  -0.00259115  0.36059105  0.06431370  1
  Sm3+  Sm62  1  0.24505102  0.36303474  0.05368420  1
  Sm3+  Sm63  1  0.87415674  0.23674136  0.94575781  1
  Bi2+  Bi64  1  -0.01477154  0.12254412  0.29820214  1
  Bi2+  Bi65  1  -0.00294751  0.15641103  0.78391935  1
  Bi2+  Bi66  1  -0.00216344  0.45184798  0.29700137  1
  Bi2+  Bi67  1  0.03974697  0.45000392  0.79063704  1
  Bi2+  Bi68  1  0.02454547  0.64622778  0.31101194  1
  Bi2+  Bi69  1  0.10377207  0.63283374  0.78222190  1
  Bi2+  Bi70  1  -0.01180134  0.83831225  0.29001923  1
  Bi2+  Bi71  1  -0.03346457  0.88279742  0.79674053  1
  Bi2+  Bi72  1  0.27031495  0.10961520  0.29549325  1
  Bi2+  Bi73  1  0.25352950  0.12863275  0.78261652  1
  Bi2+  Bi74  1  0.24777758  0.35068454  0.28371251  1
  Bi2+  Bi75  1  0.22332279  0.37336541  0.78464286  1
  Bi2+  Bi76  1  0.21368886  0.63030377  0.27915559  1
  Bi2+  Bi77  1  0.27751374  0.71167791  0.81165199  1
  Bi2+  Bi78  1  0.26535927  0.80935334  0.30894017  1
  Bi2+  Bi79  1  0.23003884  0.88291607  0.77283156  1
  Bi2+  Bi80  1  0.49617933  0.19821549  0.32845989  1
  Bi2+  Bi81  1  0.52013451  0.12448290  0.78782146  1
  Bi2+  Bi82  1  0.46798895  0.39146503  0.29931763  1
  Bi2+  Bi83  1  0.52335426  0.37837609  0.79992479  1
  Bi2+  Bi84  1  0.49049916  0.63443974  0.28036111  1
  Bi2+  Bi85  1  0.58429903  0.62148766  0.80437969  1
  Bi2+  Bi86  1  0.46472063  1.02392550  0.27964354  1
  Bi2+  Bi87  1  0.51217678  0.85740605  0.77727294  1
  Bi2+  Bi88  1  0.67141918  0.11313890  0.30232406  1
  Bi2+  Bi89  1  0.76479680  0.11839975  0.79887690  1
  Bi2+  Bi90  1  0.74282915  0.32388466  0.29846890  1
  Bi2+  Bi91  1  0.83406036  0.29801600  0.80330127  1
  Bi2+  Bi92  1  0.75820387  0.63520282  0.28279997  1
  Bi2+  Bi93  1  0.84465333  0.63599652  0.79387516  1
  Bi2+  Bi94  1  0.76324114  0.91726054  0.28108746  1
  Bi2+  Bi95  1  0.78054575  0.92747420  0.79755294  1
  Bi2+  Bi96  1  0.14325664  -0.10371169  0.23026638  1
  Bi2+  Bi97  1  0.07296131  0.01171191  0.72153668  1
  Bi2+  Bi98  1  0.13693672  0.26159395  0.20653319  1
  Bi2+  Bi99  1  0.05265895  0.27909324  0.69187773  1
  Bi2+  Bi100  1  0.07074094  0.57418760  0.20263555  1
  Bi2+  Bi101  1  0.20034219  0.51733352  0.70245583  1
  Bi2+  Bi102  1  0.09134950  0.75080070  0.15744369  1
  Bi2+  Bi103  1  0.18974631  0.71301181  0.68943829  1
  Bi2+  Bi104  1  0.28244502  0.01333492  0.19222762  1
  Bi2+  Bi105  1  0.39825770  -0.02782778  0.71032197  1
  Bi2+  Bi106  1  0.39596953  0.24315602  0.22370378  1
  Bi2+  Bi107  1  0.35355019  0.26961503  0.71056868  1
  Bi2+  Bi108  1  0.33164833  0.47863924  0.21134917  1
  Bi2+  Bi109  1  0.39194236  0.52181134  0.72537914  1
  Bi2+  Bi110  1  0.30327714  0.75064188  0.19902270  1
  Bi2+  Bi111  1  0.40829790  0.71729975  0.72500441  1
  Bi2+  Bi112  1  0.59462387  0.06934565  0.19628567  1
  Bi2+  Bi113  1  0.65458631  -0.02863765  0.70871904  1
  Bi2+  Bi114  1  0.59110592  0.26877029  0.21823125  1
  Bi2+  Bi115  1  0.69953432  0.26276518  0.71509232  1
  Bi2+  Bi116  1  0.60390055  0.46978583  0.21266671  1
  Bi2+  Bi117  1  0.68125494  0.45243012  0.73761252  1
  Bi2+  Bi118  1  0.63326181  0.77743949  0.17497325  1
  Bi2+  Bi119  1  0.67324098  0.71967057  0.71003952  1
  Bi2+  Bi120  1  0.85554949  -0.00351664  0.19592384  1
  Bi2+  Bi121  1  0.87610621  0.05708566  0.70888519  1
  Bi2+  Bi122  1  0.86563410  0.26815298  0.19982234  1
  Bi2+  Bi123  1  0.86916667  0.23847905  0.64947804  1
  Bi2+  Bi124  1  0.82369893  0.47318724  0.24090454  1
  Bi2+  Bi125  1  0.88071173  0.41900285  0.71382987  1
  Bi2+  Bi126  1  0.90449248  0.73026832  0.20711814  1
  Bi2+  Bi127  1  0.91992694  0.77986772  0.69426870  1
  S2-  S128  1  -0.04182494  0.13798460  0.19042009  1
  S2-  S129  1  0.07437295  0.12366194  0.64061963  1
  S2-  S130  1  0.00154744  0.34639491  0.16389218  1
  S2-  S131  1  0.01540584  0.44808638  0.65467790  1
  S2-  S132  1  -0.12971279  0.61281450  0.14147100  1
  S2-  S133  1  0.02444671  0.67340300  0.65594804  1
  S2-  S134  1  -0.01105299  0.95662655  0.13850256  1
  S2-  S135  1  0.04418831  0.88534633  0.65711430  1
  S2-  S136  1  0.15446456  0.12178254  0.14772737  1
  S2-  S137  1  0.28736382  0.07979984  0.67976759  1
  S2-  S138  1  0.23628467  0.36343208  0.15373461  1
  S2-  S139  1  0.20949525  0.27759192  0.65111513  1
  S2-  S140  1  0.31464848  0.59973211  0.14032061  1
  S2-  S141  1  0.37342435  0.63137175  0.63926012  1
  S2-  S142  1  0.34773596  0.87747031  0.13417557  1
  S2-  S143  1  0.28842334  0.85946533  0.66553251  1
  S2-  S144  1  0.38066828  0.12501836  0.14408462  1
  S2-  S145  1  0.48037872  0.17737639  0.68719011  1
  S2-  S146  1  0.47488188  0.45379214  0.15059772  1
  S2-  S147  1  0.38566437  0.39556520  0.64974042  1
  S2-  S148  1  0.47720457  0.71225712  0.18380376  1
  S2-  S149  1  0.60099912  0.62106875  0.65036927  1
  S2-  S150  1  0.56070507  0.92907093  0.14431109  1
  S2-  S151  1  0.52558659  0.89991973  0.65152729  1
  S2-  S152  1  0.75389381  0.12729655  0.15916547  1
  S2-  S153  1  0.66231826  0.09472283  0.64601318  1
  S2-  S154  1  0.74992002  0.38611047  0.15652913  1
  S2-  S155  1  0.62898218  0.37310325  0.64800090  1
  S2-  S156  1  0.64265168  0.60712664  0.15166646  1
  S2-  S157  1  0.81250657  0.63806864  0.67866652  1
  S2-  S158  1  0.78572315  0.85576384  0.14878078  1
  S2-  S159  1  0.76774736  0.85423262  0.66154739  1
  S2-  S160  1  0.12993959  0.08933920  0.34930687  1
  S2-  S161  1  0.24565694  -0.00106616  0.84771193  1
  S2-  S162  1  0.00694676  0.26024414  0.34223558  1
  S2-  S163  1  0.20203732  0.23286162  0.84913478  1
  S2-  S164  1  0.14296810  0.43622565  0.35206154  1
  S2-  S165  1  0.20669648  0.48750439  0.85445776  1
  S2-  S166  1  0.12323787  0.86283042  0.36146537  1
  S2-  S167  1  0.11470390  0.85479539  0.84741659  1
  S2-  S168  1  0.34822101  -0.02660290  0.34711195  1
  S2-  S169  1  0.39202645  0.12884416  0.84676893  1
  S2-  S170  1  0.28095088  0.24464545  0.36391766  1
  S2-  S171  1  0.38599507  0.34748102  0.84712717  1
  S2-  S172  1  0.39713960  0.53179960  0.33969949  1
  S2-  S173  1  0.44469911  0.54151134  0.82576427  1
  S2-  S174  1  0.46487550  0.75652665  0.33913679  1
  S2-  S175  1  0.49891707  0.75033262  0.85771046  1
  S2-  S176  1  0.63990128  -0.05376249  0.34735020  1
  S2-  S177  1  0.52862305  -0.01519848  0.84955027  1
  S2-  S178  1  0.61958653  0.36942894  0.36241062  1
  S2-  S179  1  0.59220579  0.24397786  0.84613832  1
  S2-  S180  1  0.62594447  0.60181335  0.34488127  1
  S2-  S181  1  0.65687645  0.47945262  0.84421027  1
  S2-  S182  1  0.65148048  0.78864055  0.26977402  1
  S2-  S183  1  0.73118042  0.70730047  0.85269364  1
  S2-  S184  1  0.90757317  -0.02331336  0.33631342  1
  S2-  S185  1  0.98476970  0.02217562  0.85862695  1
  S2-  S186  1  0.82508395  0.17201766  0.33211006  1
  S2-  S187  1  0.97744115  0.25239599  0.86627044  1
  S2-  S188  1  0.85809289  0.42515606  0.36214988  1
  S2-  S189  1  0.90246512  0.50167585  0.84623031  1
  S2-  S190  1  0.80669151  0.74045272  0.35471221  1
  S2-  S191  1  0.95900501  0.71354358  0.84800213  1
  S2-  S192  1  -0.00813768  0.12140728  0.44802730  1
  S2-  S193  1  -0.00704377  0.11292512  0.96795231  1
  S2-  S194  1  -0.00119810  0.37455258  0.45752377  1
  S2-  S195  1  -0.00626607  0.36868486  0.95996737  1
  S2-  S196  1  -0.00660837  0.62069162  0.45646385  1
  S2-  S197  1  -0.00704588  0.61082168  0.95655472  1
  S2-  S198  1  -0.01446419  0.87002401  0.45457264  1
  S2-  S199  1  -0.01182869  0.85977393  0.95037088  1
  S2-  S200  1  0.24274648  0.12026424  0.46495523  1
  S2-  S201  1  0.24073806  0.11330313  0.95487282  1
  S2-  S202  1  0.24617008  0.37237986  0.46293693  1
  S2-  S203  1  0.23825763  0.36024837  0.95225979  1
  S2-  S204  1  0.24318651  0.62382338  0.44933562  1
  S2-  S205  1  0.24426366  0.61801973  0.94586625  1
  S2-  S206  1  0.24703028  0.87183992  0.45948360  1
  S2-  S207  1  0.24945343  0.85819401  0.94731602  1
  S2-  S208  1  0.49267867  0.12540560  0.46036378  1
  S2-  S209  1  0.49603569  0.11775207  0.95788170  1
  S2-  S210  1  0.48606700  0.37048233  0.46042728  1
  S2-  S211  1  0.49488726  0.36047339  0.95520703  1
  S2-  S212  1  0.48827751  0.61914456  0.45477892  1
  S2-  S213  1  0.49211218  0.60562548  0.94939328  1
  S2-  S214  1  0.49784898  0.87526997  0.44655710  1
  S2-  S215  1  0.49398451  0.86888814  0.95733502  1
  S2-  S216  1  0.74311496  0.12717199  0.45171534  1
  S2-  S217  1  0.74533449  0.11785047  0.94917468  1
  S2-  S218  1  0.74246584  0.37184438  0.46307276  1
  S2-  S219  1  0.74516952  0.35783961  0.95210218  1
  S2-  S220  1  0.74734918  0.61712250  0.46398649  1
  S2-  S221  1  0.74265107  0.60718009  0.96145988  1
  S2-  S222  1  0.74175978  0.87289025  0.45263969  1
  S2-  S223  1  0.74220383  0.86749909  0.94534551  1
  S2-  S224  1  0.12542810  -0.01798670  0.03873236  1
  S2-  S225  1  0.11677393  -0.00470531  0.54299072  1
  S2-  S226  1  0.11966205  0.24137247  0.04620070  1
  S2-  S227  1  0.11804185  0.25008928  0.53785405  1
  S2-  S228  1  0.11867591  0.48734532  0.04962933  1
  S2-  S229  1  0.12569097  0.49738739  0.54985233  1
  S2-  S230  1  0.12030607  0.73763141  0.03328315  1
  S2-  S231  1  0.12006456  0.74453454  0.54410627  1
  S2-  S232  1  0.37110436  -0.01184301  0.03386795  1
  S2-  S233  1  0.36928850  0.00189111  0.55609892  1
  S2-  S234  1  0.36865584  0.24197928  0.04162062  1
  S2-  S235  1  0.37378333  0.23970480  0.55651738  1
  S2-  S236  1  0.36495512  0.48531455  0.03552911  1
  S2-  S237  1  0.36871566  0.49807315  0.54261910  1
  S2-  S238  1  0.37368152  0.73243796  0.03960364  1
  S2-  S239  1  0.36719495  0.75182609  0.53926238  1
  S2-  S240  1  0.62198426  -0.01089813  0.03874333  1
  S2-  S241  1  0.61851827  -0.00118071  0.54304786  1
  S2-  S242  1  0.61777423  0.23757867  0.05204782  1
  S2-  S243  1  0.61761779  0.24139502  0.54749276  1
  S2-  S244  1  0.61790688  0.48572214  0.04867782  1
  S2-  S245  1  0.61917232  0.49561508  0.54412170  1
  S2-  S246  1  0.61293391  0.73836034  0.04651933  1
  S2-  S247  1  0.61930976  0.75039039  0.55151288  1
  S2-  S248  1  0.86709059  -0.01545077  0.03955000  1
  S2-  S249  1  0.86998681  -0.00139569  0.54644678  1
  S2-  S250  1  0.87488354  0.23772277  0.05158233  1
  S2-  S251  1  0.86860656  0.24807826  0.53512221  1
  S2-  S252  1  0.87248295  0.48112997  0.04836605  1
  S2-  S253  1  0.86576342  0.49334233  0.55808405  1
  S2-  S254  1  0.86836018  0.74137772  0.03931410  1
  S2-  S255  1  0.86851714  0.74283922  0.55323888  1
