# generated using pymatgen
data_La9Ce10Pr6Nd4Sm3(BiS2)32
_symmetry_space_group_name_H-M   'P 1'
_cell_length_a   16.23585981
_cell_length_b   16.23153719
_cell_length_c   27.09084337
_cell_angle_alpha   89.95706020
_cell_angle_beta   90.06598769
_cell_angle_gamma   89.99860400
_symmetry_Int_Tables_number   1
_chemical_formula_structural   La9Ce10Pr6Nd4Sm3(BiS2)32
_chemical_formula_sum   'La18 Ce20 Pr12 Nd8 Sm6 Bi64 S128'
_cell_volume   7139.32346298
_cell_formula_units_Z   2
loop_
 _symmetry_equiv_pos_site_id
 _symmetry_equiv_pos_as_xyz
  1  'x, y, z'
loop_
 _atom_type_symbol
 _atom_type_oxidation_number
  La3+  3.0
  Ce3+  3.0
  Pr3+  3.0
  Nd3+  3.0
  Sm3+  3.0
  Bi2+  2.0
  S2-  -2.0
loop_
 _atom_site_type_symbol
 _atom_site_label
 _atom_site_symmetry_multiplicity
 _atom_site_fract_x
 _atom_site_fract_y
 _atom_site_fract_z
 _atom_site_occupancy
  La3+  La0  1  0.23140029  0.14242368  0.59151935  1
  La3+  La1  1  0.39551203  0.25222702  0.91667611  1
  La3+  La2  1  0.63036808  -0.00766489  0.93258522  1
  La3+  La3  1  0.60900844  0.51852222  0.43020957  1
  La3+  La4  1  0.48510173  0.38344410  0.56840363  1
  La3+  La5  1  0.51053007  0.35839192  0.08599551  1
  La3+  La6  1  0.12266339  0.01193021  0.38953733  1
  La3+  La7  1  0.85922014  0.26163028  0.43542968  1
  La3+  La8  1  -0.01077188  0.37870660  0.56319963  1
  La3+  La9  1  0.25758100  0.35864111  0.06231456  1
  La3+  La10  1  0.12522006  0.00139939  0.91375573  1
  La3+  La11  1  0.51175381  0.86746224  0.07083853  1
  La3+  La12  1  -0.01400788  0.62753448  0.59378854  1
  La3+  La13  1  0.10446086  0.25996876  0.42185793  1
  La3+  La14  1  0.62331284  0.48762102  0.93684359  1
  La3+  La15  1  0.10134919  0.75874548  0.43368199  1
  La3+  La16  1  0.48447870  0.89200710  0.57219479  1
  La3+  La17  1  0.25025955  0.86326174  0.08622643  1
  Ce3+  Ce18  1  0.88089968  -0.00779652  0.93868374  1
  Ce3+  Ce19  1  0.23257310  0.88384714  0.56181591  1
  Ce3+  Ce20  1  0.60998159  0.00830932  0.43967638  1
  Ce3+  Ce21  1  0.88050739  0.49102153  0.94319158  1
  Ce3+  Ce22  1  0.50483788  0.11716419  0.05708306  1
  Ce3+  Ce23  1  0.00811669  0.36568795  0.06065743  1
  Ce3+  Ce24  1  0.73725451  0.88215282  0.55506070  1
  Ce3+  Ce25  1  0.37537525  0.74807328  0.94479701  1
  Ce3+  Ce26  1  0.75804545  0.11505768  0.05622120  1
  Ce3+  Ce27  1  0.88218312  0.24372788  0.94927893  1
  Ce3+  Ce28  1  -0.01085520  0.88543033  0.56232315  1
  Ce3+  Ce29  1  0.36075989  0.51008162  0.43919138  1
  Ce3+  Ce30  1  0.86808700  0.00648250  0.43749362  1
  Ce3+  Ce31  1  0.13138113  0.49473545  0.94338735  1
  Ce3+  Ce32  1  0.13277760  0.24110035  0.93881541  1
  Ce3+  Ce33  1  0.62683411  0.74292801  0.94013509  1
  Ce3+  Ce34  1  0.75650065  0.61610319  0.05469968  1
  Ce3+  Ce35  1  0.48465444  0.63212373  0.56679811  1
  Ce3+  Ce36  1  0.23593734  0.38016601  0.55210533  1
  Ce3+  Ce37  1  0.75475258  0.36764351  0.06385620  1
  Pr3+  Pr38  1  0.12828730  0.73596996  0.92556517  1
  Pr3+  Pr39  1  0.50552104  0.61642353  0.05889107  1
  Pr3+  Pr40  1  0.73570698  0.63232042  0.56857043  1
  Pr3+  Pr41  1  0.25759219  0.10841840  0.06005740  1
  Pr3+  Pr42  1  0.25660056  0.61824592  0.06756084  1
  Pr3+  Pr43  1  0.00873675  0.61805286  0.06387284  1
  Pr3+  Pr44  1  0.10665565  0.50807556  0.43126893  1
  Pr3+  Pr45  1  0.35764691  0.01072281  0.44666083  1
  Pr3+  Pr46  1  0.23309643  0.63454731  0.55169942  1
  Pr3+  Pr47  1  0.35817678  0.25583824  0.43368395  1
  Pr3+  Pr48  1  -0.01096951  0.13123081  0.56015207  1
  Pr3+  Pr49  1  0.60847844  0.26238306  0.43630292  1
  Nd3+  Nd50  1  0.87942606  0.74064573  0.94008709  1
  Nd3+  Nd51  1  0.37767265  -0.00871033  0.93684270  1
  Nd3+  Nd52  1  0.75652524  0.86784273  0.06226092  1
  Nd3+  Nd53  1  0.38063190  0.49081665  0.94912719  1
  Nd3+  Nd54  1  0.35841857  0.76374079  0.44188995  1
  Nd3+  Nd55  1  0.60830027  0.76311563  0.43979405  1
  Nd3+  Nd56  1  0.00945777  0.11253546  0.06094639  1
  Nd3+  Nd57  1  0.73670398  0.13342291  0.55467666  1
  Sm3+  Sm58  1  0.48685121  0.13728517  0.56701525  1
  Sm3+  Sm59  1  0.86496921  0.75665218  0.44557667  1
  Sm3+  Sm60  1  0.01066426  0.86631375  0.05150331  1
  Sm3+  Sm61  1  0.63261906  0.24311708  0.94571051  1
  Sm3+  Sm62  1  0.86027175  0.51295651  0.44787261  1
  Sm3+  Sm63  1  0.73408549  0.38348446  0.55595128  1
  Bi2+  Bi64  1  -0.04855401  0.13122060  0.27794182  1
  Bi2+  Bi65  1  -0.01761159  0.13720711  0.78970782  1
  Bi2+  Bi66  1  -0.03000608  0.39286516  0.29108872  1
  Bi2+  Bi67  1  -0.02534048  0.38129610  0.74278619  1
  Bi2+  Bi68  1  0.02910695  0.59676636  0.31214640  1
  Bi2+  Bi69  1  0.00154680  0.62141467  0.79917990  1
  Bi2+  Bi70  1  -0.00399178  0.85915137  0.28983583  1
  Bi2+  Bi71  1  0.01751214  0.87300285  0.78935576  1
  Bi2+  Bi72  1  0.27233938  0.13879683  0.28801467  1
  Bi2+  Bi73  1  0.24385019  0.10179379  0.78510672  1
  Bi2+  Bi74  1  0.24126050  0.43991551  0.28844416  1
  Bi2+  Bi75  1  0.22473659  0.40520793  0.79086584  1
  Bi2+  Bi76  1  0.21543104  0.63511684  0.29211402  1
  Bi2+  Bi77  1  0.28873496  0.59156584  0.79769450  1
  Bi2+  Bi78  1  0.28971017  0.88331742  0.29751692  1
  Bi2+  Bi79  1  0.28837512  0.85698269  0.80289137  1
  Bi2+  Bi80  1  0.53692152  0.10801000  0.28010150  1
  Bi2+  Bi81  1  0.51339298  0.12410470  0.78825738  1
  Bi2+  Bi82  1  0.48117526  0.36598187  0.29217289  1
  Bi2+  Bi83  1  0.53296451  0.38280839  0.79420575  1
  Bi2+  Bi84  1  0.54462266  0.60452321  0.27378725  1
  Bi2+  Bi85  1  0.48879871  0.58967802  0.79349599  1
  Bi2+  Bi86  1  0.54753839  0.82125414  0.29374029  1
  Bi2+  Bi87  1  0.53443067  0.78388605  0.77381377  1
  Bi2+  Bi88  1  0.75847913  0.10530141  0.28532669  1
  Bi2+  Bi89  1  0.75115965  0.16963334  0.79501294  1
  Bi2+  Bi90  1  0.73416764  0.33732872  0.30960777  1
  Bi2+  Bi91  1  0.78386310  0.36491817  0.79276940  1
  Bi2+  Bi92  1  0.77640395  0.71175474  0.30938003  1
  Bi2+  Bi93  1  0.75407568  0.65424059  0.78421412  1
  Bi2+  Bi94  1  0.75802296  0.90594930  0.29538587  1
  Bi2+  Bi95  1  0.75010204  0.97553374  0.81794916  1
  Bi2+  Bi96  1  0.12367280  0.02405490  0.18704790  1
  Bi2+  Bi97  1  0.04801323  0.01087999  0.69243501  1
  Bi2+  Bi98  1  0.11580539  0.27545988  0.19777453  1
  Bi2+  Bi99  1  0.13553156  0.28426129  0.71639952  1
  Bi2+  Bi100  1  0.11107857  0.52388652  0.20931263  1
  Bi2+  Bi101  1  0.14483869  0.50619015  0.70256218  1
  Bi2+  Bi102  1  0.12205905  0.75854926  0.21482453  1
  Bi2+  Bi103  1  0.15289120  0.76554246  0.69729732  1
  Bi2+  Bi104  1  0.42112129  0.00298734  0.21357788  1
  Bi2+  Bi105  1  0.39721965  -0.04522529  0.70587448  1
  Bi2+  Bi106  1  0.36270180  0.26611899  0.19834908  1
  Bi2+  Bi107  1  0.37851885  0.24907619  0.71176223  1
  Bi2+  Bi108  1  0.36184196  0.54167664  0.21562843  1
  Bi2+  Bi109  1  0.36010680  0.46837127  0.71540697  1
  Bi2+  Bi110  1  0.38268280  0.73320509  0.21814804  1
  Bi2+  Bi111  1  0.38673218  0.69209019  0.71256170  1
  Bi2+  Bi112  1  0.61477197  -0.01453777  0.20493621  1
  Bi2+  Bi113  1  0.64800435  0.00980774  0.71956308  1
  Bi2+  Bi114  1  0.64523070  0.22185487  0.19977415  1
  Bi2+  Bi115  1  0.65547204  0.26883134  0.70645460  1
  Bi2+  Bi116  1  0.68182634  0.49548561  0.22232730  1
  Bi2+  Bi117  1  0.61590267  0.53404365  0.70867829  1
  Bi2+  Bi118  1  0.65616529  0.72415177  0.21107350  1
  Bi2+  Bi119  1  0.66651213  0.71727842  0.68774325  1
  Bi2+  Bi120  1  0.88248760  -0.01586358  0.21158999  1
  Bi2+  Bi121  1  0.86297980  0.03174271  0.71144932  1
  Bi2+  Bi122  1  0.83447652  0.26711899  0.22487684  1
  Bi2+  Bi123  1  0.87124368  0.23056586  0.70172487  1
  Bi2+  Bi124  1  0.85858048  0.55016357  0.25724398  1
  Bi2+  Bi125  1  0.82400731  0.51324090  0.71571380  1
  Bi2+  Bi126  1  0.85676104  0.79573676  0.21108361  1
  Bi2+  Bi127  1  0.79803319  0.83606095  0.74237564  1
  S2-  S128  1  0.01232293  0.15335392  0.15901202  1
  S2-  S129  1  0.07822293  0.16413019  0.64723431  1
  S2-  S130  1  0.01567480  0.39577520  0.15771930  1
  S2-  S131  1  0.00183117  0.46761629  0.64883309  1
  S2-  S132  1  0.02134899  0.64442090  0.16350205  1
  S2-  S133  1  0.04190782  0.65042809  0.69512816  1
  S2-  S134  1  0.08682833  0.87609258  0.14057046  1
  S2-  S135  1  0.01114016  0.85144459  0.65975254  1
  S2-  S136  1  0.23407879  0.18269523  0.15342000  1
  S2-  S137  1  0.30364384  0.09857829  0.68420772  1
  S2-  S138  1  0.23912845  0.37756938  0.16269147  1
  S2-  S139  1  0.25172771  0.30414034  0.64132478  1
  S2-  S140  1  0.24708540  0.72174016  0.14905428  1
  S2-  S141  1  0.24201887  0.64632744  0.65282051  1
  S2-  S142  1  0.27231663  0.99430012  0.15047092  1
  S2-  S143  1  0.26397534  0.88885409  0.65978351  1
  S2-  S144  1  0.49474827  0.20060376  0.14381304  1
  S2-  S145  1  0.49877006  0.02294397  0.64382979  1
  S2-  S146  1  0.45247234  0.39980793  0.18377305  1
  S2-  S147  1  0.49014792  0.26031877  0.64287493  1
  S2-  S148  1  0.48489629  0.62349254  0.15899219  1
  S2-  S149  1  0.48487491  0.51377654  0.64056497  1
  S2-  S150  1  0.42498149  0.85532976  0.16018554  1
  S2-  S151  1  0.47540083  0.80899549  0.66266697  1
  S2-  S152  1  0.73094322  0.09205501  0.15159045  1
  S2-  S153  1  0.68852658  0.13889238  0.65145402  1
  S2-  S154  1  0.66009011  0.37579994  0.14674383  1
  S2-  S155  1  0.71562466  0.40905630  0.65325299  1
  S2-  S156  1  0.74752143  0.60764347  0.15232590  1
  S2-  S157  1  0.83978396  0.64160314  0.65055834  1
  S2-  S158  1  0.64956973  0.85913841  0.14107486  1
  S2-  S159  1  0.71006780  0.88768367  0.65228702  1
  S2-  S160  1  0.16730573  0.00341160  0.27897964  1
  S2-  S161  1  0.15846443  -0.03259690  0.81260248  1
  S2-  S162  1  0.13983372  0.16790314  0.33743204  1
  S2-  S163  1  0.12613452  0.16590818  0.85040581  1
  S2-  S164  1  0.11366675  0.39722181  0.35009284  1
  S2-  S165  1  0.13175334  0.58430857  0.85991231  1
  S2-  S166  1  0.14220234  0.84852436  0.34918631  1
  S2-  S167  1  0.13593819  0.77619717  0.82360629  1
  S2-  S168  1  0.34933236  0.01185815  0.34429249  1
  S2-  S169  1  0.35319051  -0.00428852  0.83599708  1
  S2-  S170  1  0.36911166  0.26522104  0.33110218  1
  S2-  S171  1  0.36065365  0.20909037  0.81757876  1
  S2-  S172  1  0.39221995  0.48598281  0.34362493  1
  S2-  S173  1  0.42830668  0.41184687  0.86545139  1
  S2-  S174  1  0.39827172  0.77055634  0.34437207  1
  S2-  S175  1  0.41294425  0.77911729  0.85004555  1
  S2-  S176  1  0.58643411  -0.05071295  0.34872475  1
  S2-  S177  1  0.56673147  -0.00377416  0.83770507  1
  S2-  S178  1  0.59365286  0.23811097  0.33623931  1
  S2-  S179  1  0.55865985  0.24232299  0.85652620  1
  S2-  S180  1  0.61224396  0.44338525  0.33813717  1
  S2-  S181  1  0.67007364  0.46023200  0.84057826  1
  S2-  S182  1  0.61808199  0.65717358  0.36002378  1
  S2-  S183  1  0.65850113  0.75639938  0.84394012  1
  S2-  S184  1  0.95833746  -0.00003268  0.35123133  1
  S2-  S185  1  0.96876311  -0.00217591  0.85427367  1
  S2-  S186  1  0.94974806  0.25689154  0.35015252  1
  S2-  S187  1  0.89204100  0.24609038  0.85126898  1
  S2-  S188  1  0.84267217  0.46584935  0.35229327  1
  S2-  S189  1  0.91237341  0.51727060  0.84774921  1
  S2-  S190  1  0.95951352  0.73962077  0.36181500  1
  S2-  S191  1  0.92331414  0.75240825  0.84344030  1
  S2-  S192  1  -0.01395123  0.13115874  0.45352588  1
  S2-  S193  1  0.00346150  0.11981411  0.95563185  1
  S2-  S194  1  -0.01964227  0.38837518  0.45598151  1
  S2-  S195  1  0.00863929  0.36850587  0.95207482  1
  S2-  S196  1  -0.01671611  0.62795339  0.46406858  1
  S2-  S197  1  0.00221920  0.61711622  0.95765056  1
  S2-  S198  1  -0.01480917  0.88458826  0.45774333  1
  S2-  S199  1  0.00619154  0.86398479  0.94903633  1
  S2-  S200  1  0.23342698  0.13125207  0.44366796  1
  S2-  S201  1  0.26109483  0.12090929  0.94890245  1
  S2-  S202  1  0.23836959  0.38466942  0.44775657  1
  S2-  S203  1  0.25585896  0.36729810  0.95157219  1
  S2-  S204  1  0.23332477  0.63525196  0.44377647  1
  S2-  S205  1  0.25927396  0.61639571  0.95955734  1
  S2-  S206  1  0.23299186  0.88667218  0.45534281  1
  S2-  S207  1  0.24929230  0.86975990  0.94203902  1
  S2-  S208  1  0.48737180  0.13394123  0.45329226  1
  S2-  S209  1  0.50475648  0.11748608  0.95192512  1
  S2-  S210  1  0.48443946  0.38440750  0.45456293  1
  S2-  S211  1  0.51017721  0.36352836  0.97085204  1
  S2-  S212  1  0.48084293  0.63827340  0.45810676  1
  S2-  S213  1  0.50149016  0.61836624  0.95071710  1
  S2-  S214  1  0.48451772  0.88463966  0.46024086  1
  S2-  S215  1  0.50582271  0.86796517  0.95741598  1
  S2-  S216  1  0.73636852  0.13265341  0.44615038  1
  S2-  S217  1  0.75635116  0.11983080  0.94919753  1
  S2-  S218  1  0.73420967  0.38703111  0.45243868  1
  S2-  S219  1  0.75490904  0.36585818  0.95626456  1
  S2-  S220  1  0.74071546  0.63767167  0.46040297  1
  S2-  S221  1  0.75402884  0.61563999  0.94753978  1
  S2-  S222  1  0.74033972  0.88001443  0.44817057  1
  S2-  S223  1  0.75683205  0.86543111  0.95528249  1
  S2-  S224  1  0.13006329  -0.00908481  0.03629929  1
  S2-  S225  1  0.11479173  0.00972231  0.55646162  1
  S2-  S226  1  0.12874308  0.23907944  0.04435904  1
  S2-  S227  1  0.11208623  0.25777623  0.53645584  1
  S2-  S228  1  0.13359465  0.49269358  0.05047705  1
  S2-  S229  1  0.11307534  0.50727080  0.54212843  1
  S2-  S230  1  0.13053370  0.74142526  0.03861186  1
  S2-  S231  1  0.10651612  0.75538943  0.54774634  1
  S2-  S232  1  0.38411497  -0.01228136  0.04412347  1
  S2-  S233  1  0.35377436  0.01850239  0.55198723  1
  S2-  S234  1  0.37965645  0.23809873  0.04205362  1
  S2-  S235  1  0.36070690  0.25292211  0.54045715  1
  S2-  S236  1  0.38091522  0.49003919  0.05560159  1
  S2-  S237  1  0.35568732  0.50779708  0.54505226  1
  S2-  S238  1  0.38089622  0.74355377  0.04922729  1
  S2-  S239  1  0.35988042  0.75856306  0.54916554  1
  S2-  S240  1  0.63319108  -0.00531997  0.04174459  1
  S2-  S241  1  0.61499677  0.01056135  0.54338517  1
  S2-  S242  1  0.63580731  0.23805286  0.04799422  1
  S2-  S243  1  0.61458790  0.25838184  0.54255850  1
  S2-  S244  1  0.63064819  0.49441013  0.04593081  1
  S2-  S245  1  0.61414168  0.50899417  0.54128122  1
  S2-  S246  1  0.63286087  0.73787115  0.04487901  1
  S2-  S247  1  0.61038550  0.75810128  0.54662842  1
  S2-  S248  1  0.88386507  -0.01201705  0.04812819  1
  S2-  S249  1  0.86123005  0.00913807  0.54806173  1
  S2-  S250  1  0.88143139  0.24183711  0.05608424  1
  S2-  S251  1  0.85938635  0.25867760  0.54651650  1
  S2-  S252  1  0.88212984  0.49137618  0.05169603  1
  S2-  S253  1  0.85879934  0.50399709  0.55114567  1
  S2-  S254  1  0.88245223  0.74503418  0.04940620  1
  S2-  S255  1  0.86404686  0.75998957  0.54981798  1
