# generated using pymatgen
data_La9Ce10Pr6Nd4Sm3(BiS2)32
_symmetry_space_group_name_H-M   'P 1'
_cell_length_a   16.16894879
_cell_length_b   16.12983072
_cell_length_c   27.08425254
_cell_angle_alpha   89.97671466
_cell_angle_beta   90.11811203
_cell_angle_gamma   90.07400874
_symmetry_Int_Tables_number   1
_chemical_formula_structural   La9Ce10Pr6Nd4Sm3(BiS2)32
_chemical_formula_sum   'La18 Ce20 Pr12 Nd8 Sm6 Bi64 S128'
_cell_volume   7063.61677622
_cell_formula_units_Z   2
loop_
 _symmetry_equiv_pos_site_id
 _symmetry_equiv_pos_as_xyz
  1  'x, y, z'
loop_
 _atom_type_symbol
 _atom_type_oxidation_number
  La3+  3.0
  Ce3+  3.0
  Pr3+  3.0
  Nd3+  3.0
  Sm3+  3.0
  Bi2+  2.0
  S2-  -2.0
loop_
 _atom_site_type_symbol
 _atom_site_label
 _atom_site_symmetry_multiplicity
 _atom_site_fract_x
 _atom_site_fract_y
 _atom_site_fract_z
 _atom_site_occupancy
  La3+  La0  1  0.01096510  0.63395685  0.07177055  1
  La3+  La1  1  0.51161020  0.88824730  0.07371789  1
  La3+  La2  1  0.36236133  0.00181847  0.43128739  1
  La3+  La3  1  -0.01960294  0.36988305  0.58096736  1
  La3+  La4  1  0.36053273  0.49709875  0.43352091  1
  La3+  La5  1  0.50830991  0.13592753  0.06254224  1
  La3+  La6  1  0.72772135  0.12067144  0.57552344  1
  La3+  La7  1  0.61025323  -0.00905784  0.42895225  1
  La3+  La8  1  0.75013301  0.62989624  0.08823713  1
  La3+  La9  1  0.61007423  0.49363826  0.42858237  1
  La3+  La10  1  0.47942919  0.86717615  0.57290047  1
  La3+  La11  1  0.10757566  0.48648396  0.42445825  1
  La3+  La12  1  0.50119657  0.63973104  0.07033724  1
  La3+  La13  1  0.22905227  0.86749804  0.56486592  1
  La3+  La14  1  0.01492857  0.89064054  0.09434720  1
  La3+  La15  1  0.26551119  0.38231336  0.10550070  1
  La3+  La16  1  0.47936695  0.11611759  0.57865310  1
  La3+  La17  1  0.76046779  0.89580838  0.07875481  1
  Ce3+  Ce18  1  0.64131650  0.01098908  0.92632840  1
  Ce3+  Ce19  1  0.86002078  0.24423207  0.44538180  1
  Ce3+  Ce20  1  0.00847969  0.14127040  0.06168962  1
  Ce3+  Ce21  1  0.38604226  0.76787245  0.93575046  1
  Ce3+  Ce22  1  -0.01278683  0.87571270  0.56797784  1
  Ce3+  Ce23  1  0.48489683  0.62375634  0.56290994  1
  Ce3+  Ce24  1  0.35774305  0.75066223  0.43371548  1
  Ce3+  Ce25  1  0.25256295  0.88908388  0.05155047  1
  Ce3+  Ce26  1  0.60756396  0.24487341  0.44613535  1
  Ce3+  Ce27  1  0.64342283  0.27068212  0.90961137  1
  Ce3+  Ce28  1  0.25880944  0.63070341  0.05451327  1
  Ce3+  Ce29  1  0.63356656  0.76677326  0.94309923  1
  Ce3+  Ce30  1  0.73403208  0.86942782  0.55511994  1
  Ce3+  Ce31  1  0.25487910  0.14046393  0.05552345  1
  Ce3+  Ce32  1  -0.01332936  0.61808054  0.55786770  1
  Ce3+  Ce33  1  0.00931626  0.39030911  0.07089985  1
  Ce3+  Ce34  1  0.38690943  0.01585574  0.93821868  1
  Ce3+  Ce35  1  0.10971724  0.74897625  0.43012984  1
  Ce3+  Ce36  1  0.75770406  0.38438618  0.06253458  1
  Ce3+  Ce37  1  0.73457161  0.37452954  0.56046175  1
  Pr3+  Pr38  1  0.88674020  0.00985314  0.93808450  1
  Pr3+  Pr39  1  0.38534814  0.26221121  0.93693063  1
  Pr3+  Pr40  1  0.73302644  0.62527381  0.55287358  1
  Pr3+  Pr41  1  0.13060674  0.76295424  0.93906483  1
  Pr3+  Pr42  1  0.87852263  0.51641861  0.94401690  1
  Pr3+  Pr43  1  0.63192071  0.52037145  0.93957372  1
  Pr3+  Pr44  1  0.12982072  0.26596362  0.93791545  1
  Pr3+  Pr45  1  0.10168106  -0.00338837  0.43086787  1
  Pr3+  Pr46  1  0.88583889  0.26589445  0.93159958  1
  Pr3+  Pr47  1  0.13220069  0.51270454  0.93750418  1
  Pr3+  Pr48  1  0.23195763  0.36992692  0.56383141  1
  Pr3+  Pr49  1  0.48018255  0.37999361  0.57265873  1
  Nd3+  Nd50  1  0.87984549  0.76310358  0.95479342  1
  Nd3+  Nd51  1  0.76001406  0.13884957  0.05524616  1
  Nd3+  Nd52  1  0.86011047  0.49546695  0.43948389  1
  Nd3+  Nd53  1  0.50777038  0.38430085  0.06166331  1
  Nd3+  Nd54  1  0.23371349  0.12131376  0.55986373  1
  Nd3+  Nd55  1  0.38582301  0.51109808  0.93717868  1
  Nd3+  Nd56  1  0.10146184  0.24206932  0.42996250  1
  Nd3+  Nd57  1  0.86875500  0.74653599  0.42495392  1
  Sm3+  Sm58  1  0.60117762  0.74725837  0.42768505  1
  Sm3+  Sm59  1  0.23187494  0.61947606  0.55034303  1
  Sm3+  Sm60  1  -0.01676983  0.11786859  0.56661667  1
  Sm3+  Sm61  1  0.85345361  -0.00250562  0.43874674  1
  Sm3+  Sm62  1  0.12705374  0.01273767  0.93491975  1
  Sm3+  Sm63  1  0.36009517  0.24796885  0.44438400  1
  Bi2+  Bi64  1  -0.02634187  0.11807659  0.29994118  1
  Bi2+  Bi65  1  0.08274114  0.12962018  0.80608173  1
  Bi2+  Bi66  1  0.03596079  0.32038110  0.27496364  1
  Bi2+  Bi67  1  0.00511813  0.35339403  0.76799647  1
  Bi2+  Bi68  1  -0.00993587  0.60467489  0.29129744  1
  Bi2+  Bi69  1  0.01285688  0.60837105  0.79909643  1
  Bi2+  Bi70  1  0.06439458  0.91469085  0.28560016  1
  Bi2+  Bi71  1  0.01865828  0.86983522  0.78885664  1
  Bi2+  Bi72  1  0.26341368  0.08025958  0.30221972  1
  Bi2+  Bi73  1  0.27501501  0.09140739  0.80303704  1
  Bi2+  Bi74  1  0.27660691  0.31813313  0.28985987  1
  Bi2+  Bi75  1  0.20442640  0.30059484  0.77917314  1
  Bi2+  Bi76  1  0.23619607  0.70101555  0.31771387  1
  Bi2+  Bi77  1  0.21007601  0.55720115  0.74226234  1
  Bi2+  Bi78  1  0.23848288  0.88805634  0.34422782  1
  Bi2+  Bi79  1  0.21220685  0.85839250  0.77033415  1
  Bi2+  Bi80  1  0.56900828  0.15294346  0.28493319  1
  Bi2+  Bi81  1  0.51863772  0.17665965  0.77415811  1
  Bi2+  Bi82  1  0.52972583  0.43465951  0.29797238  1
  Bi2+  Bi83  1  0.53623784  0.38496402  0.80369678  1
  Bi2+  Bi84  1  0.40939733  0.60702272  0.30296836  1
  Bi2+  Bi85  1  0.51108882  0.64275458  0.78776645  1
  Bi2+  Bi86  1  0.49655675  0.88698889  0.29210006  1
  Bi2+  Bi87  1  0.49161714  0.87301563  0.78856517  1
  Bi2+  Bi88  1  0.76682098  0.16389713  0.28636312  1
  Bi2+  Bi89  1  0.76138827  0.13069484  0.78890584  1
  Bi2+  Bi90  1  0.77944552  0.35897995  0.28576084  1
  Bi2+  Bi91  1  0.80108733  0.35159908  0.74581454  1
  Bi2+  Bi92  1  0.76225158  0.59680831  0.27603673  1
  Bi2+  Bi93  1  0.76324061  0.59703593  0.81763317  1
  Bi2+  Bi94  1  0.78008501  0.90372066  0.30527420  1
  Bi2+  Bi95  1  0.75831243  0.85798522  0.79714157  1
  Bi2+  Bi96  1  0.15172525  0.03420596  0.21044159  1
  Bi2+  Bi97  1  0.13932637  0.01343490  0.71466886  1
  Bi2+  Bi98  1  -0.03387046  0.24967112  0.17692499  1
  Bi2+  Bi99  1  0.17748995  0.19814123  0.68169190  1
  Bi2+  Bi100  1  0.15567419  0.52879071  0.21920888  1
  Bi2+  Bi101  1  0.13404338  0.39882594  0.68510134  1
  Bi2+  Bi102  1  0.14727632  0.77162280  0.21969224  1
  Bi2+  Bi103  1  0.10135048  0.70534791  0.69735403  1
  Bi2+  Bi104  1  0.33432323  -0.06651066  0.23678565  1
  Bi2+  Bi105  1  0.36868658  0.00732018  0.71266329  1
  Bi2+  Bi106  1  0.39401616  0.13516288  0.20354962  1
  Bi2+  Bi107  1  0.39460046  0.30251692  0.72500135  1
  Bi2+  Bi108  1  0.44222816  0.53216939  0.19881041  1
  Bi2+  Bi109  1  0.40016698  0.50714607  0.72919129  1
  Bi2+  Bi110  1  0.34134978  0.72762216  0.21640839  1
  Bi2+  Bi111  1  0.35768640  0.75100891  0.70844273  1
  Bi2+  Bi112  1  0.61882026  0.00816609  0.21228403  1
  Bi2+  Bi113  1  0.64749762  0.01237068  0.70048075  1
  Bi2+  Bi114  1  0.55642874  0.23799713  0.18017133  1
  Bi2+  Bi115  1  0.61627799  0.31308469  0.70393850  1
  Bi2+  Bi116  1  0.64592901  0.40604136  0.20512097  1
  Bi2+  Bi117  1  0.62636695  0.51342757  0.71329345  1
  Bi2+  Bi118  1  0.58855561  0.74190141  0.21321383  1
  Bi2+  Bi119  1  0.62763585  0.73972856  0.71145452  1
  Bi2+  Bi120  1  0.87621478  0.03818999  0.21097734  1
  Bi2+  Bi121  1  0.88237297  -0.07838271  0.71213954  1
  Bi2+  Bi122  1  0.76935162  0.24487943  0.17592800  1
  Bi2+  Bi123  1  0.92490601  0.18164758  0.73006562  1
  Bi2+  Bi124  1  0.91290622  0.43244994  0.20902247  1
  Bi2+  Bi125  1  0.86792912  0.52645558  0.69987823  1
  Bi2+  Bi126  1  0.90855214  0.77040201  0.23138023  1
  Bi2+  Bi127  1  0.90476300  0.72626237  0.72362575  1
  S2-  S128  1  0.01707982  0.05078408  0.14692301  1
  S2-  S129  1  -0.01946661  -0.00295929  0.64241545  1
  S2-  S130  1  0.02858490  0.51020445  0.14679460  1
  S2-  S131  1  0.00256353  0.22753398  0.64558681  1
  S2-  S132  1  0.02217143  0.73911623  0.15593048  1
  S2-  S133  1  -0.00087180  0.52037672  0.64187972  1
  S2-  S134  1  -0.12347537  0.88929922  0.16159945  1
  S2-  S135  1  0.10724014  0.83603510  0.63892515  1
  S2-  S136  1  0.27313926  0.19990106  0.14761989  1
  S2-  S137  1  0.33522739  0.12375153  0.64628065  1
  S2-  S138  1  0.19028649  0.37507870  0.20061922  1
  S2-  S139  1  0.34463313  0.37467242  0.64296752  1
  S2-  S140  1  0.26635624  0.56029952  0.14611036  1
  S2-  S141  1  0.25343320  0.64179016  0.64887438  1
  S2-  S142  1  0.18202843  0.90007517  0.14170360  1
  S2-  S143  1  0.33352575  0.87385426  0.64744341  1
  S2-  S144  1  0.49196232  0.02273604  0.14407436  1
  S2-  S145  1  0.59955386  0.15469359  0.65218289  1
  S2-  S146  1  0.42298183  0.39052512  0.15208969  1
  S2-  S147  1  0.50037178  0.51540438  0.64205056  1
  S2-  S148  1  0.59335241  0.60853580  0.15787415  1
  S2-  S149  1  0.49472776  0.73299882  0.64451544  1
  S2-  S150  1  0.46020716  0.76824829  0.14718107  1
  S2-  S151  1  0.50629250  0.98015310  0.65272431  1
  S2-  S152  1  0.74307713  0.05414003  0.14462469  1
  S2-  S153  1  0.79039639  0.10299209  0.67380094  1
  S2-  S154  1  0.77238392  0.47667606  0.14685455  1
  S2-  S155  1  0.82696087  0.37709325  0.64560171  1
  S2-  S156  1  0.79397160  0.68062467  0.18898530  1
  S2-  S157  1  0.72713871  0.61833980  0.65545286  1
  S2-  S158  1  0.64313534  0.86486103  0.15596736  1
  S2-  S159  1  0.70253104  0.86558936  0.65331416  1
  S2-  S160  1  0.11820423  0.11833806  0.35666660  1
  S2-  S161  1  0.01079492  -0.00172295  0.86056158  1
  S2-  S162  1  0.14077026  0.35195802  0.35197697  1
  S2-  S163  1  0.01485622  0.27551167  0.85919178  1
  S2-  S164  1  0.13461834  0.55092063  0.32599531  1
  S2-  S165  1  0.13611221  0.51645721  0.83502099  1
  S2-  S166  1  0.00378727  0.73615819  0.35252024  1
  S2-  S167  1  0.12934630  0.75463265  0.83716924  1
  S2-  S168  1  0.48616916  0.01392798  0.35591477  1
  S2-  S169  1  0.40395422  -0.01739783  0.84070138  1
  S2-  S170  1  0.35733736  0.21161998  0.34613499  1
  S2-  S171  1  0.38297921  0.22050548  0.83766736  1
  S2-  S172  1  0.35710899  0.43032718  0.33770965  1
  S2-  S173  1  0.41510423  0.50954839  0.83798120  1
  S2-  S174  1  0.46414249  0.74662921  0.35592730  1
  S2-  S175  1  0.39683026  0.75210434  0.83605113  1
  S2-  S176  1  0.73858180  0.03203809  0.35902638  1
  S2-  S177  1  0.62002417  -0.12810360  0.85958870  1
  S2-  S178  1  0.58959344  0.28908630  0.35042759  1
  S2-  S179  1  0.61555665  0.12819704  0.84848020  1
  S2-  S180  1  0.62026941  0.56529329  0.33543889  1
  S2-  S181  1  0.66866755  0.43611803  0.85160605  1
  S2-  S182  1  0.63779690  0.84904678  0.34681134  1
  S2-  S183  1  0.63348972  0.65072903  0.86563996  1
  S2-  S184  1  0.93411295  -0.03992789  0.35120287  1
  S2-  S185  1  0.78606218  -0.00242673  0.85324060  1
  S2-  S186  1  0.94825600  0.25590648  0.35985387  1
  S2-  S187  1  0.78482284  0.26299906  0.84514861  1
  S2-  S188  1  0.86981293  0.49661690  0.33874085  1
  S2-  S189  1  0.89929778  0.50337478  0.84247916  1
  S2-  S190  1  0.80547430  0.72856792  0.32667164  1
  S2-  S191  1  0.84349516  0.74043671  0.85486645  1
  S2-  S192  1  -0.02156183  0.11661068  0.46017488  1
  S2-  S193  1  0.00885596  0.13928217  0.95721414  1
  S2-  S194  1  -0.01884680  0.37218247  0.46159114  1
  S2-  S195  1  0.00658387  0.39342858  0.96063827  1
  S2-  S196  1  -0.01442809  0.61581570  0.45151942  1
  S2-  S197  1  0.00779049  0.63785707  0.95792151  1
  S2-  S198  1  -0.01646154  0.87084599  0.45892037  1
  S2-  S199  1  0.00912412  0.88268993  0.96195864  1
  S2-  S200  1  0.23628498  0.12369912  0.45526267  1
  S2-  S201  1  0.25211156  0.13697987  0.94730543  1
  S2-  S202  1  0.23799134  0.36867180  0.45654627  1
  S2-  S203  1  0.25891354  0.38750649  0.93401942  1
  S2-  S204  1  0.23177268  0.61961587  0.44490225  1
  S2-  S205  1  0.26031097  0.63733301  0.94547988  1
  S2-  S206  1  0.23132869  0.87473941  0.45609366  1
  S2-  S207  1  0.25397861  0.89187683  0.94295577  1
  S2-  S208  1  0.48463082  0.12587392  0.46262306  1
  S2-  S209  1  0.50946826  0.13962213  0.95327910  1
  S2-  S210  1  0.48289309  0.37172523  0.45734477  1
  S2-  S211  1  0.51118196  0.38518148  0.95165151  1
  S2-  S212  1  0.48647324  0.61973150  0.45355901  1
  S2-  S213  1  0.50073060  0.64076966  0.96006832  1
  S2-  S214  1  0.48180257  0.87002860  0.45780909  1
  S2-  S215  1  0.50318173  0.89033529  0.96133507  1
  S2-  S216  1  0.73259813  0.12518731  0.46317761  1
  S2-  S217  1  0.76076944  0.14192201  0.95147624  1
  S2-  S218  1  0.73620615  0.37089429  0.45104321  1
  S2-  S219  1  0.75908143  0.38726160  0.95734912  1
  S2-  S220  1  0.73736508  0.62591307  0.44536905  1
  S2-  S221  1  0.75772018  0.63839635  0.97065328  1
  S2-  S222  1  0.74064593  0.86300272  0.45096173  1
  S2-  S223  1  0.76028496  0.88723468  0.96529629  1
  S2-  S224  1  0.13148247  0.01610896  0.03890406  1
  S2-  S225  1  0.11002771  0.00095601  0.54078462  1
  S2-  S226  1  0.13618685  0.26972255  0.04781571  1
  S2-  S227  1  0.10928019  0.24482808  0.54076630  1
  S2-  S228  1  0.14283633  0.50238136  0.04399430  1
  S2-  S229  1  0.11185641  0.49474243  0.53798904  1
  S2-  S230  1  0.13681536  0.75747171  0.04595806  1
  S2-  S231  1  0.10723251  0.73873341  0.53601143  1
  S2-  S232  1  0.37452640  0.01328662  0.04421694  1
  S2-  S233  1  0.35609495  -0.00445228  0.54079275  1
  S2-  S234  1  0.38028222  0.26384381  0.04346195  1
  S2-  S235  1  0.36169044  0.24763829  0.54668170  1
  S2-  S236  1  0.38136389  0.50545121  0.04299628  1
  S2-  S237  1  0.35585871  0.50091204  0.54132729  1
  S2-  S238  1  0.37267543  0.76362020  0.04117151  1
  S2-  S239  1  0.35416304  0.74161590  0.53963818  1
  S2-  S240  1  0.63357290  0.01540614  0.03886432  1
  S2-  S241  1  0.61078087  -0.00680105  0.54273370  1
  S2-  S242  1  0.63361296  0.26261723  0.04696782  1
  S2-  S243  1  0.60592445  0.25674243  0.55031045  1
  S2-  S244  1  0.62828304  0.50802392  0.04749219  1
  S2-  S245  1  0.61278074  0.49678066  0.53876841  1
  S2-  S246  1  0.63339481  0.75831491  0.05079413  1
  S2-  S247  1  0.60946046  0.74736763  0.53620631  1
  S2-  S248  1  0.88838520  0.01603855  0.04586670  1
  S2-  S249  1  0.85447380  -0.00363299  0.54426285  1
  S2-  S250  1  0.88552440  0.26566284  0.04317231  1
  S2-  S251  1  0.85549727  0.24230550  0.54990479  1
  S2-  S252  1  0.88405898  0.51208344  0.04961536  1
  S2-  S253  1  0.85675491  0.49960509  0.54389518  1
  S2-  S254  1  0.88066953  0.75856352  0.05921860  1
  S2-  S255  1  0.86383203  0.74581109  0.54677146  1
