# generated using pymatgen
data_La9Ce10Pr6Nd4Sm3(BiS2)32
_symmetry_space_group_name_H-M   'P 1'
_cell_length_a   16.15535635
_cell_length_b   16.15700106
_cell_length_c   27.29305650
_cell_angle_alpha   90.16328131
_cell_angle_beta   90.20606742
_cell_angle_gamma   89.83322075
_symmetry_Int_Tables_number   1
_chemical_formula_structural   La9Ce10Pr6Nd4Sm3(BiS2)32
_chemical_formula_sum   'La18 Ce20 Pr12 Nd8 Sm6 Bi64 S128'
_cell_volume   7123.98621255
_cell_formula_units_Z   2
loop_
 _symmetry_equiv_pos_site_id
 _symmetry_equiv_pos_as_xyz
  1  'x, y, z'
loop_
 _atom_type_symbol
 _atom_type_oxidation_number
  La3+  3.0
  Ce3+  3.0
  Pr3+  3.0
  Nd3+  3.0
  Sm3+  3.0
  Bi2+  2.0
  S2-  -2.0
loop_
 _atom_site_type_symbol
 _atom_site_label
 _atom_site_symmetry_multiplicity
 _atom_site_fract_x
 _atom_site_fract_y
 _atom_site_fract_z
 _atom_site_occupancy
  La3+  La0  1  0.51725452  0.14294607  0.11900478  1
  La3+  La1  1  0.87879279  0.75017947  0.92774149  1
  La3+  La2  1  0.12206750  0.26492237  0.42824584  1
  La3+  La3  1  0.76228623  0.62091933  0.07418504  1
  La3+  La4  1  0.76455051  0.87254958  0.07398202  1
  La3+  La5  1  0.86668641  0.50312618  0.40479140  1
  La3+  La6  1  0.24168417  0.39089662  0.56683469  1
  La3+  La7  1  0.13261673  0.74341958  0.89713444  1
  La3+  La8  1  0.74684991  0.39011649  0.57187810  1
  La3+  La9  1  0.00679930  0.62200548  0.05884520  1
  La3+  La10  1  0.38084716  0.24590719  0.93246751  1
  La3+  La11  1  0.01639397  0.87103641  0.06241894  1
  La3+  La12  1  0.25572140  0.12559104  0.06752694  1
  La3+  La13  1  0.12556768  0.76312629  0.41891968  1
  La3+  La14  1  0.62098209  0.00659864  0.43891956  1
  La3+  La15  1  0.00739123  0.37138977  0.06680053  1
  La3+  La16  1  0.49949665  0.88132428  0.61862923  1
  La3+  La17  1  0.24013982  0.87783663  0.57660086  1
  Ce3+  Ce18  1  0.50225456  0.88295952  0.06737658  1
  Ce3+  Ce19  1  0.25495361  0.37092080  0.04826808  1
  Ce3+  Ce20  1  0.37307706  0.50822846  0.44193213  1
  Ce3+  Ce21  1  0.49639419  0.13450934  0.57050830  1
  Ce3+  Ce22  1  0.37879149  0.50135152  0.94211396  1
  Ce3+  Ce23  1  0.62186836  0.75738262  0.44316086  1
  Ce3+  Ce24  1  0.24718243  0.13417760  0.56205497  1
  Ce3+  Ce25  1  0.50388931  0.62489742  0.06246681  1
  Ce3+  Ce26  1  0.63168353  0.74863701  0.95510491  1
  Ce3+  Ce27  1  0.25121115  0.87093202  0.04662946  1
  Ce3+  Ce28  1  -0.00050014  0.88297889  0.55735034  1
  Ce3+  Ce29  1  0.37059272  0.00755513  0.44830777  1
  Ce3+  Ce30  1  0.12790908  -0.00024769  0.92809462  1
  Ce3+  Ce31  1  0.74686846  0.13466444  0.55644077  1
  Ce3+  Ce32  1  0.62888615  0.24384870  0.93961972  1
  Ce3+  Ce33  1  0.12129079  0.51406594  0.42485035  1
  Ce3+  Ce34  1  0.74781278  0.64048705  0.55501415  1
  Ce3+  Ce35  1  0.63635418  0.49824724  0.94484405  1
  Ce3+  Ce36  1  0.74316219  0.88553914  0.56668230  1
  Ce3+  Ce37  1  0.12519065  0.24747913  0.92942106  1
  Pr3+  Pr38  1  0.37393269  0.26085062  0.44319511  1
  Pr3+  Pr39  1  -0.00534919  0.38985548  0.55632555  1
  Pr3+  Pr40  1  0.88230167  -0.00532181  0.93621858  1
  Pr3+  Pr41  1  0.85997340  0.77233548  0.40417615  1
  Pr3+  Pr42  1  0.74938789  0.36589283  0.06575165  1
  Pr3+  Pr43  1  0.37076420  0.76011178  0.43979421  1
  Pr3+  Pr44  1  0.62329732  0.50947855  0.44142521  1
  Pr3+  Pr45  1  0.12133766  0.01129224  0.43144927  1
  Pr3+  Pr46  1  0.38186720  0.74509037  0.94110581  1
  Pr3+  Pr47  1  0.25129240  0.62310798  0.05946525  1
  Pr3+  Pr48  1  0.11796563  0.49371542  0.92133235  1
  Pr3+  Pr49  1  0.49576176  0.38497703  0.57390087  1
  Nd3+  Nd50  1  0.86955278  0.26158170  0.43962548  1
  Nd3+  Nd51  1  0.62958473  -0.00565575  0.94185038  1
  Nd3+  Nd52  1  0.37826093  -0.00326961  0.93772996  1
  Nd3+  Nd53  1  0.00945122  0.12251201  0.06117918  1
  Nd3+  Nd54  1  -0.00690136  0.63761953  0.54380788  1
  Nd3+  Nd55  1  0.50317313  0.37194939  0.05437155  1
  Nd3+  Nd56  1  -0.00224808  0.13675866  0.55631931  1
  Nd3+  Nd57  1  0.62183666  0.26154860  0.44807367  1
  Sm3+  Sm58  1  0.87362362  0.49363022  0.93540843  1
  Sm3+  Sm59  1  0.24200543  0.63510278  0.55979658  1
  Sm3+  Sm60  1  0.49373127  0.64105675  0.56080544  1
  Sm3+  Sm61  1  0.75265714  0.11908035  0.05329463  1
  Sm3+  Sm62  1  0.87835767  0.24691684  0.94612640  1
  Sm3+  Sm63  1  0.87095072  0.00604796  0.44552966  1
  Bi2+  Bi64  1  -0.01198246  0.14003501  0.29790239  1
  Bi2+  Bi65  1  -0.00568489  0.10788151  0.83302334  1
  Bi2+  Bi66  1  0.00131883  0.39846764  0.27580500  1
  Bi2+  Bi67  1  -0.00468891  0.36297697  0.78954965  1
  Bi2+  Bi68  1  0.03720248  0.64339214  0.26409743  1
  Bi2+  Bi69  1  0.02960547  0.59629720  0.78082607  1
  Bi2+  Bi70  1  -0.04721672  0.90175979  0.28738900  1
  Bi2+  Bi71  1  -0.03230079  0.86339564  0.78541746  1
  Bi2+  Bi72  1  0.29528628  0.05686774  0.24909307  1
  Bi2+  Bi73  1  0.18614942  0.12976638  0.82031198  1
  Bi2+  Bi74  1  0.20152785  0.26397208  0.29276143  1
  Bi2+  Bi75  1  0.26181252  0.30598532  0.78862859  1
  Bi2+  Bi76  1  0.27778414  0.64847713  0.29226547  1
  Bi2+  Bi77  1  0.29862288  0.55576056  0.77125200  1
  Bi2+  Bi78  1  0.21058428  0.88313643  0.27774425  1
  Bi2+  Bi79  1  0.22329285  0.94106827  0.78229788  1
  Bi2+  Bi80  1  0.47916284  0.14206450  0.32161827  1
  Bi2+  Bi81  1  0.53285135  0.13993357  0.79916225  1
  Bi2+  Bi82  1  0.48110034  0.40370390  0.32014029  1
  Bi2+  Bi83  1  0.52228245  0.41739474  0.78304098  1
  Bi2+  Bi84  1  0.46825384  0.69467373  0.32021629  1
  Bi2+  Bi85  1  0.49705290  0.61002619  0.80814341  1
  Bi2+  Bi86  1  0.48733581  0.89018460  0.30216678  1
  Bi2+  Bi87  1  0.51048267  0.87523656  0.82658249  1
  Bi2+  Bi88  1  0.79316887  0.12828079  0.28404549  1
  Bi2+  Bi89  1  0.82337973  0.08981790  0.78059436  1
  Bi2+  Bi90  1  0.74051623  0.33685212  0.30234747  1
  Bi2+  Bi91  1  0.75175566  0.36505929  0.79673727  1
  Bi2+  Bi92  1  0.63172914  0.60675529  0.29582567  1
  Bi2+  Bi93  1  0.75956562  0.56884988  0.76720513  1
  Bi2+  Bi94  1  0.67346121  0.85367804  0.27601352  1
  Bi2+  Bi95  1  0.74085412  0.82633550  0.78507109  1
  Bi2+  Bi96  1  0.10647040  0.02943981  0.22303782  1
  Bi2+  Bi97  1  0.06213621  0.02218298  0.73013698  1
  Bi2+  Bi98  1  0.09068618  0.27485293  0.19244708  1
  Bi2+  Bi99  1  0.08312007  0.21597374  0.72976787  1
  Bi2+  Bi100  1  0.20656194  0.53013874  0.20794288  1
  Bi2+  Bi101  1  0.16791444  0.44505077  0.71773687  1
  Bi2+  Bi102  1  0.09183398  0.77692669  0.19352252  1
  Bi2+  Bi103  1  0.10989936  0.75627007  0.69922847  1
  Bi2+  Bi104  1  0.37779495  -0.11427270  0.20265182  1
  Bi2+  Bi105  1  0.37836878  0.04264852  0.71480852  1
  Bi2+  Bi106  1  0.34302336  0.26654385  0.21412312  1
  Bi2+  Bi107  1  0.33164239  0.30471488  0.68512066  1
  Bi2+  Bi108  1  0.38483322  0.45689563  0.22152901  1
  Bi2+  Bi109  1  0.42381182  0.47829884  0.68856887  1
  Bi2+  Bi110  1  0.31123112  0.69914145  0.18316800  1
  Bi2+  Bi111  1  0.36040054  0.76907727  0.72142928  1
  Bi2+  Bi112  1  0.64273504  0.01231213  0.21661146  1
  Bi2+  Bi113  1  0.65739668  0.05522147  0.72316721  1
  Bi2+  Bi114  1  0.65715674  0.26261932  0.21280033  1
  Bi2+  Bi115  1  0.60530271  0.27014556  0.72052696  1
  Bi2+  Bi116  1  0.58026718  0.45511532  0.22829968  1
  Bi2+  Bi117  1  0.62734742  0.45516161  0.68303317  1
  Bi2+  Bi118  1  0.52566031  0.74754366  0.21310863  1
  Bi2+  Bi119  1  0.60081058  0.64428163  0.71617041  1
  Bi2+  Bi120  1  0.90902297  0.03595928  0.20271276  1
  Bi2+  Bi121  1  0.81228390  -0.06737453  0.69774365  1
  Bi2+  Bi122  1  0.89758623  0.23168526  0.20640881  1
  Bi2+  Bi123  1  0.86569430  0.22886216  0.70741457  1
  Bi2+  Bi124  1  0.82305883  0.51522056  0.21040455  1
  Bi2+  Bi125  1  0.92551316  0.51085091  0.68217539  1
  Bi2+  Bi126  1  0.83259710  0.74212931  0.20179052  1
  Bi2+  Bi127  1  0.86262071  0.72199915  0.72055910  1
  S2-  S128  1  0.12134268  0.12132731  0.13762597  1
  S2-  S129  1  -0.01197128  0.12789189  0.65576852  1
  S2-  S130  1  0.00990422  0.41560137  0.16605306  1
  S2-  S131  1  0.04602984  0.39647455  0.65231224  1
  S2-  S132  1  -0.09772247  0.61482294  0.14402085  1
  S2-  S133  1  0.02476089  0.62971236  0.64411118  1
  S2-  S134  1  -0.06891062  0.83650070  0.15036037  1
  S2-  S135  1  0.08914208  0.88700723  0.64223157  1
  S2-  S136  1  0.35011026  0.13109543  0.15498605  1
  S2-  S137  1  0.27168437  0.14061601  0.65997700  1
  S2-  S138  1  0.23800139  0.33248243  0.14225119  1
  S2-  S139  1  0.24170321  0.51597752  0.63690080  1
  S2-  S140  1  0.13033555  0.62489445  0.13582111  1
  S2-  S141  1  0.24228881  0.73132891  0.64462513  1
  S2-  S142  1  0.16259103  0.87887561  0.13103135  1
  S2-  S143  1  0.33457107  0.91097603  0.66274810  1
  S2-  S144  1  0.52672103  0.15070423  0.22919229  1
  S2-  S145  1  0.51076786  0.04608596  0.65721154  1
  S2-  S146  1  0.53323441  0.31723692  0.14657485  1
  S2-  S147  1  0.49038852  0.25775324  0.64654170  1
  S2-  S148  1  0.46252038  0.61400830  0.15661674  1
  S2-  S149  1  0.47909413  0.70843341  0.65190513  1
  S2-  S150  1  0.51404266  0.97422399  0.15134791  1
  S2-  S151  1  0.49111815  0.86853430  0.73277364  1
  S2-  S152  1  0.69481624  0.12742129  0.14589163  1
  S2-  S153  1  0.73598897  0.15705222  0.65301094  1
  S2-  S154  1  0.78295106  0.37810690  0.16432426  1
  S2-  S155  1  0.82735556  0.37527230  0.66124144  1
  S2-  S156  1  0.70978372  0.62565089  0.17217658  1
  S2-  S157  1  0.77948466  0.62586131  0.65181355  1
  S2-  S158  1  0.72128098  0.87058376  0.17228222  1
  S2-  S159  1  0.66735720  0.87330424  0.65401056  1
  S2-  S160  1  0.09404892  -0.10037376  0.35163609  1
  S2-  S161  1  0.10163515  -0.09960753  0.84957055  1
  S2-  S162  1  0.12814533  0.13856406  0.35602729  1
  S2-  S163  1  0.12572810  0.35661787  0.85235815  1
  S2-  S164  1  0.12573409  0.39020340  0.35109177  1
  S2-  S165  1  0.16709838  0.59434916  0.84197832  1
  S2-  S166  1  0.12183572  0.62815456  0.34910021  1
  S2-  S167  1  0.21453111  0.77680127  0.78332175  1
  S2-  S168  1  0.35468102  0.03223215  0.35024581  1
  S2-  S169  1  0.37826391  -0.01884430  0.83691335  1
  S2-  S170  1  0.35811696  0.26869506  0.34244288  1
  S2-  S171  1  0.40572059  0.22869917  0.83272421  1
  S2-  S172  1  0.35246394  0.50659878  0.34495645  1
  S2-  S173  1  0.38112194  0.47503905  0.84515975  1
  S2-  S174  1  0.27517015  0.78667079  0.35568839  1
  S2-  S175  1  0.40190783  0.73752937  0.84073727  1
  S2-  S176  1  0.59786520  0.01981925  0.33874308  1
  S2-  S177  1  0.62479113  0.00445893  0.84165811  1
  S2-  S178  1  0.59473300  0.26703989  0.34979995  1
  S2-  S179  1  0.64936531  0.25351030  0.84303066  1
  S2-  S180  1  0.71106767  0.49339158  0.35383506  1
  S2-  S181  1  0.73920180  0.50182040  0.86443868  1
  S2-  S182  1  0.70164746  0.74997583  0.35457915  1
  S2-  S183  1  0.64587153  0.76373338  0.85817298  1
  S2-  S184  1  0.84347651  -0.06446362  0.35706540  1
  S2-  S185  1  0.84933029  -0.11253119  0.85777052  1
  S2-  S186  1  0.88312469  0.34119858  0.35101642  1
  S2-  S187  1  0.87038140  0.29286586  0.85062195  1
  S2-  S188  1  0.91841420  0.53109137  0.30355722  1
  S2-  S189  1  0.96690485  0.49776397  0.85013641  1
  S2-  S190  1  0.91270038  0.74162003  0.30542509  1
  S2-  S191  1  0.98179876  0.72091741  0.84400351  1
  S2-  S192  1  -0.00954212  0.13371673  0.45094665  1
  S2-  S193  1  0.00173452  0.12383866  0.95552008  1
  S2-  S194  1  -0.00745751  0.38996502  0.45089293  1
  S2-  S195  1  -0.00340244  0.36935296  0.95742885  1
  S2-  S196  1  -0.02018276  0.63896038  0.43815847  1
  S2-  S197  1  -0.00134130  0.61767051  0.95167066  1
  S2-  S198  1  -0.01180511  0.88086572  0.45347738  1
  S2-  S199  1  0.00589305  0.87187261  0.95395714  1
  S2-  S200  1  0.24847838  0.13718614  0.45723809  1
  S2-  S201  1  0.25456963  0.12315028  0.95050727  1
  S2-  S202  1  0.24895759  0.38715946  0.45692881  1
  S2-  S203  1  0.25666516  0.37391008  0.94517857  1
  S2-  S204  1  0.24955608  0.63234282  0.45432071  1
  S2-  S205  1  0.25509830  0.62379185  0.95115419  1
  S2-  S206  1  0.24392043  0.89057902  0.46067498  1
  S2-  S207  1  0.25465858  0.86834705  0.94091594  1
  S2-  S208  1  0.49784139  0.13530859  0.45959005  1
  S2-  S209  1  0.50505109  0.11837657  0.94383936  1
  S2-  S210  1  0.49892224  0.38509381  0.46284969  1
  S2-  S211  1  0.50778444  0.37500297  0.94774729  1
  S2-  S212  1  0.49789398  0.63368817  0.45541461  1
  S2-  S213  1  0.50890692  0.62083030  0.95595677  1
  S2-  S214  1  0.49706311  0.88237540  0.44542588  1
  S2-  S215  1  0.50401361  0.87327823  0.95914189  1
  S2-  S216  1  0.74843784  0.13446029  0.44831343  1
  S2-  S217  1  0.75667909  0.11998283  0.94827806  1
  S2-  S218  1  0.74716724  0.38431756  0.46123501  1
  S2-  S219  1  0.75303733  0.36583066  0.96006315  1
  S2-  S220  1  0.75217640  0.63357849  0.45162211  1
  S2-  S221  1  0.75630295  0.62490419  0.96312990  1
  S2-  S222  1  0.74662723  0.88191453  0.46076903  1
  S2-  S223  1  0.75412241  0.87383127  0.96451779  1
  S2-  S224  1  0.13158306  0.00181449  0.03278362  1
  S2-  S225  1  0.12024685  0.01379367  0.54138538  1
  S2-  S226  1  0.12848173  0.24888758  0.03559997  1
  S2-  S227  1  0.12060581  0.26105869  0.54394102  1
  S2-  S228  1  0.13094453  0.49263020  0.03641001  1
  S2-  S229  1  0.11775268  0.51398557  0.53299332  1
  S2-  S230  1  0.13265878  0.74528056  0.03156639  1
  S2-  S231  1  0.11943893  0.75725396  0.53316450  1
  S2-  S232  1  0.37351691  -0.00445907  0.04413704  1
  S2-  S233  1  0.37191986  0.00967155  0.55270017  1
  S2-  S234  1  0.38420163  0.24693088  0.04172404  1
  S2-  S235  1  0.36740443  0.26316813  0.54827047  1
  S2-  S236  1  0.37898067  0.49771053  0.04906822  1
  S2-  S237  1  0.37674015  0.51359227  0.54679305  1
  S2-  S238  1  0.38021113  0.75004136  0.04829696  1
  S2-  S239  1  0.36988047  0.75920797  0.54527518  1
  S2-  S240  1  0.63478921  -0.00439672  0.04733382  1
  S2-  S241  1  0.62354607  0.01206240  0.54744930  1
  S2-  S242  1  0.62656748  0.24014096  0.04418396  1
  S2-  S243  1  0.62470685  0.26232885  0.55239019  1
  S2-  S244  1  0.62924891  0.49660876  0.05389341  1
  S2-  S245  1  0.61863602  0.51528178  0.54961458  1
  S2-  S246  1  0.62792254  0.75089017  0.06066624  1
  S2-  S247  1  0.61781620  0.76115126  0.54882668  1
  S2-  S248  1  0.88326891  0.00137851  0.04716814  1
  S2-  S249  1  0.87295342  0.00985647  0.55019627  1
  S2-  S250  1  0.87890871  0.24247406  0.05159313  1
  S2-  S251  1  0.87198488  0.26092041  0.54624666  1
  S2-  S252  1  0.87638360  0.48761956  0.04357248  1
  S2-  S253  1  0.86929032  0.51255546  0.54543215  1
  S2-  S254  1  0.88163158  0.74846069  0.04002406  1
  S2-  S255  1  0.87168833  0.76478319  0.55624020  1
