# generated using pymatgen
data_La9Ce10Pr6Nd4Sm3(BiS2)32
_symmetry_space_group_name_H-M   'P 1'
_cell_length_a   16.21251915
_cell_length_b   16.21660752
_cell_length_c   27.05448755
_cell_angle_alpha   90.03057834
_cell_angle_beta   90.12308716
_cell_angle_gamma   89.96289031
_symmetry_Int_Tables_number   1
_chemical_formula_structural   La9Ce10Pr6Nd4Sm3(BiS2)32
_chemical_formula_sum   'La18 Ce20 Pr12 Nd8 Sm6 Bi64 S128'
_cell_volume   7112.93214264
_cell_formula_units_Z   2
loop_
 _symmetry_equiv_pos_site_id
 _symmetry_equiv_pos_as_xyz
  1  'x, y, z'
loop_
 _atom_type_symbol
 _atom_type_oxidation_number
  La3+  3.0
  Ce3+  3.0
  Pr3+  3.0
  Nd3+  3.0
  Sm3+  3.0
  Bi2+  2.0
  S2-  -2.0
loop_
 _atom_site_type_symbol
 _atom_site_label
 _atom_site_symmetry_multiplicity
 _atom_site_fract_x
 _atom_site_fract_y
 _atom_site_fract_z
 _atom_site_occupancy
  La3+  La0  1  0.11558772  0.00728694  0.43709661  1
  La3+  La1  1  0.49764603  0.37247124  0.57312937  1
  La3+  La2  1  0.12935034  0.50032860  0.92105002  1
  La3+  La3  1  0.74276475  0.13181652  0.56477209  1
  La3+  La4  1  0.63466360  -0.00575460  0.90433677  1
  La3+  La5  1  0.37836131  0.74835672  0.92741280  1
  La3+  La6  1  0.12360960  0.25259128  0.93121022  1
  La3+  La7  1  0.49348644  0.87389283  0.58631591  1
  La3+  La8  1  0.23715660  0.12905534  0.57882661  1
  La3+  La9  1  0.75036291  0.88562702  0.57832980  1
  La3+  La10  1  0.24382619  0.38244409  0.60686257  1
  La3+  La11  1  0.00645792  0.60946902  0.07544641  1
  La3+  La12  1  0.36927820  0.00024354  0.92098814  1
  La3+  La13  1  0.61313069  0.75418482  0.43354104  1
  La3+  La14  1  0.25808468  0.37987513  0.07598054  1
  La3+  La15  1  0.37047538  0.25212704  0.92468824  1
  La3+  La16  1  0.62877000  0.49368742  0.92070984  1
  La3+  La17  1  0.86157364  0.26364912  0.41494829  1
  Ce3+  Ce18  1  0.75214922  0.87550715  0.05872803  1
  Ce3+  Ce19  1  -0.00341606  0.62712527  0.55785643  1
  Ce3+  Ce20  1  0.88007069  0.74678511  0.95128965  1
  Ce3+  Ce21  1  0.00885840  0.87736461  0.06350174  1
  Ce3+  Ce22  1  0.12630250  -0.00120918  0.93413770  1
  Ce3+  Ce23  1  0.00858969  0.12031832  0.07158543  1
  Ce3+  Ce24  1  -0.00451200  0.13542086  0.56028356  1
  Ce3+  Ce25  1  0.25729353  0.87488710  0.05124690  1
  Ce3+  Ce26  1  0.86662267  0.50385594  0.44535543  1
  Ce3+  Ce27  1  0.25724593  0.12448949  0.05621075  1
  Ce3+  Ce28  1  0.12475662  0.74325023  0.94403560  1
  Ce3+  Ce29  1  0.11955891  0.25478847  0.44128610  1
  Ce3+  Ce30  1  0.63265970  0.75353677  0.93661819  1
  Ce3+  Ce31  1  0.00827500  0.36030756  0.07033502  1
  Ce3+  Ce32  1  0.87785419  0.24817142  0.94936472  1
  Ce3+  Ce33  1  0.61865619  0.24342167  0.43281074  1
  Ce3+  Ce34  1  0.50322842  0.12237193  0.04182371  1
  Ce3+  Ce35  1  0.24214475  0.87566916  0.55614875  1
  Ce3+  Ce36  1  0.87974230  0.49760332  0.94517177  1
  Ce3+  Ce37  1  0.86779150  0.00530074  0.44291774  1
  Pr3+  Pr38  1  0.74125105  0.63009999  0.56206634  1
  Pr3+  Pr39  1  0.88104045  0.00015438  0.93948709  1
  Pr3+  Pr40  1  -0.00742159  0.37723762  0.56553787  1
  Pr3+  Pr41  1  0.74250331  0.37797598  0.56916670  1
  Pr3+  Pr42  1  0.24242675  0.62814658  0.56792533  1
  Pr3+  Pr43  1  0.26435840  0.62580195  0.06455616  1
  Pr3+  Pr44  1  0.36859690  0.00208457  0.44572813  1
  Pr3+  Pr45  1  0.36835671  0.49819619  0.44314607  1
  Pr3+  Pr46  1  0.49022821  0.62634055  0.56591593  1
  Pr3+  Pr47  1  0.61806032  -0.00267792  0.43906014  1
  Pr3+  Pr48  1  0.38160137  0.49800342  0.92726601  1
  Pr3+  Pr49  1  0.36707402  0.75133034  0.43346789  1
  Nd3+  Nd50  1  0.12021801  0.75077059  0.43145625  1
  Nd3+  Nd51  1  0.86762854  0.75525707  0.44355929  1
  Nd3+  Nd52  1  0.50178971  0.37350551  0.05823142  1
  Nd3+  Nd53  1  0.11960592  0.49947381  0.44199564  1
  Nd3+  Nd54  1  0.75036791  0.62401342  0.05555435  1
  Nd3+  Nd55  1  0.74856747  0.37706929  0.06369326  1
  Nd3+  Nd56  1  0.74779820  0.12190023  0.06268170  1
  Nd3+  Nd57  1  0.36614010  0.25257166  0.45115350  1
  Sm3+  Sm58  1  0.49112858  0.12456467  0.56262498  1
  Sm3+  Sm59  1  0.50534176  0.87836066  0.05122867  1
  Sm3+  Sm60  1  0.61873354  0.49872654  0.44601723  1
  Sm3+  Sm61  1  0.62909309  0.24804476  0.93735191  1
  Sm3+  Sm62  1  -0.00569540  0.87681584  0.56033509  1
  Sm3+  Sm63  1  0.50504024  0.62335379  0.05012838  1
  Bi2+  Bi64  1  -0.00802415  0.06098145  0.30146606  1
  Bi2+  Bi65  1  0.00337740  0.10228676  0.84415891  1
  Bi2+  Bi66  1  0.00515172  0.42272149  0.29648156  1
  Bi2+  Bi67  1  -0.03237192  0.38008462  0.78667870  1
  Bi2+  Bi68  1  -0.01910750  0.61917859  0.29837396  1
  Bi2+  Bi69  1  0.04106547  0.65694393  0.76416227  1
  Bi2+  Bi70  1  0.02199973  0.80656536  0.29640923  1
  Bi2+  Bi71  1  -0.00815201  0.91390661  0.80665449  1
  Bi2+  Bi72  1  0.24870036  0.12694127  0.31978222  1
  Bi2+  Bi73  1  0.16141172  0.11672357  0.78364251  1
  Bi2+  Bi74  1  0.26866474  0.38072028  0.31081654  1
  Bi2+  Bi75  1  0.22758191  0.35323691  0.78703192  1
  Bi2+  Bi76  1  0.28492308  0.65641393  0.27228907  1
  Bi2+  Bi77  1  0.26517061  0.64894392  0.80943773  1
  Bi2+  Bi78  1  0.31684671  0.86026327  0.29652503  1
  Bi2+  Bi79  1  0.17580939  0.84913812  0.79460730  1
  Bi2+  Bi80  1  0.50537318  0.09162791  0.28159448  1
  Bi2+  Bi81  1  0.45556765  0.11742738  0.78878857  1
  Bi2+  Bi82  1  0.53003076  0.36035234  0.27017013  1
  Bi2+  Bi83  1  0.54195712  0.37041902  0.78225795  1
  Bi2+  Bi84  1  0.52316766  0.61481976  0.21651911  1
  Bi2+  Bi85  1  0.54581830  0.60550391  0.76087408  1
  Bi2+  Bi86  1  0.52226964  0.85181101  0.29483798  1
  Bi2+  Bi87  1  0.50827720  0.84116528  0.77673961  1
  Bi2+  Bi88  1  0.73561119  0.15946970  0.28345569  1
  Bi2+  Bi89  1  0.83594295  0.14324152  0.78062623  1
  Bi2+  Bi90  1  0.71860078  0.42640928  0.29228157  1
  Bi2+  Bi91  1  0.72781582  0.44932413  0.80083532  1
  Bi2+  Bi92  1  0.70791316  0.65490981  0.30139615  1
  Bi2+  Bi93  1  0.82282315  0.61608198  0.79940491  1
  Bi2+  Bi94  1  0.74894931  0.92099693  0.28103450  1
  Bi2+  Bi95  1  0.77556376  0.87889571  0.79022445  1
  Bi2+  Bi96  1  0.14927074  -0.01656996  0.20900984  1
  Bi2+  Bi97  1  0.09593276  -0.03163711  0.70867646  1
  Bi2+  Bi98  1  0.12353476  0.22333069  0.22344990  1
  Bi2+  Bi99  1  0.02562228  0.23662769  0.71033546  1
  Bi2+  Bi100  1  0.12149636  0.49122478  0.20527470  1
  Bi2+  Bi101  1  0.11487605  0.50184813  0.72083198  1
  Bi2+  Bi102  1  0.15280945  0.75744388  0.21691798  1
  Bi2+  Bi103  1  0.09391867  0.77842019  0.67023222  1
  Bi2+  Bi104  1  0.33595091  0.04577085  0.22740927  1
  Bi2+  Bi105  1  0.32705388  -0.03552234  0.72904909  1
  Bi2+  Bi106  1  0.41432249  0.23303962  0.21596608  1
  Bi2+  Bi107  1  0.40074953  0.22439346  0.70193708  1
  Bi2+  Bi108  1  0.37290580  0.48459959  0.21591280  1
  Bi2+  Bi109  1  0.39126235  0.52950735  0.71348108  1
  Bi2+  Bi110  1  0.39561032  0.77204835  0.20390748  1
  Bi2+  Bi111  1  0.27148040  0.73089991  0.71005077  1
  Bi2+  Bi112  1  0.58307743  0.01208452  0.18321003  1
  Bi2+  Bi113  1  0.62146444  0.01462467  0.70533826  1
  Bi2+  Bi114  1  0.63800751  0.25017758  0.19468286  1
  Bi2+  Bi115  1  0.70823303  0.27132745  0.73379189  1
  Bi2+  Bi116  1  0.59969048  0.44776819  0.17470400  1
  Bi2+  Bi117  1  0.66497282  0.51135473  0.68676320  1
  Bi2+  Bi118  1  0.66198734  0.75913563  0.21114397  1
  Bi2+  Bi119  1  0.68312259  0.73636781  0.72574638  1
  Bi2+  Bi120  1  0.90253351  -0.04202682  0.21929006  1
  Bi2+  Bi121  1  0.90339957  0.01823548  0.70475129  1
  Bi2+  Bi122  1  0.90977970  0.33315930  0.21679848  1
  Bi2+  Bi123  1  0.85762700  0.25835060  0.65367565  1
  Bi2+  Bi124  1  0.83479371  0.57018192  0.22567831  1
  Bi2+  Bi125  1  0.84877885  0.44229323  0.70201571  1
  Bi2+  Bi126  1  0.87625177  0.76572891  0.21903034  1
  Bi2+  Bi127  1  0.89920611  0.77238213  0.72404341  1
  S2-  S128  1  0.00276364  0.22530996  0.15330418  1
  S2-  S129  1  0.09281939  0.12813502  0.64320026  1
  S2-  S130  1  -0.01602822  0.45746705  0.14922061  1
  S2-  S131  1  0.08016367  0.37977088  0.65467213  1
  S2-  S132  1  0.06056409  0.64615758  0.16996596  1
  S2-  S133  1  0.02627688  0.61410111  0.65402754  1
  S2-  S134  1  0.01639448  0.98764157  0.14107185  1
  S2-  S135  1  -0.10643517  0.87633943  0.64343761  1
  S2-  S136  1  0.22177137  0.11734197  0.15445539  1
  S2-  S137  1  0.31733928  0.09009015  0.66913378  1
  S2-  S138  1  0.18273300  0.33853108  0.17169283  1
  S2-  S139  1  0.24941017  0.28026550  0.69319114  1
  S2-  S140  1  0.24861482  0.52323039  0.14667697  1
  S2-  S141  1  0.24835064  0.53883768  0.65663775  1
  S2-  S142  1  0.22227411  0.87810648  0.14802352  1
  S2-  S143  1  0.30539828  0.85858668  0.64656633  1
  S2-  S144  1  0.48960443  0.14131149  0.13925339  1
  S2-  S145  1  0.54372315  0.14201500  0.65685940  1
  S2-  S146  1  0.40229408  0.36802752  0.14221063  1
  S2-  S147  1  0.41086968  0.39113156  0.66204161  1
  S2-  S148  1  0.41489247  0.64283488  0.13290460  1
  S2-  S149  1  0.47329039  0.66181059  0.66520659  1
  S2-  S150  1  0.46922651  0.90545857  0.14730741  1
  S2-  S151  1  0.47347345  0.93206574  0.68588417  1
  S2-  S152  1  0.73064739  0.11696863  0.16419971  1
  S2-  S153  1  0.75479455  0.03674579  0.64978485  1
  S2-  S154  1  0.77877555  0.34092569  0.16164719  1
  S2-  S155  1  0.62945271  0.35814087  0.64826383  1
  S2-  S156  1  0.72564692  0.56499357  0.14766115  1
  S2-  S157  1  0.77715301  0.64590457  0.66082026  1
  S2-  S158  1  0.69344131  0.89229759  0.15025731  1
  S2-  S159  1  0.64075425  0.85793774  0.65486866  1
  S2-  S160  1  0.14064301  -0.01163849  0.33707861  1
  S2-  S161  1  0.22246726  0.00043143  0.85049849  1
  S2-  S162  1  0.12878269  0.23373855  0.34080365  1
  S2-  S163  1  0.23952139  0.22874808  0.84882880  1
  S2-  S164  1  0.15476145  0.48452785  0.34208226  1
  S2-  S165  1  0.09996381  0.37186297  0.85182773  1
  S2-  S166  1  0.24021356  0.73556952  0.35873806  1
  S2-  S167  1  0.11137604  0.64949035  0.86089274  1
  S2-  S168  1  0.41599284  -0.02414611  0.34897773  1
  S2-  S169  1  0.42238316  -0.04289709  0.82675981  1
  S2-  S170  1  0.35998029  0.24236370  0.35038807  1
  S2-  S171  1  0.42992249  0.28233442  0.82656502  1
  S2-  S172  1  0.37462907  0.48894693  0.34085789  1
  S2-  S173  1  0.27446585  0.49238800  0.84502431  1
  S2-  S174  1  0.48850529  0.73610278  0.35894783  1
  S2-  S175  1  0.41988749  0.73759476  0.82828362  1
  S2-  S176  1  0.62388498  0.10700950  0.35571536  1
  S2-  S177  1  0.60102589  0.06078989  0.80761237  1
  S2-  S178  1  0.71275394  0.28260141  0.35271673  1
  S2-  S179  1  0.65709263  0.28699196  0.84210469  1
  S2-  S180  1  0.62175870  0.52441491  0.34750207  1
  S2-  S181  1  0.50489765  0.50385127  0.84793659  1
  S2-  S182  1  0.65230575  0.87811034  0.36140403  1
  S2-  S183  1  0.63246492  0.83616697  0.84960271  1
  S2-  S184  1  0.87421524  -0.04413344  0.34872016  1
  S2-  S185  1  0.78838807  0.00818102  0.85195403  1
  S2-  S186  1  0.89239705  0.18820489  0.32079700  1
  S2-  S187  1  0.89805813  0.25609050  0.85101742  1
  S2-  S188  1  0.86603776  0.42534390  0.35750858  1
  S2-  S189  1  0.93397897  0.51385764  0.85288438  1
  S2-  S190  1  0.85230356  0.70393048  0.34802336  1
  S2-  S191  1  0.86003755  0.75628990  0.85363629  1
  S2-  S192  1  -0.00934901  0.13346942  0.45005430  1
  S2-  S193  1  0.00332785  0.12452454  0.96370927  1
  S2-  S194  1  -0.00573492  0.37812188  0.45541662  1
  S2-  S195  1  -0.00096156  0.37383014  0.96262875  1
  S2-  S196  1  -0.00372756  0.62764130  0.44964000  1
  S2-  S197  1  0.00005799  0.62245719  0.96588331  1
  S2-  S198  1  -0.00399652  0.87411833  0.45331488  1
  S2-  S199  1  0.00391555  0.87246329  0.95603828  1
  S2-  S200  1  0.24290172  0.12786084  0.46274693  1
  S2-  S201  1  0.24811577  0.12357629  0.95238947  1
  S2-  S202  1  0.24342314  0.37603522  0.45227875  1
  S2-  S203  1  0.25374476  0.37779426  0.95468785  1
  S2-  S204  1  0.24311481  0.62269820  0.45960035  1
  S2-  S205  1  0.25691000  0.62541864  0.95617391  1
  S2-  S206  1  0.24088079  0.87951632  0.45118761  1
  S2-  S207  1  0.24933227  0.86818912  0.94601844  1
  S2-  S208  1  0.49008078  0.12703777  0.45674919  1
  S2-  S209  1  0.50525441  0.12349845  0.93481733  1
  S2-  S210  1  0.49640084  0.37456344  0.45695180  1
  S2-  S211  1  0.50616707  0.36935330  0.95004104  1
  S2-  S212  1  0.49403653  0.61967612  0.45863143  1
  S2-  S213  1  0.50866814  0.62825792  0.94620434  1
  S2-  S214  1  0.49044287  0.87731783  0.46508688  1
  S2-  S215  1  0.50314415  0.87700411  0.94550575  1
  S2-  S216  1  0.74809472  0.12787576  0.45541605  1
  S2-  S217  1  0.74966554  0.12568394  0.95333133  1
  S2-  S218  1  0.74085185  0.38103163  0.46189615  1
  S2-  S219  1  0.75201481  0.37227747  0.95438588  1
  S2-  S220  1  0.74020180  0.62714714  0.45470349  1
  S2-  S221  1  0.75134813  0.62250315  0.94830721  1
  S2-  S222  1  0.74949562  0.87776831  0.46664005  1
  S2-  S223  1  0.75690132  0.87345445  0.95496347  1
  S2-  S224  1  0.13415186  -0.00177823  0.04026029  1
  S2-  S225  1  0.11599412  -0.00225495  0.54593346  1
  S2-  S226  1  0.13494902  0.24670624  0.04484366  1
  S2-  S227  1  0.12346996  0.26098125  0.54738167  1
  S2-  S228  1  0.13127715  0.49559375  0.04420544  1
  S2-  S229  1  0.12105208  0.50114787  0.54815944  1
  S2-  S230  1  0.13064376  0.74676607  0.05070888  1
  S2-  S231  1  0.11893642  0.75210790  0.53879827  1
  S2-  S232  1  0.37887118  -0.00165066  0.03377680  1
  S2-  S233  1  0.36872475  0.00228264  0.55272754  1
  S2-  S234  1  0.37946051  0.24778523  0.03613569  1
  S2-  S235  1  0.36582300  0.25135831  0.55856376  1
  S2-  S236  1  0.38529820  0.50025547  0.03608607  1
  S2-  S237  1  0.36711394  0.49856915  0.55120768  1
  S2-  S238  1  0.38381074  0.75580250  0.03581636  1
  S2-  S239  1  0.36722803  0.75002325  0.54449991  1
  S2-  S240  1  0.62769455  -0.00142312  0.03740662  1
  S2-  S241  1  0.61289942  0.00355190  0.54804417  1
  S2-  S242  1  0.62732426  0.24931358  0.04399784  1
  S2-  S243  1  0.61642425  0.24795550  0.54167986  1
  S2-  S244  1  0.62546188  0.49985622  0.03378409  1
  S2-  S245  1  0.61699986  0.50457206  0.55066241  1
  S2-  S246  1  0.62530139  0.74900496  0.04548741  1
  S2-  S247  1  0.61464318  0.75028219  0.54819810  1
  S2-  S248  1  0.87495354  -0.00039331  0.04823358  1
  S2-  S249  1  0.87871216  0.00902352  0.54625500  1
  S2-  S250  1  0.87132838  0.24607338  0.05367368  1
  S2-  S251  1  0.86892215  0.25564283  0.53841250  1
  S2-  S252  1  0.87100778  0.49715699  0.05000234  1
  S2-  S253  1  0.86856013  0.50421169  0.55234691  1
  S2-  S254  1  0.87937514  0.74731271  0.05997462  1
  S2-  S255  1  0.87257366  0.74888052  0.54884400  1
