# generated using pymatgen
data_La9Ce10Pr6Nd4Sm3(BiS2)32
_symmetry_space_group_name_H-M   'P 1'
_cell_length_a   16.23367432
_cell_length_b   16.25887950
_cell_length_c   27.00778583
_cell_angle_alpha   90.10321630
_cell_angle_beta   89.86489522
_cell_angle_gamma   89.99120452
_symmetry_Int_Tables_number   1
_chemical_formula_structural   La9Ce10Pr6Nd4Sm3(BiS2)32
_chemical_formula_sum   'La18 Ce20 Pr12 Nd8 Sm6 Bi64 S128'
_cell_volume   7128.44010352
_cell_formula_units_Z   2
loop_
 _symmetry_equiv_pos_site_id
 _symmetry_equiv_pos_as_xyz
  1  'x, y, z'
loop_
 _atom_type_symbol
 _atom_type_oxidation_number
  La3+  3.0
  Ce3+  3.0
  Pr3+  3.0
  Nd3+  3.0
  Sm3+  3.0
  Bi2+  2.0
  S2-  -2.0
loop_
 _atom_site_type_symbol
 _atom_site_label
 _atom_site_symmetry_multiplicity
 _atom_site_fract_x
 _atom_site_fract_y
 _atom_site_fract_z
 _atom_site_occupancy
  La3+  La0  1  0.62678569  0.25951089  0.43065572  1
  La3+  La1  1  0.87183554  -0.00642422  0.41274822  1
  La3+  La2  1  -0.00568622  0.88303748  0.57072332  1
  La3+  La3  1  0.62215403  0.75078273  0.44129838  1
  La3+  La4  1  0.25029940  0.63759102  0.60885930  1
  La3+  La5  1  0.36139169  0.50461521  0.43359328  1
  La3+  La6  1  0.25704424  0.12577983  0.07096846  1
  La3+  La7  1  0.63067350  0.51001215  0.41716936  1
  La3+  La8  1  -0.00940319  0.63407865  0.58454787  1
  La3+  La9  1  0.62626454  -0.00142439  0.93225160  1
  La3+  La10  1  -0.00621412  0.13092106  0.07889285  1
  La3+  La11  1  0.88536547  0.25115793  0.92063413  1
  La3+  La12  1  0.25385695  0.61968447  0.06876629  1
  La3+  La13  1  -0.00113364  0.37475193  0.07468355  1
  La3+  La14  1  -0.00646794  0.87937207  0.08536793  1
  La3+  La15  1  0.24655098  0.88353116  0.57557954  1
  La3+  La16  1  0.88440463  0.25303741  0.42242316  1
  La3+  La17  1  0.25104232  0.37539017  0.57891616  1
  Ce3+  Ce18  1  0.12663470  -0.00559662  0.43420846  1
  Ce3+  Ce19  1  0.75308719  0.87555677  0.05712678  1
  Ce3+  Ce20  1  0.12434057  0.50501616  0.45442717  1
  Ce3+  Ce21  1  0.75003138  0.12939977  0.54796942  1
  Ce3+  Ce22  1  0.62885407  0.24631892  0.94237153  1
  Ce3+  Ce23  1  0.87899323  0.49367535  0.93919813  1
  Ce3+  Ce24  1  0.12030615  0.24760604  0.44488629  1
  Ce3+  Ce25  1  0.62725290  0.49499782  0.93740759  1
  Ce3+  Ce26  1  0.87684255  0.50366285  0.44407001  1
  Ce3+  Ce27  1  0.74604695  0.62327731  0.56465488  1
  Ce3+  Ce28  1  0.75387221  0.12463288  0.05368905  1
  Ce3+  Ce29  1  0.50324914  0.87353340  0.05437454  1
  Ce3+  Ce30  1  0.62542985  0.00298418  0.43355896  1
  Ce3+  Ce31  1  0.50185774  0.62180276  0.05154891  1
  Ce3+  Ce32  1  0.50166620  0.12407396  0.06292147  1
  Ce3+  Ce33  1  0.24656647  0.12465294  0.56001711  1
  Ce3+  Ce34  1  0.12502460  0.24586096  0.94713507  1
  Ce3+  Ce35  1  0.87900896  0.75421828  0.44433510  1
  Ce3+  Ce36  1  0.87926975  0.75087478  0.94033312  1
  Ce3+  Ce37  1  0.37471660  0.74587721  0.94069570  1
  Pr3+  Pr38  1  0.49789354  0.37920721  0.55446204  1
  Pr3+  Pr39  1  0.12502373  0.74959586  0.94312043  1
  Pr3+  Pr40  1  0.75391737  0.37591603  0.56441536  1
  Pr3+  Pr41  1  -0.00075728  0.62550648  0.05855981  1
  Pr3+  Pr42  1  0.88835923  -0.00140386  0.93230304  1
  Pr3+  Pr43  1  0.25171548  0.87349678  0.06386169  1
  Pr3+  Pr44  1  0.50115288  0.88290996  0.56469743  1
  Pr3+  Pr45  1  0.49747196  0.62148538  0.56404250  1
  Pr3+  Pr46  1  -0.01281568  0.12370720  0.56619964  1
  Pr3+  Pr47  1  0.75037660  0.37336050  0.06238507  1
  Pr3+  Pr48  1  0.62713923  0.74598560  0.93502588  1
  Pr3+  Pr49  1  0.36766786  0.25219997  0.42891549  1
  Nd3+  Nd50  1  0.12628552  0.75215076  0.45154570  1
  Nd3+  Nd51  1  0.12652334  0.49714221  0.94393852  1
  Nd3+  Nd52  1  0.37347192  -0.00335007  0.93759499  1
  Nd3+  Nd53  1  0.75057992  0.62375907  0.05047544  1
  Nd3+  Nd54  1  0.74715072  0.88087998  0.55983944  1
  Nd3+  Nd55  1  0.37057909  0.75255992  0.45247942  1
  Nd3+  Nd56  1  0.38143670  0.48701043  0.92422764  1
  Nd3+  Nd57  1  0.37426107  0.00235099  0.44113823  1
  Sm3+  Sm58  1  0.12498375  -0.00144451  0.95046345  1
  Sm3+  Sm59  1  0.49991834  0.13150525  0.54808299  1
  Sm3+  Sm60  1  0.25578088  0.37520645  0.05216445  1
  Sm3+  Sm61  1  0.37744474  0.24547551  0.93568139  1
  Sm3+  Sm62  1  -0.00031311  0.37658212  0.56907978  1
  Sm3+  Sm63  1  0.50065602  0.37494146  0.05686408  1
  Bi2+  Bi64  1  0.03210263  0.14327281  0.28271445  1
  Bi2+  Bi65  1  -0.01825607  0.13610839  0.78553372  1
  Bi2+  Bi66  1  -0.00859168  0.43790328  0.30733878  1
  Bi2+  Bi67  1  0.01079473  0.39389040  0.80409659  1
  Bi2+  Bi68  1  0.00672743  0.63278874  0.29704762  1
  Bi2+  Bi69  1  -0.08427062  0.61311680  0.79565275  1
  Bi2+  Bi70  1  0.02649530  0.88674662  0.29682215  1
  Bi2+  Bi71  1  -0.01234075  0.88802221  0.80631097  1
  Bi2+  Bi72  1  0.25567013  0.19616415  0.30255818  1
  Bi2+  Bi73  1  0.22009547  0.14258205  0.79977866  1
  Bi2+  Bi74  1  0.26165251  0.38604692  0.28322367  1
  Bi2+  Bi75  1  0.26997523  0.32288885  0.77928714  1
  Bi2+  Bi76  1  0.27255854  0.61669566  0.29791412  1
  Bi2+  Bi77  1  0.23762159  0.64970827  0.83515577  1
  Bi2+  Bi78  1  0.27100257  0.85317034  0.29371602  1
  Bi2+  Bi79  1  0.27215574  0.95589093  0.81229291  1
  Bi2+  Bi80  1  0.41913167  0.08970338  0.30349368  1
  Bi2+  Bi81  1  0.48273735  0.16519036  0.73615187  1
  Bi2+  Bi82  1  0.51292490  0.31972423  0.25308570  1
  Bi2+  Bi83  1  0.52573339  0.34417237  0.78133930  1
  Bi2+  Bi84  1  0.53724942  0.59713638  0.28454706  1
  Bi2+  Bi85  1  0.49802033  0.60588474  0.78320346  1
  Bi2+  Bi86  1  0.54327718  0.94205262  0.31399483  1
  Bi2+  Bi87  1  0.51273960  0.90413231  0.80220629  1
  Bi2+  Bi88  1  0.68784081  0.12112771  0.28250681  1
  Bi2+  Bi89  1  0.70049691  0.16036632  0.76822409  1
  Bi2+  Bi90  1  0.72677619  0.37693536  0.28966591  1
  Bi2+  Bi91  1  0.71730382  0.43693130  0.77189406  1
  Bi2+  Bi92  1  0.81737958  0.60317845  0.28030807  1
  Bi2+  Bi93  1  0.71892736  0.63077354  0.77708937  1
  Bi2+  Bi94  1  0.77352019  0.83732012  0.28062954  1
  Bi2+  Bi95  1  0.72664818  0.89173528  0.78123220  1
  Bi2+  Bi96  1  0.15241257  -0.00880777  0.20223809  1
  Bi2+  Bi97  1  0.13220656  0.00918300  0.72986008  1
  Bi2+  Bi98  1  0.09834507  0.31349990  0.23470591  1
  Bi2+  Bi99  1  0.10439029  0.22211376  0.70831166  1
  Bi2+  Bi100  1  0.08275289  0.51101599  0.21383683  1
  Bi2+  Bi101  1  0.14919749  0.48064087  0.72478092  1
  Bi2+  Bi102  1  0.16598205  0.73617074  0.20746463  1
  Bi2+  Bi103  1  0.11503929  0.73771488  0.72625664  1
  Bi2+  Bi104  1  0.42165633  -0.00945198  0.20617229  1
  Bi2+  Bi105  1  0.35730821  0.02787796  0.70804589  1
  Bi2+  Bi106  1  0.30888011  0.25590976  0.19628325  1
  Bi2+  Bi107  1  0.30006664  0.22156424  0.68164732  1
  Bi2+  Bi108  1  0.39665084  0.50373118  0.18752085  1
  Bi2+  Bi109  1  0.43131941  0.47946250  0.69797921  1
  Bi2+  Bi110  1  0.45873375  0.79831001  0.25504687  1
  Bi2+  Bi111  1  0.35721231  0.82909533  0.74023589  1
  Bi2+  Bi112  1  0.63602752  -0.01679925  0.20513647  1
  Bi2+  Bi113  1  0.58757736  -0.01383954  0.70273776  1
  Bi2+  Bi114  1  0.57196590  0.16372208  0.19238980  1
  Bi2+  Bi115  1  0.65937811  0.31314218  0.68984454  1
  Bi2+  Bi116  1  0.66659751  0.58083620  0.20234066  1
  Bi2+  Bi117  1  0.61938333  0.49200111  0.64620330  1
  Bi2+  Bi118  1  0.63995650  0.78111047  0.20919785  1
  Bi2+  Bi119  1  0.58967947  0.66840400  0.69173162  1
  Bi2+  Bi120  1  0.86490697  0.00170708  0.21245395  1
  Bi2+  Bi121  1  0.86344167  0.00949934  0.70131860  1
  Bi2+  Bi122  1  0.85443323  0.25209103  0.21442482  1
  Bi2+  Bi123  1  0.87149220  0.24547223  0.71658854  1
  Bi2+  Bi124  1  0.89023910  0.44767850  0.20329549  1
  Bi2+  Bi125  1  0.88352076  0.48364610  0.71641325  1
  Bi2+  Bi126  1  0.89869862  0.73789641  0.20989397  1
  Bi2+  Bi127  1  0.85907106  0.74960005  0.71150696  1
  S2-  S128  1  -0.00121782  0.02106611  0.15682391  1
  S2-  S129  1  -0.00545212  0.00651155  0.64627936  1
  S2-  S130  1  -0.00791816  0.26372149  0.15247644  1
  S2-  S131  1  0.10457084  0.36127058  0.65143870  1
  S2-  S132  1  0.02618321  0.64208074  0.15796651  1
  S2-  S133  1  0.09213012  0.60465037  0.66545653  1
  S2-  S134  1  0.05310883  0.84539473  0.18427312  1
  S2-  S135  1  -0.00920501  0.78220802  0.65756685  1
  S2-  S136  1  0.18106412  0.13178906  0.16431090  1
  S2-  S137  1  0.22812672  0.02003017  0.64149404  1
  S2-  S138  1  0.26999343  0.40437145  0.14913923  1
  S2-  S139  1  0.26964899  0.48682548  0.65853200  1
  S2-  S140  1  0.28474554  0.63247976  0.16882279  1
  S2-  S141  1  0.23603471  0.63012250  0.74087724  1
  S2-  S142  1  0.25821737  0.86822392  0.16557750  1
  S2-  S143  1  0.24149861  0.79142477  0.66455830  1
  S2-  S144  1  0.39533860  0.12889042  0.14152028  1
  S2-  S145  1  0.54581548  0.12148029  0.64401362  1
  S2-  S146  1  0.50106207  0.37841965  0.15706557  1
  S2-  S147  1  0.40595958  0.34058805  0.63951420  1
  S2-  S148  1  0.50662289  0.60535023  0.15009026  1
  S2-  S149  1  0.41784976  0.63556054  0.65498621  1
  S2-  S150  1  0.49419373  0.85575288  0.15239929  1
  S2-  S151  1  0.48716220  0.86804910  0.66641336  1
  S2-  S152  1  0.81773872  0.12845837  0.14581709  1
  S2-  S153  1  0.82593814  0.13086428  0.63823904  1
  S2-  S154  1  0.75076452  0.36439452  0.16507563  1
  S2-  S155  1  0.87672133  0.36188153  0.64125463  1
  S2-  S156  1  0.78902228  0.64616054  0.14695020  1
  S2-  S157  1  0.84182811  0.62026992  0.64856594  1
  S2-  S158  1  0.83921169  0.87883181  0.14339157  1
  S2-  S159  1  0.76113637  0.88104316  0.66110482  1
  S2-  S160  1  0.10311121  0.01818762  0.33484320  1
  S2-  S161  1  0.03462425  0.00552661  0.86600369  1
  S2-  S162  1  0.03233571  0.25635053  0.36017738  1
  S2-  S163  1  0.04098867  0.25071450  0.86099507  1
  S2-  S164  1  0.19838310  0.52831334  0.36576270  1
  S2-  S165  1  0.12348675  0.51361532  0.84338455  1
  S2-  S166  1  0.13128102  0.81050169  0.35447123  1
  S2-  S167  1  0.11404434  0.78086141  0.84118375  1
  S2-  S168  1  0.30662050  -0.02342259  0.35093096  1
  S2-  S169  1  0.42820830  0.02827310  0.84429909  1
  S2-  S170  1  0.38844420  0.31343264  0.33360115  1
  S2-  S171  1  0.38215609  0.34043298  0.85319138  1
  S2-  S172  1  0.39883068  0.53890184  0.33387242  1
  S2-  S173  1  0.36228756  0.54411849  0.82978333  1
  S2-  S174  1  0.35714319  0.74422189  0.35083789  1
  S2-  S175  1  0.37450327  0.76331633  0.84242710  1
  S2-  S176  1  0.71368060  -0.01662475  0.34948751  1
  S2-  S177  1  0.64022318  0.01319138  0.83093905  1
  S2-  S178  1  0.60415484  0.23382728  0.33067538  1
  S2-  S179  1  0.60805182  0.23744844  0.84426859  1
  S2-  S180  1  0.58263030  0.44286159  0.32419474  1
  S2-  S181  1  0.57460427  0.48644667  0.84357327  1
  S2-  S182  1  0.62744010  0.66128122  0.35510704  1
  S2-  S183  1  0.62871821  0.77480182  0.83514339  1
  S2-  S184  1  0.90507566  0.05635019  0.31332741  1
  S2-  S185  1  0.84044299  -0.03545583  0.83177058  1
  S2-  S186  1  0.82057090  0.26237102  0.32432407  1
  S2-  S187  1  0.83011728  0.18806187  0.82502976  1
  S2-  S188  1  0.78525199  0.49042762  0.35908503  1
  S2-  S189  1  0.87525433  0.39624460  0.85790742  1
  S2-  S190  1  0.88956947  0.83810933  0.35656953  1
  S2-  S191  1  0.88474374  0.76043934  0.84245660  1
  S2-  S192  1  -0.00290994  0.11775871  0.45250863  1
  S2-  S193  1  0.00457111  0.12445978  0.96653683  1
  S2-  S194  1  0.00139427  0.38098594  0.46144080  1
  S2-  S195  1  0.00560313  0.37643908  0.96493488  1
  S2-  S196  1  0.00045036  0.63003449  0.45907403  1
  S2-  S197  1  0.00185852  0.62171796  0.95093310  1
  S2-  S198  1  0.00074756  0.87738906  0.46046621  1
  S2-  S199  1  0.00453931  0.87211618  0.96549699  1
  S2-  S200  1  0.24775780  0.12497368  0.45072555  1
  S2-  S201  1  0.25251078  0.12250536  0.95534456  1
  S2-  S202  1  0.24251950  0.37188148  0.45768679  1
  S2-  S203  1  0.24942852  0.37160845  0.94769107  1
  S2-  S204  1  0.24792720  0.63370145  0.46769065  1
  S2-  S205  1  0.25184296  0.62050721  0.95725965  1
  S2-  S206  1  0.25095612  0.87818950  0.46505195  1
  S2-  S207  1  0.24954290  0.87463712  0.95524340  1
  S2-  S208  1  0.49873193  0.12933517  0.44250440  1
  S2-  S209  1  0.49977755  0.12459811  0.95436539  1
  S2-  S210  1  0.49498128  0.37988625  0.44555284  1
  S2-  S211  1  0.50431333  0.36830580  0.95252411  1
  S2-  S212  1  0.49373805  0.62767785  0.45497443  1
  S2-  S213  1  0.50097080  0.62065511  0.94478462  1
  S2-  S214  1  0.49771229  0.87811133  0.45530296  1
  S2-  S215  1  0.50046881  0.87211391  0.94763031  1
  S2-  S216  1  0.75115670  0.12955279  0.44150202  1
  S2-  S217  1  0.75568010  0.12182081  0.94620356  1
  S2-  S218  1  0.75537584  0.37417696  0.45489341  1
  S2-  S219  1  0.74861226  0.37198233  0.95384684  1
  S2-  S220  1  0.75601875  0.63135716  0.45744730  1
  S2-  S221  1  0.75324805  0.62067774  0.94246890  1
  S2-  S222  1  0.74744509  0.87374475  0.45397230  1
  S2-  S223  1  0.75217394  0.87292448  0.94901938  1
  S2-  S224  1  0.12765933  -0.00118426  0.05398750  1
  S2-  S225  1  0.11930893  0.00565409  0.54083729  1
  S2-  S226  1  0.13283411  0.25406367  0.05295100  1
  S2-  S227  1  0.11870768  0.24326820  0.54960575  1
  S2-  S228  1  0.12706693  0.49714675  0.05278683  1
  S2-  S229  1  0.11908938  0.50291468  0.55647785  1
  S2-  S230  1  0.12719263  0.74854751  0.05222219  1
  S2-  S231  1  0.12200960  0.75471044  0.55708707  1
  S2-  S232  1  0.37827630  -0.00490228  0.04513288  1
  S2-  S233  1  0.37990968  0.00745541  0.54823315  1
  S2-  S234  1  0.37851036  0.25450803  0.04055509  1
  S2-  S235  1  0.37259956  0.24493147  0.53594323  1
  S2-  S236  1  0.37915192  0.49633482  0.03679831  1
  S2-  S237  1  0.37265609  0.50050584  0.54389557  1
  S2-  S238  1  0.37697268  0.74757365  0.04902716  1
  S2-  S239  1  0.37620494  0.75872554  0.55691055  1
  S2-  S240  1  0.62720201  -0.00007404  0.04445660  1
  S2-  S241  1  0.62447319  0.00629348  0.54134308  1
  S2-  S242  1  0.62431874  0.25023867  0.05044301  1
  S2-  S243  1  0.62443611  0.25450906  0.54028138  1
  S2-  S244  1  0.62645093  0.49730670  0.04576553  1
  S2-  S245  1  0.62564192  0.50121842  0.53184531  1
  S2-  S246  1  0.62782457  0.74768189  0.04404551  1
  S2-  S247  1  0.62255203  0.75343117  0.55145171  1
  S2-  S248  1  0.87399941  -0.00017424  0.04084999  1
  S2-  S249  1  0.86673120  0.00117002  0.53516641  1
  S2-  S250  1  0.87329688  0.25326415  0.04061080  1
  S2-  S251  1  0.87634304  0.25127372  0.53503727  1
  S2-  S252  1  0.87482020  0.49914576  0.04849448  1
  S2-  S253  1  0.87571720  0.50272255  0.54781094  1
  S2-  S254  1  0.87598315  0.74835412  0.04493577  1
  S2-  S255  1  0.86769938  0.75613829  0.54886164  1
