# generated using pymatgen
data_La9Ce10Pr6Nd4Sm3(BiS2)32
_symmetry_space_group_name_H-M   'P 1'
_cell_length_a   16.20376884
_cell_length_b   16.20109294
_cell_length_c   27.17497341
_cell_angle_alpha   89.95256556
_cell_angle_beta   89.98842516
_cell_angle_gamma   89.92778897
_symmetry_Int_Tables_number   1
_chemical_formula_structural   La9Ce10Pr6Nd4Sm3(BiS2)32
_chemical_formula_sum   'La18 Ce20 Pr12 Nd8 Sm6 Bi64 S128'
_cell_volume   7133.93220047
_cell_formula_units_Z   2
loop_
 _symmetry_equiv_pos_site_id
 _symmetry_equiv_pos_as_xyz
  1  'x, y, z'
loop_
 _atom_type_symbol
 _atom_type_oxidation_number
  La3+  3.0
  Ce3+  3.0
  Pr3+  3.0
  Nd3+  3.0
  Sm3+  3.0
  Bi2+  2.0
  S2-  -2.0
loop_
 _atom_site_type_symbol
 _atom_site_label
 _atom_site_symmetry_multiplicity
 _atom_site_fract_x
 _atom_site_fract_y
 _atom_site_fract_z
 _atom_site_occupancy
  La3+  La0  1  0.49543803  0.86319566  0.11396789  1
  La3+  La1  1  0.37379745  0.51243796  0.91980524  1
  La3+  La2  1  0.25302169  0.63336146  0.57361920  1
  La3+  La3  1  -0.01025906  0.39102796  0.58079858  1
  La3+  La4  1  0.62524661  0.50428829  0.93205907  1
  La3+  La5  1  0.87752106  0.50795877  0.92805738  1
  La3+  La6  1  0.24744798  0.38477096  0.58227357  1
  La3+  La7  1  0.61957771  0.74983526  0.93250733  1
  La3+  La8  1  0.62691091  0.00758266  0.43439038  1
  La3+  La9  1  0.12355048  0.49210262  0.42796591  1
  La3+  La10  1  0.74608358  0.37698747  0.56617959  1
  La3+  La11  1  0.00319701  0.11464676  0.58487997  1
  La3+  La12  1  0.74186548  0.88451953  0.06281899  1
  La3+  La13  1  0.37487243  0.02077287  0.41417717  1
  La3+  La14  1  0.62107835  0.00030577  0.92957821  1
  La3+  La15  1  0.74113195  0.12146422  0.58718715  1
  La3+  La16  1  0.12664323  0.25058851  0.89340185  1
  La3+  La17  1  0.87311938  0.25088100  0.44735591  1
  Ce3+  Ce18  1  0.49883926  0.61971147  0.06847547  1
  Ce3+  Ce19  1  0.25020702  0.12506178  0.56589753  1
  Ce3+  Ce20  1  0.36788520  0.25533762  0.44876584  1
  Ce3+  Ce21  1  0.25147741  0.87998998  0.06375066  1
  Ce3+  Ce22  1  0.12271716  0.75250227  0.43638757  1
  Ce3+  Ce23  1  0.49743446  0.38263847  0.05429712  1
  Ce3+  Ce24  1  0.37189826  0.25658076  0.93578646  1
  Ce3+  Ce25  1  0.87323364  0.25419455  0.92898926  1
  Ce3+  Ce26  1  0.12524870  0.75484085  0.93921838  1
  Ce3+  Ce27  1  0.74752896  0.88192419  0.56471061  1
  Ce3+  Ce28  1  0.74864346  0.13469083  0.05571231  1
  Ce3+  Ce29  1  0.74548014  0.63156820  0.56007808  1
  Ce3+  Ce30  1  -0.00347859  0.87996927  0.55102536  1
  Ce3+  Ce31  1  0.86852008  0.75425117  0.43999019  1
  Ce3+  Ce32  1  0.49916372  0.12689454  0.05896173  1
  Ce3+  Ce33  1  0.75027110  0.62846298  0.05789468  1
  Ce3+  Ce34  1  -0.00063586  0.62738698  0.05932550  1
  Ce3+  Ce35  1  0.62486220  0.50389080  0.43258372  1
  Ce3+  Ce36  1  0.00131681  0.88236672  0.06140549  1
  Ce3+  Ce37  1  0.36916727  0.50625925  0.43879848  1
  Pr3+  Pr38  1  0.87425372  0.75680681  0.93882291  1
  Pr3+  Pr39  1  0.36997959  0.75359130  0.43320538  1
  Pr3+  Pr40  1  0.37516158  0.75527724  0.94356882  1
  Pr3+  Pr41  1  0.12314338  0.50992281  0.92741983  1
  Pr3+  Pr42  1  0.49319049  0.12362244  0.56942856  1
  Pr3+  Pr43  1  0.49600859  0.38163375  0.55747601  1
  Pr3+  Pr44  1  0.87244766  0.49760533  0.42641470  1
  Pr3+  Pr45  1  -0.00239220  0.12708929  0.05974483  1
  Pr3+  Pr46  1  0.12024170  0.00911655  0.43293618  1
  Pr3+  Pr47  1  -0.01358894  0.37163037  0.10182086  1
  Pr3+  Pr48  1  0.12462376  0.00435058  0.93360694  1
  Pr3+  Pr49  1  -0.00120821  0.62975126  0.55403784  1
  Nd3+  Nd50  1  0.86951365  0.01025333  0.43737378  1
  Nd3+  Nd51  1  0.62536651  0.25409502  0.93049355  1
  Nd3+  Nd52  1  0.50396966  0.62796707  0.56445273  1
  Nd3+  Nd53  1  0.24410483  0.13467459  0.05793543  1
  Nd3+  Nd54  1  0.24050151  0.38120074  0.04875106  1
  Nd3+  Nd55  1  0.25135497  0.87750144  0.55503948  1
  Nd3+  Nd56  1  0.62195252  0.25316053  0.44569585  1
  Nd3+  Nd57  1  0.37152564  0.00699634  0.94411990  1
  Sm3+  Sm58  1  0.75301419  0.37852460  0.05480731  1
  Sm3+  Sm59  1  0.11976929  0.25435077  0.45798541  1
  Sm3+  Sm60  1  0.87535137  0.00714524  0.93756874  1
  Sm3+  Sm61  1  0.62133376  0.75495217  0.44122579  1
  Sm3+  Sm62  1  0.49633598  0.88061281  0.54891941  1
  Sm3+  Sm63  1  0.25002882  0.62822161  0.05863502  1
  Bi2+  Bi64  1  0.00953174  0.13068875  0.28120159  1
  Bi2+  Bi65  1  -0.00989840  0.09753884  0.78590433  1
  Bi2+  Bi66  1  0.01098097  0.38185858  0.30426817  1
  Bi2+  Bi67  1  0.00285921  0.39698055  0.80560131  1
  Bi2+  Bi68  1  0.02848287  0.64235893  0.27146415  1
  Bi2+  Bi69  1  -0.00260608  0.65075578  0.78627525  1
  Bi2+  Bi70  1  0.00089009  0.94157622  0.30172084  1
  Bi2+  Bi71  1  0.02232020  0.85356085  0.79513810  1
  Bi2+  Bi72  1  0.27201585  0.11068198  0.28696108  1
  Bi2+  Bi73  1  0.25455573  0.03911243  0.77537841  1
  Bi2+  Bi74  1  0.33968719  0.37205808  0.27949177  1
  Bi2+  Bi75  1  0.27055559  0.36052207  0.77745066  1
  Bi2+  Bi76  1  0.27776487  0.61756821  0.29491951  1
  Bi2+  Bi77  1  0.25606670  0.69818699  0.79006561  1
  Bi2+  Bi78  1  0.16304483  0.84757932  0.27665419  1
  Bi2+  Bi79  1  0.20491421  0.87116324  0.83198422  1
  Bi2+  Bi80  1  0.54223525  0.15252289  0.27893485  1
  Bi2+  Bi81  1  0.51480510  0.13294867  0.79765467  1
  Bi2+  Bi82  1  0.52857572  0.35018755  0.30771450  1
  Bi2+  Bi83  1  0.49187369  0.32001707  0.81300989  1
  Bi2+  Bi84  1  0.51451000  0.54504480  0.31523861  1
  Bi2+  Bi85  1  0.52140406  0.72390572  0.79506212  1
  Bi2+  Bi86  1  0.49313618  0.87406064  0.31863904  1
  Bi2+  Bi87  1  0.44690261  0.92979232  0.76839819  1
  Bi2+  Bi88  1  0.79158803  0.11939386  0.29493396  1
  Bi2+  Bi89  1  0.75870621  0.12533327  0.78133859  1
  Bi2+  Bi90  1  0.74930927  0.35979222  0.29584114  1
  Bi2+  Bi91  1  0.67466349  0.37369989  0.79772771  1
  Bi2+  Bi92  1  0.77692046  0.64044322  0.29780624  1
  Bi2+  Bi93  1  0.74276242  0.57035948  0.79674746  1
  Bi2+  Bi94  1  0.76253432  0.86064425  0.29434090  1
  Bi2+  Bi95  1  0.77086002  0.79592152  0.79113645  1
  Bi2+  Bi96  1  0.12547223  -0.01582803  0.20008495  1
  Bi2+  Bi97  1  0.13749774  -0.06828067  0.70855258  1
  Bi2+  Bi98  1  0.14322461  0.23956339  0.18703487  1
  Bi2+  Bi99  1  0.12813983  0.22072088  0.69613089  1
  Bi2+  Bi100  1  0.16209571  0.49582179  0.19045545  1
  Bi2+  Bi101  1  0.12316907  0.50970665  0.71284572  1
  Bi2+  Bi102  1  0.06704921  0.77365709  0.18476320  1
  Bi2+  Bi103  1  0.11339984  0.73536022  0.70792461  1
  Bi2+  Bi104  1  0.37440252  0.00279925  0.21391007  1
  Bi2+  Bi105  1  0.35310369  0.01182583  0.67163456  1
  Bi2+  Bi106  1  0.44100213  0.26015630  0.20612981  1
  Bi2+  Bi107  1  0.40483575  0.18739498  0.70307059  1
  Bi2+  Bi108  1  0.40507474  0.51988614  0.21940783  1
  Bi2+  Bi109  1  0.41237120  0.53155178  0.71746471  1
  Bi2+  Bi110  1  0.37109924  0.73769353  0.21715962  1
  Bi2+  Bi111  1  0.36887388  0.78883985  0.70884326  1
  Bi2+  Bi112  1  0.64614170  0.00942088  0.20190096  1
  Bi2+  Bi113  1  0.61676689  -0.04319657  0.70670566  1
  Bi2+  Bi114  1  0.63756371  0.23293508  0.18716916  1
  Bi2+  Bi115  1  0.59328390  0.24729860  0.71092227  1
  Bi2+  Bi116  1  0.63850727  0.42691278  0.20863632  1
  Bi2+  Bi117  1  0.61325176  0.50261328  0.71745942  1
  Bi2+  Bi118  1  0.61988822  0.61991721  0.22867027  1
  Bi2+  Bi119  1  0.64802035  0.75180432  0.70717357  1
  Bi2+  Bi120  1  0.87383957  -0.04741303  0.21227107  1
  Bi2+  Bi121  1  0.87789919  -0.09160681  0.71708433  1
  Bi2+  Bi122  1  0.83737479  0.23806865  0.20641933  1
  Bi2+  Bi123  1  0.88425890  0.29479166  0.71582725  1
  Bi2+  Bi124  1  0.88512814  0.55539892  0.21770278  1
  Bi2+  Bi125  1  0.87986616  0.54256151  0.71414511  1
  Bi2+  Bi126  1  0.87602617  0.75696824  0.20179849  1
  Bi2+  Bi127  1  0.84216937  0.72557006  0.68428740  1
  S2-  S128  1  -0.01253802  0.21173668  0.14935108  1
  S2-  S129  1  -0.03564029  0.15335678  0.68475663  1
  S2-  S130  1  0.05374098  0.37313018  0.20129912  1
  S2-  S131  1  0.04708666  0.36231495  0.67716565  1
  S2-  S132  1  0.01257784  0.53779267  0.14202495  1
  S2-  S133  1  0.01125153  0.55131505  0.64362238  1
  S2-  S134  1  -0.00179574  0.99550426  0.13748705  1
  S2-  S135  1  -0.00295715  0.94091183  0.64248776  1
  S2-  S136  1  0.24859101  0.10637540  0.15844398  1
  S2-  S137  1  0.16078134  0.08185656  0.64502815  1
  S2-  S138  1  0.24437505  0.37100661  0.15025131  1
  S2-  S139  1  0.27948584  0.29697015  0.67289351  1
  S2-  S140  1  0.26644820  0.62887958  0.15813744  1
  S2-  S141  1  0.25081793  0.51650425  0.65389504  1
  S2-  S142  1  0.32345521  0.87110602  0.15403826  1
  S2-  S143  1  0.24201110  0.77538991  0.63767541  1
  S2-  S144  1  0.49877754  0.03864317  0.14547796  1
  S2-  S145  1  0.59002958  0.10125403  0.65299476  1
  S2-  S146  1  0.50383092  0.47701292  0.13681396  1
  S2-  S147  1  0.48752220  0.43070584  0.65538954  1
  S2-  S148  1  0.50404374  0.70089940  0.15727550  1
  S2-  S149  1  0.41578874  0.64835030  0.65093922  1
  S2-  S150  1  0.48731847  0.87306991  0.22395249  1
  S2-  S151  1  0.49425962  0.88245443  0.64710385  1
  S2-  S152  1  0.76987522  0.06316514  0.14633019  1
  S2-  S153  1  0.75967305  0.21056587  0.67923434  1
  S2-  S154  1  0.82781004  0.37145085  0.14533992  1
  S2-  S155  1  0.83195167  0.41417437  0.65056177  1
  S2-  S156  1  0.75431910  0.62145255  0.15648821  1
  S2-  S157  1  0.64149656  0.61474833  0.63888471  1
  S2-  S158  1  0.66145087  0.87197709  0.15227687  1
  S2-  S159  1  0.75875291  0.97387922  0.64975976  1
  S2-  S160  1  0.13625800  0.10559109  0.34767008  1
  S2-  S161  1  0.12361941  0.08823202  0.84445179  1
  S2-  S162  1  0.11490539  0.33483091  0.36996629  1
  S2-  S163  1  0.12494444  0.27846030  0.78800705  1
  S2-  S164  1  0.00162465  0.52308101  0.35130298  1
  S2-  S165  1  0.15237328  0.45589669  0.82848834  1
  S2-  S166  1  0.14239638  0.70603649  0.34155451  1
  S2-  S167  1  0.12554251  0.65422512  0.85964447  1
  S2-  S168  1  0.33401133  -0.04476944  0.32004808  1
  S2-  S169  1  0.38734214  0.03167241  0.84479207  1
  S2-  S170  1  0.36115706  0.17915898  0.36065085  1
  S2-  S171  1  0.29469763  0.25239765  0.84824479  1
  S2-  S172  1  0.26708314  0.49023037  0.35875322  1
  S2-  S173  1  0.39520110  0.46317571  0.82037653  1
  S2-  S174  1  0.38921513  0.73340787  0.33266308  1
  S2-  S175  1  0.38669983  0.66583868  0.85615210  1
  S2-  S176  1  0.52600908  0.03125962  0.35148402  1
  S2-  S177  1  0.65154010  0.04599374  0.83249438  1
  S2-  S178  1  0.69588687  0.22790687  0.35598407  1
  S2-  S179  1  0.74285697  0.23828509  0.85309966  1
  S2-  S180  1  0.73678504  0.50529287  0.35586395  1
  S2-  S181  1  0.60980751  0.61887003  0.85593198  1
  S2-  S182  1  0.63444311  0.77928088  0.34257991  1
  S2-  S183  1  0.62592335  0.83607783  0.84399457  1
  S2-  S184  1  0.75033333  -0.00779691  0.35977571  1
  S2-  S185  1  0.86941952  0.02525794  0.83789620  1
  S2-  S186  1  0.90682453  0.13418324  0.36669515  1
  S2-  S187  1  0.96098885  0.23847548  0.84351339  1
  S2-  S188  1  0.88291176  0.35199550  0.36126271  1
  S2-  S189  1  0.84384578  0.43498600  0.83722222  1
  S2-  S190  1  0.88422816  0.75824505  0.34237674  1
  S2-  S191  1  0.87291825  0.65215283  0.85651333  1
  S2-  S192  1  0.00331085  0.12753028  0.47133149  1
  S2-  S193  1  -0.00172064  0.12693715  0.95149989  1
  S2-  S194  1  -0.00538809  0.37744237  0.47120652  1
  S2-  S195  1  0.00457182  0.37986145  0.93528039  1
  S2-  S196  1  -0.00324634  0.63265811  0.44995680  1
  S2-  S197  1  -0.00076605  0.63345414  0.95665651  1
  S2-  S198  1  -0.00505464  0.88250704  0.44513720  1
  S2-  S199  1  -0.00175473  0.88137219  0.95180038  1
  S2-  S200  1  0.24313503  0.13116759  0.46104561  1
  S2-  S201  1  0.24550700  0.13338677  0.95202634  1
  S2-  S202  1  0.25007219  0.37620964  0.46960034  1
  S2-  S203  1  0.24903536  0.38435071  0.94345194  1
  S2-  S204  1  0.24673384  0.63093673  0.45661280  1
  S2-  S205  1  0.25070348  0.63048572  0.95536281  1
  S2-  S206  1  0.24734467  0.88236583  0.44505775  1
  S2-  S207  1  0.25076099  0.88028886  0.95747736  1
  S2-  S208  1  0.49731139  0.13496950  0.46191641  1
  S2-  S209  1  0.49820527  0.13274265  0.95067792  1
  S2-  S210  1  0.49518279  0.37957170  0.45041546  1
  S2-  S211  1  0.49907351  0.38087581  0.94729649  1
  S2-  S212  1  0.49935303  0.63055378  0.45218936  1
  S2-  S213  1  0.49703955  0.62479880  0.96107566  1
  S2-  S214  1  0.49570700  0.87889574  0.44466954  1
  S2-  S215  1  0.49313868  0.88212280  0.94354700  1
  S2-  S216  1  0.74412509  0.13111311  0.47027592  1
  S2-  S217  1  0.74863496  0.12578563  0.95194096  1
  S2-  S218  1  0.74350717  0.37783517  0.45962780  1
  S2-  S219  1  0.74776583  0.38011742  0.95140808  1
  S2-  S220  1  0.74330244  0.63403064  0.45411984  1
  S2-  S221  1  0.74996476  0.63039488  0.95413153  1
  S2-  S222  1  0.74656248  0.87494464  0.45889156  1
  S2-  S223  1  0.75243263  0.88202402  0.95071406  1
  S2-  S224  1  0.12880757  0.00404589  0.04138091  1
  S2-  S225  1  0.12736582  -0.00512181  0.53935005  1
  S2-  S226  1  0.11764854  0.25984083  0.05184453  1
  S2-  S227  1  0.12210764  0.25502822  0.56191092  1
  S2-  S228  1  0.12634428  0.50932609  0.03781377  1
  S2-  S229  1  0.12594379  0.50633047  0.54352462  1
  S2-  S230  1  0.12709104  0.75440051  0.04726015  1
  S2-  S231  1  0.12066473  0.75637532  0.54122992  1
  S2-  S232  1  0.36881904  0.00906901  0.04809084  1
  S2-  S233  1  0.37247791  0.00190516  0.53805339  1
  S2-  S234  1  0.37240711  0.25669958  0.04548996  1
  S2-  S235  1  0.37370020  0.25372125  0.55437443  1
  S2-  S236  1  0.36875397  0.50300677  0.03851154  1
  S2-  S237  1  0.37529863  0.50778921  0.54528009  1
  S2-  S238  1  0.37489875  0.75297702  0.05041558  1
  S2-  S239  1  0.37893436  0.75537354  0.53913995  1
  S2-  S240  1  0.62518349  0.01115903  0.03879110  1
  S2-  S241  1  0.61924949  0.00021492  0.54359122  1
  S2-  S242  1  0.62275301  0.25858019  0.04072503  1
  S2-  S243  1  0.61818166  0.25317262  0.55388100  1
  S2-  S244  1  0.63149372  0.50143241  0.04054915  1
  S2-  S245  1  0.62225091  0.50208759  0.53934175  1
  S2-  S246  1  0.62212022  0.75196620  0.04433534  1
  S2-  S247  1  0.62025093  0.75987946  0.54608673  1
  S2-  S248  1  0.87165982  0.00375202  0.04029352  1
  S2-  S249  1  0.87197520  0.00290193  0.54464090  1
  S2-  S250  1  0.87437708  0.25660730  0.03840138  1
  S2-  S251  1  0.87195610  0.24842914  0.55935922  1
  S2-  S252  1  0.87490707  0.50196154  0.04091047  1
  S2-  S253  1  0.86686232  0.51115042  0.53987762  1
  S2-  S254  1  0.87411596  0.75821136  0.04790851  1
  S2-  S255  1  0.87170468  0.75563337  0.54724592  1
