# generated using pymatgen
data_La9Ce10Pr6Nd4Sm3(BiS2)32
_symmetry_space_group_name_H-M   'P 1'
_cell_length_a   16.20488216
_cell_length_b   16.19861714
_cell_length_c   27.15929314
_cell_angle_alpha   89.86164276
_cell_angle_beta   89.82332909
_cell_angle_gamma   89.95645219
_symmetry_Int_Tables_number   1
_chemical_formula_structural   La9Ce10Pr6Nd4Sm3(BiS2)32
_chemical_formula_sum   'La18 Ce20 Pr12 Nd8 Sm6 Bi64 S128'
_cell_volume   7129.16763745
_cell_formula_units_Z   2
loop_
 _symmetry_equiv_pos_site_id
 _symmetry_equiv_pos_as_xyz
  1  'x, y, z'
loop_
 _atom_type_symbol
 _atom_type_oxidation_number
  La3+  3.0
  Ce3+  3.0
  Pr3+  3.0
  Nd3+  3.0
  Sm3+  3.0
  Bi2+  2.0
  S2-  -2.0
loop_
 _atom_site_type_symbol
 _atom_site_label
 _atom_site_symmetry_multiplicity
 _atom_site_fract_x
 _atom_site_fract_y
 _atom_site_fract_z
 _atom_site_occupancy
  La3+  La0  1  0.48798279  0.60466959  0.07465352  1
  La3+  La1  1  0.10799750  0.48104759  0.90712085  1
  La3+  La2  1  0.61672049  0.01114229  0.88597249  1
  La3+  La3  1  0.10673016  0.74669702  0.91802696  1
  La3+  La4  1  0.13391799  0.00743971  0.42283637  1
  La3+  La5  1  0.36427074  0.73681045  0.93982296  1
  La3+  La6  1  0.01633122  0.87706461  0.56840253  1
  La3+  La7  1  0.39429526  0.25499134  0.43595114  1
  La3+  La8  1  0.89098404  0.00599748  0.42724280  1
  La3+  La9  1  -0.00224108  0.62906659  0.59118948  1
  La3+  La10  1  0.64064756  0.49903406  0.42840145  1
  La3+  La11  1  0.86064094  0.47754363  0.92393961  1
  La3+  La12  1  0.64297322  -0.00055321  0.42969890  1
  La3+  La13  1  0.26689266  0.36785975  0.58861532  1
  La3+  La14  1  0.36807173  0.48639310  0.92137695  1
  La3+  La15  1  0.61459745  0.48646127  0.93374057  1
  La3+  La16  1  0.22928492  0.60737169  0.05041600  1
  La3+  La17  1  0.38886043  0.00308793  0.43608006  1
  Ce3+  Ce18  1  0.25539591  0.87362026  0.55208728  1
  Ce3+  Ce19  1  0.76431408  0.37037563  0.57179105  1
  Ce3+  Ce20  1  0.47586697  0.86164335  0.06143727  1
  Ce3+  Ce21  1  -0.00702303  0.36313053  0.05622932  1
  Ce3+  Ce22  1  0.75796871  0.61915838  0.56155571  1
  Ce3+  Ce23  1  0.36686300  -0.01357908  0.93324152  1
  Ce3+  Ce24  1  0.63528962  0.74795084  0.44692610  1
  Ce3+  Ce25  1  0.47567687  0.36265823  0.06552843  1
  Ce3+  Ce26  1  0.13907464  0.25049434  0.44770060  1
  Ce3+  Ce27  1  0.36358523  0.23447983  0.93751248  1
  Ce3+  Ce28  1  0.23109157  0.85993773  0.06114698  1
  Ce3+  Ce29  1  0.50816340  0.61964042  0.56025066  1
  Ce3+  Ce30  1  -0.01509159  0.10959186  0.06013036  1
  Ce3+  Ce31  1  0.50924581  0.87630806  0.55903950  1
  Ce3+  Ce32  1  -0.01071335  0.86072068  0.06833032  1
  Ce3+  Ce33  1  0.73324888  0.10657978  0.05823135  1
  Ce3+  Ce34  1  0.88691036  0.49601901  0.43916589  1
  Ce3+  Ce35  1  0.00994613  0.12172893  0.56491878  1
  Ce3+  Ce36  1  0.11050453  -0.01275576  0.93669254  1
  Ce3+  Ce37  1  -0.01310776  0.60896920  0.04420826  1
  Pr3+  Pr38  1  0.76244314  0.11514179  0.56840636  1
  Pr3+  Pr39  1  0.23385249  0.10863011  0.05529361  1
  Pr3+  Pr40  1  0.85937333  0.23075803  0.94242963  1
  Pr3+  Pr41  1  0.38314764  0.74518517  0.44591916  1
  Pr3+  Pr42  1  0.60938993  0.23733753  0.94630844  1
  Pr3+  Pr43  1  0.25118990  0.62753797  0.58407317  1
  Pr3+  Pr44  1  0.73481176  0.36236528  0.06702750  1
  Pr3+  Pr45  1  0.11246142  0.23419701  0.93293267  1
  Pr3+  Pr46  1  0.26101710  0.12382759  0.56428520  1
  Pr3+  Pr47  1  0.38111997  0.49975767  0.44744956  1
  Pr3+  Pr48  1  0.48545667  0.10704322  0.06041710  1
  Pr3+  Pr49  1  0.61502351  0.74215227  0.93630142  1
  Nd3+  Nd50  1  0.13402295  0.74517132  0.43943049  1
  Nd3+  Nd51  1  0.72588573  0.85429479  0.06986048  1
  Nd3+  Nd52  1  0.23354985  0.36218424  0.05825543  1
  Nd3+  Nd53  1  0.76192384  0.87400443  0.56507479  1
  Nd3+  Nd54  1  0.51872638  0.36923143  0.57606949  1
  Nd3+  Nd55  1  0.51204410  0.11666568  0.56810320  1
  Nd3+  Nd56  1  0.88778364  0.74875258  0.44324459  1
  Nd3+  Nd57  1  0.73987007  0.60276526  0.05996668  1
  Sm3+  Sm58  1  0.88621347  0.24979659  0.44405480  1
  Sm3+  Sm59  1  0.86149495  0.73936668  0.94557846  1
  Sm3+  Sm60  1  0.85845454  -0.01827157  0.94720838  1
  Sm3+  Sm61  1  0.63549035  0.25055236  0.44806665  1
  Sm3+  Sm62  1  0.00762422  0.37281355  0.56801899  1
  Sm3+  Sm63  1  0.13509835  0.49929954  0.45804826  1
  Bi2+  Bi64  1  -0.01152096  0.19723421  0.28677020  1
  Bi2+  Bi65  1  0.07443343  0.11085375  0.82433607  1
  Bi2+  Bi66  1  -0.02699635  0.38873293  0.32182338  1
  Bi2+  Bi67  1  -0.02792428  0.35047900  0.78843199  1
  Bi2+  Bi68  1  -0.00163729  0.57394362  0.27649839  1
  Bi2+  Bi69  1  -0.09177824  0.65013666  0.79160175  1
  Bi2+  Bi70  1  -0.04463450  0.87589016  0.26799467  1
  Bi2+  Bi71  1  0.04054098  0.94962343  0.76310723  1
  Bi2+  Bi72  1  0.24005607  0.14284678  0.29406225  1
  Bi2+  Bi73  1  0.27144900  0.10919494  0.80704590  1
  Bi2+  Bi74  1  0.17146785  0.39011238  0.27930906  1
  Bi2+  Bi75  1  0.22738261  0.37791271  0.77571625  1
  Bi2+  Bi76  1  0.26733127  0.60987401  0.31332710  1
  Bi2+  Bi77  1  0.25617672  0.63871582  0.78778414  1
  Bi2+  Bi78  1  0.15648548  0.94149589  0.29264893  1
  Bi2+  Bi79  1  0.25149739  0.91144903  0.78365675  1
  Bi2+  Bi80  1  0.47863065  0.14412731  0.29876801  1
  Bi2+  Bi81  1  0.47199027  0.14653992  0.79946454  1
  Bi2+  Bi82  1  0.49280311  0.39266909  0.29511846  1
  Bi2+  Bi83  1  0.56998084  0.34228763  0.80555077  1
  Bi2+  Bi84  1  0.50701708  0.65546392  0.29302319  1
  Bi2+  Bi85  1  0.51851329  0.64056036  0.79693004  1
  Bi2+  Bi86  1  0.49604097  0.88783547  0.25193093  1
  Bi2+  Bi87  1  0.52517231  0.87563859  0.77425778  1
  Bi2+  Bi88  1  0.73224591  0.11557282  0.29895541  1
  Bi2+  Bi89  1  0.88892683  0.17083094  0.80198969  1
  Bi2+  Bi90  1  0.77670561  0.37031185  0.30059564  1
  Bi2+  Bi91  1  0.72553203  0.45683901  0.81564984  1
  Bi2+  Bi92  1  0.81332320  0.63274405  0.28144097  1
  Bi2+  Bi93  1  0.70999978  0.65816680  0.81097013  1
  Bi2+  Bi94  1  0.74896172  0.83780819  0.30470386  1
  Bi2+  Bi95  1  0.78506901  0.88890645  0.79752656  1
  Bi2+  Bi96  1  0.12996806  -0.00112950  0.18608832  1
  Bi2+  Bi97  1  0.20023232  0.00080201  0.67673423  1
  Bi2+  Bi98  1  0.11676513  0.25058931  0.20676343  1
  Bi2+  Bi99  1  0.15127439  0.17751834  0.72058024  1
  Bi2+  Bi100  1  0.14118590  0.51639831  0.19387165  1
  Bi2+  Bi101  1  0.05756740  0.49873936  0.71208086  1
  Bi2+  Bi102  1  0.11581608  0.76435194  0.24099720  1
  Bi2+  Bi103  1  0.09459567  0.77083243  0.71889401  1
  Bi2+  Bi104  1  0.36814751  0.01459165  0.20450184  1
  Bi2+  Bi105  1  0.38994312  -0.01291205  0.70835114  1
  Bi2+  Bi106  1  0.33753098  0.30702896  0.23788909  1
  Bi2+  Bi107  1  0.40607341  0.25398534  0.71483064  1
  Bi2+  Bi108  1  0.38755127  0.50826240  0.19468217  1
  Bi2+  Bi109  1  0.41986389  0.51697708  0.72367761  1
  Bi2+  Bi110  1  0.30723701  0.83689995  0.23768411  1
  Bi2+  Bi111  1  0.37037340  0.79212892  0.72002665  1
  Bi2+  Bi112  1  0.60700895  0.01969949  0.19609046  1
  Bi2+  Bi113  1  0.63966477  0.07205428  0.69349697  1
  Bi2+  Bi114  1  0.65036870  0.26530048  0.24283116  1
  Bi2+  Bi115  1  0.70602151  0.30374066  0.73017683  1
  Bi2+  Bi116  1  0.63907776  0.52886825  0.20006117  1
  Bi2+  Bi117  1  0.66180387  0.53219843  0.70744067  1
  Bi2+  Bi118  1  0.66430615  0.78635461  0.21231484  1
  Bi2+  Bi119  1  0.63364189  0.75190572  0.71329980  1
  Bi2+  Bi120  1  0.84376122  0.01620381  0.21763652  1
  Bi2+  Bi121  1  0.89646034  0.05658871  0.70496168  1
  Bi2+  Bi122  1  0.84293294  0.24309442  0.21075751  1
  Bi2+  Bi123  1  0.97368072  0.23632610  0.69028958  1
  Bi2+  Bi124  1  0.89694517  0.43224450  0.21307272  1
  Bi2+  Bi125  1  0.85990040  0.49199687  0.72038764  1
  Bi2+  Bi126  1  0.92820186  0.71268694  0.20107890  1
  Bi2+  Bi127  1  0.82618892  0.76517534  0.71026817  1
  S2-  S128  1  -0.01868508  0.05171414  0.15299053  1
  S2-  S129  1  0.01720664  0.00901468  0.63999112  1
  S2-  S130  1  0.10663826  0.37420904  0.13185848  1
  S2-  S131  1  -0.10514490  0.37775263  0.64274939  1
  S2-  S132  1  0.02848872  0.61122560  0.13908481  1
  S2-  S133  1  0.12490021  0.62807111  0.66125981  1
  S2-  S134  1  0.11239700  0.84533643  0.13677840  1
  S2-  S135  1  -0.02123282  0.78206954  0.65302384  1
  S2-  S136  1  0.22096665  0.13497683  0.15550236  1
  S2-  S137  1  0.27685200  0.21651567  0.64972649  1
  S2-  S138  1  0.34247669  0.36170153  0.13873041  1
  S2-  S139  1  0.17175111  0.40199078  0.67678071  1
  S2-  S140  1  0.26973113  0.60089638  0.15062856  1
  S2-  S141  1  0.32623301  0.63328681  0.68062172  1
  S2-  S142  1  0.34041520  0.87576735  0.13807683  1
  S2-  S143  1  0.19300337  0.84200120  0.64140926  1
  S2-  S144  1  0.47946932  0.12033574  0.16271296  1
  S2-  S145  1  0.52382988  0.19720891  0.65865962  1
  S2-  S146  1  0.53433434  0.44280418  0.14721478  1
  S2-  S147  1  0.40797154  0.39157023  0.65457012  1
  S2-  S148  1  0.48531356  0.63564242  0.17898480  1
  S2-  S149  1  0.53063593  0.59067395  0.65659343  1
  S2-  S150  1  0.55417585  0.86445933  0.14913334  1
  S2-  S151  1  0.52418511  0.97635020  0.63900577  1
  S2-  S152  1  0.72049081  0.11717871  0.15604985  1
  S2-  S153  1  0.75494197  0.19663275  0.66177149  1
  S2-  S154  1  0.75975422  0.47392993  0.14341244  1
  S2-  S155  1  0.64832650  0.38970140  0.64671633  1
  S2-  S156  1  0.70604371  0.66644336  0.15096187  1
  S2-  S157  1  0.84294349  0.61795042  0.64770335  1
  S2-  S158  1  0.78352490  0.89171730  0.16358949  1
  S2-  S159  1  0.76499376  0.98103947  0.64463304  1
  S2-  S160  1  0.01122379  -0.02849524  0.35095990  1
  S2-  S161  1  0.10882897  -0.10350191  0.85410184  1
  S2-  S162  1  0.12514945  0.16012909  0.36296452  1
  S2-  S163  1  0.11714154  0.32938844  0.84760552  1
  S2-  S164  1  0.17410068  0.50605045  0.36081284  1
  S2-  S165  1  0.14716050  0.51411134  0.80308194  1
  S2-  S166  1  0.15791944  0.72660162  0.33999673  1
  S2-  S167  1  0.11854205  0.70269298  0.81897734  1
  S2-  S168  1  0.36151107  0.03691244  0.33840896  1
  S2-  S169  1  0.45537093  -0.01492925  0.84746801  1
  S2-  S170  1  0.31577732  0.26408728  0.34341613  1
  S2-  S171  1  0.35092280  0.26228864  0.83999058  1
  S2-  S172  1  0.38600364  0.48987925  0.34546300  1
  S2-  S173  1  0.33013790  0.48606942  0.81840236  1
  S2-  S174  1  0.39014815  0.72700375  0.34468000  1
  S2-  S175  1  0.38765331  0.72208019  0.83945054  1
  S2-  S176  1  0.57476244  0.03707063  0.33720972  1
  S2-  S177  1  0.66466491  0.01207615  0.78019903  1
  S2-  S178  1  0.53544514  0.26285823  0.36607661  1
  S2-  S179  1  0.61848549  0.18245250  0.85015858  1
  S2-  S180  1  0.58565569  0.51301746  0.32876713  1
  S2-  S181  1  0.51235573  0.48684936  0.85281436  1
  S2-  S182  1  0.62320571  0.73272334  0.34822874  1
  S2-  S183  1  0.63892339  0.84571626  0.85460146  1
  S2-  S184  1  0.76982131  -0.02479408  0.35600489  1
  S2-  S185  1  0.84107217  0.01376717  0.85032401  1
  S2-  S186  1  0.87441554  0.15913038  0.35897381  1
  S2-  S187  1  0.84198729  0.32132317  0.85650038  1
  S2-  S188  1  0.78515310  0.51541986  0.35971212  1
  S2-  S189  1  0.96222962  0.50276500  0.84314350  1
  S2-  S190  1  0.89095418  0.75435308  0.34252306  1
  S2-  S191  1  0.89570851  0.78325677  0.85151332  1
  S2-  S192  1  0.01084666  0.12978943  0.46099740  1
  S2-  S193  1  -0.01675386  0.10758907  0.95394751  1
  S2-  S194  1  0.01202749  0.37241959  0.46216188  1
  S2-  S195  1  -0.01385437  0.35499184  0.95180947  1
  S2-  S196  1  0.01060792  0.62002296  0.44671715  1
  S2-  S197  1  -0.01428502  0.61601551  0.94086404  1
  S2-  S198  1  0.01388995  0.86974700  0.45600859  1
  S2-  S199  1  -0.01714360  0.86489537  0.95970757  1
  S2-  S200  1  0.26657039  0.12882264  0.45721567  1
  S2-  S201  1  0.23856173  0.10906910  0.94761593  1
  S2-  S202  1  0.25892139  0.37528297  0.46558065  1
  S2-  S203  1  0.24075323  0.36120027  0.94949688  1
  S2-  S204  1  0.25725484  0.62351088  0.46716762  1
  S2-  S205  1  0.23483750  0.61051394  0.93754546  1
  S2-  S206  1  0.25921408  0.87408858  0.44415780  1
  S2-  S207  1  0.23986652  0.86424271  0.95185029  1
  S2-  S208  1  0.51518405  0.12230240  0.45987956  1
  S2-  S209  1  0.48931948  0.10888907  0.95246763  1
  S2-  S210  1  0.51419694  0.38181371  0.46508010  1
  S2-  S211  1  0.48492741  0.35904769  0.95640189  1
  S2-  S212  1  0.51034361  0.62207322  0.45396006  1
  S2-  S213  1  0.49074879  0.61435499  0.95599927  1
  S2-  S214  1  0.50913710  0.87264670  0.45001457  1
  S2-  S215  1  0.48793086  0.86264581  0.95371862  1
  S2-  S216  1  0.75835399  0.13017620  0.45945359  1
  S2-  S217  1  0.73247882  0.10572185  0.95216404  1
  S2-  S218  1  0.76159260  0.36921242  0.45826846  1
  S2-  S219  1  0.73436743  0.35808785  0.96011969  1
  S2-  S220  1  0.76112332  0.62774018  0.45728185  1
  S2-  S221  1  0.74141787  0.61263306  0.95127161  1
  S2-  S222  1  0.76177583  0.86790385  0.45904727  1
  S2-  S223  1  0.74222584  0.85958501  0.96238195  1
  S2-  S224  1  0.10823289  -0.01320262  0.04156544  1
  S2-  S225  1  0.14030830  0.00192894  0.53479572  1
  S2-  S226  1  0.10979668  0.23207155  0.03989408  1
  S2-  S227  1  0.13132179  0.25046916  0.55533639  1
  S2-  S228  1  0.10892221  0.48531854  0.02560076  1
  S2-  S229  1  0.12805568  0.49805404  0.56035822  1
  S2-  S230  1  0.10873811  0.73475061  0.03041388  1
  S2-  S231  1  0.12855963  0.74083582  0.54453233  1
  S2-  S232  1  0.35865600  -0.01100243  0.03911177  1
  S2-  S233  1  0.38130611  -0.00345854  0.54498612  1
  S2-  S234  1  0.35898446  0.23081022  0.04355491  1
  S2-  S235  1  0.39326878  0.24630903  0.54638200  1
  S2-  S236  1  0.36088769  0.48993513  0.03562867  1
  S2-  S237  1  0.37791626  0.50448694  0.55478570  1
  S2-  S238  1  0.35974434  0.72896275  0.04722330  1
  S2-  S239  1  0.38347767  0.74940359  0.55443450  1
  S2-  S240  1  0.61096645  -0.01524639  0.05235845  1
  S2-  S241  1  0.63734870  -0.00563754  0.53823074  1
  S2-  S242  1  0.60843630  0.23810902  0.05450499  1
  S2-  S243  1  0.63819281  0.24389111  0.54938904  1
  S2-  S244  1  0.61238477  0.48540503  0.04072578  1
  S2-  S245  1  0.63649003  0.49995376  0.54217082  1
  S2-  S246  1  0.60760010  0.73154563  0.04412170  1
  S2-  S247  1  0.63444679  0.74962475  0.55524102  1
  S2-  S248  1  0.85902061  -0.01618274  0.05131820  1
  S2-  S249  1  0.88637766  -0.00406883  0.53851705  1
  S2-  S250  1  0.86099125  0.23695715  0.05128139  1
  S2-  S251  1  0.88591871  0.24389239  0.54724211  1
  S2-  S252  1  0.86603413  0.48207785  0.03620015  1
  S2-  S253  1  0.88730114  0.50109563  0.54365961  1
  S2-  S254  1  0.86157903  0.73493133  0.05126111  1
  S2-  S255  1  0.88196242  0.74876316  0.54711903  1
