# generated using pymatgen
data_La9Ce10Pr6Nd4Sm3(BiS2)32
_symmetry_space_group_name_H-M   'P 1'
_cell_length_a   16.22304731
_cell_length_b   16.23432762
_cell_length_c   27.00031611
_cell_angle_alpha   89.93092228
_cell_angle_beta   89.99128182
_cell_angle_gamma   89.98780478
_symmetry_Int_Tables_number   1
_chemical_formula_structural   La9Ce10Pr6Nd4Sm3(BiS2)32
_chemical_formula_sum   'La18 Ce20 Pr12 Nd8 Sm6 Bi64 S128'
_cell_volume   7111.07499774
_cell_formula_units_Z   2
loop_
 _symmetry_equiv_pos_site_id
 _symmetry_equiv_pos_as_xyz
  1  'x, y, z'
loop_
 _atom_type_symbol
 _atom_type_oxidation_number
  La3+  3.0
  Ce3+  3.0
  Pr3+  3.0
  Nd3+  3.0
  Sm3+  3.0
  Bi2+  2.0
  S2-  -2.0
loop_
 _atom_site_type_symbol
 _atom_site_label
 _atom_site_symmetry_multiplicity
 _atom_site_fract_x
 _atom_site_fract_y
 _atom_site_fract_z
 _atom_site_occupancy
  La3+  La0  1  0.50755949  0.12287977  0.56182783  1
  La3+  La1  1  0.62742435  0.50518436  0.39242823  1
  La3+  La2  1  0.63162620  0.24281690  0.43382445  1
  La3+  La3  1  0.25401932  0.38102347  0.05410652  1
  La3+  La4  1  0.00471797  0.86910801  0.10033761  1
  La3+  La5  1  0.62903282  0.00412059  0.89728993  1
  La3+  La6  1  0.76545204  0.11697425  0.57872328  1
  La3+  La7  1  0.88130540  0.25283218  0.93815975  1
  La3+  La8  1  0.75506237  0.62835917  0.06714750  1
  La3+  La9  1  0.75403218  0.37463048  0.06727878  1
  La3+  La10  1  0.25820515  0.61314074  0.59972441  1
  La3+  La11  1  0.25943692  0.36515712  0.57395360  1
  La3+  La12  1  0.38448407  0.75608960  0.92813604  1
  La3+  La13  1  0.75456093  0.86922976  0.56830713  1
  La3+  La14  1  0.86866265  0.00038182  0.42551512  1
  La3+  La15  1  0.24551201  0.87668928  0.57373933  1
  La3+  La16  1  0.12833919  0.75981691  0.92428423  1
  La3+  La17  1  -0.00326367  0.37218255  0.57917494  1
  Ce3+  Ce18  1  0.49986829  0.87150063  0.56382229  1
  Ce3+  Ce19  1  0.00604873  0.87254752  0.55042461  1
  Ce3+  Ce20  1  0.12987995  0.49609148  0.45342567  1
  Ce3+  Ce21  1  0.24731142  0.12391008  0.56005244  1
  Ce3+  Ce22  1  0.62702318  -0.00751283  0.44195531  1
  Ce3+  Ce23  1  0.25231626  0.62801238  0.04429438  1
  Ce3+  Ce24  1  0.87598036  0.74603954  0.44016151  1
  Ce3+  Ce25  1  0.63144384  0.75732645  0.94738951  1
  Ce3+  Ce26  1  0.37866775  0.49757981  0.43939696  1
  Ce3+  Ce27  1  0.75346664  0.37294375  0.55741704  1
  Ce3+  Ce28  1  0.87676614  0.24979168  0.44227357  1
  Ce3+  Ce29  1  0.87788543  0.75671529  0.94780324  1
  Ce3+  Ce30  1  0.63112141  0.25809699  0.93515591  1
  Ce3+  Ce31  1  0.49980719  0.87687163  0.06707197  1
  Ce3+  Ce32  1  0.75272650  0.87949870  0.06470025  1
  Ce3+  Ce33  1  0.87584173  0.49774208  0.43995828  1
  Ce3+  Ce34  1  0.63252880  0.50186617  0.93575243  1
  Ce3+  Ce35  1  0.37750264  0.24805912  0.43782920  1
  Ce3+  Ce36  1  0.13763285  -0.00753471  0.42462738  1
  Ce3+  Ce37  1  0.13102068  0.25464417  0.93723237  1
  Pr3+  Pr38  1  0.11454768  0.50878047  0.90059956  1
  Pr3+  Pr39  1  0.00694722  0.12590191  0.06108015  1
  Pr3+  Pr40  1  0.38016034  0.50162189  0.93141859  1
  Pr3+  Pr41  1  0.50323425  0.62113666  0.56636750  1
  Pr3+  Pr42  1  0.75364057  0.12294330  0.06123539  1
  Pr3+  Pr43  1  0.87707731  0.00103546  0.94188477  1
  Pr3+  Pr44  1  0.12628579  0.24911924  0.43735879  1
  Pr3+  Pr45  1  0.25181512  0.12638768  0.06040747  1
  Pr3+  Pr46  1  0.38175735  0.24935664  0.93945743  1
  Pr3+  Pr47  1  0.00880410  0.37928752  0.06213279  1
  Pr3+  Pr48  1  0.50464147  0.37561047  0.55468396  1
  Pr3+  Pr49  1  0.13028148  0.00025821  0.93527545  1
  Nd3+  Nd50  1  0.87876006  0.50574459  0.94129026  1
  Nd3+  Nd51  1  0.37716077  -0.00500086  0.44539675  1
  Nd3+  Nd52  1  0.50342225  0.62561412  0.05341552  1
  Nd3+  Nd53  1  0.37645952  0.74247825  0.44947159  1
  Nd3+  Nd54  1  0.50574246  0.12866501  0.06113302  1
  Nd3+  Nd55  1  0.38319877  0.00373581  0.94751362  1
  Nd3+  Nd56  1  0.01057209  0.62916315  0.05618212  1
  Nd3+  Nd57  1  0.00352795  0.62310707  0.56059066  1
  Sm3+  Sm58  1  0.62505121  0.74402923  0.44471031  1
  Sm3+  Sm59  1  0.00233972  0.11822093  0.55135403  1
  Sm3+  Sm60  1  0.75277370  0.62040949  0.55629401  1
  Sm3+  Sm61  1  0.25752215  0.87337681  0.06241247  1
  Sm3+  Sm62  1  0.12983809  0.74507904  0.44812749  1
  Sm3+  Sm63  1  0.50512930  0.37683531  0.05647331  1
  Bi2+  Bi64  1  0.00560760  0.13603845  0.30013115  1
  Bi2+  Bi65  1  0.00559931  0.09957099  0.78974834  1
  Bi2+  Bi66  1  0.00428479  0.41263052  0.27489589  1
  Bi2+  Bi67  1  0.01291664  0.38409792  0.77959177  1
  Bi2+  Bi68  1  0.03093485  0.60994877  0.27898515  1
  Bi2+  Bi69  1  -0.09758001  0.63017478  0.79018145  1
  Bi2+  Bi70  1  -0.00447462  0.87236120  0.30282618  1
  Bi2+  Bi71  1  -0.00975581  0.90629890  0.80071606  1
  Bi2+  Bi72  1  0.32409436  0.11595436  0.29350425  1
  Bi2+  Bi73  1  0.20063406  0.07744630  0.80023100  1
  Bi2+  Bi74  1  0.20995525  0.36450749  0.29108209  1
  Bi2+  Bi75  1  0.23665678  0.26741179  0.78776300  1
  Bi2+  Bi76  1  0.22984842  0.58277438  0.28261916  1
  Bi2+  Bi77  1  0.25215749  0.63435448  0.79471186  1
  Bi2+  Bi78  1  0.25224190  0.83740025  0.30430475  1
  Bi2+  Bi79  1  0.22710885  0.87801987  0.75653469  1
  Bi2+  Bi80  1  0.52055482  0.08398915  0.28357814  1
  Bi2+  Bi81  1  0.47752503  0.13734812  0.80321545  1
  Bi2+  Bi82  1  0.40213144  0.38715991  0.27497164  1
  Bi2+  Bi83  1  0.50363674  0.39762749  0.79073114  1
  Bi2+  Bi84  1  0.48794018  0.64781067  0.29110319  1
  Bi2+  Bi85  1  0.53100115  0.62735567  0.79706985  1
  Bi2+  Bi86  1  0.54773962  0.90489498  0.32020145  1
  Bi2+  Bi87  1  0.47191637  0.86832128  0.80143859  1
  Bi2+  Bi88  1  0.70901569  0.14051332  0.28410210  1
  Bi2+  Bi89  1  0.77003117  0.13987076  0.78848504  1
  Bi2+  Bi90  1  0.76352749  0.37658732  0.29160167  1
  Bi2+  Bi91  1  0.76670427  0.39335497  0.79245195  1
  Bi2+  Bi92  1  0.76194977  0.65086653  0.28750660  1
  Bi2+  Bi93  1  0.71710815  0.58447253  0.81925099  1
  Bi2+  Bi94  1  0.72998596  0.86674083  0.28983069  1
  Bi2+  Bi95  1  0.75995516  0.86297829  0.79208967  1
  Bi2+  Bi96  1  0.13726017  -0.01078312  0.21284120  1
  Bi2+  Bi97  1  0.17030900  0.01346840  0.67461299  1
  Bi2+  Bi98  1  0.11998786  0.22478358  0.18755879  1
  Bi2+  Bi99  1  0.11086864  0.19557430  0.70709715  1
  Bi2+  Bi100  1  0.13145473  0.47545226  0.19260435  1
  Bi2+  Bi101  1  0.10616303  0.52358620  0.71110045  1
  Bi2+  Bi102  1  0.15797530  0.72089937  0.20725353  1
  Bi2+  Bi103  1  0.03058566  0.74557135  0.73734455  1
  Bi2+  Bi104  1  0.38412475  -0.04156141  0.23001718  1
  Bi2+  Bi105  1  0.34940571  0.02916851  0.71848069  1
  Bi2+  Bi106  1  0.35371192  0.23688012  0.20474200  1
  Bi2+  Bi107  1  0.37603511  0.22957138  0.70850040  1
  Bi2+  Bi108  1  0.37530201  0.54596445  0.20764449  1
  Bi2+  Bi109  1  0.37983099  0.47285624  0.71547187  1
  Bi2+  Bi110  1  0.37028806  0.75914736  0.22106720  1
  Bi2+  Bi111  1  0.46657983  0.74773646  0.71111972  1
  Bi2+  Bi112  1  0.56980591  -0.03386240  0.18670625  1
  Bi2+  Bi113  1  0.62091104  0.01700066  0.69681262  1
  Bi2+  Bi114  1  0.61695907  0.26314258  0.19374437  1
  Bi2+  Bi115  1  0.63356622  0.30604727  0.72085485  1
  Bi2+  Bi116  1  0.62084557  0.50538444  0.19080784  1
  Bi2+  Bi117  1  0.62301153  0.50374723  0.71505264  1
  Bi2+  Bi118  1  0.59052355  0.78371017  0.22683222  1
  Bi2+  Bi119  1  0.65963365  0.73758366  0.72710500  1
  Bi2+  Bi120  1  0.75884069  0.00025355  0.20535016  1
  Bi2+  Bi121  1  0.91828420  -0.00794045  0.70415597  1
  Bi2+  Bi122  1  0.89742619  0.25645280  0.23883915  1
  Bi2+  Bi123  1  0.84374341  0.24067919  0.70728076  1
  Bi2+  Bi124  1  0.89252537  0.53584328  0.21012349  1
  Bi2+  Bi125  1  0.82720931  0.51256047  0.70745130  1
  Bi2+  Bi126  1  0.88941655  0.73247046  0.21341704  1
  Bi2+  Bi127  1  0.84850470  0.78889583  0.69878179  1
  S2-  S128  1  0.02945010  0.09370447  0.16061144  1
  S2-  S129  1  -0.08002766  0.13138576  0.63978892  1
  S2-  S130  1  -0.01087533  0.29930756  0.15160719  1
  S2-  S131  1  0.05424630  0.36098082  0.67638446  1
  S2-  S132  1  0.01640774  0.70987283  0.14572533  1
  S2-  S133  1  0.00609215  0.63201058  0.66120171  1
  S2-  S134  1  -0.00378547  0.91024972  0.20638778  1
  S2-  S135  1  0.04124523  0.90219121  0.64468933  1
  S2-  S136  1  0.24940503  0.10943340  0.16160329  1
  S2-  S137  1  0.24845922  0.22801015  0.64067679  1
  S2-  S138  1  0.23836501  0.34898322  0.15385646  1
  S2-  S139  1  0.24760869  0.46280569  0.65900195  1
  S2-  S140  1  0.23211300  0.60119521  0.14148207  1
  S2-  S141  1  0.20749940  0.65497114  0.69778231  1
  S2-  S142  1  0.16477628  0.87016098  0.14688882  1
  S2-  S143  1  0.29728210  0.85061720  0.67075046  1
  S2-  S144  1  0.49104581  0.16762484  0.15934990  1
  S2-  S145  1  0.47679271  0.09931121  0.66136710  1
  S2-  S146  1  0.51491982  0.38243473  0.15517991  1
  S2-  S147  1  0.43428921  0.35689639  0.64751393  1
  S2-  S148  1  0.50531632  0.61871215  0.15335556  1
  S2-  S149  1  0.41268687  0.61002930  0.65342052  1
  S2-  S150  1  0.37851884  0.85837231  0.13769831  1
  S2-  S151  1  0.54946455  0.87753352  0.65768694  1
  S2-  S152  1  0.74684458  0.16112441  0.16014445  1
  S2-  S153  1  0.68267542  0.17400665  0.66430257  1
  S2-  S154  1  0.73707871  0.38184330  0.16798545  1
  S2-  S155  1  0.84376318  0.37251230  0.64331450  1
  S2-  S156  1  0.75012366  0.61653499  0.16818496  1
  S2-  S157  1  0.76740943  0.65542759  0.65297356  1
  S2-  S158  1  0.80910397  0.84783707  0.15512028  1
  S2-  S159  1  0.76665017  0.97361792  0.64901211  1
  S2-  S160  1  0.10017975  0.00762792  0.32496083  1
  S2-  S161  1  0.13772908  -0.10659686  0.85326121  1
  S2-  S162  1  0.14217220  0.23136044  0.33621438  1
  S2-  S163  1  0.08693153  0.29667250  0.84622222  1
  S2-  S164  1  0.14077212  0.49008620  0.35588995  1
  S2-  S165  1  0.18040541  0.48098589  0.80654549  1
  S2-  S166  1  0.12194620  0.77041555  0.34966305  1
  S2-  S167  1  0.11269374  0.66238277  0.84020753  1
  S2-  S168  1  0.28955764  -0.01668295  0.36051185  1
  S2-  S169  1  0.39763463  0.00343065  0.84843639  1
  S2-  S170  1  0.40371447  0.25205860  0.34058790  1
  S2-  S171  1  0.39017107  0.28112710  0.83991764  1
  S2-  S172  1  0.45773876  0.50575996  0.35166670  1
  S2-  S173  1  0.39171844  0.53966672  0.83215565  1
  S2-  S174  1  0.37513457  0.74080438  0.34897176  1
  S2-  S175  1  0.33094310  0.78020263  0.83259658  1
  S2-  S176  1  0.71619554  0.04959734  0.36625772  1
  S2-  S177  1  0.57807741  0.00203688  0.79103019  1
  S2-  S178  1  0.64355176  0.27963617  0.33433373  1
  S2-  S179  1  0.62643545  0.16505191  0.85057405  1
  S2-  S180  1  0.63218683  0.47050051  0.28558582  1
  S2-  S181  1  0.62794717  0.38295377  0.86238549  1
  S2-  S182  1  0.62880274  0.66999324  0.35422427  1
  S2-  S183  1  0.61637344  0.83112782  0.85836271  1
  S2-  S184  1  0.90634859  0.00210386  0.32452479  1
  S2-  S185  1  0.78991201  0.00379955  0.85227515  1
  S2-  S186  1  0.88181117  0.24804483  0.34363569  1
  S2-  S187  1  0.85309395  0.25824607  0.83801753  1
  S2-  S188  1  0.80221004  0.51298813  0.35065966  1
  S2-  S189  1  0.95713589  0.48957400  0.85161836  1
  S2-  S190  1  0.86229957  0.76665944  0.34187453  1
  S2-  S191  1  0.87611029  0.77587839  0.84958701  1
  S2-  S192  1  0.00232475  0.12145496  0.44588985  1
  S2-  S193  1  0.00562038  0.12542937  0.95040245  1
  S2-  S194  1  0.00101983  0.37429414  0.45519721  1
  S2-  S195  1  0.00525023  0.38004637  0.95516097  1
  S2-  S196  1  0.00340782  0.62282126  0.45194051  1
  S2-  S197  1  0.00204016  0.62927930  0.95022430  1
  S2-  S198  1  0.00316736  0.87134660  0.44508102  1
  S2-  S199  1  0.00139955  0.87986233  0.95314794  1
  S2-  S200  1  0.25344106  0.12496145  0.45273902  1
  S2-  S201  1  0.25486552  0.12672841  0.95078424  1
  S2-  S202  1  0.25449685  0.37055829  0.45698036  1
  S2-  S203  1  0.25308329  0.38027497  0.94348238  1
  S2-  S204  1  0.25149125  0.62185674  0.45174259  1
  S2-  S205  1  0.25434936  0.62552134  0.93846099  1
  S2-  S206  1  0.25291442  0.86576989  0.46328065  1
  S2-  S207  1  0.26072746  0.87980408  0.95579305  1
  S2-  S208  1  0.50258633  0.11856600  0.44988475  1
  S2-  S209  1  0.50864649  0.12593518  0.95416961  1
  S2-  S210  1  0.50847179  0.37366330  0.44774545  1
  S2-  S211  1  0.50064041  0.37877353  0.95320367  1
  S2-  S212  1  0.50512853  0.62025303  0.45905676  1
  S2-  S213  1  0.50852457  0.62764608  0.94598362  1
  S2-  S214  1  0.50045930  0.86770846  0.45667209  1
  S2-  S215  1  0.50581387  0.88210255  0.95921887  1
  S2-  S216  1  0.75594421  0.12737091  0.46782098  1
  S2-  S217  1  0.75360884  0.12841047  0.95467043  1
  S2-  S218  1  0.74961969  0.37637777  0.45091570  1
  S2-  S219  1  0.76059634  0.38065973  0.95846190  1
  S2-  S220  1  0.74929807  0.62212264  0.45405277  1
  S2-  S221  1  0.75490180  0.62939695  0.95789750  1
  S2-  S222  1  0.74913439  0.86675023  0.45478674  1
  S2-  S223  1  0.75182664  0.88092814  0.95885706  1
  S2-  S224  1  0.13033422  -0.00065798  0.04445503  1
  S2-  S225  1  0.12639036  0.00000088  0.53478097  1
  S2-  S226  1  0.12979838  0.25225117  0.04421823  1
  S2-  S227  1  0.11784804  0.24767443  0.54525540  1
  S2-  S228  1  0.12849736  0.50346474  0.03867436  1
  S2-  S229  1  0.12633759  0.49645037  0.55798214  1
  S2-  S230  1  0.13168276  0.75320111  0.03710494  1
  S2-  S231  1  0.13237709  0.74153174  0.55475949  1
  S2-  S232  1  0.37922349  0.00697902  0.05291359  1
  S2-  S233  1  0.37552000  -0.00166303  0.55242865  1
  S2-  S234  1  0.37975958  0.25318205  0.04721337  1
  S2-  S235  1  0.38258216  0.24314242  0.54214919  1
  S2-  S236  1  0.38189421  0.50164481  0.04127515  1
  S2-  S237  1  0.37641967  0.49819593  0.54532600  1
  S2-  S238  1  0.37995809  0.74669318  0.03677765  1
  S2-  S239  1  0.37436460  0.74682969  0.55583014  1
  S2-  S240  1  0.62674464  0.00160382  0.05720200  1
  S2-  S241  1  0.62834457  -0.00535009  0.54759399  1
  S2-  S242  1  0.62823295  0.25274186  0.04565046  1
  S2-  S243  1  0.62865432  0.25060209  0.54596350  1
  S2-  S244  1  0.62890006  0.50145773  0.04606738  1
  S2-  S245  1  0.63114252  0.49857527  0.56197182  1
  S2-  S246  1  0.62666828  0.75317869  0.05557146  1
  S2-  S247  1  0.62837235  0.74500717  0.55114862  1
  S2-  S248  1  0.88346980  -0.00111355  0.05326149  1
  S2-  S249  1  0.88241725  -0.00842882  0.53707972  1
  S2-  S250  1  0.87970034  0.25007491  0.04740446  1
  S2-  S251  1  0.88076485  0.24872079  0.54471446  1
  S2-  S252  1  0.88275514  0.50336570  0.05125524  1
  S2-  S253  1  0.87830517  0.50189265  0.54630750  1
  S2-  S254  1  0.88174436  0.75241313  0.05161574  1
  S2-  S255  1  0.87937312  0.74560088  0.54734134  1
