# generated using pymatgen
data_La9Ce10Pr6Nd4Sm3(BiS2)32
_symmetry_space_group_name_H-M   'P 1'
_cell_length_a   16.12815271
_cell_length_b   16.12805400
_cell_length_c   27.22040819
_cell_angle_alpha   89.88235457
_cell_angle_beta   89.86535490
_cell_angle_gamma   89.85774884
_symmetry_Int_Tables_number   1
_chemical_formula_structural   La9Ce10Pr6Nd4Sm3(BiS2)32
_chemical_formula_sum   'La18 Ce20 Pr12 Nd8 Sm6 Bi64 S128'
_cell_volume   7080.39979859
_cell_formula_units_Z   2
loop_
 _symmetry_equiv_pos_site_id
 _symmetry_equiv_pos_as_xyz
  1  'x, y, z'
loop_
 _atom_type_symbol
 _atom_type_oxidation_number
  La3+  3.0
  Ce3+  3.0
  Pr3+  3.0
  Nd3+  3.0
  Sm3+  3.0
  Bi2+  2.0
  S2-  -2.0
loop_
 _atom_site_type_symbol
 _atom_site_label
 _atom_site_symmetry_multiplicity
 _atom_site_fract_x
 _atom_site_fract_y
 _atom_site_fract_z
 _atom_site_occupancy
  La3+  La0  1  0.12929637  0.48532807  0.91927632  1
  La3+  La1  1  0.47490928  0.64922171  0.57707528  1
  La3+  La2  1  0.73321692  0.12106568  0.61791197  1
  La3+  La3  1  0.37567519  0.75091756  0.90569933  1
  La3+  La4  1  0.73701297  0.38971933  0.56603637  1
  La3+  La5  1  0.11026963  0.27330777  0.40536500  1
  La3+  La6  1  0.38460181  0.48724733  0.91908772  1
  La3+  La7  1  0.10741845  0.52530860  0.42706590  1
  La3+  La8  1  0.00906427  0.11806996  0.10549038  1
  La3+  La9  1  0.84562438  0.52289448  0.42514908  1
  La3+  La10  1  0.22622218  0.63986421  0.56944575  1
  La3+  La11  1  0.60334991  0.77705372  0.43488366  1
  La3+  La12  1  0.25472911  0.85920706  0.06779800  1
  La3+  La13  1  0.47697684  0.39250752  0.56779558  1
  La3+  La14  1  0.36381596  0.26466905  0.39779198  1
  La3+  La15  1  0.85510603  0.77016701  0.42912653  1
  La3+  La16  1  0.22011540  0.89987079  0.58616011  1
  La3+  La17  1  0.62664010  -0.00912974  0.94108096  1
  Ce3+  Ce18  1  0.10890863  0.02175213  0.44158085  1
  Ce3+  Ce19  1  0.88119473  0.74078365  0.93933060  1
  Ce3+  Ce20  1  0.62828545  0.74188906  0.93577105  1
  Ce3+  Ce21  1  0.60182639  0.52099999  0.45005493  1
  Ce3+  Ce22  1  0.73409049  0.64087433  0.56756085  1
  Ce3+  Ce23  1  0.75420726  0.11805190  0.07046858  1
  Ce3+  Ce24  1  0.60652347  0.02359760  0.44688271  1
  Ce3+  Ce25  1  0.37685226  0.24355500  0.94245268  1
  Ce3+  Ce26  1  0.22924171  0.39130741  0.55070448  1
  Ce3+  Ce27  1  0.50152517  0.61828454  0.04837784  1
  Ce3+  Ce28  1  0.85630445  0.27425830  0.41776132  1
  Ce3+  Ce29  1  0.22873687  0.14331864  0.55750280  1
  Ce3+  Ce30  1  0.48151346  0.89682268  0.56490457  1
  Ce3+  Ce31  1  0.48305135  0.14244596  0.56567474  1
  Ce3+  Ce32  1  0.75389425  0.61517654  0.05727598  1
  Ce3+  Ce33  1  0.12100518  0.73900091  0.92636028  1
  Ce3+  Ce34  1  0.49654952  0.11656641  0.06474242  1
  Ce3+  Ce35  1  0.12989386  -0.01010480  0.95063825  1
  Ce3+  Ce36  1  0.00640388  0.61614572  0.06269580  1
  Ce3+  Ce37  1  0.10841331  0.76976434  0.43956217  1
  Pr3+  Pr38  1  0.50184821  0.86120409  0.06675264  1
  Pr3+  Pr39  1  -0.01838237  0.64240309  0.56514017  1
  Pr3+  Pr40  1  0.12814588  0.24364871  0.94854947  1
  Pr3+  Pr41  1  0.36840148  -0.00718237  0.93187955  1
  Pr3+  Pr42  1  0.62812631  0.23934888  0.94290000  1
  Pr3+  Pr43  1  0.25739139  0.37051861  0.06800266  1
  Pr3+  Pr44  1  0.75250055  0.36590616  0.06712113  1
  Pr3+  Pr45  1  0.85716244  0.02017076  0.42429680  1
  Pr3+  Pr46  1  0.01232223  0.36963857  0.08458277  1
  Pr3+  Pr47  1  0.35462480  0.77011698  0.44073132  1
  Pr3+  Pr48  1  0.25401076  0.61767957  0.04833582  1
  Pr3+  Pr49  1  -0.00412036  0.86522751  0.07382413  1
  Nd3+  Nd50  1  0.35421121  0.01830613  0.43788309  1
  Nd3+  Nd51  1  0.88108737  -0.00748261  0.94376965  1
  Nd3+  Nd52  1  0.35882001  0.52179112  0.43320038  1
  Nd3+  Nd53  1  0.62832621  0.48815532  0.93734027  1
  Nd3+  Nd54  1  0.60498945  0.26998254  0.44567884  1
  Nd3+  Nd55  1  -0.02726154  0.89987735  0.55704578  1
  Nd3+  Nd56  1  0.74841434  0.86617323  0.06505863  1
  Nd3+  Nd57  1  0.88035128  0.48760782  0.94367541  1
  Sm3+  Sm58  1  0.50124045  0.36915175  0.06612996  1
  Sm3+  Sm59  1  -0.02954385  0.14929687  0.54651587  1
  Sm3+  Sm60  1  -0.01974839  0.39253908  0.54426136  1
  Sm3+  Sm61  1  0.88193611  0.24042944  0.95498716  1
  Sm3+  Sm62  1  0.73220622  0.89179639  0.55815646  1
  Sm3+  Sm63  1  0.25701872  0.11712384  0.07145034  1
  Bi2+  Bi64  1  -0.01988609  0.08358887  0.29647896  1
  Bi2+  Bi65  1  -0.00158719  0.17824128  0.77820205  1
  Bi2+  Bi66  1  -0.02809110  0.39293194  0.28593655  1
  Bi2+  Bi67  1  0.05000746  0.37298566  0.77482354  1
  Bi2+  Bi68  1  -0.00512363  0.63743399  0.28592058  1
  Bi2+  Bi69  1  -0.04770380  0.62895578  0.79870100  1
  Bi2+  Bi70  1  0.05143226  0.89222411  0.30124096  1
  Bi2+  Bi71  1  -0.02379872  0.90401136  0.79065480  1
  Bi2+  Bi72  1  0.31408000  0.00273291  0.27896922  1
  Bi2+  Bi73  1  0.26683525  0.14641846  0.80509524  1
  Bi2+  Bi74  1  0.24948951  0.39154345  0.28147938  1
  Bi2+  Bi75  1  0.26138550  0.36344476  0.78751793  1
  Bi2+  Bi76  1  0.27864404  0.61553177  0.28453732  1
  Bi2+  Bi77  1  0.22429125  0.63392788  0.78592040  1
  Bi2+  Bi78  1  0.23428856  0.81678000  0.30847079  1
  Bi2+  Bi79  1  0.25380313  0.90069884  0.78589872  1
  Bi2+  Bi80  1  0.52178991  0.12262801  0.28651644  1
  Bi2+  Bi81  1  0.46092023  0.15014154  0.79136652  1
  Bi2+  Bi82  1  0.51207348  0.39685268  0.28341649  1
  Bi2+  Bi83  1  0.51980691  0.36206321  0.79236153  1
  Bi2+  Bi84  1  0.52982270  0.56179425  0.22344747  1
  Bi2+  Bi85  1  0.55085170  0.63097550  0.78265368  1
  Bi2+  Bi86  1  0.50095960  0.82481992  0.30291612  1
  Bi2+  Bi87  1  0.53669533  0.90888560  0.78787066  1
  Bi2+  Bi88  1  0.78347658  0.12145157  0.30993725  1
  Bi2+  Bi89  1  0.75634056  0.13386913  0.82217603  1
  Bi2+  Bi90  1  0.68301909  0.28982402  0.28457876  1
  Bi2+  Bi91  1  0.82384700  0.38065905  0.80326698  1
  Bi2+  Bi92  1  0.73887199  0.57172307  0.28979068  1
  Bi2+  Bi93  1  0.75321244  0.64274432  0.81110592  1
  Bi2+  Bi94  1  0.71478763  0.86314998  0.29604983  1
  Bi2+  Bi95  1  0.79073512  0.82374079  0.76958270  1
  Bi2+  Bi96  1  0.17367794  -0.06515335  0.21302606  1
  Bi2+  Bi97  1  0.12453956  0.04979959  0.73118997  1
  Bi2+  Bi98  1  0.12782303  0.23845682  0.22387068  1
  Bi2+  Bi99  1  0.14790495  0.24121759  0.70396353  1
  Bi2+  Bi100  1  0.14406770  0.51119710  0.20987758  1
  Bi2+  Bi101  1  0.10241168  0.50232513  0.69379922  1
  Bi2+  Bi102  1  0.12847311  0.73519271  0.21478897  1
  Bi2+  Bi103  1  0.04677094  0.76986113  0.71681542  1
  Bi2+  Bi104  1  0.47832056  -0.04226070  0.21996766  1
  Bi2+  Bi105  1  0.36540654  0.04945317  0.71251652  1
  Bi2+  Bi106  1  0.42618920  0.23668342  0.20849362  1
  Bi2+  Bi107  1  0.35139675  0.24472242  0.70832225  1
  Bi2+  Bi108  1  0.34116003  0.51678938  0.19087797  1
  Bi2+  Bi109  1  0.39327681  0.50267509  0.69501014  1
  Bi2+  Bi110  1  0.36941275  0.75210816  0.20194823  1
  Bi2+  Bi111  1  0.38952032  0.75743103  0.71649028  1
  Bi2+  Bi112  1  0.66870153  0.02199350  0.23007837  1
  Bi2+  Bi113  1  0.65056102  -0.09877451  0.69741159  1
  Bi2+  Bi114  1  0.60923034  0.19331243  0.17615980  1
  Bi2+  Bi115  1  0.61919173  0.23718797  0.72084606  1
  Bi2+  Bi116  1  0.62011049  0.39802009  0.18184742  1
  Bi2+  Bi117  1  0.71512054  0.49052857  0.74041082  1
  Bi2+  Bi118  1  0.62332464  0.74135751  0.20545654  1
  Bi2+  Bi119  1  0.67598151  0.70853519  0.69335820  1
  Bi2+  Bi120  1  0.89604002  -0.02711159  0.22140837  1
  Bi2+  Bi121  1  0.94535232  0.00252358  0.69148115  1
  Bi2+  Bi122  1  0.83246037  0.23544502  0.21712772  1
  Bi2+  Bi123  1  0.88038285  0.28432180  0.70665600  1
  Bi2+  Bi124  1  0.86744409  0.53222878  0.20869683  1
  Bi2+  Bi125  1  0.90085374  0.54227030  0.69420581  1
  Bi2+  Bi126  1  0.87689963  0.73539498  0.20896761  1
  Bi2+  Bi127  1  0.86983939  0.73246558  0.67145450  1
  S2-  S128  1  -0.00931847  0.26232114  0.16998134  1
  S2-  S129  1  -0.09025428  0.15010257  0.63946768  1
  S2-  S130  1  0.00887846  0.51256950  0.14495080  1
  S2-  S131  1  -0.03004800  0.40090472  0.64474726  1
  S2-  S132  1  0.00938576  0.72858681  0.14074231  1
  S2-  S133  1  0.09979157  0.64780322  0.64433284  1
  S2-  S134  1  0.02796207  0.96561060  0.15846357  1
  S2-  S135  1  0.06120190  0.88962238  0.64384620  1
  S2-  S136  1  0.16735656  0.12850379  0.15988981  1
  S2-  S137  1  0.23398857  0.05283724  0.64391808  1
  S2-  S138  1  0.16385974  0.36067929  0.15612146  1
  S2-  S139  1  0.24345285  0.45223238  0.64376767  1
  S2-  S140  1  0.24647824  0.71549439  0.13592352  1
  S2-  S141  1  0.33823266  0.64790539  0.64812418  1
  S2-  S142  1  0.38121426  0.88158184  0.14293411  1
  S2-  S143  1  0.26353695  0.84005663  0.68503938  1
  S2-  S144  1  0.38724949  0.11829245  0.14165315  1
  S2-  S145  1  0.56154518  0.13022765  0.65433358  1
  S2-  S146  1  0.38733038  0.37034580  0.14246683  1
  S2-  S147  1  0.49151309  0.38260390  0.67025447  1
  S2-  S148  1  0.49730043  0.67869861  0.14085367  1
  S2-  S149  1  0.52729831  0.60502427  0.67495781  1
  S2-  S150  1  0.62646275  0.86281214  0.14245361  1
  S2-  S151  1  0.48572531  0.85760737  0.66118394  1
  S2-  S152  1  0.84635324  0.10337743  0.15380522  1
  S2-  S153  1  0.73670573  0.11767596  0.72792058  1
  S2-  S154  1  0.80085342  0.38779630  0.16331378  1
  S2-  S155  1  0.73766620  0.29086366  0.65155298  1
  S2-  S156  1  0.74733644  0.64463567  0.15436111  1
  S2-  S157  1  0.74714304  0.51690616  0.64112756  1
  S2-  S158  1  0.84671419  0.86312400  0.14930036  1
  S2-  S159  1  0.79454348  0.95542078  0.64269579  1
  S2-  S160  1  0.12698192  0.03573148  0.34395083  1
  S2-  S161  1  0.21131700  0.01003946  0.86393429  1
  S2-  S162  1  0.22500074  0.24980995  0.32703922  1
  S2-  S163  1  0.13269870  0.33170354  0.86040073  1
  S2-  S164  1  0.10496991  0.42744746  0.34087090  1
  S2-  S165  1  0.10293320  0.61197595  0.84774742  1
  S2-  S166  1  0.10216029  0.66435652  0.35878258  1
  S2-  S167  1  0.22155827  0.77619293  0.84498491  1
  S2-  S168  1  0.36155533  -0.10959861  0.36251067  1
  S2-  S169  1  0.39769943  -0.09825259  0.84497900  1
  S2-  S170  1  0.37869265  0.10504488  0.34917252  1
  S2-  S171  1  0.39063910  0.33210200  0.85789905  1
  S2-  S172  1  0.37326274  0.42075948  0.34792193  1
  S2-  S173  1  0.26481861  0.50080004  0.84323019  1
  S2-  S174  1  0.37240078  0.64989190  0.36170343  1
  S2-  S175  1  0.39125949  0.66605831  0.81203334  1
  S2-  S176  1  0.59625218  -0.06436235  0.36218542  1
  S2-  S177  1  0.62327951  0.02101108  0.84155019  1
  S2-  S178  1  0.53334595  0.26432789  0.35327013  1
  S2-  S179  1  0.64546287  0.27483121  0.84439240  1
  S2-  S180  1  0.64569127  0.50771373  0.35553959  1
  S2-  S181  1  0.53543288  0.49199143  0.85142331  1
  S2-  S182  1  0.62461856  0.72468682  0.33720749  1
  S2-  S183  1  0.57026740  0.76721951  0.84449635  1
  S2-  S184  1  0.84764341  -0.10890018  0.35153546  1
  S2-  S185  1  0.85497130  0.00614204  0.84443111  1
  S2-  S186  1  0.97724808  0.24879490  0.33726709  1
  S2-  S187  1  0.88649789  0.24202469  0.85551179  1
  S2-  S188  1  0.84536722  0.40596513  0.34667238  1
  S2-  S189  1  0.94527060  0.47343080  0.85119795  1
  S2-  S190  1  0.85174204  0.64951523  0.35142924  1
  S2-  S191  1  0.97813107  0.77258809  0.85961093  1
  S2-  S192  1  -0.01765146  0.14594839  0.44325694  1
  S2-  S193  1  0.00462274  0.11681613  0.94954172  1
  S2-  S194  1  -0.01659974  0.39619174  0.44311789  1
  S2-  S195  1  0.00058932  0.36463363  0.96554378  1
  S2-  S196  1  -0.02132279  0.64682829  0.45753964  1
  S2-  S197  1  -0.00086173  0.61277196  0.95645643  1
  S2-  S198  1  -0.01580724  0.89630579  0.45133965  1
  S2-  S199  1  0.00272939  0.87151768  0.96335749  1
  S2-  S200  1  0.23280013  0.15000381  0.45124657  1
  S2-  S201  1  0.25360490  0.12142702  0.96450406  1
  S2-  S202  1  0.23515715  0.39036844  0.44643927  1
  S2-  S203  1  0.25619073  0.36832199  0.96015394  1
  S2-  S204  1  0.23173203  0.64531165  0.46037312  1
  S2-  S205  1  0.25869126  0.61975706  0.94406677  1
  S2-  S206  1  0.22652937  0.89636691  0.46101368  1
  S2-  S207  1  0.25211413  0.86465278  0.95786072  1
  S2-  S208  1  0.47892374  0.14519766  0.45973032  1
  S2-  S209  1  0.49938922  0.11683610  0.95288151  1
  S2-  S210  1  0.47915478  0.39239152  0.45862838  1
  S2-  S211  1  0.50757272  0.36511019  0.96141764  1
  S2-  S212  1  0.48370721  0.64889724  0.46483172  1
  S2-  S213  1  0.50388797  0.61953682  0.94464016  1
  S2-  S214  1  0.48087909  0.89819957  0.46272880  1
  S2-  S215  1  0.50302618  0.86665607  0.95520406  1
  S2-  S216  1  0.72984645  0.14645431  0.43468588  1
  S2-  S217  1  0.75527491  0.11777199  0.96093828  1
  S2-  S218  1  0.72604357  0.39431235  0.45610022  1
  S2-  S219  1  0.75376934  0.36452102  0.95808314  1
  S2-  S220  1  0.72513460  0.64871922  0.45961661  1
  S2-  S221  1  0.75320644  0.61249187  0.94995299  1
  S2-  S222  1  0.73151703  0.89790772  0.45644453  1
  S2-  S223  1  0.75508488  0.86597644  0.95125220  1
  S2-  S224  1  0.13301229  -0.00654175  0.05404007  1
  S2-  S225  1  0.09684457  0.02569689  0.54605443  1
  S2-  S226  1  0.12888009  0.23875373  0.05352024  1
  S2-  S227  1  0.10185044  0.26727865  0.54696617  1
  S2-  S228  1  0.13179134  0.49159861  0.04117743  1
  S2-  S229  1  0.10333509  0.51504200  0.53728771  1
  S2-  S230  1  0.12534973  0.74106119  0.03510168  1
  S2-  S231  1  0.10256838  0.77369576  0.54372149  1
  S2-  S232  1  0.37771593  -0.00765336  0.03934158  1
  S2-  S233  1  0.35715680  0.01847305  0.54718731  1
  S2-  S234  1  0.38029790  0.24438200  0.04484587  1
  S2-  S235  1  0.35312440  0.26437882  0.56223913  1
  S2-  S236  1  0.38247818  0.49343451  0.03709434  1
  S2-  S237  1  0.35585608  0.51779945  0.54135027  1
  S2-  S238  1  0.38141177  0.74063919  0.03410999  1
  S2-  S239  1  0.35040427  0.77905286  0.55050103  1
  S2-  S240  1  0.62666966  -0.00253242  0.04880197  1
  S2-  S241  1  0.61336967  0.01867015  0.55222324  1
  S2-  S242  1  0.62463200  0.24299559  0.04988826  1
  S2-  S243  1  0.60468250  0.26649300  0.55043199  1
  S2-  S244  1  0.62660652  0.49108693  0.04518139  1
  S2-  S245  1  0.60177379  0.51985217  0.55417034  1
  S2-  S246  1  0.63057758  0.73850539  0.03972550  1
  S2-  S247  1  0.60828982  0.77074351  0.55120634  1
  S2-  S248  1  0.87540907  -0.00608797  0.04862482  1
  S2-  S249  1  0.85233924  0.02380806  0.53278482  1
  S2-  S250  1  0.88138983  0.24226239  0.05736017  1
  S2-  S251  1  0.85817857  0.27390613  0.52895139  1
  S2-  S252  1  0.87629005  0.48976874  0.04895307  1
  S2-  S253  1  0.86024660  0.52027620  0.53660247  1
  S2-  S254  1  0.87261903  0.73996541  0.04288970  1
  S2-  S255  1  0.85561446  0.76954416  0.54212943  1
