# generated using pymatgen
data_La9Ce10Pr6Nd4Sm3(BiS2)32
_symmetry_space_group_name_H-M   'P 1'
_cell_length_a   16.25323095
_cell_length_b   16.25232816
_cell_length_c   27.11586874
_cell_angle_alpha   90.24331604
_cell_angle_beta   89.94335997
_cell_angle_gamma   89.95547919
_symmetry_Int_Tables_number   1
_chemical_formula_structural   La9Ce10Pr6Nd4Sm3(BiS2)32
_chemical_formula_sum   'La18 Ce20 Pr12 Nd8 Sm6 Bi64 S128'
_cell_volume   7162.66354669
_cell_formula_units_Z   2
loop_
 _symmetry_equiv_pos_site_id
 _symmetry_equiv_pos_as_xyz
  1  'x, y, z'
loop_
 _atom_type_symbol
 _atom_type_oxidation_number
  La3+  3.0
  Ce3+  3.0
  Pr3+  3.0
  Nd3+  3.0
  Sm3+  3.0
  Bi2+  2.0
  S2-  -2.0
loop_
 _atom_site_type_symbol
 _atom_site_label
 _atom_site_symmetry_multiplicity
 _atom_site_fract_x
 _atom_site_fract_y
 _atom_site_fract_z
 _atom_site_occupancy
  La3+  La0  1  0.00406168  0.14234039  0.55763631  1
  La3+  La1  1  0.49739045  0.62947179  0.06064726  1
  La3+  La2  1  0.75148283  0.89996166  0.57712348  1
  La3+  La3  1  0.37864083  0.52345416  0.42579468  1
  La3+  La4  1  0.23736013  0.12626126  0.07452708  1
  La3+  La5  1  0.63927714  0.27117151  0.42191782  1
  La3+  La6  1  0.25408267  0.38180714  0.08605264  1
  La3+  La7  1  0.63721579  0.01704526  0.43372860  1
  La3+  La8  1  0.50458450  0.15190523  0.56446548  1
  La3+  La9  1  0.24579975  0.63113319  0.06922827  1
  La3+  La10  1  -0.01557998  0.63181372  0.07423776  1
  La3+  La11  1  0.00311130  0.38052830  0.08502007  1
  La3+  La12  1  0.88999118  0.51735928  0.42881746  1
  La3+  La13  1  0.75137577  0.37384270  0.06899816  1
  La3+  La14  1  0.11243584  0.74618044  0.92829634  1
  La3+  La15  1  0.00852512  0.39480438  0.56371501  1
  La3+  La16  1  0.63103640  0.52070924  0.43090721  1
  La3+  La17  1  0.36080148  0.73860308  0.91786264  1
  Ce3+  Ce18  1  -0.00164101  0.12464903  0.05892522  1
  Ce3+  Ce19  1  0.36936461  0.24724439  0.94346018  1
  Ce3+  Ce20  1  0.61852733  0.24968394  0.94806041  1
  Ce3+  Ce21  1  0.88038494  0.01427679  0.43058426  1
  Ce3+  Ce22  1  0.13327944  0.01506263  0.44425669  1
  Ce3+  Ce23  1  0.87089444  0.00051597  0.94227375  1
  Ce3+  Ce24  1  0.36762734  0.49827367  0.94112400  1
  Ce3+  Ce25  1  0.11815125  0.49701750  0.95083931  1
  Ce3+  Ce26  1  0.49414817  0.37716335  0.06124142  1
  Ce3+  Ce27  1  -0.00617075  0.87205922  0.06035947  1
  Ce3+  Ce28  1  0.88585601  0.27311692  0.42703436  1
  Ce3+  Ce29  1  0.75987173  0.64471812  0.55788592  1
  Ce3+  Ce30  1  0.38359079  0.76575112  0.44776456  1
  Ce3+  Ce31  1  0.12256461  0.25220477  0.94252194  1
  Ce3+  Ce32  1  0.87277696  0.25049581  0.94852525  1
  Ce3+  Ce33  1  0.36950495  0.00085298  0.94641676  1
  Ce3+  Ce34  1  0.25654891  0.89089127  0.56261684  1
  Ce3+  Ce35  1  0.49517035  0.87624895  0.05333047  1
  Ce3+  Ce36  1  0.24542986  0.86807304  0.05486735  1
  Ce3+  Ce37  1  0.39171120  0.00979887  0.43559367  1
  Pr3+  Pr38  1  0.63517651  0.76637277  0.43706439  1
  Pr3+  Pr39  1  0.00070961  0.89079267  0.56202995  1
  Pr3+  Pr40  1  0.74424134  0.12369422  0.05736905  1
  Pr3+  Pr41  1  0.26532387  0.64879659  0.58149794  1
  Pr3+  Pr42  1  0.61684167  0.75020826  0.93457231  1
  Pr3+  Pr43  1  0.75808566  0.39742983  0.55607380  1
  Pr3+  Pr44  1  0.25683437  0.14479773  0.55663319  1
  Pr3+  Pr45  1  0.50974324  0.64364241  0.56627637  1
  Pr3+  Pr46  1  0.50788415  0.90405799  0.57379034  1
  Pr3+  Pr47  1  0.87472654  0.49147031  0.93466949  1
  Pr3+  Pr48  1  0.25909182  0.39266029  0.54941158  1
  Pr3+  Pr49  1  0.88465745  0.76428934  0.43101660  1
  Nd3+  Nd50  1  0.75671035  0.14834277  0.55788056  1
  Nd3+  Nd51  1  0.38908047  0.24625102  0.41278963  1
  Nd3+  Nd52  1  0.62061603  0.49700960  0.94003145  1
  Nd3+  Nd53  1  0.13785729  0.52097502  0.44224754  1
  Nd3+  Nd54  1  0.13377656  0.26622029  0.43324700  1
  Nd3+  Nd55  1  0.49333049  0.12478100  0.06672237  1
  Nd3+  Nd56  1  0.50534519  0.39184702  0.54826800  1
  Nd3+  Nd57  1  0.12128367  -0.00005004  0.94406602  1
  Sm3+  Sm58  1  0.13551868  0.76788925  0.44783483  1
  Sm3+  Sm59  1  0.74831833  0.62479159  0.04969821  1
  Sm3+  Sm60  1  0.00976628  0.64362599  0.55962080  1
  Sm3+  Sm61  1  0.86896061  0.74946872  0.93363318  1
  Sm3+  Sm62  1  0.74412954  0.87773093  0.05168368  1
  Sm3+  Sm63  1  0.61952040  0.00130101  0.93890506  1
  Bi2+  Bi64  1  -0.02893565  0.05878290  0.30484719  1
  Bi2+  Bi65  1  -0.03804902  0.12219912  0.75550713  1
  Bi2+  Bi66  1  -0.02533382  0.30443003  0.27034168  1
  Bi2+  Bi67  1  0.00646275  0.36129814  0.80570289  1
  Bi2+  Bi68  1  0.01087034  0.68326988  0.28175096  1
  Bi2+  Bi69  1  0.01037218  0.59924393  0.80140401  1
  Bi2+  Bi70  1  -0.05429491  0.86079251  0.31613041  1
  Bi2+  Bi71  1  -0.00319257  0.92178984  0.79515932  1
  Bi2+  Bi72  1  0.24293057  0.03961875  0.27257713  1
  Bi2+  Bi73  1  0.23355529  0.13582347  0.80932081  1
  Bi2+  Bi74  1  0.22503906  0.37628027  0.29974186  1
  Bi2+  Bi75  1  0.26149961  0.40670320  0.75675131  1
  Bi2+  Bi76  1  0.24305353  0.61112378  0.30875292  1
  Bi2+  Bi77  1  0.26974162  0.59828864  0.77772304  1
  Bi2+  Bi78  1  0.25833241  0.84766059  0.29923439  1
  Bi2+  Bi79  1  0.21593900  0.85592902  0.78743436  1
  Bi2+  Bi80  1  0.48361251  0.08862858  0.28818074  1
  Bi2+  Bi81  1  0.48240418  0.13790201  0.81308113  1
  Bi2+  Bi82  1  0.55194527  0.38629496  0.26170692  1
  Bi2+  Bi83  1  0.53251044  0.39274636  0.79057597  1
  Bi2+  Bi84  1  0.50232385  0.65825618  0.28666963  1
  Bi2+  Bi85  1  0.51421784  0.65138492  0.80377910  1
  Bi2+  Bi86  1  0.47843997  0.85102162  0.29629755  1
  Bi2+  Bi87  1  0.57161274  0.88009482  0.78934488  1
  Bi2+  Bi88  1  0.69764480  0.13319005  0.29178633  1
  Bi2+  Bi89  1  0.75053453  0.15958144  0.74678688  1
  Bi2+  Bi90  1  0.77004018  0.38420097  0.29308398  1
  Bi2+  Bi91  1  0.73405936  0.33741154  0.79614757  1
  Bi2+  Bi92  1  0.75692863  0.64628093  0.28828823  1
  Bi2+  Bi93  1  0.72024293  0.65880928  0.75137251  1
  Bi2+  Bi94  1  0.75158065  0.83894733  0.31777841  1
  Bi2+  Bi95  1  0.78928917  0.89898772  0.76121925  1
  Bi2+  Bi96  1  0.08400758  -0.02210448  0.20899354  1
  Bi2+  Bi97  1  0.14379632  -0.00280756  0.72207268  1
  Bi2+  Bi98  1  0.13874554  0.21182349  0.22077020  1
  Bi2+  Bi99  1  0.16951609  0.26265431  0.70142767  1
  Bi2+  Bi100  1  0.13292929  0.48328311  0.22230876  1
  Bi2+  Bi101  1  0.07427505  0.50615255  0.71137545  1
  Bi2+  Bi102  1  0.12899526  0.78879591  0.21403622  1
  Bi2+  Bi103  1  0.11738406  0.74212881  0.69823195  1
  Bi2+  Bi104  1  0.36670540  -0.06908470  0.21041051  1
  Bi2+  Bi105  1  0.34050121  0.00463440  0.74242240  1
  Bi2+  Bi106  1  0.40602597  0.24506574  0.21818587  1
  Bi2+  Bi107  1  0.42837991  0.18712053  0.70841166  1
  Bi2+  Bi108  1  0.38385677  0.49545514  0.21633140  1
  Bi2+  Bi109  1  0.42268750  0.49008084  0.71384352  1
  Bi2+  Bi110  1  0.35265144  0.73282242  0.22110388  1
  Bi2+  Bi111  1  0.37573614  0.81468574  0.72338822  1
  Bi2+  Bi112  1  0.61867309  -0.00400568  0.18584700  1
  Bi2+  Bi113  1  0.61643382  0.01501893  0.70784428  1
  Bi2+  Bi114  1  0.68136919  0.27344143  0.21005947  1
  Bi2+  Bi115  1  0.61684545  0.28464251  0.70395793  1
  Bi2+  Bi116  1  0.62740354  0.55207695  0.22019122  1
  Bi2+  Bi117  1  0.61457130  0.51910496  0.69559602  1
  Bi2+  Bi118  1  0.63285188  0.81334205  0.22568781  1
  Bi2+  Bi119  1  0.53754039  0.72550368  0.69189912  1
  Bi2+  Bi120  1  0.88924279  -0.04409839  0.21534707  1
  Bi2+  Bi121  1  0.90166873  -0.01327599  0.68104806  1
  Bi2+  Bi122  1  0.87025117  0.15589543  0.22467661  1
  Bi2+  Bi123  1  0.89197677  0.25171579  0.68759209  1
  Bi2+  Bi124  1  0.86766604  0.49093046  0.19877405  1
  Bi2+  Bi125  1  0.81005678  0.48464102  0.73421323  1
  Bi2+  Bi126  1  0.86993448  0.74455262  0.20967257  1
  Bi2+  Bi127  1  0.90027796  0.74747469  0.76133369  1
  S2-  S128  1  0.08236806  0.12421633  0.14549917  1
  S2-  S129  1  0.03777568  0.15796172  0.65691131  1
  S2-  S130  1  -0.09296824  0.34288890  0.16918134  1
  S2-  S131  1  0.01211180  0.37867494  0.66464671  1
  S2-  S132  1  0.01200021  0.52828813  0.15583784  1
  S2-  S133  1  -0.00252448  0.64094181  0.65825520  1
  S2-  S134  1  -0.00070292  0.77109289  0.14029996  1
  S2-  S135  1  0.05864586  0.89585522  0.65818107  1
  S2-  S136  1  0.28550064  0.18117161  0.16746763  1
  S2-  S137  1  0.27760061  0.16429444  0.65707851  1
  S2-  S138  1  0.13429516  0.35000113  0.15886989  1
  S2-  S139  1  0.24713953  0.38031086  0.65076723  1
  S2-  S140  1  0.25474234  0.52975861  0.15529096  1
  S2-  S141  1  0.20253986  0.60667079  0.67622416  1
  S2-  S142  1  0.24904390  0.76789337  0.13588286  1
  S2-  S143  1  0.26064347  0.79988032  0.64632334  1
  S2-  S144  1  0.50214022  0.12329782  0.16730621  1
  S2-  S145  1  0.49566037  0.04505881  0.64559982  1
  S2-  S146  1  0.40557523  0.37296144  0.14693067  1
  S2-  S147  1  0.49108660  0.29259658  0.63183315  1
  S2-  S148  1  0.49082659  0.59701895  0.15934897  1
  S2-  S149  1  0.40593284  0.62111357  0.64633474  1
  S2-  S150  1  0.50624340  0.86838582  0.15063275  1
  S2-  S151  1  0.61760626  0.87128282  0.65058423  1
  S2-  S152  1  0.72965063  0.12157326  0.15748719  1
  S2-  S153  1  0.75354775  0.05420889  0.64181824  1
  S2-  S154  1  0.70992343  0.43133599  0.16116252  1
  S2-  S155  1  0.78733814  0.36856021  0.65457388  1
  S2-  S156  1  0.82056630  0.63107078  0.13853132  1
  S2-  S157  1  0.76022660  0.59644554  0.65244852  1
  S2-  S158  1  0.74275216  0.88495763  0.15000557  1
  S2-  S159  1  0.83549562  0.83892420  0.65992890  1
  S2-  S160  1  0.12274699  0.01017771  0.34679201  1
  S2-  S161  1  0.12447282  0.00930468  0.84498099  1
  S2-  S162  1  0.10318268  0.25751544  0.33314192  1
  S2-  S163  1  0.10684842  0.24691799  0.84278889  1
  S2-  S164  1  0.12036256  0.50544349  0.34222414  1
  S2-  S165  1  0.10826846  0.48085929  0.85204066  1
  S2-  S166  1  0.14288698  0.73260805  0.35106634  1
  S2-  S167  1  0.22083218  0.72138997  0.84902092  1
  S2-  S168  1  0.35118213  0.09272564  0.35165513  1
  S2-  S169  1  0.36626876  0.02264830  0.84962019  1
  S2-  S170  1  0.34793624  0.27987570  0.31497822  1
  S2-  S171  1  0.35254010  0.24319481  0.84486461  1
  S2-  S172  1  0.35834157  0.48206691  0.32351132  1
  S2-  S173  1  0.37696722  0.58232544  0.85413265  1
  S2-  S174  1  0.37603405  0.67257585  0.36486933  1
  S2-  S175  1  0.44211816  0.79453949  0.83440598  1
  S2-  S176  1  0.51827533  -0.02298029  0.36203317  1
  S2-  S177  1  0.60809729  0.01829684  0.84126383  1
  S2-  S178  1  0.54847700  0.20369448  0.34404179  1
  S2-  S179  1  0.60087775  0.25478529  0.85068159  1
  S2-  S180  1  0.63098691  0.41400900  0.34947403  1
  S2-  S181  1  0.61046708  0.51783810  0.84115637  1
  S2-  S182  1  0.62434931  0.64841960  0.35846159  1
  S2-  S183  1  0.66356312  0.74994799  0.83741179  1
  S2-  S184  1  0.75799655  0.01102519  0.35663898  1
  S2-  S185  1  0.86196569  -0.01431020  0.84458800  1
  S2-  S186  1  0.77418649  0.24307747  0.35254675  1
  S2-  S187  1  0.88148941  0.29904895  0.85438317  1
  S2-  S188  1  0.91001400  0.39821606  0.35129301  1
  S2-  S189  1  0.87041641  0.52532225  0.83473913  1
  S2-  S190  1  0.89323237  0.63769802  0.35466125  1
  S2-  S191  1  0.97871043  0.74957793  0.85754378  1
  S2-  S192  1  0.00748164  0.14217977  0.44848858  1
  S2-  S193  1  -0.00316182  0.12455168  0.95166149  1
  S2-  S194  1  0.01730430  0.39356780  0.45537806  1
  S2-  S195  1  -0.00342495  0.37198792  0.96372788  1
  S2-  S196  1  0.01544467  0.64427348  0.45478395  1
  S2-  S197  1  -0.01130836  0.62155823  0.95900362  1
  S2-  S198  1  0.00910199  0.88983116  0.45354298  1
  S2-  S199  1  -0.00740540  0.87844385  0.95431163  1
  S2-  S200  1  0.25395006  0.14130976  0.45037180  1
  S2-  S201  1  0.24388597  0.12408711  0.96122313  1
  S2-  S202  1  0.25779552  0.38948696  0.44200982  1
  S2-  S203  1  0.24736708  0.37417856  0.95584782  1
  S2-  S204  1  0.25564063  0.64613647  0.46697966  1
  S2-  S205  1  0.24178252  0.61882555  0.95923877  1
  S2-  S206  1  0.25869873  0.89078520  0.45380880  1
  S2-  S207  1  0.24490591  0.87492849  0.94858305  1
  S2-  S208  1  0.50892632  0.14005465  0.45632556  1
  S2-  S209  1  0.49651093  0.12304782  0.95873350  1
  S2-  S210  1  0.49777765  0.38900414  0.44288245  1
  S2-  S211  1  0.49429027  0.37576667  0.95383813  1
  S2-  S212  1  0.50699086  0.64298766  0.46024094  1
  S2-  S213  1  0.49876515  0.62336419  0.95280655  1
  S2-  S214  1  0.51110403  0.88387523  0.46549918  1
  S2-  S215  1  0.49679823  0.87871490  0.94814591  1
  S2-  S216  1  0.76415298  0.14354990  0.45487155  1
  S2-  S217  1  0.74406754  0.12487424  0.94931384  1
  S2-  S218  1  0.76175680  0.39880076  0.45079222  1
  S2-  S219  1  0.74453087  0.37357634  0.95772866  1
  S2-  S220  1  0.76096806  0.64176136  0.45390649  1
  S2-  S221  1  0.74819182  0.62358152  0.94525084  1
  S2-  S222  1  0.76104654  0.88635361  0.45971151  1
  S2-  S223  1  0.74460382  0.87560049  0.94567255  1
  S2-  S224  1  0.12052300  -0.00727713  0.04959350  1
  S2-  S225  1  0.13198118  0.01639403  0.55165642  1
  S2-  S226  1  0.12194484  0.25379925  0.04803592  1
  S2-  S227  1  0.13163763  0.26780928  0.54222721  1
  S2-  S228  1  0.12354642  0.50326078  0.05306144  1
  S2-  S229  1  0.13480349  0.52080137  0.55067306  1
  S2-  S230  1  0.11655893  0.75145818  0.03657862  1
  S2-  S231  1  0.12959707  0.76722426  0.55088058  1
  S2-  S232  1  0.36735933  0.00064861  0.05486415  1
  S2-  S233  1  0.37669038  0.01753946  0.54379133  1
  S2-  S234  1  0.37062952  0.24776715  0.04964840  1
  S2-  S235  1  0.37713281  0.26737944  0.52974360  1
  S2-  S236  1  0.37343439  0.50356311  0.04553611  1
  S2-  S237  1  0.38319161  0.51497041  0.53943300  1
  S2-  S238  1  0.37518852  0.75181402  0.03543280  1
  S2-  S239  1  0.38916308  0.77363697  0.55153482  1
  S2-  S240  1  0.61917671  0.00053403  0.04468316  1
  S2-  S241  1  0.63154288  0.02431301  0.54171642  1
  S2-  S242  1  0.61852843  0.25072129  0.05567025  1
  S2-  S243  1  0.63692278  0.27236428  0.53694079  1
  S2-  S244  1  0.62357151  0.50197240  0.04752496  1
  S2-  S245  1  0.62998439  0.51647779  0.54234816  1
  S2-  S246  1  0.62664375  0.75109535  0.04408464  1
  S2-  S247  1  0.63592327  0.76468057  0.54525165  1
  S2-  S248  1  0.87055613  0.00000857  0.05045621  1
  S2-  S249  1  0.88172828  0.01808211  0.54022227  1
  S2-  S250  1  0.87340585  0.24554839  0.05482009  1
  S2-  S251  1  0.88284897  0.27046412  0.54060018  1
  S2-  S252  1  0.86957182  0.49738654  0.04369849  1
  S2-  S253  1  0.88676388  0.52024468  0.54393861  1
  S2-  S254  1  0.86332076  0.75572519  0.03689341  1
  S2-  S255  1  0.88566144  0.76249105  0.54229931  1
