# generated using pymatgen
data_La9Ce10Pr6Nd4Sm3(BiS2)32
_symmetry_space_group_name_H-M   'P 1'
_cell_length_a   16.20600667
_cell_length_b   16.21837629
_cell_length_c   27.35265744
_cell_angle_alpha   89.87084306
_cell_angle_beta   89.83402340
_cell_angle_gamma   89.84950140
_symmetry_Int_Tables_number   1
_chemical_formula_structural   La9Ce10Pr6Nd4Sm3(BiS2)32
_chemical_formula_sum   'La18 Ce20 Pr12 Nd8 Sm6 Bi64 S128'
_cell_volume   7189.16573415
_cell_formula_units_Z   2
loop_
 _symmetry_equiv_pos_site_id
 _symmetry_equiv_pos_as_xyz
  1  'x, y, z'
loop_
 _atom_type_symbol
 _atom_type_oxidation_number
  La3+  3.0
  Ce3+  3.0
  Pr3+  3.0
  Nd3+  3.0
  Sm3+  3.0
  Bi2+  2.0
  S2-  -2.0
loop_
 _atom_site_type_symbol
 _atom_site_label
 _atom_site_symmetry_multiplicity
 _atom_site_fract_x
 _atom_site_fract_y
 _atom_site_fract_z
 _atom_site_occupancy
  La3+  La0  1  0.11580883  0.26511671  0.93198474  1
  La3+  La1  1  0.13950580  0.75387589  0.42115916  1
  La3+  La2  1  0.38777876  0.74521800  0.43448786  1
  La3+  La3  1  0.38980402  0.25030586  0.43588000  1
  La3+  La4  1  0.61077577  0.51894463  0.93638899  1
  La3+  La5  1  -0.01734924  0.89959817  0.09777820  1
  La3+  La6  1  0.86840892  0.76814283  0.93739221  1
  La3+  La7  1  -0.01743478  0.15054310  0.08218574  1
  La3+  La8  1  0.49120388  0.13866395  0.06334985  1
  La3+  La9  1  0.35784518  0.52038417  0.91030402  1
  La3+  La10  1  0.00155029  0.85891204  0.57417717  1
  La3+  La11  1  -0.01673242  0.64219767  0.07144605  1
  La3+  La12  1  0.49102680  0.39377806  0.05956622  1
  La3+  La13  1  0.86128344  0.27376683  0.91261628  1
  La3+  La14  1  0.25798255  0.62426290  0.56867943  1
  La3+  La15  1  0.36053958  0.02395275  0.92008204  1
  La3+  La16  1  0.36805466  0.77231440  0.91648633  1
  La3+  La17  1  0.26494157  0.37797052  0.61446416  1
  Ce3+  Ce18  1  0.74611443  0.14175482  0.05127153  1
  Ce3+  Ce19  1  0.25963463  0.12440896  0.56300312  1
  Ce3+  Ce20  1  0.76339710  0.11686495  0.55597968  1
  Ce3+  Ce21  1  0.26187477  0.86716296  0.56438959  1
  Ce3+  Ce22  1  0.51201921  0.61941102  0.56614960  1
  Ce3+  Ce23  1  0.38554276  -0.00110490  0.44406131  1
  Ce3+  Ce24  1  0.74067296  0.64331191  0.05548692  1
  Ce3+  Ce25  1  0.86648976  0.51682573  0.93811035  1
  Ce3+  Ce26  1  0.23922794  0.89289363  0.06240640  1
  Ce3+  Ce27  1  0.11641661  0.77077723  0.95077159  1
  Ce3+  Ce28  1  0.63650836  -0.00270616  0.44024617  1
  Ce3+  Ce29  1  0.76001707  0.61890121  0.55237872  1
  Ce3+  Ce30  1  0.51220551  0.36846891  0.57031080  1
  Ce3+  Ce31  1  0.01010247  0.62094760  0.54895515  1
  Ce3+  Ce32  1  0.36686573  0.26397350  0.94322620  1
  Ce3+  Ce33  1  0.38645450  0.49250906  0.45106835  1
  Ce3+  Ce34  1  0.23996639  0.64455894  0.05866351  1
  Ce3+  Ce35  1  0.51098701  0.87009433  0.55579266  1
  Ce3+  Ce36  1  0.23749315  0.14047740  0.05726702  1
  Ce3+  Ce37  1  0.88805122  0.74477371  0.43235055  1
  Pr3+  Pr38  1  0.63298681  0.49009791  0.44475894  1
  Pr3+  Pr39  1  0.61486243  0.01711445  0.93715374  1
  Pr3+  Pr40  1  0.13400356  0.24524427  0.44230796  1
  Pr3+  Pr41  1  0.63271366  0.74392923  0.42940935  1
  Pr3+  Pr42  1  0.11950648  0.52089212  0.94087767  1
  Pr3+  Pr43  1  0.48587035  0.64494956  0.06025696  1
  Pr3+  Pr44  1  0.00725899  0.11219402  0.57301164  1
  Pr3+  Pr45  1  0.88779146  -0.00687591  0.43473524  1
  Pr3+  Pr46  1  0.51079850  0.12143759  0.55869376  1
  Pr3+  Pr47  1  0.86179104  0.01740139  0.93227607  1
  Pr3+  Pr48  1  0.74487422  0.38844026  0.05866517  1
  Pr3+  Pr49  1  0.88044675  0.49372754  0.43438153  1
  Nd3+  Nd50  1  0.10808514  0.01630896  0.94603842  1
  Nd3+  Nd51  1  0.01013612  0.36528137  0.56973148  1
  Nd3+  Nd52  1  0.61411362  0.26679791  0.93688801  1
  Nd3+  Nd53  1  0.13818602  0.49409994  0.44443345  1
  Nd3+  Nd54  1  0.76582302  0.36806345  0.56823657  1
  Nd3+  Nd55  1  0.23981862  0.39123094  0.05992237  1
  Nd3+  Nd56  1  0.89427468  0.24575107  0.43471812  1
  Nd3+  Nd57  1  0.61324136  0.76853222  0.94072104  1
  Sm3+  Sm58  1  0.49042843  0.89234223  0.05221093  1
  Sm3+  Sm59  1  0.13577188  -0.00652179  0.45112017  1
  Sm3+  Sm60  1  -0.00903438  0.38858414  0.05430403  1
  Sm3+  Sm61  1  0.64162234  0.24513363  0.44597215  1
  Sm3+  Sm62  1  0.74292191  0.89365991  0.05979238  1
  Sm3+  Sm63  1  0.75806832  0.86671381  0.55081085  1
  Bi2+  Bi64  1  -0.04880277  0.14517044  0.29120233  1
  Bi2+  Bi65  1  0.02632621  0.09959103  0.79163618  1
  Bi2+  Bi66  1  -0.01845194  0.35366891  0.27777513  1
  Bi2+  Bi67  1  -0.01407016  0.37417259  0.79098779  1
  Bi2+  Bi68  1  -0.13185421  0.61921507  0.29265404  1
  Bi2+  Bi69  1  -0.01821613  0.58944356  0.78290217  1
  Bi2+  Bi70  1  0.00687684  0.85883692  0.29976539  1
  Bi2+  Bi71  1  0.00373001  0.87656624  0.81383686  1
  Bi2+  Bi72  1  0.20705979  0.23563513  0.30218968  1
  Bi2+  Bi73  1  0.34945736  0.08193931  0.77097800  1
  Bi2+  Bi74  1  0.24105010  0.41917827  0.26117825  1
  Bi2+  Bi75  1  0.29659098  0.33118975  0.82071312  1
  Bi2+  Bi76  1  0.20153082  0.61575471  0.29009136  1
  Bi2+  Bi77  1  0.20087284  0.62677866  0.79224101  1
  Bi2+  Bi78  1  0.25710895  0.86300785  0.29242464  1
  Bi2+  Bi79  1  0.22957644  0.83285631  0.77987260  1
  Bi2+  Bi80  1  0.49929254  0.05050690  0.29096242  1
  Bi2+  Bi81  1  0.55063883  0.06825628  0.81420591  1
  Bi2+  Bi82  1  0.47494051  0.32316348  0.29323521  1
  Bi2+  Bi83  1  0.55633534  0.26996221  0.80689754  1
  Bi2+  Bi84  1  0.45741636  0.59005403  0.29988083  1
  Bi2+  Bi85  1  0.50899856  0.62558400  0.80005441  1
  Bi2+  Bi86  1  0.48500052  0.85552835  0.28144453  1
  Bi2+  Bi87  1  0.48352098  0.89094179  0.78175668  1
  Bi2+  Bi88  1  0.72728437  0.14661296  0.23095242  1
  Bi2+  Bi89  1  0.69641601  0.14547895  0.73216481  1
  Bi2+  Bi90  1  0.72845872  0.33543083  0.30211744  1
  Bi2+  Bi91  1  0.71073572  0.39858314  0.77732600  1
  Bi2+  Bi92  1  0.68321909  0.69154927  0.30032837  1
  Bi2+  Bi93  1  0.78520224  0.63214782  0.80191600  1
  Bi2+  Bi94  1  0.70168615  0.88591003  0.28662738  1
  Bi2+  Bi95  1  0.73908159  0.87929230  0.77950711  1
  Bi2+  Bi96  1  0.17567258  0.04873107  0.27892052  1
  Bi2+  Bi97  1  0.13532676  -0.01407154  0.71897431  1
  Bi2+  Bi98  1  0.09113038  0.18765002  0.21093704  1
  Bi2+  Bi99  1  0.14450071  0.24879421  0.71711557  1
  Bi2+  Bi100  1  0.07178172  0.49412608  0.22431964  1
  Bi2+  Bi101  1  0.11313908  0.53189793  0.70737716  1
  Bi2+  Bi102  1  0.15828376  0.74422145  0.19421535  1
  Bi2+  Bi103  1  0.09762635  0.79552219  0.70174949  1
  Bi2+  Bi104  1  0.34202102  -0.00712280  0.22832287  1
  Bi2+  Bi105  1  0.31073985  -0.00806965  0.67352003  1
  Bi2+  Bi106  1  0.33302572  0.25253428  0.19212454  1
  Bi2+  Bi107  1  0.44623726  0.22294866  0.72079740  1
  Bi2+  Bi108  1  0.39816859  0.51805401  0.19969343  1
  Bi2+  Bi109  1  0.39104294  0.48924174  0.72380922  1
  Bi2+  Bi110  1  0.40643000  0.71241051  0.21042412  1
  Bi2+  Bi111  1  0.37733972  0.81557015  0.69483712  1
  Bi2+  Bi112  1  0.61825441  -0.00722026  0.20127032  1
  Bi2+  Bi113  1  0.60163310  -0.01872068  0.70329368  1
  Bi2+  Bi114  1  0.58295895  0.26749575  0.20156242  1
  Bi2+  Bi115  1  0.64426990  0.31819797  0.68005292  1
  Bi2+  Bi116  1  0.62892877  0.51442917  0.26229049  1
  Bi2+  Bi117  1  0.62108411  0.51087012  0.69660524  1
  Bi2+  Bi118  1  0.61524561  0.77793389  0.20181349  1
  Bi2+  Bi119  1  0.64691699  0.72153529  0.74392645  1
  Bi2+  Bi120  1  0.86897617  0.01268706  0.21522441  1
  Bi2+  Bi121  1  0.86633518  -0.03605133  0.70810025  1
  Bi2+  Bi122  1  0.84736385  0.30998080  0.18916963  1
  Bi2+  Bi123  1  0.87429992  0.23501405  0.70798822  1
  Bi2+  Bi124  1  0.80340355  0.49742331  0.20862777  1
  Bi2+  Bi125  1  0.85191577  0.49340227  0.71325261  1
  Bi2+  Bi126  1  0.86978369  0.74638014  0.20692921  1
  Bi2+  Bi127  1  0.86937585  0.71583079  0.70388530  1
  S2-  S128  1  0.00319533  0.03980827  0.16035154  1
  S2-  S129  1  0.01237736  0.18935294  0.66607775  1
  S2-  S130  1  -0.00568927  0.29970133  0.13931917  1
  S2-  S131  1  0.10154362  0.38397771  0.65546760  1
  S2-  S132  1  0.04184918  0.62082327  0.16559005  1
  S2-  S133  1  0.00296443  0.70227968  0.63561859  1
  S2-  S134  1  0.02194628  0.83294612  0.19315071  1
  S2-  S135  1  -0.00091921  0.97992949  0.64809845  1
  S2-  S136  1  0.23368295  0.13781519  0.15460877  1
  S2-  S137  1  0.25014987  0.20762054  0.64846098  1
  S2-  S138  1  0.23060504  0.36624544  0.15833562  1
  S2-  S139  1  0.26502159  0.37154717  0.73224152  1
  S2-  S140  1  0.27550265  0.62698528  0.15388765  1
  S2-  S141  1  0.26516907  0.54047128  0.65931079  1
  S2-  S142  1  0.24188858  0.88108105  0.16061415  1
  S2-  S143  1  0.23809025  0.75790543  0.63938595  1
  S2-  S144  1  0.47548678  0.15700966  0.16259370  1
  S2-  S145  1  0.50309388  0.10447719  0.65873955  1
  S2-  S146  1  0.46406331  0.38248396  0.15875032  1
  S2-  S147  1  0.42623018  0.36658744  0.65546991  1
  S2-  S148  1  0.53072471  0.62953849  0.15732269  1
  S2-  S149  1  0.48774651  0.59980561  0.66317226  1
  S2-  S150  1  0.51124301  0.89491511  0.14909185  1
  S2-  S151  1  0.53928308  0.84144425  0.64972946  1
  S2-  S152  1  0.82033280  0.15114425  0.13857043  1
  S2-  S153  1  0.80077077  0.10080663  0.65104109  1
  S2-  S154  1  0.69243637  0.38932246  0.15449439  1
  S2-  S155  1  0.88235929  0.36899516  0.64219381  1
  S2-  S156  1  0.82131825  0.64016983  0.14198380  1
  S2-  S157  1  0.76005097  0.61076854  0.65043319  1
  S2-  S158  1  0.82434090  0.88975311  0.14785437  1
  S2-  S159  1  0.82018432  0.84961987  0.64165486  1
  S2-  S160  1  0.13254466  -0.07034316  0.35966109  1
  S2-  S161  1  0.13175538  0.01803588  0.84683502  1
  S2-  S162  1  0.02954572  0.25507144  0.36202887  1
  S2-  S163  1  0.13400536  0.27989968  0.83099653  1
  S2-  S164  1  0.15158266  0.49093371  0.34449750  1
  S2-  S165  1  0.20476211  0.49766180  0.85317792  1
  S2-  S166  1  0.06759636  0.71787287  0.32862752  1
  S2-  S167  1  0.11893721  0.75615556  0.85301065  1
  S2-  S168  1  0.37413365  -0.02896340  0.34902037  1
  S2-  S169  1  0.34500703  -0.09658356  0.84761526  1
  S2-  S170  1  0.37016129  0.21292682  0.33781480  1
  S2-  S171  1  0.34735874  0.17344036  0.85844096  1
  S2-  S172  1  0.43568990  0.45139058  0.36021746  1
  S2-  S173  1  0.42709945  0.45098700  0.82312792  1
  S2-  S174  1  0.27794174  0.73848974  0.35506041  1
  S2-  S175  1  0.35648889  0.65540200  0.84233131  1
  S2-  S176  1  0.64874270  0.01887944  0.34386969  1
  S2-  S177  1  0.69991934  -0.00581832  0.85025644  1
  S2-  S178  1  0.59230526  0.26781785  0.35320447  1
  S2-  S179  1  0.70877906  0.27149154  0.85309875  1
  S2-  S180  1  0.70252242  0.47932839  0.35388118  1
  S2-  S181  1  0.64809260  0.53266010  0.83846877  1
  S2-  S182  1  0.50868092  0.73470263  0.35737756  1
  S2-  S183  1  0.53781469  0.76771589  0.85195286  1
  S2-  S184  1  0.91227033  0.00015151  0.33458850  1
  S2-  S185  1  0.91029243  0.00731704  0.83359392  1
  S2-  S186  1  0.81396553  0.22339828  0.34692632  1
  S2-  S187  1  0.91460651  0.22862167  0.81548558  1
  S2-  S188  1  0.91738884  0.46804656  0.33737612  1
  S2-  S189  1  0.87961909  0.42736214  0.85593102  1
  S2-  S190  1  0.87100022  0.78633700  0.33796627  1
  S2-  S191  1  0.86678565  0.79082163  0.83749683  1
  S2-  S192  1  0.01132419  0.11295290  0.45920249  1
  S2-  S193  1  -0.01346613  0.14474074  0.94311965  1
  S2-  S194  1  0.00971571  0.37520050  0.46173349  1
  S2-  S195  1  -0.00327465  0.39373713  0.95170360  1
  S2-  S196  1  0.01034226  0.61800951  0.44377750  1
  S2-  S197  1  -0.00835758  0.64131137  0.95607101  1
  S2-  S198  1  0.00921073  0.87002027  0.45756490  1
  S2-  S199  1  -0.01139857  0.89316619  0.95123748  1
  S2-  S200  1  0.25805434  0.12012102  0.45408627  1
  S2-  S201  1  0.23582817  0.13823131  0.95469904  1
  S2-  S202  1  0.25976407  0.36877874  0.44532041  1
  S2-  S203  1  0.24351327  0.38931269  0.95457235  1
  S2-  S204  1  0.26300637  0.61608993  0.45701985  1
  S2-  S205  1  0.24260478  0.64677877  0.95414273  1
  S2-  S206  1  0.26446519  0.87468887  0.45922546  1
  S2-  S207  1  0.23997387  0.89494610  0.95570183  1
  S2-  S208  1  0.51435416  0.12252427  0.45177223  1
  S2-  S209  1  0.49140780  0.14090169  0.95534393  1
  S2-  S210  1  0.51602979  0.36587657  0.46485894  1
  S2-  S211  1  0.48784958  0.39157907  0.95080482  1
  S2-  S212  1  0.51299165  0.61618280  0.45926207  1
  S2-  S213  1  0.48626257  0.64261879  0.95349270  1
  S2-  S214  1  0.51315106  0.87548943  0.45055500  1
  S2-  S215  1  0.48877763  0.89712017  0.94970224  1
  S2-  S216  1  0.76279082  0.11956822  0.45135393  1
  S2-  S217  1  0.74027303  0.14292298  0.94819243  1
  S2-  S218  1  0.76316541  0.36521283  0.46052130  1
  S2-  S219  1  0.73693351  0.39654988  0.95324604  1
  S2-  S220  1  0.75840599  0.62220296  0.44638705  1
  S2-  S221  1  0.73929166  0.64409537  0.94991493  1
  S2-  S222  1  0.75797934  0.86846837  0.44639010  1
  S2-  S223  1  0.73971441  0.88897726  0.95561044  1
  S2-  S224  1  0.10956744  0.01683551  0.05209342  1
  S2-  S225  1  0.13759618  -0.00874548  0.55361635  1
  S2-  S226  1  0.11575809  0.26659773  0.04119073  1
  S2-  S227  1  0.12654320  0.23843209  0.54694824  1
  S2-  S228  1  0.11343841  0.51449077  0.04919766  1
  S2-  S229  1  0.13423923  0.49588910  0.54985537  1
  S2-  S230  1  0.10791611  0.77185595  0.05624892  1
  S2-  S231  1  0.13257701  0.74534714  0.53365849  1
  S2-  S232  1  0.36638853  0.01500510  0.04677808  1
  S2-  S233  1  0.38614656  -0.00404178  0.54886421  1
  S2-  S234  1  0.36481664  0.26559618  0.04810816  1
  S2-  S235  1  0.38636070  0.24498461  0.54619114  1
  S2-  S236  1  0.36351750  0.51688702  0.04573848  1
  S2-  S237  1  0.38625896  0.49371715  0.55379763  1
  S2-  S238  1  0.36645597  0.77182595  0.04712390  1
  S2-  S239  1  0.39137232  0.74397430  0.54441684  1
  S2-  S240  1  0.61903945  0.01481115  0.04544354  1
  S2-  S241  1  0.63840561  -0.00625419  0.54756852  1
  S2-  S242  1  0.61678237  0.26525634  0.04440585  1
  S2-  S243  1  0.64034929  0.24321055  0.55065605  1
  S2-  S244  1  0.61629165  0.51905255  0.04617424  1
  S2-  S245  1  0.63860300  0.49129811  0.55166831  1
  S2-  S246  1  0.61721519  0.77024247  0.04674043  1
  S2-  S247  1  0.63606755  0.74416691  0.54033626  1
  S2-  S248  1  0.86707575  0.01478328  0.04145089  1
  S2-  S249  1  0.88218860  -0.01087927  0.54127093  1
  S2-  S250  1  0.86748415  0.26851469  0.03339951  1
  S2-  S251  1  0.88622907  0.23877942  0.54277154  1
  S2-  S252  1  0.86773056  0.51255310  0.04435397  1
  S2-  S253  1  0.88474681  0.49741544  0.54222659  1
  S2-  S254  1  0.86598713  0.77119866  0.04471160  1
  S2-  S255  1  0.88010659  0.74186288  0.53615358  1
