# generated using pymatgen
data_La9Ce10Pr6Nd4Sm3(BiS2)32
_symmetry_space_group_name_H-M   'P 1'
_cell_length_a   16.11903666
_cell_length_b   16.14705849
_cell_length_c   27.12714872
_cell_angle_alpha   90.27972752
_cell_angle_beta   90.32531753
_cell_angle_gamma   89.82543941
_symmetry_Int_Tables_number   1
_chemical_formula_structural   La9Ce10Pr6Nd4Sm3(BiS2)32
_chemical_formula_sum   'La18 Ce20 Pr12 Nd8 Sm6 Bi64 S128'
_cell_volume   7060.28926043
_cell_formula_units_Z   2
loop_
 _symmetry_equiv_pos_site_id
 _symmetry_equiv_pos_as_xyz
  1  'x, y, z'
loop_
 _atom_type_symbol
 _atom_type_oxidation_number
  La3+  3.0
  Ce3+  3.0
  Pr3+  3.0
  Nd3+  3.0
  Sm3+  3.0
  Bi2+  2.0
  S2-  -2.0
loop_
 _atom_site_type_symbol
 _atom_site_label
 _atom_site_symmetry_multiplicity
 _atom_site_fract_x
 _atom_site_fract_y
 _atom_site_fract_z
 _atom_site_occupancy
  La3+  La0  1  0.73084798  0.11328539  0.56655665  1
  La3+  La1  1  0.73891343  0.12036895  0.07072880  1
  La3+  La2  1  0.49108304  0.36380980  0.57042075  1
  La3+  La3  1  0.22983031  0.62461034  0.08265920  1
  La3+  La4  1  0.00263504  0.36764118  0.08996634  1
  La3+  La5  1  0.73148743  0.38501957  0.08147059  1
  La3+  La6  1  0.74143414  0.87043990  0.06723578  1
  La3+  La7  1  0.85609383  0.74028260  0.89438280  1
  La3+  La8  1  0.60895691  0.48726910  0.42873145  1
  La3+  La9  1  0.11181700  0.74739612  0.91898813  1
  La3+  La10  1  -0.00727529  0.36095964  0.56758829  1
  La3+  La11  1  0.73784921  0.86437694  0.56442312  1
  La3+  La12  1  0.10087043  0.47998035  0.42033785  1
  La3+  La13  1  0.60818919  0.49084752  0.92464150  1
  La3+  La14  1  0.60828626  0.23179793  0.42056786  1
  La3+  La15  1  0.87239592  0.48444730  0.92562169  1
  La3+  La16  1  0.35704164  0.23675986  0.92281788  1
  La3+  La17  1  0.60783948  0.23965009  0.92714035  1
  Ce3+  Ce18  1  0.61229739  -0.00495913  0.94271121  1
  Ce3+  Ce19  1  0.86008486  0.23564737  0.44169909  1
  Ce3+  Ce20  1  0.10942907  -0.01232699  0.44323206  1
  Ce3+  Ce21  1  0.85481976  0.48741117  0.43420332  1
  Ce3+  Ce22  1  0.11720993  0.50626617  0.94011987  1
  Ce3+  Ce23  1  0.48963939  0.36528512  0.06311400  1
  Ce3+  Ce24  1  0.24350939  0.11472747  0.56438812  1
  Ce3+  Ce25  1  0.36614209  0.48788650  0.43728285  1
  Ce3+  Ce26  1  0.85890978  -0.00604455  0.93930292  1
  Ce3+  Ce27  1  0.23336847  0.61200281  0.55540666  1
  Ce3+  Ce28  1  0.48902435  0.87249958  0.06966530  1
  Ce3+  Ce29  1  0.23731225  0.85987418  0.55546459  1
  Ce3+  Ce30  1  0.61563011  0.74907424  0.93587091  1
  Ce3+  Ce31  1  0.74851686  0.61202864  0.56567352  1
  Ce3+  Ce32  1  0.35979110  0.73829786  0.43982439  1
  Ce3+  Ce33  1  0.49040565  0.62029483  0.05838937  1
  Ce3+  Ce34  1  0.24062126  0.37107508  0.05194133  1
  Ce3+  Ce35  1  0.36507457  0.49863541  0.94509481  1
  Ce3+  Ce36  1  0.61536377  0.73763030  0.44452514  1
  Ce3+  Ce37  1  0.86014186  0.25453864  0.95323316  1
  Pr3+  Pr38  1  0.10819184  0.23331848  0.42825315  1
  Pr3+  Pr39  1  0.10604602  -0.00734327  0.93654327  1
  Pr3+  Pr40  1  -0.00429633  0.60613997  0.57178590  1
  Pr3+  Pr41  1  -0.01216301  0.11611112  0.57260651  1
  Pr3+  Pr42  1  0.36434370  0.23234900  0.43281321  1
  Pr3+  Pr43  1  0.10804303  0.72917292  0.42306010  1
  Pr3+  Pr44  1  0.36215774  0.74671604  0.94286935  1
  Pr3+  Pr45  1  -0.01044214  0.12436581  0.06167013  1
  Pr3+  Pr46  1  0.10624518  0.25516199  0.92897324  1
  Pr3+  Pr47  1  0.49192081  0.61055590  0.56785316  1
  Pr3+  Pr48  1  0.23755084  0.12108255  0.05541515  1
  Pr3+  Pr49  1  0.48609616  0.12010979  0.06803426  1
  Nd3+  Nd50  1  0.23205421  0.86867264  0.06849056  1
  Nd3+  Nd51  1  0.23909257  0.36036573  0.54808350  1
  Nd3+  Nd52  1  0.87082736  -0.01341430  0.43875865  1
  Nd3+  Nd53  1  0.74112078  0.61956721  0.04882647  1
  Nd3+  Nd54  1  0.36276988  -0.01145397  0.43603157  1
  Nd3+  Nd55  1  0.36113146  -0.01296818  0.93833060  1
  Nd3+  Nd56  1  -0.01224091  0.61879945  0.05487071  1
  Nd3+  Nd57  1  -0.00831422  0.86060249  0.56446077  1
  Sm3+  Sm58  1  0.48457776  0.11181983  0.56498282  1
  Sm3+  Sm59  1  0.86686360  0.73431238  0.44090501  1
  Sm3+  Sm60  1  0.62472002  -0.01335056  0.42723118  1
  Sm3+  Sm61  1  0.48790785  0.86284608  0.55022175  1
  Sm3+  Sm62  1  0.73732783  0.36266083  0.55638847  1
  Sm3+  Sm63  1  -0.01153762  0.86612321  0.05161846  1
  Bi2+  Bi64  1  0.05415953  0.11380971  0.31207727  1
  Bi2+  Bi65  1  0.00619194  0.12329164  0.80222337  1
  Bi2+  Bi66  1  -0.02111694  0.35110635  0.27781560  1
  Bi2+  Bi67  1  0.08414539  0.32307902  0.79027068  1
  Bi2+  Bi68  1  0.00501677  0.60557740  0.28930547  1
  Bi2+  Bi69  1  0.01419367  0.58885594  0.80078642  1
  Bi2+  Bi70  1  -0.02940194  0.85854754  0.28376054  1
  Bi2+  Bi71  1  0.00853285  0.92628123  0.79155063  1
  Bi2+  Bi72  1  0.25337056  0.10520622  0.33129497  1
  Bi2+  Bi73  1  0.25367974  0.11359069  0.78484045  1
  Bi2+  Bi74  1  0.25616771  0.29460701  0.29927724  1
  Bi2+  Bi75  1  0.27433644  0.39081368  0.77899152  1
  Bi2+  Bi76  1  0.26899512  0.66336244  0.28904481  1
  Bi2+  Bi77  1  0.32824848  0.60156931  0.81803754  1
  Bi2+  Bi78  1  0.24750690  0.91918774  0.28201004  1
  Bi2+  Bi79  1  0.26303871  0.88719513  0.77884385  1
  Bi2+  Bi80  1  0.48110679  0.12442190  0.28382540  1
  Bi2+  Bi81  1  0.50637871  0.12404797  0.78912995  1
  Bi2+  Bi82  1  0.52971175  0.38567000  0.29288407  1
  Bi2+  Bi83  1  0.53462870  0.38216798  0.79148246  1
  Bi2+  Bi84  1  0.48290699  0.65364573  0.26274945  1
  Bi2+  Bi85  1  0.47122905  0.73638403  0.82172986  1
  Bi2+  Bi86  1  0.53629793  0.84715781  0.26900532  1
  Bi2+  Bi87  1  0.55970332  0.91516658  0.81856334  1
  Bi2+  Bi88  1  0.76212294  0.13703701  0.30594080  1
  Bi2+  Bi89  1  0.81040227  0.14639397  0.77293783  1
  Bi2+  Bi90  1  0.78007139  0.41200812  0.28358211  1
  Bi2+  Bi91  1  0.78232205  0.40368168  0.79564142  1
  Bi2+  Bi92  1  0.74607081  0.66138133  0.28997170  1
  Bi2+  Bi93  1  0.71255722  0.71666383  0.75023421  1
  Bi2+  Bi94  1  0.76914695  0.86043268  0.28825940  1
  Bi2+  Bi95  1  0.74134018  0.96546211  0.78567373  1
  Bi2+  Bi96  1  0.10349478  -0.00972814  0.21101617  1
  Bi2+  Bi97  1  0.13848190  0.02463117  0.70826417  1
  Bi2+  Bi98  1  0.13530892  0.18519545  0.21582123  1
  Bi2+  Bi99  1  0.17420127  0.21210594  0.68344904  1
  Bi2+  Bi100  1  0.15796624  0.46082841  0.21577688  1
  Bi2+  Bi101  1  0.14446930  0.48600874  0.71241396  1
  Bi2+  Bi102  1  0.10295751  0.73675777  0.21038886  1
  Bi2+  Bi103  1  0.13627477  0.74559475  0.71056351  1
  Bi2+  Bi104  1  0.36441165  0.02380599  0.21028448  1
  Bi2+  Bi105  1  0.42557730  -0.03025596  0.73700687  1
  Bi2+  Bi106  1  0.35805901  0.27797108  0.20483623  1
  Bi2+  Bi107  1  0.36531955  0.24079717  0.70739194  1
  Bi2+  Bi108  1  0.36885581  0.46297950  0.24290660  1
  Bi2+  Bi109  1  0.36168336  0.51781305  0.70946107  1
  Bi2+  Bi110  1  0.37761507  0.82994434  0.20126976  1
  Bi2+  Bi111  1  0.33017245  0.71472407  0.71648706  1
  Bi2+  Bi112  1  0.63639467  -0.01336840  0.21210631  1
  Bi2+  Bi113  1  0.62479159  -0.04161680  0.69689997  1
  Bi2+  Bi114  1  0.61676722  0.29530520  0.20818286  1
  Bi2+  Bi115  1  0.66852761  0.23354956  0.69383009  1
  Bi2+  Bi116  1  0.61908096  0.55519513  0.20519992  1
  Bi2+  Bi117  1  0.58013781  0.54716794  0.73399431  1
  Bi2+  Bi118  1  0.66793757  0.79615517  0.18638218  1
  Bi2+  Bi119  1  0.52976982  0.73682405  0.70815528  1
  Bi2+  Bi120  1  0.90847798  0.02196224  0.22303691  1
  Bi2+  Bi121  1  0.94240130  0.04427494  0.69879293  1
  Bi2+  Bi122  1  0.85476575  0.20742198  0.21101008  1
  Bi2+  Bi123  1  0.92639164  0.28648598  0.73143995  1
  Bi2+  Bi124  1  0.87368615  0.62582571  0.20840710  1
  Bi2+  Bi125  1  0.83933364  0.51236218  0.69099871  1
  Bi2+  Bi126  1  0.86814751  0.81806952  0.18113275  1
  Bi2+  Bi127  1  0.88236579  0.78064306  0.71966073  1
  S2-  S128  1  0.00365014  0.21122267  0.14985099  1
  S2-  S129  1  0.00808626  0.24165972  0.64585117  1
  S2-  S130  1  -0.01073498  0.42520108  0.19350763  1
  S2-  S131  1  -0.01954875  0.46821210  0.65006136  1
  S2-  S132  1  0.07304804  0.62263393  0.14445144  1
  S2-  S133  1  -0.11107971  0.65064988  0.65021142  1
  S2-  S134  1  0.04111474  0.86360103  0.14650937  1
  S2-  S135  1  0.01391128  0.83304106  0.66398415  1
  S2-  S136  1  0.27842151  0.14000023  0.15392738  1
  S2-  S137  1  0.35935486  0.11125799  0.63833414  1
  S2-  S138  1  0.17097365  0.35926322  0.14114124  1
  S2-  S139  1  0.20602268  0.37447508  0.64641303  1
  S2-  S140  1  0.27627940  0.55157789  0.17668080  1
  S2-  S141  1  0.13834530  0.61801331  0.63918235  1
  S2-  S142  1  0.24106991  0.76738338  0.15141394  1
  S2-  S143  1  0.24348510  0.84039888  0.65321137  1
  S2-  S144  1  0.48319803  0.24245098  0.14347911  1
  S2-  S145  1  0.60302210  0.09625360  0.63854607  1
  S2-  S146  1  0.58163609  0.42359194  0.14180959  1
  S2-  S147  1  0.51106392  0.28167025  0.66176497  1
  S2-  S148  1  0.49467722  0.64930425  0.15438355  1
  S2-  S149  1  0.49110089  0.49446761  0.64382695  1
  S2-  S150  1  0.50003465  0.99596067  0.14300782  1
  S2-  S151  1  0.48729304  0.88224936  0.64867970  1
  S2-  S152  1  0.69710313  0.17634008  0.16600861  1
  S2-  S153  1  0.81007490  0.13008318  0.65941567  1
  S2-  S154  1  0.78064358  0.35627731  0.18374097  1
  S2-  S155  1  0.73898228  0.36796229  0.65828194  1
  S2-  S156  1  0.75194713  0.56046487  0.14387406  1
  S2-  S157  1  0.69402798  0.60128405  0.65966789  1
  S2-  S158  1  0.75976311  0.98813447  0.14570942  1
  S2-  S159  1  0.77625961  0.87368565  0.66326681  1
  S2-  S160  1  0.00099336  -0.02301472  0.36455589  1
  S2-  S161  1  0.13614575  -0.10585195  0.85327637  1
  S2-  S162  1  0.11067089  0.34414932  0.34770270  1
  S2-  S163  1  0.22184767  0.25043151  0.84941813  1
  S2-  S164  1  0.14914408  0.57371257  0.33835108  1
  S2-  S165  1  0.04219474  0.44390358  0.85864757  1
  S2-  S166  1  0.19235424  0.78410973  0.33631359  1
  S2-  S167  1  0.16286924  0.61373055  0.85732743  1
  S2-  S168  1  0.40024571  -0.00526340  0.33833313  1
  S2-  S169  1  0.37109623  0.08602674  0.85530177  1
  S2-  S170  1  0.46737480  0.25177889  0.35025268  1
  S2-  S171  1  0.47544571  0.26423501  0.84918300  1
  S2-  S172  1  0.47263530  0.49422095  0.35984104  1
  S2-  S173  1  0.45141184  0.48887493  0.85928683  1
  S2-  S174  1  0.39891342  0.71828613  0.34471693  1
  S2-  S175  1  0.35583937  0.85995971  0.86303310  1
  S2-  S176  1  0.60571321  0.09577934  0.34873306  1
  S2-  S177  1  0.61704438  0.09049448  0.85950262  1
  S2-  S178  1  0.69747520  0.29145012  0.33228340  1
  S2-  S179  1  0.66736617  0.30472549  0.83260946  1
  S2-  S180  1  0.72918576  0.51461767  0.35331637  1
  S2-  S181  1  0.65620514  0.51304577  0.82527073  1
  S2-  S182  1  0.64446885  0.76020080  0.34869308  1
  S2-  S183  1  0.69745299  0.74726730  0.84635131  1
  S2-  S184  1  0.76436327  -0.01405555  0.35832228  1
  S2-  S185  1  0.85916359  -0.08809527  0.85035415  1
  S2-  S186  1  0.91000549  0.21275533  0.34771358  1
  S2-  S187  1  0.87117397  0.32939372  0.86506107  1
  S2-  S188  1  0.94448355  0.47939879  0.34934999  1
  S2-  S189  1  0.86572783  0.57780149  0.83579139  1
  S2-  S190  1  0.96407729  0.73267590  0.35703025  1
  S2-  S191  1  0.99648187  0.74264691  0.83172043  1
  S2-  S192  1  -0.01209445  0.11366868  0.46408078  1
  S2-  S193  1  -0.01478213  0.12388325  0.95225324  1
  S2-  S194  1  -0.01692975  0.35667561  0.45644639  1
  S2-  S195  1  -0.00833295  0.37030401  0.97010419  1
  S2-  S196  1  -0.01496772  0.60804782  0.45807484  1
  S2-  S197  1  -0.01668608  0.62481903  0.94934937  1
  S2-  S198  1  -0.01020335  0.85709224  0.45997254  1
  S2-  S199  1  -0.01909066  0.86578364  0.94973738  1
  S2-  S200  1  0.23600678  0.11130959  0.45599408  1
  S2-  S201  1  0.22811332  0.11534739  0.94990699  1
  S2-  S202  1  0.24233108  0.36101900  0.44335706  1
  S2-  S203  1  0.23832517  0.37660134  0.94707433  1
  S2-  S204  1  0.23967324  0.61159490  0.44972248  1
  S2-  S205  1  0.24473803  0.62257093  0.96742266  1
  S2-  S206  1  0.23615836  0.86433965  0.44955583  1
  S2-  S207  1  0.23219158  0.86994099  0.96327879  1
  S2-  S208  1  0.48842489  0.10662060  0.45676524  1
  S2-  S209  1  0.48482747  0.11402456  0.96118168  1
  S2-  S210  1  0.48623153  0.36112147  0.45871147  1
  S2-  S211  1  0.48429737  0.36727985  0.95805377  1
  S2-  S212  1  0.48813764  0.61779801  0.46030825  1
  S2-  S213  1  0.49059687  0.62590442  0.95244853  1
  S2-  S214  1  0.49115978  0.86492302  0.44476774  1
  S2-  S215  1  0.49192986  0.87040409  0.96242821  1
  S2-  S216  1  0.73922706  0.11130637  0.45759973  1
  S2-  S217  1  0.74301644  0.12291119  0.95895173  1
  S2-  S218  1  0.73405359  0.35981473  0.45181989  1
  S2-  S219  1  0.73397129  0.37310390  0.95900939  1
  S2-  S220  1  0.73966429  0.61804757  0.45809368  1
  S2-  S221  1  0.74116251  0.61829443  0.94539682  1
  S2-  S222  1  0.74418756  0.85862630  0.45636238  1
  S2-  S223  1  0.73832825  0.87064064  0.95719258  1
  S2-  S224  1  0.11005793  -0.00463656  0.04591576  1
  S2-  S225  1  0.11418891  -0.01107865  0.55298591  1
  S2-  S226  1  0.11527428  0.24449370  0.03789602  1
  S2-  S227  1  0.11780455  0.23425173  0.53744364  1
  S2-  S228  1  0.11505159  0.49455063  0.04668154  1
  S2-  S229  1  0.11630222  0.48395649  0.53465037  1
  S2-  S230  1  0.11096005  0.74685265  0.03793408  1
  S2-  S231  1  0.11352078  0.73874941  0.53770023  1
  S2-  S232  1  0.35737068  -0.00974341  0.04726529  1
  S2-  S233  1  0.36365025  -0.01761990  0.54208972  1
  S2-  S234  1  0.35903107  0.24398627  0.03720420  1
  S2-  S235  1  0.36570865  0.23811662  0.54067505  1
  S2-  S236  1  0.36551883  0.49559145  0.05381877  1
  S2-  S237  1  0.36013695  0.48870365  0.54372279  1
  S2-  S238  1  0.36528442  0.74852934  0.05011228  1
  S2-  S239  1  0.36565566  0.73565912  0.54887872  1
  S2-  S240  1  0.61491635  -0.00427603  0.04573175  1
  S2-  S241  1  0.61009604  -0.01821652  0.53544627  1
  S2-  S242  1  0.61628479  0.24628321  0.04382473  1
  S2-  S243  1  0.61212088  0.24030904  0.54029231  1
  S2-  S244  1  0.61194043  0.50147573  0.03493237  1
  S2-  S245  1  0.61906110  0.48906071  0.54119773  1
  S2-  S246  1  0.61500422  0.74542500  0.04566920  1
  S2-  S247  1  0.61342284  0.73802321  0.55254865  1
  S2-  S248  1  0.87151873  -0.00424622  0.04496165  1
  S2-  S249  1  0.86736473  -0.01278221  0.54972369  1
  S2-  S250  1  0.86109868  0.25231545  0.05822769  1
  S2-  S251  1  0.85996229  0.23906605  0.54823241  1
  S2-  S252  1  0.86860312  0.49208329  0.04838416  1
  S2-  S253  1  0.86158460  0.48405072  0.54292463  1
  S2-  S254  1  0.86537661  0.74412113  0.05221729  1
  S2-  S255  1  0.86719267  0.74061676  0.54464089  1
