# generated using pymatgen
data_La9Ce10Pr6Nd4Sm3(BiS2)32
_symmetry_space_group_name_H-M   'P 1'
_cell_length_a   16.16239076
_cell_length_b   16.22312041
_cell_length_c   27.21532759
_cell_angle_alpha   90.18781922
_cell_angle_beta   90.27740978
_cell_angle_gamma   90.10020143
_symmetry_Int_Tables_number   1
_chemical_formula_structural   La9Ce10Pr6Nd4Sm3(BiS2)32
_chemical_formula_sum   'La18 Ce20 Pr12 Nd8 Sm6 Bi64 S128'
_cell_volume   7135.84585570
_cell_formula_units_Z   2
loop_
 _symmetry_equiv_pos_site_id
 _symmetry_equiv_pos_as_xyz
  1  'x, y, z'
loop_
 _atom_type_symbol
 _atom_type_oxidation_number
  La3+  3.0
  Ce3+  3.0
  Pr3+  3.0
  Nd3+  3.0
  Sm3+  3.0
  Bi2+  2.0
  S2-  -2.0
loop_
 _atom_site_type_symbol
 _atom_site_label
 _atom_site_symmetry_multiplicity
 _atom_site_fract_x
 _atom_site_fract_y
 _atom_site_fract_z
 _atom_site_occupancy
  La3+  La0  1  0.35302234  0.02810762  0.92276485  1
  La3+  La1  1  0.37806351  0.48246518  0.43638911  1
  La3+  La2  1  -0.00337948  0.40320793  0.07855856  1
  La3+  La3  1  0.38497859  -0.00942401  0.43223235  1
  La3+  La4  1  0.50378335  0.60395462  0.56989644  1
  La3+  La5  1  0.87276313  0.22674309  0.41140704  1
  La3+  La6  1  0.13766172  0.22237465  0.41952862  1
  La3+  La7  1  0.86589226  0.49711471  0.41044395  1
  La3+  La8  1  0.63318710  -0.02012071  0.43743304  1
  La3+  La9  1  0.73554411  0.40179070  0.09582354  1
  La3+  La10  1  0.24096527  0.35957758  0.58880545  1
  La3+  La11  1  0.25939132  0.10624241  0.57321301  1
  La3+  La12  1  0.76032496  0.12086260  0.57619279  1
  La3+  La13  1  0.51123066  0.10944533  0.57171500  1
  La3+  La14  1  0.86450004  0.77200296  0.93684364  1
  La3+  La15  1  0.10209490  0.27664449  0.91752135  1
  La3+  La16  1  0.75806434  0.85370898  0.57851295  1
  La3+  La17  1  0.48680936  0.40496520  0.07125050  1
  Ce3+  Ce18  1  0.86386102  0.52084739  0.94816805  1
  Ce3+  Ce19  1  0.00834224  0.86048416  0.57092735  1
  Ce3+  Ce20  1  0.38291506  0.73844425  0.44104327  1
  Ce3+  Ce21  1  0.36350717  0.51818628  0.93172478  1
  Ce3+  Ce22  1  0.73822833  0.64625282  0.06387391  1
  Ce3+  Ce23  1  0.23684338  0.39776921  0.05099693  1
  Ce3+  Ce24  1  -0.01316647  0.89593741  0.06272362  1
  Ce3+  Ce25  1  0.37846499  0.23373804  0.45196924  1
  Ce3+  Ce26  1  0.00955785  0.60814593  0.54869137  1
  Ce3+  Ce27  1  0.12748134  0.48197250  0.43174097  1
  Ce3+  Ce28  1  0.86382465  0.02724555  0.93769550  1
  Ce3+  Ce29  1  0.13156267  0.74054910  0.44146628  1
  Ce3+  Ce30  1  -0.01184899  0.64933515  0.06293766  1
  Ce3+  Ce31  1  0.13181506  -0.02356099  0.43691607  1
  Ce3+  Ce32  1  0.23506609  0.15091910  0.05115305  1
  Ce3+  Ce33  1  0.60343726  0.02041803  0.93481155  1
  Ce3+  Ce34  1  0.63360817  0.23517035  0.44252269  1
  Ce3+  Ce35  1  0.74063904  0.14695242  0.06018098  1
  Ce3+  Ce36  1  0.62287181  0.73649558  0.43623115  1
  Ce3+  Ce37  1  0.73627964  0.89744360  0.05177367  1
  Pr3+  Pr38  1  0.23900223  0.91151203  0.06786182  1
  Pr3+  Pr39  1  0.23644972  0.64656887  0.05276689  1
  Pr3+  Pr40  1  0.48287391  0.65732468  0.06705651  1
  Pr3+  Pr41  1  0.61511788  0.27207152  0.94081783  1
  Pr3+  Pr42  1  0.37002123  0.27687294  0.92457334  1
  Pr3+  Pr43  1  0.48647671  0.14879271  0.06232690  1
  Pr3+  Pr44  1  0.87964512  -0.01526445  0.44597202  1
  Pr3+  Pr45  1  0.10393455  0.52248180  0.92620365  1
  Pr3+  Pr46  1  0.61176402  0.77043932  0.93863135  1
  Pr3+  Pr47  1  0.51052896  0.85658413  0.56973238  1
  Pr3+  Pr48  1  -0.01646000  0.14177604  0.07589006  1
  Pr3+  Pr49  1  0.87842277  0.73904274  0.44106350  1
  Nd3+  Nd50  1  0.26338254  0.86227998  0.57218427  1
  Nd3+  Nd51  1  0.76180397  0.36248519  0.55659926  1
  Nd3+  Nd52  1  0.11420875  0.77506547  0.94504535  1
  Nd3+  Nd53  1  0.86452388  0.27639827  0.95081710  1
  Nd3+  Nd54  1  0.36194425  0.77518318  0.94105381  1
  Nd3+  Nd55  1  0.10668218  0.02408529  0.93315707  1
  Nd3+  Nd56  1  0.48745448  0.90446725  0.06777995  1
  Nd3+  Nd57  1  0.00846601  0.35854604  0.54233095  1
  Sm3+  Sm58  1  0.01134289  0.11432870  0.55173796  1
  Sm3+  Sm59  1  0.61222298  0.52240022  0.94143333  1
  Sm3+  Sm60  1  0.50479411  0.36300644  0.55794631  1
  Sm3+  Sm61  1  0.25644394  0.61034542  0.55075603  1
  Sm3+  Sm62  1  0.62999127  0.48519977  0.44529811  1
  Sm3+  Sm63  1  0.76079811  0.60964901  0.55898174  1
  Bi2+  Bi64  1  -0.00383683  0.00337815  0.29430412  1
  Bi2+  Bi65  1  -0.00629663  0.15912189  0.79257316  1
  Bi2+  Bi66  1  0.04781841  0.38396270  0.28457476  1
  Bi2+  Bi67  1  -0.04039843  0.40295770  0.78293150  1
  Bi2+  Bi68  1  0.05519084  0.68309900  0.27319604  1
  Bi2+  Bi69  1  0.04737950  0.64853773  0.80266387  1
  Bi2+  Bi70  1  -0.07314387  0.81723750  0.31682585  1
  Bi2+  Bi71  1  -0.03776211  0.91454580  0.78260472  1
  Bi2+  Bi72  1  0.26366444  0.08657574  0.29160055  1
  Bi2+  Bi73  1  0.25189534  0.09640979  0.77737969  1
  Bi2+  Bi74  1  0.30262376  0.41661085  0.30260967  1
  Bi2+  Bi75  1  0.24268863  0.41160610  0.78080452  1
  Bi2+  Bi76  1  0.24985675  0.67770909  0.29279863  1
  Bi2+  Bi77  1  0.23298155  0.60422585  0.78522763  1
  Bi2+  Bi78  1  0.19550484  0.85675172  0.27543486  1
  Bi2+  Bi79  1  0.21200276  0.85098215  0.79422017  1
  Bi2+  Bi80  1  0.46146913  0.12901335  0.28717043  1
  Bi2+  Bi81  1  0.51716594  0.12944580  0.80606443  1
  Bi2+  Bi82  1  0.49120322  0.36036037  0.29342415  1
  Bi2+  Bi83  1  0.52624161  0.35329698  0.75329260  1
  Bi2+  Bi84  1  0.52564250  0.64081756  0.27372728  1
  Bi2+  Bi85  1  0.48754642  0.52314192  0.80943054  1
  Bi2+  Bi86  1  0.46687228  0.88177882  0.30623691  1
  Bi2+  Bi87  1  0.47376508  0.86323767  0.78673770  1
  Bi2+  Bi88  1  0.73449233  0.07561536  0.23766766  1
  Bi2+  Bi89  1  0.78479815  0.14154646  0.79789810  1
  Bi2+  Bi90  1  0.78180301  0.36226178  0.29582928  1
  Bi2+  Bi91  1  0.77592679  0.33749488  0.79181784  1
  Bi2+  Bi92  1  0.72050277  0.61813636  0.29094164  1
  Bi2+  Bi93  1  0.80669878  0.59828624  0.80021129  1
  Bi2+  Bi94  1  0.77244618  0.93919912  0.31887896  1
  Bi2+  Bi95  1  0.72260480  0.85932521  0.78911353  1
  Bi2+  Bi96  1  0.11506072  0.03755666  0.20352668  1
  Bi2+  Bi97  1  0.09792219  -0.01118161  0.71347767  1
  Bi2+  Bi98  1  0.24627035  0.26296988  0.23712120  1
  Bi2+  Bi99  1  0.10046836  0.25752736  0.70752467  1
  Bi2+  Bi100  1  0.16160192  0.55649313  0.20516760  1
  Bi2+  Bi101  1  0.08746967  0.51560082  0.72049731  1
  Bi2+  Bi102  1  -0.00418723  0.77339261  0.17825008  1
  Bi2+  Bi103  1  0.13813173  0.80540583  0.68283016  1
  Bi2+  Bi104  1  0.35427283  -0.02976012  0.19210796  1
  Bi2+  Bi105  1  0.36834522  -0.02280533  0.71423258  1
  Bi2+  Bi106  1  0.42527678  0.24594123  0.19391466  1
  Bi2+  Bi107  1  0.36428029  0.23921303  0.71466048  1
  Bi2+  Bi108  1  0.36905349  0.43560144  0.19290329  1
  Bi2+  Bi109  1  0.42259768  0.52186117  0.70053291  1
  Bi2+  Bi110  1  0.38046896  0.73171720  0.21503598  1
  Bi2+  Bi111  1  0.31373201  0.72995337  0.70766056  1
  Bi2+  Bi112  1  0.59109466  -0.04806591  0.21331220  1
  Bi2+  Bi113  1  0.60936262  -0.02578293  0.72228510  1
  Bi2+  Bi114  1  0.62410574  0.22744981  0.26223324  1
  Bi2+  Bi115  1  0.66603903  0.22929988  0.71349111  1
  Bi2+  Bi116  1  0.59447352  0.48662957  0.21375426  1
  Bi2+  Bi117  1  0.68587663  0.48564284  0.73720699  1
  Bi2+  Bi118  1  0.65762294  0.77147281  0.22983800  1
  Bi2+  Bi119  1  0.64189458  0.72475780  0.71708644  1
  Bi2+  Bi120  1  0.87656618  -0.08445485  0.21029550  1
  Bi2+  Bi121  1  0.81418603  -0.02055528  0.71317575  1
  Bi2+  Bi122  1  0.91687810  0.22529746  0.21147761  1
  Bi2+  Bi123  1  0.88214948  0.15998444  0.69423513  1
  Bi2+  Bi124  1  0.89399211  0.49495866  0.20637972  1
  Bi2+  Bi125  1  0.85730675  0.54368906  0.69320720  1
  Bi2+  Bi126  1  0.82349393  0.68641587  0.18977362  1
  Bi2+  Bi127  1  0.95854366  0.75228500  0.71544872  1
  S2-  S128  1  0.06265369  0.18019951  0.16631017  1
  S2-  S129  1  0.03762918  0.11856068  0.65080393  1
  S2-  S130  1  -0.00294459  0.36617604  0.18118208  1
  S2-  S131  1  0.07383485  0.36732587  0.63745734  1
  S2-  S132  1  0.01417232  0.55413756  0.14266576  1
  S2-  S133  1  0.00769063  0.60910153  0.64754517  1
  S2-  S134  1  -0.00906552  0.99562531  0.14228390  1
  S2-  S135  1  -0.10527540  0.86022876  0.64638411  1
  S2-  S136  1  0.25559338  0.06636357  0.13676244  1
  S2-  S137  1  0.22695148  0.21490510  0.65290486  1
  S2-  S138  1  0.21075880  0.41546913  0.14819664  1
  S2-  S139  1  0.31124793  0.39484165  0.68090296  1
  S2-  S140  1  0.26083724  0.64661871  0.15337735  1
  S2-  S141  1  0.28474068  0.59942088  0.64744151  1
  S2-  S142  1  0.23204238  0.86817423  0.16927908  1
  S2-  S143  1  0.23536181  0.98441562  0.64781570  1
  S2-  S144  1  0.49195589  0.03224747  0.13943069  1
  S2-  S145  1  0.41349748  0.11902581  0.65655308  1
  S2-  S146  1  0.59263446  0.36090113  0.15086342  1
  S2-  S147  1  0.52359310  0.41421487  0.65075238  1
  S2-  S148  1  0.47786831  0.54293212  0.14282906  1
  S2-  S149  1  0.52098571  0.66046060  0.66519605  1
  S2-  S150  1  0.47505051  0.78688581  0.14260174  1
  S2-  S151  1  0.39360109  0.85104491  0.64752382  1
  S2-  S152  1  0.81257676  0.13508968  0.14959392  1
  S2-  S153  1  0.63302452  0.10141566  0.64945670  1
  S2-  S154  1  0.79913528  0.35456490  0.19044331  1
  S2-  S155  1  0.78332514  0.27453128  0.64113047  1
  S2-  S156  1  0.72257609  0.55879122  0.14937218  1
  S2-  S157  1  0.75826442  0.67497837  0.65079437  1
  S2-  S158  1  0.72304393  0.89694353  0.14913434  1
  S2-  S159  1  0.62807769  0.85740344  0.64976474  1
  S2-  S160  1  0.12969441  0.07452172  0.35425987  1
  S2-  S161  1  0.21640714  -0.01020494  0.85473765  1
  S2-  S162  1  0.14647645  0.27349008  0.32037155  1
  S2-  S163  1  0.14653102  0.20388238  0.82241990  1
  S2-  S164  1  0.14989807  0.49319122  0.33508296  1
  S2-  S165  1  0.12186094  0.41109429  0.84690403  1
  S2-  S166  1  0.12087250  0.84798725  0.36596222  1
  S2-  S167  1  0.06791773  0.79837826  0.84980640  1
  S2-  S168  1  0.32295093  -0.07172661  0.34068001  1
  S2-  S169  1  0.48062912  -0.01586122  0.85782304  1
  S2-  S170  1  0.34988335  0.18499663  0.35983901  1
  S2-  S171  1  0.36327547  0.16134264  0.84706111  1
  S2-  S172  1  0.43767840  0.50476345  0.34244855  1
  S2-  S173  1  0.36736516  0.40968447  0.85333412  1
  S2-  S174  1  0.48474615  0.73275132  0.36240708  1
  S2-  S175  1  0.34748182  0.78374875  0.84112559  1
  S2-  S176  1  0.51895663  0.01277204  0.35832474  1
  S2-  S177  1  0.66567949  0.06371605  0.84683882  1
  S2-  S178  1  0.71381533  0.23223409  0.35550838  1
  S2-  S179  1  0.54481516  0.27297424  0.84813945  1
  S2-  S180  1  0.70151314  0.48014236  0.35559888  1
  S2-  S181  1  0.64866817  0.54027936  0.84398481  1
  S2-  S182  1  0.65909654  0.84658736  0.36464067  1
  S2-  S183  1  0.59188897  0.77227441  0.83743182  1
  S2-  S184  1  0.87677320  0.07043717  0.35577676  1
  S2-  S185  1  0.97481286  0.02408709  0.86164564  1
  S2-  S186  1  0.92388345  0.26944372  0.31441258  1
  S2-  S187  1  0.94463122  0.28310839  0.86126736  1
  S2-  S188  1  0.91127507  0.47754662  0.31272515  1
  S2-  S189  1  0.94047088  0.52437002  0.85974540  1
  S2-  S190  1  0.84881475  0.66738204  0.35012027  1
  S2-  S191  1  0.83186508  0.75026259  0.83824370  1
  S2-  S192  1  0.00610966  0.11059230  0.45042968  1
  S2-  S193  1  -0.01473028  0.15084811  0.96321183  1
  S2-  S194  1  0.00007105  0.36037845  0.43621790  1
  S2-  S195  1  -0.01155998  0.39934153  0.96524554  1
  S2-  S196  1  0.00620647  0.61124474  0.44174238  1
  S2-  S197  1  -0.01059548  0.65075323  0.95729228  1
  S2-  S198  1  0.00174421  0.85996971  0.46417276  1
  S2-  S199  1  -0.01292480  0.89625106  0.95828614  1
  S2-  S200  1  0.25815943  0.10397060  0.46218319  1
  S2-  S201  1  0.22944339  0.15732298  0.94775613  1
  S2-  S202  1  0.25315326  0.35728500  0.44317810  1
  S2-  S203  1  0.23564622  0.39573211  0.94861375  1
  S2-  S204  1  0.25480660  0.61227628  0.44530594  1
  S2-  S205  1  0.23666896  0.64687071  0.94369220  1
  S2-  S206  1  0.26045785  0.85785150  0.46282006  1
  S2-  S207  1  0.23646873  0.89601703  0.95915838  1
  S2-  S208  1  0.50900712  0.11667071  0.46344579  1
  S2-  S209  1  0.48740498  0.15110648  0.95602122  1
  S2-  S210  1  0.50829985  0.35981786  0.45222954  1
  S2-  S211  1  0.49278966  0.39969229  0.95885335  1
  S2-  S212  1  0.50536569  0.60377298  0.46072664  1
  S2-  S213  1  0.48640470  0.64632766  0.95273371  1
  S2-  S214  1  0.50341107  0.86103047  0.46301452  1
  S2-  S215  1  0.48774627  0.89017237  0.96181777  1
  S2-  S216  1  0.75284249  0.11048333  0.46250387  1
  S2-  S217  1  0.74118231  0.14985219  0.95459744  1
  S2-  S218  1  0.75762330  0.36320960  0.45296605  1
  S2-  S219  1  0.73756114  0.39953616  0.94792578  1
  S2-  S220  1  0.74881941  0.61255283  0.45626617  1
  S2-  S221  1  0.73727601  0.64606394  0.95517829  1
  S2-  S222  1  0.75941492  0.85859249  0.46842112  1
  S2-  S223  1  0.73678627  0.89860241  0.94486878  1
  S2-  S224  1  0.11089849  0.02510336  0.04009824  1
  S2-  S225  1  0.12661764  -0.01653485  0.54496535  1
  S2-  S226  1  0.11169057  0.27278741  0.04900823  1
  S2-  S227  1  0.13292208  0.23629118  0.53435545  1
  S2-  S228  1  0.11547840  0.52395965  0.03556334  1
  S2-  S229  1  0.13596073  0.48582269  0.53843014  1
  S2-  S230  1  0.11510308  0.77532807  0.05158270  1
  S2-  S231  1  0.13496253  0.73475472  0.54734524  1
  S2-  S232  1  0.36344137  0.02746113  0.03342108  1
  S2-  S233  1  0.38664884  -0.01517018  0.54591353  1
  S2-  S234  1  0.36383602  0.27451082  0.04425323  1
  S2-  S235  1  0.37962563  0.24600460  0.55548250  1
  S2-  S236  1  0.36060212  0.52536339  0.03780977  1
  S2-  S237  1  0.37404628  0.47906236  0.54565984  1
  S2-  S238  1  0.35549347  0.77773073  0.04568932  1
  S2-  S239  1  0.38047637  0.73009847  0.54587925  1
  S2-  S240  1  0.61639454  0.02521434  0.04153513  1
  S2-  S241  1  0.63665233  -0.01558101  0.54701886  1
  S2-  S242  1  0.61736765  0.27101669  0.04724914  1
  S2-  S243  1  0.63020433  0.24514410  0.54842554  1
  S2-  S244  1  0.61442682  0.52417285  0.04429181  1
  S2-  S245  1  0.63702572  0.48519392  0.55008727  1
  S2-  S246  1  0.61455670  0.77177916  0.04640171  1
  S2-  S247  1  0.63154265  0.72671264  0.54484966  1
  S2-  S248  1  0.85996930  0.01928532  0.04221952  1
  S2-  S249  1  0.88379565  -0.00598129  0.55269439  1
  S2-  S250  1  0.86098974  0.27976720  0.05654194  1
  S2-  S251  1  0.88731617  0.23602545  0.53637249  1
  S2-  S252  1  0.86064179  0.52034125  0.05220816  1
  S2-  S253  1  0.88346744  0.48631166  0.53989873  1
  S2-  S254  1  0.86105449  0.77236177  0.04659926  1
  S2-  S255  1  0.88593937  0.72958871  0.54691786  1
