# generated using pymatgen
data_La9Ce10Pr6Nd4Sm3(BiS2)32
_symmetry_space_group_name_H-M   'P 1'
_cell_length_a   16.16969587
_cell_length_b   16.20020102
_cell_length_c   27.22802746
_cell_angle_alpha   90.24491357
_cell_angle_beta   89.94364301
_cell_angle_gamma   90.00460107
_symmetry_Int_Tables_number   1
_chemical_formula_structural   La9Ce10Pr6Nd4Sm3(BiS2)32
_chemical_formula_sum   'La18 Ce20 Pr12 Nd8 Sm6 Bi64 S128'
_cell_volume   7132.37642928
_cell_formula_units_Z   2
loop_
 _symmetry_equiv_pos_site_id
 _symmetry_equiv_pos_as_xyz
  1  'x, y, z'
loop_
 _atom_type_symbol
 _atom_type_oxidation_number
  La3+  3.0
  Ce3+  3.0
  Pr3+  3.0
  Nd3+  3.0
  Sm3+  3.0
  Bi2+  2.0
  S2-  -2.0
loop_
 _atom_site_type_symbol
 _atom_site_label
 _atom_site_symmetry_multiplicity
 _atom_site_fract_x
 _atom_site_fract_y
 _atom_site_fract_z
 _atom_site_occupancy
  La3+  La0  1  0.26813730  0.61651040  0.60635586  1
  La3+  La1  1  0.34752427  0.50763619  0.92700516  1
  La3+  La2  1  0.73445138  0.61941001  0.07630573  1
  La3+  La3  1  0.47662220  0.62184531  0.08696858  1
  La3+  La4  1  0.11987954  0.75847009  0.90881891  1
  La3+  La5  1  0.88017710  0.50346888  0.43557874  1
  La3+  La6  1  -0.02810016  0.13668831  0.09523216  1
  La3+  La7  1  0.25523424  0.87653310  0.56692042  1
  La3+  La8  1  0.22809635  0.88041108  0.07489039  1
  La3+  La9  1  0.37297753  0.74862645  0.41604974  1
  La3+  La10  1  0.87582130  0.00012386  0.43312922  1
  La3+  La11  1  0.75773667  0.13175850  0.57795300  1
  La3+  La12  1  0.63981306  0.74265353  0.40589500  1
  La3+  La13  1  0.25873696  0.12600225  0.57076890  1
  La3+  La14  1  0.75560538  0.38092514  0.56637609  1
  La3+  La15  1  0.50369042  0.87070621  0.55380855  1
  La3+  La16  1  0.10003871  0.49350410  0.92241819  1
  La3+  La17  1  0.47912173  0.88689226  0.08670427  1
  Ce3+  Ce18  1  0.86259510  -0.00126107  0.94810764  1
  Ce3+  Ce19  1  0.60474084  0.75314461  0.95763813  1
  Ce3+  Ce20  1  0.23279740  0.62040093  0.06578030  1
  Ce3+  Ce21  1  0.48790692  0.12784247  0.05596442  1
  Ce3+  Ce22  1  0.50219134  0.37986266  0.55886766  1
  Ce3+  Ce23  1  0.13434301  0.75537154  0.44397559  1
  Ce3+  Ce24  1  0.00282277  0.12801666  0.55930093  1
  Ce3+  Ce25  1  0.50805520  0.12799356  0.56584112  1
  Ce3+  Ce26  1  0.00753510  0.37569773  0.55546458  1
  Ce3+  Ce27  1  0.35651516  -0.00309885  0.94582592  1
  Ce3+  Ce28  1  -0.01311211  0.87586627  0.06892272  1
  Ce3+  Ce29  1  0.75455125  0.62324356  0.56512698  1
  Ce3+  Ce30  1  0.35746220  0.75564427  0.94940556  1
  Ce3+  Ce31  1  0.60999983  0.24488743  0.93350883  1
  Ce3+  Ce32  1  0.50059232  0.62656691  0.55132894  1
  Ce3+  Ce33  1  0.73454955  0.87807912  0.06829413  1
  Ce3+  Ce34  1  0.13265719  0.01001228  0.42897243  1
  Ce3+  Ce35  1  0.48482126  0.37856478  0.05393844  1
  Ce3+  Ce36  1  0.38370799  0.25176860  0.44020585  1
  Ce3+  Ce37  1  0.73201195  0.12575354  0.05925628  1
  Pr3+  Pr38  1  0.85148311  0.50333215  0.92560248  1
  Pr3+  Pr39  1  0.87736292  0.24472747  0.42671592  1
  Pr3+  Pr40  1  0.25410536  0.37683881  0.55689049  1
  Pr3+  Pr41  1  0.38009995  0.50328133  0.43095804  1
  Pr3+  Pr42  1  0.87974186  0.75206512  0.44438936  1
  Pr3+  Pr43  1  0.35958439  0.24925599  0.94491408  1
  Pr3+  Pr44  1  0.75452257  0.87400027  0.56142434  1
  Pr3+  Pr45  1  0.38113422  0.00200210  0.43672185  1
  Pr3+  Pr46  1  0.12570547  0.25382392  0.42801368  1
  Pr3+  Pr47  1  0.13396495  0.50739291  0.44409530  1
  Pr3+  Pr48  1  0.60627804  0.50268291  0.93345756  1
  Pr3+  Pr49  1  -0.01453038  0.62146960  0.05471116  1
  Nd3+  Nd50  1  0.62881497  0.00063054  0.44150151  1
  Nd3+  Nd51  1  0.00651577  0.87803667  0.55860733  1
  Nd3+  Nd52  1  0.23458661  0.38072313  0.06203871  1
  Nd3+  Nd53  1  0.85786233  0.24853220  0.94107546  1
  Nd3+  Nd54  1  0.10373097  0.00173321  0.94396647  1
  Nd3+  Nd55  1  0.86006047  0.75140294  0.94901237  1
  Nd3+  Nd56  1  0.23017246  0.12965103  0.06032081  1
  Nd3+  Nd57  1  0.60797066  -0.01130397  0.93380540  1
  Sm3+  Sm58  1  -0.01880914  0.38254572  0.06213316  1
  Sm3+  Sm59  1  0.63535954  0.25027576  0.44231820  1
  Sm3+  Sm60  1  0.73145587  0.37838679  0.05418212  1
  Sm3+  Sm61  1  0.10678735  0.25224894  0.94653811  1
  Sm3+  Sm62  1  0.00834310  0.62789365  0.55934938  1
  Sm3+  Sm63  1  0.62885620  0.50226660  0.43701917  1
  Bi2+  Bi64  1  0.00395616  0.16677201  0.28680091  1
  Bi2+  Bi65  1  0.09850966  0.13476164  0.79576590  1
  Bi2+  Bi66  1  0.00731640  0.35288601  0.24752800  1
  Bi2+  Bi67  1  -0.00232146  0.33377546  0.79809557  1
  Bi2+  Bi68  1  -0.00433488  0.61009480  0.30130157  1
  Bi2+  Bi69  1  -0.06194429  0.55841900  0.75824841  1
  Bi2+  Bi70  1  -0.00129352  0.82433738  0.30441273  1
  Bi2+  Bi71  1  -0.01903399  0.87147324  0.80357329  1
  Bi2+  Bi72  1  0.25429004  0.15915544  0.27840454  1
  Bi2+  Bi73  1  0.29426211  0.12987138  0.79513173  1
  Bi2+  Bi74  1  0.29614597  0.39532775  0.29518277  1
  Bi2+  Bi75  1  0.26773806  0.39745479  0.80107674  1
  Bi2+  Bi76  1  0.22118153  0.61624545  0.29439880  1
  Bi2+  Bi77  1  0.31274688  0.62813573  0.78695992  1
  Bi2+  Bi78  1  0.27970240  0.89753507  0.30999321  1
  Bi2+  Bi79  1  0.26850329  0.89424421  0.80062186  1
  Bi2+  Bi80  1  0.53303991  0.18091277  0.26571208  1
  Bi2+  Bi81  1  0.49795508  0.11702000  0.76758814  1
  Bi2+  Bi82  1  0.53951440  0.33213965  0.33692932  1
  Bi2+  Bi83  1  0.49007366  0.31357776  0.76492983  1
  Bi2+  Bi84  1  0.47532265  0.49753614  0.29709553  1
  Bi2+  Bi85  1  0.52532423  0.65330274  0.78070346  1
  Bi2+  Bi86  1  0.52662411  0.93611800  0.28758770  1
  Bi2+  Bi87  1  0.48560480  0.84654840  0.79250955  1
  Bi2+  Bi88  1  0.75474064  0.12053819  0.28570095  1
  Bi2+  Bi89  1  0.80445845  0.06798294  0.78030898  1
  Bi2+  Bi90  1  0.71876770  0.35497746  0.28556060  1
  Bi2+  Bi91  1  0.74512196  0.36787164  0.79281337  1
  Bi2+  Bi92  1  0.75797702  0.60779383  0.28691122  1
  Bi2+  Bi93  1  0.77363079  0.64552410  0.80010891  1
  Bi2+  Bi94  1  0.78486489  0.89050037  0.30926916  1
  Bi2+  Bi95  1  0.72714337  0.90145481  0.81076441  1
  Bi2+  Bi96  1  0.12131086  -0.01412105  0.22491627  1
  Bi2+  Bi97  1  0.10184435  0.00032869  0.71326901  1
  Bi2+  Bi98  1  0.18907294  0.30693204  0.21113408  1
  Bi2+  Bi99  1  0.11903234  0.18584564  0.67129195  1
  Bi2+  Bi100  1  0.09646505  0.58477159  0.20106889  1
  Bi2+  Bi101  1  0.14670852  0.37148604  0.71096399  1
  Bi2+  Bi102  1  0.14486861  0.76966624  0.22500967  1
  Bi2+  Bi103  1  0.11474157  0.74225741  0.71169782  1
  Bi2+  Bi104  1  0.35292034  0.02016577  0.20557358  1
  Bi2+  Bi105  1  0.35760391  0.00684098  0.70880323  1
  Bi2+  Bi106  1  0.38246871  0.27149419  0.20673233  1
  Bi2+  Bi107  1  0.29988530  0.24913600  0.69767448  1
  Bi2+  Bi108  1  0.34201168  0.49980498  0.20235833  1
  Bi2+  Bi109  1  0.43283069  0.46804779  0.69979246  1
  Bi2+  Bi110  1  0.40850898  0.75024073  0.21484664  1
  Bi2+  Bi111  1  0.39739607  0.75813189  0.70433700  1
  Bi2+  Bi112  1  0.65427223  0.09547030  0.18813681  1
  Bi2+  Bi113  1  0.59170342  -0.02287974  0.71270007  1
  Bi2+  Bi114  1  0.56977296  0.26650848  0.16177299  1
  Bi2+  Bi115  1  0.64887403  0.23569910  0.71227276  1
  Bi2+  Bi116  1  0.60552710  0.44283493  0.21150806  1
  Bi2+  Bi117  1  0.64766344  0.52563799  0.72494379  1
  Bi2+  Bi118  1  0.66075399  0.77193714  0.20945965  1
  Bi2+  Bi119  1  0.66607629  0.71890161  0.70923173  1
  Bi2+  Bi120  1  0.89123520  -0.07712477  0.22085846  1
  Bi2+  Bi121  1  0.86188728  -0.08701983  0.70940244  1
  Bi2+  Bi122  1  0.83650059  0.29199076  0.20546695  1
  Bi2+  Bi123  1  0.94267791  0.17478797  0.72754632  1
  Bi2+  Bi124  1  0.85586748  0.50602200  0.20424686  1
  Bi2+  Bi125  1  0.85097949  0.40964651  0.70326777  1
  Bi2+  Bi126  1  0.94200130  0.72933488  0.20676664  1
  Bi2+  Bi127  1  0.86425594  0.71420396  0.70253380  1
  S2-  S128  1  -0.00016301  0.07539839  0.19202295  1
  S2-  S129  1  -0.09936835  0.10768140  0.63834345  1
  S2-  S130  1  -0.01543658  0.28938843  0.14733624  1
  S2-  S131  1  0.00280165  0.39133514  0.65308808  1
  S2-  S132  1  -0.02745921  0.51018186  0.13404692  1
  S2-  S133  1  0.00586641  0.64008721  0.65784319  1
  S2-  S134  1  0.09685334  0.88294343  0.14753867  1
  S2-  S135  1  0.02980222  0.87865788  0.65891387  1
  S2-  S136  1  0.22482783  0.07912811  0.15619550  1
  S2-  S137  1  0.23398558  -0.00435276  0.64322226  1
  S2-  S138  1  0.20805163  0.49041761  0.13758514  1
  S2-  S139  1  0.28585742  0.44664313  0.64819189  1
  S2-  S140  1  0.33481190  0.65014920  0.15077983  1
  S2-  S141  1  0.20561947  0.61171329  0.70818478  1
  S2-  S142  1  0.33734643  0.87480200  0.15522044  1
  S2-  S143  1  0.25417311  0.77722143  0.65232201  1
  S2-  S144  1  0.48421408  0.05081918  0.14272389  1
  S2-  S145  1  0.39469015  0.13999818  0.64239114  1
  S2-  S146  1  0.47663443  0.46582321  0.13908421  1
  S2-  S147  1  0.53913291  0.35890763  0.65422436  1
  S2-  S148  1  0.54608430  0.66186205  0.18244458  1
  S2-  S149  1  0.43630407  0.61692555  0.64359383  1
  S2-  S150  1  0.53263459  0.86568077  0.18866341  1
  S2-  S151  1  0.47122495  0.89542304  0.65283877  1
  S2-  S152  1  0.80824098  0.14327703  0.14712347  1
  S2-  S153  1  0.61926224  0.11157923  0.64425278  1
  S2-  S154  1  0.72865396  0.47239890  0.13731415  1
  S2-  S155  1  0.76628407  0.27575235  0.64760893  1
  S2-  S156  1  0.78537082  0.66567020  0.17310584  1
  S2-  S157  1  0.75053777  0.51225254  0.64127425  1
  S2-  S158  1  0.74686082  0.90476851  0.16541654  1
  S2-  S159  1  0.71374957  0.89394047  0.65986524  1
  S2-  S160  1  0.11019731  -0.05562777  0.33546808  1
  S2-  S161  1  0.12881030  -0.08286218  0.85652163  1
  S2-  S162  1  0.13593098  0.13815547  0.35287581  1
  S2-  S163  1  0.12361177  0.33388164  0.85961983  1
  S2-  S164  1  0.11299702  0.50675607  0.34309829  1
  S2-  S165  1  0.20972925  0.53712962  0.84836638  1
  S2-  S166  1  0.21643939  0.75488602  0.35752733  1
  S2-  S167  1  0.06089245  0.73021842  0.81142811  1
  S2-  S168  1  0.39293937  0.01851974  0.33566722  1
  S2-  S169  1  0.40532202  -0.04213643  0.85451093  1
  S2-  S170  1  0.33159555  0.24620844  0.34718270  1
  S2-  S171  1  0.35558705  0.26908410  0.84528830  1
  S2-  S172  1  0.37439559  0.60522814  0.34862545  1
  S2-  S173  1  0.40474204  0.49482371  0.82984820  1
  S2-  S174  1  0.41693911  0.80769570  0.31758815  1
  S2-  S175  1  0.28320164  0.75556074  0.85767196  1
  S2-  S176  1  0.65427963  0.01363362  0.34275344  1
  S2-  S177  1  0.66062291  0.04870284  0.84330299  1
  S2-  S178  1  0.74081592  0.23866279  0.36101833  1
  S2-  S179  1  0.60253903  0.30161370  0.84117294  1
  S2-  S180  1  0.63603263  0.58951135  0.35023100  1
  S2-  S181  1  0.71978178  0.50909921  0.85672113  1
  S2-  S182  1  0.62426501  0.81153552  0.31195423  1
  S2-  S183  1  0.60521447  0.83723601  0.87089032  1
  S2-  S184  1  0.88957320  0.08852962  0.34679012  1
  S2-  S185  1  0.91364282  0.01435660  0.85492242  1
  S2-  S186  1  0.98526759  0.29083243  0.34822515  1
  S2-  S187  1  0.85009153  0.26555101  0.84159164  1
  S2-  S188  1  0.86180015  0.50561822  0.33508832  1
  S2-  S189  1  0.96765784  0.49566080  0.84856531  1
  S2-  S190  1  0.80477191  0.73842762  0.35305071  1
  S2-  S191  1  0.85025553  0.78673541  0.85102420  1
  S2-  S192  1  0.00331758  0.12642993  0.45355345  1
  S2-  S193  1  -0.01485969  0.13049357  0.95641654  1
  S2-  S194  1  0.00688403  0.38207904  0.45154056  1
  S2-  S195  1  -0.02147962  0.37069414  0.95691590  1
  S2-  S196  1  0.00635183  0.63057284  0.45296822  1
  S2-  S197  1  -0.01206883  0.63408209  0.94802323  1
  S2-  S198  1  0.00468077  0.87751554  0.45149747  1
  S2-  S199  1  -0.01119929  0.87152457  0.96152674  1
  S2-  S200  1  0.25928215  0.12910660  0.45733412  1
  S2-  S201  1  0.22996322  0.12646131  0.95264899  1
  S2-  S202  1  0.25432344  0.37701376  0.44920482  1
  S2-  S203  1  0.23592403  0.37282739  0.95734415  1
  S2-  S204  1  0.25503531  0.62746243  0.45396630  1
  S2-  S205  1  0.22903798  0.63501139  0.95887314  1
  S2-  S206  1  0.25533786  0.88262471  0.45557192  1
  S2-  S207  1  0.23034241  0.87875415  0.96587089  1
  S2-  S208  1  0.50873110  0.12871552  0.45158098  1
  S2-  S209  1  0.48541138  0.12112536  0.94753400  1
  S2-  S210  1  0.50667287  0.37893752  0.45280957  1
  S2-  S211  1  0.48351165  0.37673521  0.94769769  1
  S2-  S212  1  0.50770489  0.63009722  0.44770010  1
  S2-  S213  1  0.48289422  0.63016244  0.94387687  1
  S2-  S214  1  0.50802841  0.86962042  0.44399744  1
  S2-  S215  1  0.48014871  0.87742771  0.97139538  1
  S2-  S216  1  0.75206062  0.12273821  0.46264071  1
  S2-  S217  1  0.73559876  0.12207551  0.95323054  1
  S2-  S218  1  0.75227654  0.38178799  0.45394680  1
  S2-  S219  1  0.73133611  0.37282996  0.95129314  1
  S2-  S220  1  0.75364592  0.62576501  0.45896750  1
  S2-  S221  1  0.73164707  0.63146645  0.96134354  1
  S2-  S222  1  0.74927115  0.87217370  0.45346302  1
  S2-  S223  1  0.73736384  0.87610476  0.96381877  1
  S2-  S224  1  0.09873397  0.01427855  0.05014427  1
  S2-  S225  1  0.12460517  0.00470967  0.53951911  1
  S2-  S226  1  0.10874661  0.25535174  0.05061224  1
  S2-  S227  1  0.13113716  0.25190879  0.53992093  1
  S2-  S228  1  0.10682103  0.49674681  0.03245821  1
  S2-  S229  1  0.13307806  0.50781944  0.55223969  1
  S2-  S230  1  0.10887533  0.74474184  0.05699137  1
  S2-  S231  1  0.12811796  0.74996619  0.54945599  1
  S2-  S232  1  0.35437700  0.00834655  0.04851179  1
  S2-  S233  1  0.38445887  0.00154102  0.54233555  1
  S2-  S234  1  0.35806927  0.25189838  0.05231866  1
  S2-  S235  1  0.38173163  0.25599655  0.54422610  1
  S2-  S236  1  0.35914193  0.50124787  0.03685973  1
  S2-  S237  1  0.37821727  0.50174110  0.53828537  1
  S2-  S238  1  0.36093667  0.75188851  0.05119866  1
  S2-  S239  1  0.37719930  0.74840388  0.54156187  1
  S2-  S240  1  0.61169996  0.00036592  0.04479089  1
  S2-  S241  1  0.63042414  -0.00356566  0.54526674  1
  S2-  S242  1  0.61133217  0.25239252  0.03905259  1
  S2-  S243  1  0.62821309  0.25620029  0.54406224  1
  S2-  S244  1  0.60499754  0.50448082  0.03896315  1
  S2-  S245  1  0.62505813  0.50283674  0.54180337  1
  S2-  S246  1  0.60785145  0.75046086  0.06291499  1
  S2-  S247  1  0.63073284  0.74570094  0.55457862  1
  S2-  S248  1  0.86198750  0.00179671  0.05479103  1
  S2-  S249  1  0.87860283  -0.00537365  0.54109767  1
  S2-  S250  1  0.85530889  0.25723454  0.04581746  1
  S2-  S251  1  0.88382570  0.25531102  0.53743112  1
  S2-  S252  1  0.85518720  0.49915472  0.03323377  1
  S2-  S253  1  0.88666750  0.50448360  0.54386239  1
  S2-  S254  1  0.86080141  0.75008760  0.05595559  1
  S2-  S255  1  0.88171931  0.75004003  0.55159341  1
