# generated using pymatgen
data_La9Ce10Pr6Nd4Sm3(BiS2)32
_symmetry_space_group_name_H-M   'P 1'
_cell_length_a   16.23635987
_cell_length_b   16.25738788
_cell_length_c   27.06611923
_cell_angle_alpha   90.17204057
_cell_angle_beta   90.07427434
_cell_angle_gamma   90.00770409
_symmetry_Int_Tables_number   1
_chemical_formula_structural   La9Ce10Pr6Nd4Sm3(BiS2)32
_chemical_formula_sum   'La18 Ce20 Pr12 Nd8 Sm6 Bi64 S128'
_cell_volume   7144.35620872
_cell_formula_units_Z   2
loop_
 _symmetry_equiv_pos_site_id
 _symmetry_equiv_pos_as_xyz
  1  'x, y, z'
loop_
 _atom_type_symbol
 _atom_type_oxidation_number
  La3+  3.0
  Ce3+  3.0
  Pr3+  3.0
  Nd3+  3.0
  Sm3+  3.0
  Bi2+  2.0
  S2-  -2.0
loop_
 _atom_site_type_symbol
 _atom_site_label
 _atom_site_symmetry_multiplicity
 _atom_site_fract_x
 _atom_site_fract_y
 _atom_site_fract_z
 _atom_site_occupancy
  La3+  La0  1  0.00016560  0.88556624  0.07885631  1
  La3+  La1  1  0.00953471  0.88207283  0.57374785  1
  La3+  La2  1  0.24249951  0.88301687  0.06233174  1
  La3+  La3  1  0.61457774  0.51000390  0.93401685  1
  La3+  La4  1  0.12623302  -0.00146446  0.41540674  1
  La3+  La5  1  0.86576925  0.50401910  0.92218137  1
  La3+  La6  1  0.38744830  0.74516838  0.42126453  1
  La3+  La7  1  0.63684193  0.48821371  0.41697016  1
  La3+  La8  1  0.62583222  -0.00823050  0.43255090  1
  La3+  La9  1  0.62483902  0.00146309  0.92684943  1
  La3+  La10  1  0.13296023  0.76748959  0.89038843  1
  La3+  La11  1  0.11396962  0.01401220  0.92787441  1
  La3+  La12  1  -0.00375077  0.61376854  0.58119768  1
  La3+  La13  1  0.12327190  0.73702104  0.42652147  1
  La3+  La14  1  0.23935957  0.62778571  0.07373489  1
  La3+  La15  1  0.74826706  0.89061284  0.07375626  1
  La3+  La16  1  0.50138898  0.39054269  0.08592652  1
  La3+  La17  1  0.49631885  0.64328401  0.07902410  1
  Ce3+  Ce18  1  0.00342190  0.12264681  0.55099861  1
  Ce3+  Ce19  1  -0.00072299  0.13410024  0.06930989  1
  Ce3+  Ce20  1  0.75239054  0.87076556  0.55602002  1
  Ce3+  Ce21  1  0.62405762  0.75760590  0.94772747  1
  Ce3+  Ce22  1  0.87158710  0.25658273  0.94193038  1
  Ce3+  Ce23  1  0.37604976  -0.00481899  0.44235302  1
  Ce3+  Ce24  1  0.88542933  0.75881579  0.94725016  1
  Ce3+  Ce25  1  0.24522455  0.13491721  0.05870578  1
  Ce3+  Ce26  1  0.75008242  0.63136723  0.05720667  1
  Ce3+  Ce27  1  0.74919382  0.13168485  0.05290530  1
  Ce3+  Ce28  1  0.87659569  0.00477322  0.94360390  1
  Ce3+  Ce29  1  0.62869075  0.74077553  0.44188413  1
  Ce3+  Ce30  1  -0.00419475  0.38188702  0.04836185  1
  Ce3+  Ce31  1  0.37516537  0.25901935  0.94825782  1
  Ce3+  Ce32  1  0.12478640  0.51047230  0.93502441  1
  Ce3+  Ce33  1  0.00275285  0.37139806  0.55574639  1
  Ce3+  Ce34  1  0.87756256  0.24506929  0.44318038  1
  Ce3+  Ce35  1  0.62817201  0.24688989  0.43896367  1
  Ce3+  Ce36  1  0.50522200  0.37273250  0.56084792  1
  Ce3+  Ce37  1  0.25267747  0.86809160  0.54561598  1
  Pr3+  Pr38  1  0.74811152  0.38555499  0.06616322  1
  Pr3+  Pr39  1  0.12844505  0.24675157  0.43461399  1
  Pr3+  Pr40  1  0.25000307  0.11672807  0.56020780  1
  Pr3+  Pr41  1  0.37787705  0.24559793  0.44255018  1
  Pr3+  Pr42  1  0.50421510  0.11925700  0.55748834  1
  Pr3+  Pr43  1  0.49943599  0.88592573  0.05912147  1
  Pr3+  Pr44  1  0.75148728  0.61662733  0.56518332  1
  Pr3+  Pr45  1  -0.00261706  0.62891458  0.06347930  1
  Pr3+  Pr46  1  0.25185646  0.62283249  0.55554799  1
  Pr3+  Pr47  1  0.36997705  0.75437422  0.94317954  1
  Pr3+  Pr48  1  0.49972307  0.13272290  0.05875264  1
  Pr3+  Pr49  1  0.87602314  -0.00822546  0.43430245  1
  Nd3+  Nd50  1  0.25337446  0.37122033  0.56029663  1
  Nd3+  Nd51  1  0.62092526  0.25783243  0.94421547  1
  Nd3+  Nd52  1  0.88085153  0.74402814  0.44499833  1
  Nd3+  Nd53  1  0.12918727  0.49434062  0.43635735  1
  Nd3+  Nd54  1  0.36941648  0.00609071  0.94376926  1
  Nd3+  Nd55  1  0.50310212  0.86900672  0.56205737  1
  Nd3+  Nd56  1  0.88153800  0.49783455  0.43725094  1
  Nd3+  Nd57  1  0.37985839  0.49347548  0.43870448  1
  Sm3+  Sm58  1  0.37513168  0.50726350  0.95017367  1
  Sm3+  Sm59  1  0.12355624  0.25741940  0.93928430  1
  Sm3+  Sm60  1  0.50348141  0.61782625  0.55239600  1
  Sm3+  Sm61  1  0.75296933  0.11853344  0.55497769  1
  Sm3+  Sm62  1  0.75093424  0.37029944  0.55736805  1
  Sm3+  Sm63  1  0.24761852  0.38166311  0.06004871  1
  Bi2+  Bi64  1  -0.01422131  0.17676016  0.28526352  1
  Bi2+  Bi65  1  -0.01777210  0.12408161  0.78117329  1
  Bi2+  Bi66  1  0.00694619  0.37172211  0.30056631  1
  Bi2+  Bi67  1  0.02678860  0.38139371  0.77660698  1
  Bi2+  Bi68  1  -0.05456836  0.55435034  0.30704273  1
  Bi2+  Bi69  1  -0.00003814  0.63991224  0.78575760  1
  Bi2+  Bi70  1  -0.00470241  0.85223872  0.28121075  1
  Bi2+  Bi71  1  0.00837848  0.88566409  0.78545719  1
  Bi2+  Bi72  1  0.27429580  0.16557869  0.30030980  1
  Bi2+  Bi73  1  0.21325240  0.17779488  0.78127081  1
  Bi2+  Bi74  1  0.19466113  0.35183283  0.32236398  1
  Bi2+  Bi75  1  0.19527764  0.35601448  0.82920124  1
  Bi2+  Bi76  1  0.22603795  0.53805108  0.29720636  1
  Bi2+  Bi77  1  0.25940512  0.52536078  0.79492768  1
  Bi2+  Bi78  1  0.25040445  0.87549467  0.29665748  1
  Bi2+  Bi79  1  0.29187577  0.90893948  0.78335789  1
  Bi2+  Bi80  1  0.49715403  0.15364278  0.27998361  1
  Bi2+  Bi81  1  0.46505960  0.12377140  0.78819387  1
  Bi2+  Bi82  1  0.49826805  0.38809775  0.29333808  1
  Bi2+  Bi83  1  0.42742424  0.37928481  0.78631991  1
  Bi2+  Bi84  1  0.47461704  0.64019137  0.28890833  1
  Bi2+  Bi85  1  0.50690645  0.59221364  0.78786614  1
  Bi2+  Bi86  1  0.54047677  0.95496575  0.29168472  1
  Bi2+  Bi87  1  0.55138230  0.85400816  0.80379128  1
  Bi2+  Bi88  1  0.75894409  0.13742792  0.27028064  1
  Bi2+  Bi89  1  0.76834309  0.17511085  0.79117670  1
  Bi2+  Bi90  1  0.75139136  0.33445933  0.27664751  1
  Bi2+  Bi91  1  0.72525459  0.37078831  0.78881450  1
  Bi2+  Bi92  1  0.76414315  0.64135843  0.29438424  1
  Bi2+  Bi93  1  0.70519421  0.62522264  0.77715408  1
  Bi2+  Bi94  1  0.77509633  0.88491155  0.30493036  1
  Bi2+  Bi95  1  0.73492105  0.91894130  0.80669843  1
  Bi2+  Bi96  1  0.13445245  0.01336310  0.20635052  1
  Bi2+  Bi97  1  0.14555071  -0.00386355  0.68799181  1
  Bi2+  Bi98  1  0.07460217  0.25642051  0.19654890  1
  Bi2+  Bi99  1  0.07471005  0.23443682  0.70106792  1
  Bi2+  Bi100  1  0.09655983  0.49305996  0.21940890  1
  Bi2+  Bi101  1  0.13607681  0.49942179  0.70288401  1
  Bi2+  Bi102  1  0.15444173  0.74315898  0.20005349  1
  Bi2+  Bi103  1  0.17118866  0.75785573  0.68888704  1
  Bi2+  Bi104  1  0.36909422  0.02484671  0.24354548  1
  Bi2+  Bi105  1  0.40455613  0.00480068  0.70524145  1
  Bi2+  Bi106  1  0.27726235  0.29885049  0.21581770  1
  Bi2+  Bi107  1  0.33744388  0.25918025  0.71193119  1
  Bi2+  Bi108  1  0.35999842  0.50783145  0.20502682  1
  Bi2+  Bi109  1  0.37083998  0.50979273  0.69988574  1
  Bi2+  Bi110  1  0.39769751  0.77517552  0.22547737  1
  Bi2+  Bi111  1  0.39772603  0.75088730  0.76601699  1
  Bi2+  Bi112  1  0.60470366  -0.03625147  0.18470612  1
  Bi2+  Bi113  1  0.64499094  0.00696249  0.69086160  1
  Bi2+  Bi114  1  0.62300492  0.23290351  0.20822030  1
  Bi2+  Bi115  1  0.57919641  0.26963368  0.73890635  1
  Bi2+  Bi116  1  0.65201806  0.51304432  0.21142701  1
  Bi2+  Bi117  1  0.61544826  0.50848256  0.69507056  1
  Bi2+  Bi118  1  0.63216085  0.77609196  0.26439259  1
  Bi2+  Bi119  1  0.62602883  0.77103014  0.70584858  1
  Bi2+  Bi120  1  0.85108141  -0.01094539  0.20585701  1
  Bi2+  Bi121  1  0.83455267  0.02394985  0.72630369  1
  Bi2+  Bi122  1  0.88122108  0.21868717  0.18723262  1
  Bi2+  Bi123  1  0.88805021  0.27092997  0.71662189  1
  Bi2+  Bi124  1  0.84557904  0.41766087  0.18791977  1
  Bi2+  Bi125  1  0.86941128  0.49808363  0.70486431  1
  Bi2+  Bi126  1  0.87308612  0.60890283  0.20053216  1
  Bi2+  Bi127  1  0.80955497  0.77461537  0.74240011  1
  S2-  S128  1  -0.00044059  0.02441383  0.14810626  1
  S2-  S129  1  0.02039771  0.04416809  0.63550497  1
  S2-  S130  1  0.01172432  0.39859519  0.14564737  1
  S2-  S131  1  0.00340670  0.45479718  0.64142473  1
  S2-  S132  1  0.10165126  0.61935798  0.14647441  1
  S2-  S133  1  0.05394551  0.64370012  0.67836359  1
  S2-  S134  1  0.01601047  0.81398271  0.17844403  1
  S2-  S135  1  0.03501355  0.86008225  0.67538048  1
  S2-  S136  1  0.21737520  0.12503725  0.15564416  1
  S2-  S137  1  0.27609961  0.11099075  0.66064175  1
  S2-  S138  1  0.23294616  0.43994203  0.15288143  1
  S2-  S139  1  0.25456607  0.38131395  0.66058064  1
  S2-  S140  1  0.32238623  0.66402109  0.16264429  1
  S2-  S141  1  0.27511424  0.62366456  0.65631584  1
  S2-  S142  1  0.22677416  0.88885427  0.16434841  1
  S2-  S143  1  0.25926539  0.88782217  0.64324757  1
  S2-  S144  1  0.52179638  0.10861779  0.15781350  1
  S2-  S145  1  0.51761814  0.10652945  0.65815405  1
  S2-  S146  1  0.42450030  0.35210337  0.17936401  1
  S2-  S147  1  0.53184129  0.36409153  0.65795923  1
  S2-  S148  1  0.51163495  0.54612811  0.16141846  1
  S2-  S149  1  0.50757383  0.60846362  0.65105715  1
  S2-  S150  1  0.50048621  0.82159909  0.15386063  1
  S2-  S151  1  0.50474493  0.88439117  0.66206418  1
  S2-  S152  1  0.73563298  0.04660232  0.13807312  1
  S2-  S153  1  0.74378750  0.12050051  0.65386412  1
  S2-  S154  1  0.64242781  0.37661946  0.14798359  1
  S2-  S155  1  0.75385909  0.42127825  0.65232006  1
  S2-  S156  1  0.71642913  0.63432563  0.15426173  1
  S2-  S157  1  0.84991730  0.62515135  0.64807503  1
  S2-  S158  1  0.77957432  0.85621899  0.17384667  1
  S2-  S159  1  0.75071373  0.86477583  0.65388278  1
  S2-  S160  1  0.11578745  -0.03367926  0.31057754  1
  S2-  S161  1  0.14292758  -0.07401492  0.84150147  1
  S2-  S162  1  0.12750858  0.14668648  0.35169128  1
  S2-  S163  1  0.10926009  0.15412236  0.85931651  1
  S2-  S164  1  0.09711899  0.59552146  0.35895554  1
  S2-  S165  1  0.12845592  0.60213152  0.85190304  1
  S2-  S166  1  0.11860915  0.77948842  0.32464805  1
  S2-  S167  1  0.12445574  0.76176637  0.78103734  1
  S2-  S168  1  0.38270491  -0.03889430  0.34673715  1
  S2-  S169  1  0.36169860  0.01846732  0.84362801  1
  S2-  S170  1  0.41390745  0.26273426  0.34355190  1
  S2-  S171  1  0.39648568  0.24909286  0.85098151  1
  S2-  S172  1  0.38351925  0.48868109  0.33807244  1
  S2-  S173  1  0.47392252  0.49191090  0.86794863  1
  S2-  S174  1  0.33069170  0.72919061  0.32549170  1
  S2-  S175  1  0.30422757  0.75836720  0.84979338  1
  S2-  S176  1  0.68108485  0.02577157  0.33867140  1
  S2-  S177  1  0.58881348  0.02544247  0.82828449  1
  S2-  S178  1  0.62610385  0.33555770  0.35487066  1
  S2-  S179  1  0.62322694  0.26375677  0.84482352  1
  S2-  S180  1  0.58109243  0.52915448  0.32060355  1
  S2-  S181  1  0.72418886  0.49848505  0.85425354  1
  S2-  S182  1  0.54271205  0.75755869  0.35737689  1
  S2-  S183  1  0.58733663  0.70549002  0.85737826  1
  S2-  S184  1  0.90409393  -0.02110423  0.33406138  1
  S2-  S185  1  0.94695413  0.00209902  0.85445551  1
  S2-  S186  1  0.84907704  0.23692604  0.34644433  1
  S2-  S187  1  0.85804432  0.29021631  0.84660910  1
  S2-  S188  1  0.78763241  0.50041239  0.35324703  1
  S2-  S189  1  0.93757478  0.50926147  0.82654974  1
  S2-  S190  1  0.88364213  0.75879862  0.34309000  1
  S2-  S191  1  0.95663833  0.76473657  0.85605931  1
  S2-  S192  1  -0.00094157  0.11923203  0.44705283  1
  S2-  S193  1  -0.00682849  0.13826383  0.96150095  1
  S2-  S194  1  0.00294033  0.37113256  0.44879240  1
  S2-  S195  1  -0.00088341  0.38044531  0.94240880  1
  S2-  S196  1  -0.00068375  0.61880288  0.46515838  1
  S2-  S197  1  -0.00625289  0.62423042  0.95606740  1
  S2-  S198  1  0.00433233  0.87067626  0.44921409  1
  S2-  S199  1  0.00154398  0.88411818  0.96258617  1
  S2-  S200  1  0.25455493  0.12030162  0.45226993  1
  S2-  S201  1  0.25096771  0.13533217  0.95302597  1
  S2-  S202  1  0.25434930  0.37142795  0.45352008  1
  S2-  S203  1  0.25061708  0.38256027  0.95506115  1
  S2-  S204  1  0.25825706  0.62010793  0.44816287  1
  S2-  S205  1  0.25180007  0.62703862  0.96097260  1
  S2-  S206  1  0.25102465  0.86708951  0.43988759  1
  S2-  S207  1  0.24520386  0.88282400  0.95362716  1
  S2-  S208  1  0.50299130  0.12001642  0.44830885  1
  S2-  S209  1  0.49872062  0.12891130  0.95096836  1
  S2-  S210  1  0.50328709  0.37109922  0.45492190  1
  S2-  S211  1  0.49819389  0.37896644  0.96928472  1
  S2-  S212  1  0.50683169  0.61290820  0.44790843  1
  S2-  S213  1  0.49391443  0.63454887  0.96747688  1
  S2-  S214  1  0.50211699  0.87181241  0.45590438  1
  S2-  S215  1  0.49512603  0.88139701  0.95043062  1
  S2-  S216  1  0.75247926  0.11982116  0.45002959  1
  S2-  S217  1  0.74702038  0.13027009  0.94540988  1
  S2-  S218  1  0.75653023  0.36799100  0.45453820  1
  S2-  S219  1  0.74497490  0.37934654  0.95849891  1
  S2-  S220  1  0.75445389  0.62174353  0.45683237  1
  S2-  S221  1  0.75147720  0.63825201  0.95114381  1
  S2-  S222  1  0.75210034  0.86603923  0.44875534  1
  S2-  S223  1  0.75241068  0.87990392  0.95583531  1
  S2-  S224  1  0.12254051  0.01293476  0.04283600  1
  S2-  S225  1  0.13080124  -0.00486608  0.53056604  1
  S2-  S226  1  0.12345538  0.25987363  0.04547524  1
  S2-  S227  1  0.12959594  0.24665824  0.54540755  1
  S2-  S228  1  0.12212508  0.50041042  0.04147054  1
  S2-  S229  1  0.13099770  0.49488302  0.54335438  1
  S2-  S230  1  0.12003188  0.75883858  0.05570576  1
  S2-  S231  1  0.12529962  0.74667796  0.54529312  1
  S2-  S232  1  0.37238983  0.00847994  0.05152669  1
  S2-  S233  1  0.37943369  -0.00576912  0.54780632  1
  S2-  S234  1  0.37255564  0.25855677  0.05641030  1
  S2-  S235  1  0.37736107  0.24498052  0.55099105  1
  S2-  S236  1  0.37215184  0.50600371  0.05414827  1
  S2-  S237  1  0.37851979  0.49566423  0.54606462  1
  S2-  S238  1  0.37064862  0.76187097  0.05041955  1
  S2-  S239  1  0.38269936  0.74363267  0.54058046  1
  S2-  S240  1  0.62146811  0.00750857  0.03605974  1
  S2-  S241  1  0.62853385  -0.00493254  0.54298979  1
  S2-  S242  1  0.62502111  0.25386137  0.04999605  1
  S2-  S243  1  0.63084503  0.24390477  0.54770082  1
  S2-  S244  1  0.62348819  0.51330385  0.04529371  1
  S2-  S245  1  0.62874836  0.49499565  0.54146471  1
  S2-  S246  1  0.62677226  0.76179841  0.05280302  1
  S2-  S247  1  0.62649771  0.74281788  0.54935806  1
  S2-  S248  1  0.87514726  0.00924748  0.04675037  1
  S2-  S249  1  0.87562808  -0.00369069  0.54316666  1
  S2-  S250  1  0.87106715  0.25754868  0.04924169  1
  S2-  S251  1  0.87461686  0.24563028  0.55203596  1
  S2-  S252  1  0.87166530  0.50645986  0.04142836  1
  S2-  S253  1  0.87296689  0.49102476  0.54234513  1
  S2-  S254  1  0.87483790  0.75829848  0.05536400  1
  S2-  S255  1  0.88214640  0.75290359  0.55129976  1
