# generated using pymatgen
data_La9Ce10Pr6Nd4Sm3(BiS2)32
_symmetry_space_group_name_H-M   'P 1'
_cell_length_a   16.07931782
_cell_length_b   16.15997894
_cell_length_c   27.11043059
_cell_angle_alpha   89.90406929
_cell_angle_beta   89.97011074
_cell_angle_gamma   89.79591877
_symmetry_Int_Tables_number   1
_chemical_formula_structural   La9Ce10Pr6Nd4Sm3(BiS2)32
_chemical_formula_sum   'La18 Ce20 Pr12 Nd8 Sm6 Bi64 S128'
_cell_volume   7044.35775449
_cell_formula_units_Z   2
loop_
 _symmetry_equiv_pos_site_id
 _symmetry_equiv_pos_as_xyz
  1  'x, y, z'
loop_
 _atom_type_symbol
 _atom_type_oxidation_number
  La3+  3.0
  Ce3+  3.0
  Pr3+  3.0
  Nd3+  3.0
  Sm3+  3.0
  Bi2+  2.0
  S2-  -2.0
loop_
 _atom_site_type_symbol
 _atom_site_label
 _atom_site_symmetry_multiplicity
 _atom_site_fract_x
 _atom_site_fract_y
 _atom_site_fract_z
 _atom_site_occupancy
  La3+  La0  1  0.88959158  0.49787668  0.93783516  1
  La3+  La1  1  0.26018925  0.87753402  0.60629032  1
  La3+  La2  1  0.01546226  0.88189623  0.08672343  1
  La3+  La3  1  0.39269588  0.49488203  0.94252495  1
  La3+  La4  1  0.13343021  -0.01404229  0.91936665  1
  La3+  La5  1  0.39604046  0.51114717  0.41702171  1
  La3+  La6  1  0.51609374  0.36617391  0.07646974  1
  La3+  La7  1  0.89465453  0.74402214  0.41748879  1
  La3+  La8  1  0.51202622  0.12127885  0.05701359  1
  La3+  La9  1  0.89671369  0.24608446  0.93262988  1
  La3+  La10  1  0.64299086  0.24686238  0.90751410  1
  La3+  La11  1  0.88789959  0.00926827  0.41635490  1
  La3+  La12  1  0.38298832  -0.01582530  0.91660743  1
  La3+  La13  1  0.77239199  0.62470904  0.57479216  1
  La3+  La14  1  0.00888480  0.87920173  0.56540342  1
  La3+  La15  1  0.38916296  0.24702712  0.92943323  1
  La3+  La16  1  0.50525482  0.38939017  0.58402897  1
  La3+  La17  1  0.63610396  -0.00682307  0.92460351  1
  Ce3+  Ce18  1  0.26871941  0.37948180  0.54938862  1
  Ce3+  Ce19  1  0.13631994  0.00100413  0.44161492  1
  Ce3+  Ce20  1  0.13688290  0.75587835  0.44101282  1
  Ce3+  Ce21  1  0.27384645  0.12884240  0.57806966  1
  Ce3+  Ce22  1  0.51947016  0.12642889  0.57408242  1
  Ce3+  Ce23  1  0.76690249  0.38015189  0.56711754  1
  Ce3+  Ce24  1  0.64592224  0.49498610  0.93575093  1
  Ce3+  Ce25  1  0.26266936  0.37114349  0.06578425  1
  Ce3+  Ce26  1  0.76314184  0.12312813  0.05472814  1
  Ce3+  Ce27  1  0.88691713  0.25306643  0.43761314  1
  Ce3+  Ce28  1  0.88789698  0.50049102  0.43652749  1
  Ce3+  Ce29  1  0.38794830  0.74566682  0.94911783  1
  Ce3+  Ce30  1  0.01251997  0.62244605  0.07589852  1
  Ce3+  Ce31  1  0.77112063  0.87770304  0.55059441  1
  Ce3+  Ce32  1  0.63821825  0.75035120  0.94676869  1
  Ce3+  Ce33  1  0.26167511  0.62075075  0.07193599  1
  Ce3+  Ce34  1  0.63665601  0.50209267  0.44458776  1
  Ce3+  Ce35  1  0.89376469  -0.00492428  0.94389443  1
  Ce3+  Ce36  1  0.39363053  0.25295846  0.44305916  1
  Ce3+  Ce37  1  0.13390882  0.49802001  0.94105427  1
  Pr3+  Pr38  1  0.76772921  0.13201063  0.57520222  1
  Pr3+  Pr39  1  0.26172547  0.87528859  0.06853670  1
  Pr3+  Pr40  1  0.13733544  0.74512938  0.94560892  1
  Pr3+  Pr41  1  0.02095580  0.62713705  0.56319217  1
  Pr3+  Pr42  1  0.51323339  0.62059679  0.07672114  1
  Pr3+  Pr43  1  0.14319466  0.25086237  0.44140807  1
  Pr3+  Pr44  1  0.14051913  0.50339238  0.42905055  1
  Pr3+  Pr45  1  0.51741955  0.87695820  0.57205350  1
  Pr3+  Pr46  1  0.51190548  0.87612638  0.06892048  1
  Pr3+  Pr47  1  0.51270706  0.63394077  0.56444503  1
  Pr3+  Pr48  1  0.01777916  0.12646155  0.56163203  1
  Pr3+  Pr49  1  0.63039110  0.00297481  0.43684336  1
  Nd3+  Nd50  1  0.01469477  0.37162977  0.07058880  1
  Nd3+  Nd51  1  0.89017627  0.74970195  0.95134215  1
  Nd3+  Nd52  1  0.76226258  0.87498818  0.06653808  1
  Nd3+  Nd53  1  0.76558445  0.36850506  0.06525414  1
  Nd3+  Nd54  1  0.63748658  0.25321382  0.44999858  1
  Nd3+  Nd55  1  0.76276081  0.61925555  0.07430413  1
  Nd3+  Nd56  1  0.38921588  0.75438427  0.44227457  1
  Nd3+  Nd57  1  0.26331512  0.62716659  0.56008918  1
  Sm3+  Sm58  1  0.14339714  0.24673141  0.93438231  1
  Sm3+  Sm59  1  0.26511712  0.12027761  0.04820240  1
  Sm3+  Sm60  1  0.01917840  0.12185594  0.06075425  1
  Sm3+  Sm61  1  0.01751491  0.37663745  0.55399322  1
  Sm3+  Sm62  1  0.64174200  0.75448441  0.43989948  1
  Sm3+  Sm63  1  0.38896164  0.00164062  0.44881041  1
  Bi2+  Bi64  1  0.00619389  0.12775558  0.29014880  1
  Bi2+  Bi65  1  0.02314572  0.11861687  0.78691667  1
  Bi2+  Bi66  1  -0.10815352  0.37742055  0.31839421  1
  Bi2+  Bi67  1  -0.00573197  0.38154820  0.79193504  1
  Bi2+  Bi68  1  0.00311717  0.62053721  0.28391762  1
  Bi2+  Bi69  1  0.13129465  0.60636271  0.80752090  1
  Bi2+  Bi70  1  -0.02109514  0.86701912  0.29216737  1
  Bi2+  Bi71  1  -0.00500857  0.85729150  0.79435917  1
  Bi2+  Bi72  1  0.26548990  0.09361336  0.28580514  1
  Bi2+  Bi73  1  0.24047910  0.15073034  0.78554013  1
  Bi2+  Bi74  1  0.20334868  0.35549787  0.29231455  1
  Bi2+  Bi75  1  0.22927671  0.43400049  0.78562959  1
  Bi2+  Bi76  1  0.26495053  0.70259160  0.28660587  1
  Bi2+  Bi77  1  0.32670001  0.61749424  0.80000009  1
  Bi2+  Bi78  1  0.24739263  0.90018271  0.30148719  1
  Bi2+  Bi79  1  0.26006058  0.85351717  0.78979437  1
  Bi2+  Bi80  1  0.46027766  0.12254575  0.28573814  1
  Bi2+  Bi81  1  0.54176267  0.12616691  0.77332132  1
  Bi2+  Bi82  1  0.48901507  0.37484651  0.30233879  1
  Bi2+  Bi83  1  0.50141286  0.37447959  0.78169318  1
  Bi2+  Bi84  1  0.52431584  0.64322382  0.28484028  1
  Bi2+  Bi85  1  0.53595034  0.63568557  0.78716225  1
  Bi2+  Bi86  1  0.44612630  0.87008235  0.30652160  1
  Bi2+  Bi87  1  0.51415800  0.84734224  0.78634134  1
  Bi2+  Bi88  1  0.73147873  0.16596303  0.29040837  1
  Bi2+  Bi89  1  0.80838592  0.13628310  0.78500716  1
  Bi2+  Bi90  1  0.70618350  0.39899789  0.29349937  1
  Bi2+  Bi91  1  0.77168919  0.41697832  0.79471782  1
  Bi2+  Bi92  1  0.71268709  0.58914356  0.25595884  1
  Bi2+  Bi93  1  0.72231286  0.67206946  0.75451988  1
  Bi2+  Bi94  1  0.70517999  0.88361182  0.29388900  1
  Bi2+  Bi95  1  0.77728824  0.86076759  0.79705211  1
  Bi2+  Bi96  1  0.12539520  0.00774102  0.22079508  1
  Bi2+  Bi97  1  0.06406770  0.03171566  0.68698188  1
  Bi2+  Bi98  1  0.08112473  0.26366972  0.21489671  1
  Bi2+  Bi99  1  0.12856490  0.22334564  0.69368875  1
  Bi2+  Bi100  1  0.09802428  0.46792062  0.22237856  1
  Bi2+  Bi101  1  0.12645411  0.43689685  0.68616487  1
  Bi2+  Bi102  1  0.11698855  0.73541476  0.21751800  1
  Bi2+  Bi103  1  0.12375112  0.71591578  0.71016055  1
  Bi2+  Bi104  1  0.34562991  0.02071632  0.18495742  1
  Bi2+  Bi105  1  0.37890801  0.01993820  0.71964404  1
  Bi2+  Bi106  1  0.36827550  0.25217319  0.20610748  1
  Bi2+  Bi107  1  0.32624916  0.26457078  0.71472792  1
  Bi2+  Bi108  1  0.34644439  0.51139730  0.22042882  1
  Bi2+  Bi109  1  0.33598958  0.52089147  0.70069961  1
  Bi2+  Bi110  1  0.32574488  0.82061019  0.19596128  1
  Bi2+  Bi111  1  0.48097066  0.73386595  0.69121751  1
  Bi2+  Bi112  1  0.55702590  -0.02218718  0.23239069  1
  Bi2+  Bi113  1  0.64135293  -0.05742160  0.71446364  1
  Bi2+  Bi114  1  0.63503765  0.24045230  0.20496357  1
  Bi2+  Bi115  1  0.67274825  0.23113151  0.71746232  1
  Bi2+  Bi116  1  0.55984271  0.49160785  0.20386467  1
  Bi2+  Bi117  1  0.63286537  0.50953294  0.70999168  1
  Bi2+  Bi118  1  0.51512640  0.78382256  0.20246072  1
  Bi2+  Bi119  1  0.66243523  0.77012003  0.65746743  1
  Bi2+  Bi120  1  0.84694972  -0.00430013  0.19284561  1
  Bi2+  Bi121  1  0.83077125  -0.00941286  0.70824069  1
  Bi2+  Bi122  1  0.88396905  0.25636716  0.22448599  1
  Bi2+  Bi123  1  0.92272185  0.25924031  0.71069315  1
  Bi2+  Bi124  1  0.87506284  0.48078903  0.21967128  1
  Bi2+  Bi125  1  0.96539500  0.53248712  0.72269100  1
  Bi2+  Bi126  1  0.81685461  0.74028275  0.20960490  1
  Bi2+  Bi127  1  0.89216956  0.75868544  0.71553957  1
  S2-  S128  1  0.00124088  0.04378919  0.14982838  1
  S2-  S129  1  -0.08975351  0.10041048  0.64127880  1
  S2-  S130  1  -0.11246349  0.36264932  0.14276893  1
  S2-  S131  1  -0.03141974  0.39727808  0.64883255  1
  S2-  S132  1  -0.11289717  0.61885764  0.14952849  1
  S2-  S133  1  -0.08695484  0.63720506  0.64500041  1
  S2-  S134  1  -0.06514763  0.84181285  0.18090133  1
  S2-  S135  1  0.09419843  0.86913038  0.65573244  1
  S2-  S136  1  0.25927699  0.15163964  0.14689675  1
  S2-  S137  1  0.23725799  0.02595071  0.66041618  1
  S2-  S138  1  0.14455988  0.36955959  0.14108310  1
  S2-  S139  1  0.34180621  0.38215665  0.63950248  1
  S2-  S140  1  0.13706390  0.61680273  0.14838531  1
  S2-  S141  1  0.15041453  0.60643132  0.63777236  1
  S2-  S142  1  0.15560085  0.87812647  0.15320048  1
  S2-  S143  1  0.27409405  0.77159531  0.69371233  1
  S2-  S144  1  0.50587531  0.22159138  0.14493135  1
  S2-  S145  1  0.40698122  0.14656466  0.65144299  1
  S2-  S146  1  0.37174510  0.38510493  0.14919264  1
  S2-  S147  1  0.55805798  0.34397431  0.68126774  1
  S2-  S148  1  0.37812229  0.61564850  0.15018111  1
  S2-  S149  1  0.48570907  0.54321299  0.64982166  1
  S2-  S150  1  0.50862607  1.00496687  0.13824642  1
  S2-  S151  1  0.42277116  0.90237504  0.65806294  1
  S2-  S152  1  0.74411152  0.12037415  0.15423892  1
  S2-  S153  1  0.63814138  0.10327079  0.64885674  1
  S2-  S154  1  0.65534301  0.37549173  0.14709889  1
  S2-  S155  1  0.78400329  0.27159403  0.64538694  1
  S2-  S156  1  0.64041350  0.61589690  0.14994010  1
  S2-  S157  1  0.75206323  0.49289188  0.64441550  1
  S2-  S158  1  0.72814954  0.87453020  0.16591628  1
  S2-  S159  1  0.86817650  0.87226109  0.63369705  1
  S2-  S160  1  0.04211913  -0.00665877  0.35694567  1
  S2-  S161  1  0.25092418  -0.00612612  0.84104906  1
  S2-  S162  1  0.10638147  0.24859598  0.34251160  1
  S2-  S163  1  0.02683986  0.24922003  0.85800314  1
  S2-  S164  1  0.11955510  0.50658135  0.32810202  1
  S2-  S165  1  0.01879944  0.50635019  0.86430637  1
  S2-  S166  1  0.05094551  0.74986639  0.35524757  1
  S2-  S167  1  0.13289985  0.82899705  0.85469680  1
  S2-  S168  1  0.48591977  0.00273108  0.36679196  1
  S2-  S169  1  0.46402901  0.01061658  0.82359159  1
  S2-  S170  1  0.39090412  0.24794313  0.34399981  1
  S2-  S171  1  0.26029244  0.26391236  0.85580685  1
  S2-  S172  1  0.34394021  0.45812381  0.32009272  1
  S2-  S173  1  0.43106336  0.49698112  0.84319590  1
  S2-  S174  1  0.38734574  0.66490159  0.35479080  1
  S2-  S175  1  0.38169213  0.81566207  0.85867382  1
  S2-  S176  1  0.68640121  0.03326139  0.34152355  1
  S2-  S177  1  0.66346818  0.09874014  0.84295949  1
  S2-  S178  1  0.62568523  0.26660794  0.34831334  1
  S2-  S179  1  0.49083929  0.24729611  0.84263480  1
  S2-  S180  1  0.54967477  0.50736961  0.35817350  1
  S2-  S181  1  0.62700643  0.39625534  0.84873426  1
  S2-  S182  1  0.59853633  0.77293760  0.34459714  1
  S2-  S183  1  0.63758482  0.84527652  0.86128402  1
  S2-  S184  1  0.85661627  -0.02502108  0.29167910  1
  S2-  S185  1  0.98209314  -0.00758793  0.85766183  1
  S2-  S186  1  0.87751537  0.15714796  0.35614556  1
  S2-  S187  1  0.79734440  0.27216438  0.84801153  1
  S2-  S188  1  0.88824500  0.58882865  0.35375253  1
  S2-  S189  1  0.77372778  0.53173645  0.86089140  1
  S2-  S190  1  0.83307816  0.78445027  0.32100371  1
  S2-  S191  1  0.89751853  0.75278653  0.84928237  1
  S2-  S192  1  0.01650178  0.13041589  0.45544133  1
  S2-  S193  1  0.02070030  0.11747554  0.95713116  1
  S2-  S194  1  0.01674358  0.37703018  0.44823979  1
  S2-  S195  1  0.01910158  0.36997804  0.96344178  1
  S2-  S196  1  0.01932632  0.62384356  0.45576231  1
  S2-  S197  1  0.01174276  0.62658771  0.96606322  1
  S2-  S198  1  0.01144058  0.87769564  0.45631354  1
  S2-  S199  1  0.01395076  0.87147798  0.96722297  1
  S2-  S200  1  0.26749340  0.12527165  0.45272082  1
  S2-  S201  1  0.26195018  0.11561425  0.94566766  1
  S2-  S202  1  0.26769418  0.37922979  0.44315064  1
  S2-  S203  1  0.26043756  0.37682984  0.95665948  1
  S2-  S204  1  0.26097257  0.62955330  0.45288030  1
  S2-  S205  1  0.26315983  0.62073077  0.95716321  1
  S2-  S206  1  0.26570029  0.87960648  0.44267582  1
  S2-  S207  1  0.26142031  0.86943881  0.96072228  1
  S2-  S208  1  0.51274638  0.12917924  0.46468415  1
  S2-  S209  1  0.51242744  0.11622864  0.94713536  1
  S2-  S210  1  0.51262450  0.37901477  0.45907926  1
  S2-  S211  1  0.51747664  0.37125467  0.95756216  1
  S2-  S212  1  0.51810039  0.63547991  0.45806828  1
  S2-  S213  1  0.51693017  0.62426831  0.95671610  1
  S2-  S214  1  0.51352695  0.87241620  0.46406442  1
  S2-  S215  1  0.51025747  0.87067539  0.96118560  1
  S2-  S216  1  0.75944750  0.12915221  0.45942160  1
  S2-  S217  1  0.77017878  0.11927701  0.94930622  1
  S2-  S218  1  0.76223689  0.37775088  0.45491983  1
  S2-  S219  1  0.76685344  0.36889521  0.95853210  1
  S2-  S220  1  0.75935250  0.62768713  0.45328040  1
  S2-  S221  1  0.76286455  0.63005779  0.96657327  1
  S2-  S222  1  0.76472685  0.87874341  0.44282419  1
  S2-  S223  1  0.76670360  0.87480317  0.95925545  1
  S2-  S224  1  0.14073925  0.00079685  0.04415833  1
  S2-  S225  1  0.14603566  0.00290307  0.54681454  1
  S2-  S226  1  0.13985447  0.24198326  0.04023229  1
  S2-  S227  1  0.14448906  0.25317178  0.54951608  1
  S2-  S228  1  0.13707662  0.49921630  0.04457216  1
  S2-  S229  1  0.14117449  0.49688984  0.53648362  1
  S2-  S230  1  0.13660778  0.75019633  0.05114672  1
  S2-  S231  1  0.14563700  0.75929729  0.54663587  1
  S2-  S232  1  0.38370407  -0.00519599  0.03704832  1
  S2-  S233  1  0.38845434  0.00118529  0.55093808  1
  S2-  S234  1  0.38429378  0.24820970  0.03883629  1
  S2-  S235  1  0.39374829  0.25432953  0.54660740  1
  S2-  S236  1  0.38914424  0.49871116  0.04833826  1
  S2-  S237  1  0.38726239  0.50893639  0.53488467  1
  S2-  S238  1  0.38842628  0.74894473  0.05343220  1
  S2-  S239  1  0.38174855  0.75719159  0.55161871  1
  S2-  S240  1  0.64122779  -0.00404873  0.03899224  1
  S2-  S241  1  0.64186401  -0.00319947  0.54573559  1
  S2-  S242  1  0.64218157  0.24416078  0.04101647  1
  S2-  S243  1  0.63369061  0.26031417  0.55443568  1
  S2-  S244  1  0.63660701  0.49786252  0.04415390  1
  S2-  S245  1  0.63478987  0.50601771  0.54799512  1
  S2-  S246  1  0.63708165  0.75128318  0.05261614  1
  S2-  S247  1  0.64386191  0.75209095  0.54440108  1
  S2-  S248  1  0.88883153  -0.00174125  0.04886354  1
  S2-  S249  1  0.88862535  0.00636878  0.53215508  1
  S2-  S250  1  0.89461748  0.24008571  0.04384270  1
  S2-  S251  1  0.89540790  0.25467809  0.54201984  1
  S2-  S252  1  0.88912578  0.49762555  0.04623752  1
  S2-  S253  1  0.89594983  0.50020737  0.54097057  1
  S2-  S254  1  0.88911259  0.75366531  0.05644319  1
  S2-  S255  1  0.89008005  0.74707617  0.53354147  1
