# generated using pymatgen
data_La9Ce10Pr6Nd4Sm3(BiS2)32
_symmetry_space_group_name_H-M   'P 1'
_cell_length_a   16.26050435
_cell_length_b   16.26650052
_cell_length_c   27.09142626
_cell_angle_alpha   90.09480225
_cell_angle_beta   89.98195161
_cell_angle_gamma   90.01497202
_symmetry_Int_Tables_number   1
_chemical_formula_structural   La9Ce10Pr6Nd4Sm3(BiS2)32
_chemical_formula_sum   'La18 Ce20 Pr12 Nd8 Sm6 Bi64 S128'
_cell_volume   7165.71254344
_cell_formula_units_Z   2
loop_
 _symmetry_equiv_pos_site_id
 _symmetry_equiv_pos_as_xyz
  1  'x, y, z'
loop_
 _atom_type_symbol
 _atom_type_oxidation_number
  La3+  3.0
  Ce3+  3.0
  Pr3+  3.0
  Nd3+  3.0
  Sm3+  3.0
  Bi2+  2.0
  S2-  -2.0
loop_
 _atom_site_type_symbol
 _atom_site_label
 _atom_site_symmetry_multiplicity
 _atom_site_fract_x
 _atom_site_fract_y
 _atom_site_fract_z
 _atom_site_occupancy
  La3+  La0  1  0.01717397  0.38176642  0.08378633  1
  La3+  La1  1  0.00924440  0.12287779  0.06356787  1
  La3+  La2  1  0.76968373  0.87065792  0.08764221  1
  La3+  La3  1  0.62043560  0.25422322  0.43455008  1
  La3+  La4  1  0.62522215  0.75263902  0.43136302  1
  La3+  La5  1  0.76683460  0.12662053  0.08296590  1
  La3+  La6  1  0.63520262  -0.00346536  0.96087024  1
  La3+  La7  1  0.38218784  -0.00728556  0.92768250  1
  La3+  La8  1  0.63569014  -0.00412331  0.41619716  1
  La3+  La9  1  0.36407640  0.01152281  0.41556500  1
  La3+  La10  1  0.50571693  0.12776178  0.07318671  1
  La3+  La11  1  0.49793521  0.38737478  0.57400307  1
  La3+  La12  1  0.39500695  0.49648961  0.92697886  1
  La3+  La13  1  0.49517141  0.87234869  0.10629433  1
  La3+  La14  1  0.26431300  0.12098493  0.58140957  1
  La3+  La15  1  0.73816715  0.87241941  0.57527022  1
  La3+  La16  1  0.87494616  0.75434970  0.43784942  1
  La3+  La17  1  0.87248481  0.00672695  0.92573462  1
  Ce3+  Ce18  1  0.63452104  0.24732824  0.95057223  1
  Ce3+  Ce19  1  0.87145512  0.00400070  0.44454562  1
  Ce3+  Ce20  1  0.63512708  0.75234374  0.95091141  1
  Ce3+  Ce21  1  0.88649494  0.24844571  0.94701230  1
  Ce3+  Ce22  1  -0.00295880  0.62804816  0.55353572  1
  Ce3+  Ce23  1  0.38700509  0.75249931  0.93950558  1
  Ce3+  Ce24  1  0.13201061  0.75072199  0.93829544  1
  Ce3+  Ce25  1  0.24971881  0.62519758  0.56010042  1
  Ce3+  Ce26  1  0.25930139  0.87382344  0.05977402  1
  Ce3+  Ce27  1  0.38674251  0.24804438  0.94233330  1
  Ce3+  Ce28  1  0.13377710  0.24769274  0.94056213  1
  Ce3+  Ce29  1  0.25893966  0.11923262  0.05360335  1
  Ce3+  Ce30  1  0.74439233  0.12712843  0.55746457  1
  Ce3+  Ce31  1  0.74755766  0.62699508  0.55651742  1
  Ce3+  Ce32  1  0.88472039  0.49636310  0.94228402  1
  Ce3+  Ce33  1  0.62370506  0.50150822  0.43718359  1
  Ce3+  Ce34  1  0.50743747  0.62264283  0.06246837  1
  Ce3+  Ce35  1  0.49774518  0.62583646  0.54964947  1
  Ce3+  Ce36  1  0.50878304  0.37478092  0.07059333  1
  Ce3+  Ce37  1  0.00712321  0.87514046  0.05234305  1
  Pr3+  Pr38  1  0.75487708  0.62412062  0.06873837  1
  Pr3+  Pr39  1  0.25127653  0.87971122  0.55785340  1
  Pr3+  Pr40  1  0.13466996  -0.00802944  0.91237833  1
  Pr3+  Pr41  1  -0.00199562  0.37950658  0.56705026  1
  Pr3+  Pr42  1  0.12577887  0.25281645  0.44856284  1
  Pr3+  Pr43  1  0.12424244  0.75415284  0.44563308  1
  Pr3+  Pr44  1  0.24295834  0.38510518  0.58610351  1
  Pr3+  Pr45  1  0.13376248  0.49787387  0.93312024  1
  Pr3+  Pr46  1  0.37268811  0.49968566  0.43423819  1
  Pr3+  Pr47  1  -0.00147173  0.12705619  0.56382880  1
  Pr3+  Pr48  1  0.12203468  0.00796716  0.44100475  1
  Pr3+  Pr49  1  0.37104993  0.75389977  0.43775305  1
  Nd3+  Nd50  1  0.26179076  0.62446359  0.04779472  1
  Nd3+  Nd51  1  0.26048623  0.37546437  0.05600833  1
  Nd3+  Nd52  1  0.63835420  0.49906807  0.93934830  1
  Nd3+  Nd53  1  0.87393696  0.50037086  0.44087578  1
  Nd3+  Nd54  1  0.00979558  0.62338955  0.05709394  1
  Nd3+  Nd55  1  -0.00154733  0.87995485  0.56308192  1
  Nd3+  Nd56  1  0.88079118  0.75048951  0.93843497  1
  Nd3+  Nd57  1  0.87432705  0.25301504  0.44076803  1
  Sm3+  Sm58  1  0.49869658  0.12602954  0.55058372  1
  Sm3+  Sm59  1  0.12486933  0.50126004  0.43908559  1
  Sm3+  Sm60  1  0.75926504  0.37513256  0.05999560  1
  Sm3+  Sm61  1  0.37166486  0.25484102  0.44855318  1
  Sm3+  Sm62  1  0.49807969  0.88048563  0.54610002  1
  Sm3+  Sm63  1  0.74725402  0.37742676  0.55201215  1
  Bi2+  Bi64  1  0.02193226  0.08449689  0.30762317  1
  Bi2+  Bi65  1  -0.01271630  0.15391681  0.78981092  1
  Bi2+  Bi66  1  0.04424273  0.36000045  0.27900144  1
  Bi2+  Bi67  1  -0.06202539  0.41029063  0.81058612  1
  Bi2+  Bi68  1  0.02976002  0.62910239  0.26985902  1
  Bi2+  Bi69  1  0.05016433  0.63664760  0.78574053  1
  Bi2+  Bi70  1  0.03254226  0.89091535  0.30061631  1
  Bi2+  Bi71  1  -0.00098665  0.86298497  0.78999369  1
  Bi2+  Bi72  1  0.20580717  0.14764085  0.28842805  1
  Bi2+  Bi73  1  0.24326563  0.12497551  0.77460399  1
  Bi2+  Bi74  1  0.23668425  0.40840701  0.27805002  1
  Bi2+  Bi75  1  0.24043428  0.35983506  0.80096985  1
  Bi2+  Bi76  1  0.22429266  0.63511775  0.29145276  1
  Bi2+  Bi77  1  0.24735268  0.64345401  0.78412537  1
  Bi2+  Bi78  1  0.22314162  0.83184622  0.27766747  1
  Bi2+  Bi79  1  0.26079460  0.86948519  0.78544676  1
  Bi2+  Bi80  1  0.47198938  0.16448281  0.29772456  1
  Bi2+  Bi81  1  0.52104188  0.07114469  0.77650301  1
  Bi2+  Bi82  1  0.47927005  0.40302136  0.29025427  1
  Bi2+  Bi83  1  0.48957126  0.36398031  0.81005641  1
  Bi2+  Bi84  1  0.48774097  0.59262654  0.26739520  1
  Bi2+  Bi85  1  0.51267615  0.63086096  0.78161993  1
  Bi2+  Bi86  1  0.49059507  0.88262755  0.29770326  1
  Bi2+  Bi87  1  0.51404419  0.82978186  0.78665038  1
  Bi2+  Bi88  1  0.76049922  0.14998376  0.30406684  1
  Bi2+  Bi89  1  0.74258104  0.09096033  0.79808129  1
  Bi2+  Bi90  1  0.75108763  0.43102160  0.27714119  1
  Bi2+  Bi91  1  0.74813822  0.38748809  0.79629248  1
  Bi2+  Bi92  1  0.75821530  0.62223101  0.30492249  1
  Bi2+  Bi93  1  0.72357756  0.58866332  0.76963054  1
  Bi2+  Bi94  1  0.76767239  0.87475119  0.28528110  1
  Bi2+  Bi95  1  0.75276890  0.84852335  0.80315586  1
  Bi2+  Bi96  1  0.12015123  -0.01425753  0.21009114  1
  Bi2+  Bi97  1  0.11854231  0.00540844  0.69289482  1
  Bi2+  Bi98  1  0.12649656  0.23804106  0.19829129  1
  Bi2+  Bi99  1  0.06901808  0.31268057  0.74464769  1
  Bi2+  Bi100  1  0.15402201  0.52720637  0.19914838  1
  Bi2+  Bi101  1  0.12341160  0.51431457  0.70813087  1
  Bi2+  Bi102  1  0.09997967  0.79161423  0.18888719  1
  Bi2+  Bi103  1  0.15368810  0.76089069  0.71510961  1
  Bi2+  Bi104  1  0.33181497  0.01541065  0.20678719  1
  Bi2+  Bi105  1  0.41426824  -0.03625350  0.69868825  1
  Bi2+  Bi106  1  0.36877337  0.31337787  0.21288984  1
  Bi2+  Bi107  1  0.39640672  0.19706664  0.72506235  1
  Bi2+  Bi108  1  0.42151292  0.48807933  0.17438718  1
  Bi2+  Bi109  1  0.38705734  0.45767886  0.70071600  1
  Bi2+  Bi110  1  0.36519544  0.72063620  0.21074458  1
  Bi2+  Bi111  1  0.37706297  0.73133135  0.71615098  1
  Bi2+  Bi112  1  0.61540459  0.02362841  0.21746032  1
  Bi2+  Bi113  1  0.63806452  -0.00101890  0.69541244  1
  Bi2+  Bi114  1  0.62547336  0.30810401  0.20876550  1
  Bi2+  Bi115  1  0.64856095  0.23118548  0.75400246  1
  Bi2+  Bi116  1  0.61310408  0.49751964  0.16772190  1
  Bi2+  Bi117  1  0.61368326  0.47711085  0.70222794  1
  Bi2+  Bi118  1  0.64399877  0.66970530  0.21880530  1
  Bi2+  Bi119  1  0.60329170  0.73431552  0.70142311  1
  Bi2+  Bi120  1  0.91652624  -0.00384172  0.22392216  1
  Bi2+  Bi121  1  0.87669647  0.00750091  0.69692326  1
  Bi2+  Bi122  1  0.85248915  0.22823700  0.21726774  1
  Bi2+  Bi123  1  0.87066396  0.27653796  0.72577697  1
  Bi2+  Bi124  1  0.87171968  0.55000626  0.21436326  1
  Bi2+  Bi125  1  0.87594315  0.46322804  0.69457239  1
  Bi2+  Bi126  1  0.91507281  0.73816719  0.20162025  1
  Bi2+  Bi127  1  0.88120229  0.65295148  0.71571386  1
  S2-  S128  1  -0.09060530  0.11599092  0.14841633  1
  S2-  S129  1  -0.00436685  0.11629540  0.66430659  1
  S2-  S130  1  -0.02198655  0.31415398  0.17989506  1
  S2-  S131  1  0.09996992  0.37806558  0.64864437  1
  S2-  S132  1  0.00282248  0.53053183  0.14181841  1
  S2-  S133  1  0.00933625  0.61500905  0.65051066  1
  S2-  S134  1  -0.06838157  0.88036972  0.14000613  1
  S2-  S135  1  -0.00932124  0.89079063  0.66334698  1
  S2-  S136  1  0.25576161  0.13845453  0.15180035  1
  S2-  S137  1  0.19490854  0.14215922  0.67536212  1
  S2-  S138  1  0.17162959  0.37549991  0.14189197  1
  S2-  S139  1  0.31221724  0.32535589  0.67515976  1
  S2-  S140  1  0.25588533  0.63614259  0.14772218  1
  S2-  S141  1  0.25743890  0.53496667  0.64467229  1
  S2-  S142  1  0.33160453  0.87235562  0.15032900  1
  S2-  S143  1  0.26571327  0.95042646  0.64916054  1
  S2-  S144  1  0.47317586  0.03655344  0.15802939  1
  S2-  S145  1  0.41840953  0.11134588  0.63794019  1
  S2-  S146  1  0.49696292  0.26104506  0.14686578  1
  S2-  S147  1  0.51768485  0.34703421  0.67338033  1
  S2-  S148  1  0.49162867  0.70734451  0.14736794  1
  S2-  S149  1  0.49469778  0.54796845  0.63662811  1
  S2-  S150  1  0.55229823  0.86978166  0.20889151  1
  S2-  S151  1  0.54358544  0.87708011  0.64164640  1
  S2-  S152  1  0.69393937  0.15675836  0.17595615  1
  S2-  S153  1  0.75037456  0.10896007  0.65519501  1
  S2-  S154  1  0.77243195  0.34889902  0.15741078  1
  S2-  S155  1  0.73532040  0.39117298  0.64942987  1
  S2-  S156  1  0.76001072  0.72714510  0.15067655  1
  S2-  S157  1  0.73930869  0.69624525  0.64548681  1
  S2-  S158  1  0.74717016  0.94365164  0.18550313  1
  S2-  S159  1  0.77061040  0.89461108  0.67506696  1
  S2-  S160  1  0.21350794  0.02522317  0.35749847  1
  S2-  S161  1  0.05910681  0.01993111  0.81902710  1
  S2-  S162  1  0.10013327  0.23770069  0.34839646  1
  S2-  S163  1  0.13671875  0.23069931  0.84198345  1
  S2-  S164  1  0.09118878  0.46900928  0.34397011  1
  S2-  S165  1  0.13973167  0.48548870  0.83268971  1
  S2-  S166  1  0.09863418  0.73954857  0.34666267  1
  S2-  S167  1  0.13397531  0.83593901  0.85369026  1
  S2-  S168  1  0.39095785  0.01567550  0.31110936  1
  S2-  S169  1  0.27438541  0.01789769  0.84596860  1
  S2-  S170  1  0.35983879  0.23328656  0.35028839  1
  S2-  S171  1  0.37603849  0.25034343  0.84367949  1
  S2-  S172  1  0.32449400  0.51976463  0.33711803  1
  S2-  S173  1  0.35170206  0.46592018  0.82794772  1
  S2-  S174  1  0.36307214  0.78400635  0.33869080  1
  S2-  S175  1  0.38733548  0.84484208  0.85640364  1
  S2-  S176  1  0.58264908  0.03486837  0.32214348  1
  S2-  S177  1  0.68789197  -0.01857497  0.86367492  1
  S2-  S178  1  0.62558825  0.23496418  0.33368561  1
  S2-  S179  1  0.61065596  0.26136685  0.85319091  1
  S2-  S180  1  0.61590826  0.45685361  0.34271127  1
  S2-  S181  1  0.54382645  0.50144448  0.85631093  1
  S2-  S182  1  0.63935193  0.84008791  0.34592679  1
  S2-  S183  1  0.64152420  0.74986672  0.85173267  1
  S2-  S184  1  0.79340947  -0.00241314  0.35671929  1
  S2-  S185  1  0.87555202  -0.04843520  0.82504499  1
  S2-  S186  1  0.86512745  0.25755787  0.33982295  1
  S2-  S187  1  0.86076307  0.16068358  0.86377180  1
  S2-  S188  1  0.86492760  0.49896212  0.34171145  1
  S2-  S189  1  0.82069133  0.52659335  0.85300298  1
  S2-  S190  1  0.84855422  0.76511316  0.33783138  1
  S2-  S191  1  0.88262860  0.75828152  0.83751870  1
  S2-  S192  1  -0.00420227  0.12939581  0.45593816  1
  S2-  S193  1  0.01378411  0.11972286  0.95350661  1
  S2-  S194  1  -0.00122591  0.37758824  0.45798788  1
  S2-  S195  1  0.01024303  0.37377773  0.95275209  1
  S2-  S196  1  -0.00089395  0.62443758  0.44618983  1
  S2-  S197  1  0.00735386  0.62383459  0.94859341  1
  S2-  S198  1  -0.00034199  0.88084423  0.45430826  1
  S2-  S199  1  0.00252231  0.87783182  0.94763616  1
  S2-  S200  1  0.25155968  0.13199211  0.46436909  1
  S2-  S201  1  0.25737523  0.12383237  0.94946200  1
  S2-  S202  1  0.24713275  0.37834974  0.44948208  1
  S2-  S203  1  0.26019281  0.37477180  0.94902007  1
  S2-  S204  1  0.24655870  0.62676247  0.45181146  1
  S2-  S205  1  0.26100202  0.62445860  0.94020896  1
  S2-  S206  1  0.24746177  0.87875086  0.45054170  1
  S2-  S207  1  0.25412771  0.87492742  0.95501875  1
  S2-  S208  1  0.49649628  0.12845313  0.44619589  1
  S2-  S209  1  0.50774458  0.12149007  0.95723661  1
  S2-  S210  1  0.49599761  0.37805237  0.45547012  1
  S2-  S211  1  0.51164284  0.37211099  0.96137133  1
  S2-  S212  1  0.49692952  0.62737659  0.44063042  1
  S2-  S213  1  0.51059839  0.62767988  0.95453506  1
  S2-  S214  1  0.49542800  0.88177374  0.44169119  1
  S2-  S215  1  0.51085594  0.87492287  0.95502799  1
  S2-  S216  1  0.74805026  0.13131814  0.45240009  1
  S2-  S217  1  0.75703709  0.12870958  0.97077041  1
  S2-  S218  1  0.74974866  0.37687119  0.44721795  1
  S2-  S219  1  0.75920767  0.37235654  0.95353931  1
  S2-  S220  1  0.74956114  0.62582251  0.44944360  1
  S2-  S221  1  0.75782092  0.62457073  0.95995233  1
  S2-  S222  1  0.75050542  0.87514559  0.46163578  1
  S2-  S223  1  0.76266397  0.87131555  0.96499560  1
  S2-  S224  1  0.13311122  -0.00350143  0.05130111  1
  S2-  S225  1  0.12443749  0.00384801  0.54876479  1
  S2-  S226  1  0.13418064  0.24857589  0.04572395  1
  S2-  S227  1  0.12631732  0.25045551  0.55420114  1
  S2-  S228  1  0.13649561  0.50211466  0.03919281  1
  S2-  S229  1  0.12233867  0.50412698  0.54317050  1
  S2-  S230  1  0.13315054  0.74645604  0.04436508  1
  S2-  S231  1  0.12437701  0.75415112  0.55278221  1
  S2-  S232  1  0.38254271  -0.00375769  0.04183535  1
  S2-  S233  1  0.37868557  0.00018714  0.53300421  1
  S2-  S234  1  0.37876732  0.24956267  0.04681185  1
  S2-  S235  1  0.37620970  0.25954207  0.55192354  1
  S2-  S236  1  0.38329831  0.49891370  0.03920621  1
  S2-  S237  1  0.36949492  0.50210785  0.53987495  1
  S2-  S238  1  0.38280488  0.75062042  0.04321199  1
  S2-  S239  1  0.37569740  0.75385817  0.54669285  1
  S2-  S240  1  0.63480124  -0.00431211  0.06773314  1
  S2-  S241  1  0.62042331  0.00371393  0.53857588  1
  S2-  S242  1  0.63762000  0.25210114  0.05430562  1
  S2-  S243  1  0.62053392  0.25454899  0.54695163  1
  S2-  S244  1  0.63463972  0.49724441  0.04532166  1
  S2-  S245  1  0.62700993  0.50267758  0.54202899  1
  S2-  S246  1  0.62952370  0.75338172  0.05507484  1
  S2-  S247  1  0.61815935  0.75117190  0.53883996  1
  S2-  S248  1  0.88310734  0.00031374  0.04107341  1
  S2-  S249  1  0.87078992  0.00067690  0.55111072  1
  S2-  S250  1  0.88934782  0.25926863  0.05194327  1
  S2-  S251  1  0.87170833  0.25435988  0.55068942  1
  S2-  S252  1  0.87904794  0.49902337  0.04743064  1
  S2-  S253  1  0.87129752  0.50151088  0.54759346  1
  S2-  S254  1  0.88630141  0.74302189  0.04505440  1
  S2-  S255  1  0.87455557  0.75537731  0.54759411  1
