# generated using pymatgen
data_La9Ce10Pr6Nd4Sm3(BiS2)32
_symmetry_space_group_name_H-M   'P 1'
_cell_length_a   16.12065882
_cell_length_b   16.12638905
_cell_length_c   27.22138004
_cell_angle_alpha   90.11651871
_cell_angle_beta   90.12487408
_cell_angle_gamma   89.88123927
_symmetry_Int_Tables_number   1
_chemical_formula_structural   La9Ce10Pr6Nd4Sm3(BiS2)32
_chemical_formula_sum   'La18 Ce20 Pr12 Nd8 Sm6 Bi64 S128'
_cell_volume   7076.64158031
_cell_formula_units_Z   2
loop_
 _symmetry_equiv_pos_site_id
 _symmetry_equiv_pos_as_xyz
  1  'x, y, z'
loop_
 _atom_type_symbol
 _atom_type_oxidation_number
  La3+  3.0
  Ce3+  3.0
  Pr3+  3.0
  Nd3+  3.0
  Sm3+  3.0
  Bi2+  2.0
  S2-  -2.0
loop_
 _atom_site_type_symbol
 _atom_site_label
 _atom_site_symmetry_multiplicity
 _atom_site_fract_x
 _atom_site_fract_y
 _atom_site_fract_z
 _atom_site_occupancy
  La3+  La0  1  0.72893877  0.86549214  0.57906060  1
  La3+  La1  1  0.37432313  0.47994349  0.92118760  1
  La3+  La2  1  0.10737911  0.75353230  0.43217881  1
  La3+  La3  1  0.00627439  0.34995969  0.07112288  1
  La3+  La4  1  0.87526524  0.72405712  0.91760384  1
  La3+  La5  1  0.48318383  0.87047524  0.56196410  1
  La3+  La6  1  0.62970519  0.72215582  0.92471947  1
  La3+  La7  1  -0.00925977  0.86435476  0.58843969  1
  La3+  La8  1  0.25591017  0.35124993  0.06828919  1
  La3+  La9  1  0.12684822  -0.02204990  0.92780447  1
  La3+  La10  1  0.73340841  0.36728648  0.56105186  1
  La3+  La11  1  -0.01585949  0.37267801  0.56342849  1
  La3+  La12  1  0.86908881  -0.02386070  0.91958690  1
  La3+  La13  1  0.73089470  0.11653383  0.57865488  1
  La3+  La14  1  0.75500209  0.85443414  0.06335796  1
  La3+  La15  1  0.24438704  0.36698359  0.57644941  1
  La3+  La16  1  0.74434234  0.11468694  0.11360773  1
  La3+  La17  1  0.50466074  0.85132157  0.06251941  1
  Ce3+  Ce18  1  -0.00630361  0.09136713  0.06006695  1
  Ce3+  Ce19  1  0.23875136  0.61566938  0.57067346  1
  Ce3+  Ce20  1  0.61207128  -0.00864013  0.43467041  1
  Ce3+  Ce21  1  0.13005746  0.46562729  0.93122564  1
  Ce3+  Ce22  1  0.25153981  0.09233815  0.06447252  1
  Ce3+  Ce23  1  -0.01473851  0.62166248  0.55976263  1
  Ce3+  Ce24  1  0.62855156  0.23079548  0.95347066  1
  Ce3+  Ce25  1  0.87899222  0.47074462  0.94029785  1
  Ce3+  Ce26  1  0.23180095  0.12616996  0.56412183  1
  Ce3+  Ce27  1  0.62946534  -0.01784068  0.94415404  1
  Ce3+  Ce28  1  0.23049693  0.87154209  0.56415642  1
  Ce3+  Ce29  1  0.12762969  0.22316439  0.93878317  1
  Ce3+  Ce30  1  0.10973548  0.49526142  0.44193825  1
  Ce3+  Ce31  1  0.63501015  0.46508201  0.92511122  1
  Ce3+  Ce32  1  0.35266946  0.49203463  0.43753658  1
  Ce3+  Ce33  1  0.48335692  0.61709207  0.56324053  1
  Ce3+  Ce34  1  0.38042984  0.23081401  0.93810981  1
  Ce3+  Ce35  1  0.10389326  -0.00444495  0.45324548  1
  Ce3+  Ce36  1  0.72639142  0.62224359  0.57026710  1
  Ce3+  Ce37  1  0.48756399  0.12297021  0.55702852  1
  Pr3+  Pr38  1  0.75832429  0.35981112  0.07552349  1
  Pr3+  Pr39  1  -0.01779485  0.13295755  0.59985569  1
  Pr3+  Pr40  1  0.60860966  0.49801336  0.43209520  1
  Pr3+  Pr41  1  0.85774165  0.49784338  0.43700859  1
  Pr3+  Pr42  1  0.35704194  0.74444986  0.43985078  1
  Pr3+  Pr43  1  0.50444434  0.60478254  0.05636012  1
  Pr3+  Pr44  1  0.60941272  0.74490138  0.43278157  1
  Pr3+  Pr45  1  0.00015812  0.84276943  0.05575162  1
  Pr3+  Pr46  1  0.38044421  -0.02062675  0.93486784  1
  Pr3+  Pr47  1  0.12957191  0.72919603  0.91917172  1
  Pr3+  Pr48  1  0.35394240  0.24358006  0.42794060  1
  Pr3+  Pr49  1  0.85871256  0.24384887  0.43476407  1
  Nd3+  Nd50  1  0.25118152  0.85078719  0.05828035  1
  Nd3+  Nd51  1  0.85778362  0.75036162  0.44598550  1
  Nd3+  Nd52  1  0.85793274  -0.00544975  0.45845544  1
  Nd3+  Nd53  1  0.49573345  0.10048178  0.07677578  1
  Nd3+  Nd54  1  0.60971851  0.23486997  0.41930572  1
  Nd3+  Nd55  1  0.38482053  0.73371437  0.92191886  1
  Nd3+  Nd56  1  0.25467360  0.60889497  0.05311662  1
  Nd3+  Nd57  1  0.87695007  0.22724642  0.94606506  1
  Sm3+  Sm58  1  0.10494429  0.24546193  0.43607602  1
  Sm3+  Sm59  1  0.50127203  0.35835424  0.06353048  1
  Sm3+  Sm60  1  0.48451503  0.36832823  0.54957160  1
  Sm3+  Sm61  1  0.75279878  0.60707695  0.05560072  1
  Sm3+  Sm62  1  0.35676690  -0.00318099  0.44517706  1
  Sm3+  Sm63  1  0.00441286  0.60561556  0.04358444  1
  Bi2+  Bi64  1  0.00929181  0.11484146  0.28943328  1
  Bi2+  Bi65  1  0.01360816  0.16868310  0.79041610  1
  Bi2+  Bi66  1  0.01169109  0.37857537  0.29120739  1
  Bi2+  Bi67  1  -0.03711673  0.46516442  0.80528688  1
  Bi2+  Bi68  1  -0.00493030  0.61443986  0.22201453  1
  Bi2+  Bi69  1  0.02427439  0.65506627  0.80205573  1
  Bi2+  Bi70  1  -0.00251197  0.81526633  0.30654671  1
  Bi2+  Bi71  1  0.00745324  0.91461570  0.78234129  1
  Bi2+  Bi72  1  0.27992184  0.11525182  0.29807249  1
  Bi2+  Bi73  1  0.27268140  0.09457418  0.79654911  1
  Bi2+  Bi74  1  0.28019084  0.38227001  0.30439220  1
  Bi2+  Bi75  1  0.24181882  0.35810899  0.79357647  1
  Bi2+  Bi76  1  0.27919414  0.60692569  0.21508895  1
  Bi2+  Bi77  1  0.24091667  0.64316605  0.79210293  1
  Bi2+  Bi78  1  0.25551814  0.88393681  0.31267867  1
  Bi2+  Bi79  1  0.25017709  0.87025374  0.77412469  1
  Bi2+  Bi80  1  0.50023763  0.20430530  0.25598487  1
  Bi2+  Bi81  1  0.45990587  0.10234180  0.83504587  1
  Bi2+  Bi82  1  0.47928296  0.41819771  0.29598320  1
  Bi2+  Bi83  1  0.51903311  0.38083270  0.79446651  1
  Bi2+  Bi84  1  0.54079420  0.61045986  0.26390417  1
  Bi2+  Bi85  1  0.49562812  0.64086600  0.77486558  1
  Bi2+  Bi86  1  0.50030229  0.80709585  0.28256208  1
  Bi2+  Bi87  1  0.47928654  0.89977758  0.78817065  1
  Bi2+  Bi88  1  0.78098679  0.10947730  0.32674963  1
  Bi2+  Bi89  1  0.64817186  0.11045916  0.79973178  1
  Bi2+  Bi90  1  0.75512680  0.42949432  0.30109131  1
  Bi2+  Bi91  1  0.76765537  0.31808120  0.79664559  1
  Bi2+  Bi92  1  0.73864022  0.63968882  0.28194004  1
  Bi2+  Bi93  1  0.82047869  0.57913791  0.75871255  1
  Bi2+  Bi94  1  0.75538315  0.85403890  0.30124998  1
  Bi2+  Bi95  1  0.74338822  0.83637790  0.79038165  1
  Bi2+  Bi96  1  0.15045728  0.03066489  0.22592952  1
  Bi2+  Bi97  1  0.20504571  0.01776093  0.69529265  1
  Bi2+  Bi98  1  0.10813949  0.22661087  0.21584052  1
  Bi2+  Bi99  1  0.13678540  0.26289794  0.71889502  1
  Bi2+  Bi100  1  0.13451708  0.47753579  0.21806711  1
  Bi2+  Bi101  1  0.09731551  0.50797539  0.72581191  1
  Bi2+  Bi102  1  0.15024969  0.75259927  0.24964331  1
  Bi2+  Bi103  1  0.13583441  0.72162723  0.70747540  1
  Bi2+  Bi104  1  0.36234500  -0.00509679  0.20318756  1
  Bi2+  Bi105  1  0.40023442  0.01917737  0.69401348  1
  Bi2+  Bi106  1  0.32299298  0.25573114  0.21699818  1
  Bi2+  Bi107  1  0.40419898  0.20302833  0.73801748  1
  Bi2+  Bi108  1  0.44038795  0.51080650  0.18013324  1
  Bi2+  Bi109  1  0.35906340  0.48177233  0.70328530  1
  Bi2+  Bi110  1  0.37161417  0.77794735  0.19683274  1
  Bi2+  Bi111  1  0.36297471  0.75053461  0.71306596  1
  Bi2+  Bi112  1  0.61850710  -0.00382403  0.21534104  1
  Bi2+  Bi113  1  0.59424154  -0.00794016  0.71042637  1
  Bi2+  Bi114  1  0.62486724  0.34897160  0.22891037  1
  Bi2+  Bi115  1  0.59576801  0.24576512  0.72002375  1
  Bi2+  Bi116  1  0.63647602  0.50190788  0.15278370  1
  Bi2+  Bi117  1  0.65385088  0.48485930  0.73269668  1
  Bi2+  Bi118  1  0.63556269  0.75753715  0.20224708  1
  Bi2+  Bi119  1  0.62340999  0.72573089  0.70779874  1
  Bi2+  Bi120  1  0.89611976  -0.00833715  0.21507342  1
  Bi2+  Bi121  1  0.83453801  0.04169865  0.72659044  1
  Bi2+  Bi122  1  0.88990956  0.26099413  0.21364790  1
  Bi2+  Bi123  1  0.85236956  0.33017474  0.69361129  1
  Bi2+  Bi124  1  0.82098484  0.52050231  0.20307109  1
  Bi2+  Bi125  1  0.92423400  0.50227043  0.67103062  1
  Bi2+  Bi126  1  0.90100985  0.77975433  0.19107707  1
  Bi2+  Bi127  1  0.88627382  0.75742512  0.72103033  1
  S2-  S128  1  -0.08117806  0.11984368  0.14933428  1
  S2-  S129  1  0.05286298  0.09553446  0.69473261  1
  S2-  S130  1  -0.09752098  0.38551015  0.15160556  1
  S2-  S131  1  0.00919632  0.29106354  0.65173469  1
  S2-  S132  1  0.00778293  0.69658894  0.12801186  1
  S2-  S133  1  -0.00387450  0.70717523  0.64541595  1
  S2-  S134  1  -0.01063029  0.91554328  0.15082181  1
  S2-  S135  1  -0.06559477  0.91304893  0.68531829  1
  S2-  S136  1  0.35483344  0.13062310  0.14287824  1
  S2-  S137  1  0.23979491  0.22975966  0.64301548  1
  S2-  S138  1  0.13537797  0.35475210  0.14457836  1
  S2-  S139  1  0.21511080  0.49287024  0.64862799  1
  S2-  S140  1  0.25070213  0.72431325  0.13066571  1
  S2-  S141  1  0.37288897  0.62786738  0.64313721  1
  S2-  S142  1  0.23142159  0.96250847  0.13911994  1
  S2-  S143  1  0.14569455  0.86578112  0.64910045  1
  S2-  S144  1  0.58098252  0.13164563  0.16572296  1
  S2-  S145  1  0.58282963  0.14000068  0.63945147  1
  S2-  S146  1  0.38713364  0.36156227  0.14106167  1
  S2-  S147  1  0.41384044  0.37705444  0.64029818  1
  S2-  S148  1  0.50249330  0.72295792  0.13598761  1
  S2-  S149  1  0.59672345  0.59958206  0.64005627  1
  S2-  S150  1  0.49316367  0.95271320  0.14806839  1
  S2-  S151  1  0.57465379  0.85207040  0.64720948  1
  S2-  S152  1  0.75019049  0.09628065  0.23345162  1
  S2-  S153  1  0.83629282  0.16142817  0.66130000  1
  S2-  S154  1  0.74469709  0.27038310  0.16400365  1
  S2-  S155  1  0.68042723  0.37217456  0.65869620  1
  S2-  S156  1  0.76364667  0.71960894  0.13496551  1
  S2-  S157  1  0.75968764  0.73341262  0.64842160  1
  S2-  S158  1  0.74504432  0.94885562  0.15209280  1
  S2-  S159  1  0.73815574  0.98451216  0.65531462  1
  S2-  S160  1  0.10004423  -0.09049954  0.36656263  1
  S2-  S161  1  0.13199685  0.10898616  0.85591825  1
  S2-  S162  1  0.21989332  0.23967368  0.35937371  1
  S2-  S163  1  0.11792607  0.32919976  0.86065905  1
  S2-  S164  1  0.13245143  0.44954044  0.34762754  1
  S2-  S165  1  0.22461872  0.49636966  0.84899767  1
  S2-  S166  1  0.09768156  0.68478284  0.33824975  1
  S2-  S167  1  0.12179921  0.86199741  0.84687869  1
  S2-  S168  1  0.37396222  -0.00686777  0.34606224  1
  S2-  S169  1  0.35530486  -0.13081353  0.85470108  1
  S2-  S170  1  0.47401111  0.24954634  0.34890542  1
  S2-  S171  1  0.38172692  0.33651446  0.85726703  1
  S2-  S172  1  0.35980036  0.52215817  0.34036912  1
  S2-  S173  1  0.38323044  0.61197370  0.84770900  1
  S2-  S174  1  0.35732281  0.75953440  0.33850278  1
  S2-  S175  1  0.53049995  0.76347572  0.84247143  1
  S2-  S176  1  0.62361944  0.09142993  0.35505635  1
  S2-  S177  1  0.70030637  -0.02893961  0.85252253  1
  S2-  S178  1  0.74422170  0.26759637  0.35291492  1
  S2-  S179  1  0.63237612  0.31364731  0.86564033  1
  S2-  S180  1  0.61882915  0.61980897  0.35882306  1
  S2-  S181  1  0.59075624  0.52431793  0.83349739  1
  S2-  S182  1  0.61947849  0.86656388  0.35675037  1
  S2-  S183  1  0.74624172  0.70386650  0.84489827  1
  S2-  S184  1  0.85143717  -0.04519923  0.35763925  1
  S2-  S185  1  0.91744238  0.04798142  0.82413648  1
  S2-  S186  1  0.98491330  0.24100601  0.35744587  1
  S2-  S187  1  0.89720981  0.25678943  0.84619431  1
  S2-  S188  1  0.90156084  0.48800587  0.33848394  1
  S2-  S189  1  0.80181454  0.46448292  0.85298891  1
  S2-  S190  1  0.85636051  0.72771715  0.34585956  1
  S2-  S191  1  0.89353947  0.84991169  0.84236427  1
  S2-  S192  1  -0.01709490  0.11679998  0.45580875  1
  S2-  S193  1  -0.00337774  0.09997501  0.95366371  1
  S2-  S194  1  -0.01764380  0.37305315  0.45577700  1
  S2-  S195  1  0.00191629  0.35020094  0.96330652  1
  S2-  S196  1  -0.01673145  0.62199478  0.45260213  1
  S2-  S197  1  0.00576057  0.59765851  0.93953571  1
  S2-  S198  1  -0.01768714  0.86984133  0.47074988  1
  S2-  S199  1  0.00039664  0.84890694  0.94765329  1
  S2-  S200  1  0.23052317  0.11608689  0.45777026  1
  S2-  S201  1  0.25877096  0.10344608  0.95606022  1
  S2-  S202  1  0.23132981  0.36885092  0.46110895  1
  S2-  S203  1  0.25317216  0.34810884  0.96057692  1
  S2-  S204  1  0.23225270  0.62067864  0.45411587  1
  S2-  S205  1  0.24992081  0.60691004  0.94945542  1
  S2-  S206  1  0.23680194  0.87381302  0.45993858  1
  S2-  S207  1  0.25160169  0.85195776  0.95262487  1
  S2-  S208  1  0.48082436  0.11694688  0.45248103  1
  S2-  S209  1  0.50468199  0.10576128  0.96171059  1
  S2-  S210  1  0.48407547  0.37212976  0.44646184  1
  S2-  S211  1  0.50202188  0.35589042  0.96078136  1
  S2-  S212  1  0.47877499  0.61835120  0.45367815  1
  S2-  S213  1  0.50704846  0.59730466  0.94952237  1
  S2-  S214  1  0.47871128  0.87145694  0.45409025  1
  S2-  S215  1  0.50771414  0.85744423  0.95390692  1
  S2-  S216  1  0.73526078  0.11938795  0.46313198  1
  S2-  S217  1  0.75164104  0.10846056  0.94592433  1
  S2-  S218  1  0.73256374  0.37390786  0.45336676  1
  S2-  S219  1  0.75674479  0.35151123  0.96660770  1
  S2-  S220  1  0.73620153  0.62185126  0.45999514  1
  S2-  S221  1  0.75381619  0.59385097  0.95236234  1
  S2-  S222  1  0.73405453  0.86879964  0.46699638  1
  S2-  S223  1  0.74979113  0.85124191  0.95262887  1
  S2-  S224  1  0.12171954  -0.02672604  0.03650957  1
  S2-  S225  1  0.10444634  0.00477871  0.55808597  1
  S2-  S226  1  0.12609602  0.21555031  0.04816769  1
  S2-  S227  1  0.10541118  0.24309874  0.54231879  1
  S2-  S228  1  0.12910803  0.48457549  0.04309977  1
  S2-  S229  1  0.10927663  0.49654020  0.54689457  1
  S2-  S230  1  0.12774886  0.72685195  0.02659079  1
  S2-  S231  1  0.11681335  0.74079798  0.54339482  1
  S2-  S232  1  0.37707997  -0.02537074  0.04061194  1
  S2-  S233  1  0.35626161  -0.00163274  0.55118781  1
  S2-  S234  1  0.38210442  0.22915943  0.04183043  1
  S2-  S235  1  0.36360349  0.24283178  0.53684463  1
  S2-  S236  1  0.37613727  0.48357939  0.03783552  1
  S2-  S237  1  0.36049192  0.49407316  0.54048417  1
  S2-  S238  1  0.37970129  0.72865354  0.03010191  1
  S2-  S239  1  0.35518418  0.74854815  0.54646738  1
  S2-  S240  1  0.62963497  -0.01255178  0.04880506  1
  S2-  S241  1  0.60647019  -0.00574754  0.54316395  1
  S2-  S242  1  0.62434747  0.23490565  0.05756353  1
  S2-  S243  1  0.60748029  0.24837702  0.53552714  1
  S2-  S244  1  0.62897365  0.47737015  0.03992280  1
  S2-  S245  1  0.60672995  0.49040544  0.53824631  1
  S2-  S246  1  0.63090150  0.72620971  0.03475872  1
  S2-  S247  1  0.60418316  0.74182888  0.53983804  1
  S2-  S248  1  0.87812875  -0.02783947  0.03666573  1
  S2-  S249  1  0.87025724  -0.00164774  0.56176063  1
  S2-  S250  1  0.87262336  0.22574641  0.05087892  1
  S2-  S251  1  0.86050709  0.24388734  0.54580487  1
  S2-  S252  1  0.88059927  0.48633147  0.04597871  1
  S2-  S253  1  0.85475352  0.49891165  0.54577858  1
  S2-  S254  1  0.87624850  0.72185425  0.02734372  1
  S2-  S255  1  0.86120071  0.74467288  0.54947434  1
