# generated using pymatgen
data_La9Ce10Pr6Nd4Sm3(BiS2)32
_symmetry_space_group_name_H-M   'P 1'
_cell_length_a   16.11181098
_cell_length_b   16.15946484
_cell_length_c   27.07072605
_cell_angle_alpha   90.20303996
_cell_angle_beta   89.94406462
_cell_angle_gamma   89.90471417
_symmetry_Int_Tables_number   1
_chemical_formula_structural   La9Ce10Pr6Nd4Sm3(BiS2)32
_chemical_formula_sum   'La18 Ce20 Pr12 Nd8 Sm6 Bi64 S128'
_cell_volume   7048.02927161
_cell_formula_units_Z   2
loop_
 _symmetry_equiv_pos_site_id
 _symmetry_equiv_pos_as_xyz
  1  'x, y, z'
loop_
 _atom_type_symbol
 _atom_type_oxidation_number
  La3+  3.0
  Ce3+  3.0
  Pr3+  3.0
  Nd3+  3.0
  Sm3+  3.0
  Bi2+  2.0
  S2-  -2.0
loop_
 _atom_site_type_symbol
 _atom_site_label
 _atom_site_symmetry_multiplicity
 _atom_site_fract_x
 _atom_site_fract_y
 _atom_site_fract_z
 _atom_site_occupancy
  La3+  La0  1  0.59220991  0.73770058  0.91934596  1
  La3+  La1  1  0.12884112  0.74731384  0.42325000  1
  La3+  La2  1  0.61870798  0.49592016  0.43427704  1
  La3+  La3  1  0.84656657  0.23294779  0.92225266  1
  La3+  La4  1  0.74543805  0.12032190  0.56871264  1
  La3+  La5  1  0.09291245  0.48496642  0.92564273  1
  La3+  La6  1  0.49476648  0.86776149  0.58063878  1
  La3+  La7  1  0.24453712  0.87046528  0.59404604  1
  La3+  La8  1  0.23665208  0.12300307  0.57304040  1
  La3+  La9  1  -0.02773176  0.85360050  0.07998815  1
  La3+  La10  1  0.86729466  0.74341960  0.42130328  1
  La3+  La11  1  0.60074997  0.23235028  0.92168562  1
  La3+  La12  1  0.86481446  -0.00410983  0.42706474  1
  La3+  La13  1  0.11761727  0.24830698  0.43049251  1
  La3+  La14  1  0.62060030  0.75168500  0.43697374  1
  La3+  La15  1  0.59786231  -0.01429019  0.92937488  1
  La3+  La16  1  0.86261137  0.24936715  0.43069475  1
  La3+  La17  1  0.85855234  -0.01947325  0.93162954  1
  Ce3+  Ce18  1  0.09877834  0.73812338  0.93676271  1
  Ce3+  Ce19  1  0.34244362  0.73853534  0.93030816  1
  Ce3+  Ce20  1  0.86176572  0.49454399  0.43877758  1
  Ce3+  Ce21  1  0.24329971  0.62212961  0.56061502  1
  Ce3+  Ce22  1  0.49185655  0.12051302  0.56574619  1
  Ce3+  Ce23  1  0.61679066  -0.00460664  0.43959834  1
  Ce3+  Ce24  1  0.71478921  0.11342567  0.06099798  1
  Ce3+  Ce25  1  0.24214897  0.37243557  0.56878015  1
  Ce3+  Ce26  1  0.47367995  0.61150871  0.05289937  1
  Ce3+  Ce27  1  0.21607223  0.11381121  0.05771826  1
  Ce3+  Ce28  1  0.84791758  0.73568402  0.93978943  1
  Ce3+  Ce29  1  0.37315462  0.49543735  0.43871685  1
  Ce3+  Ce30  1  -0.03089126  0.35706695  0.05718670  1
  Ce3+  Ce31  1  0.34612814  0.23560005  0.94510295  1
  Ce3+  Ce32  1  0.34241154  -0.01411085  0.94164152  1
  Ce3+  Ce33  1  0.37164049  0.24910254  0.44466348  1
  Ce3+  Ce34  1  0.84531496  0.48526198  0.95209890  1
  Ce3+  Ce35  1  0.21698924  0.35960007  0.05834243  1
  Ce3+  Ce36  1  0.47697063  0.36180490  0.05243302  1
  Ce3+  Ce37  1  -0.00460204  0.62410603  0.55289501  1
  Pr3+  Pr38  1  -0.00375280  0.37480882  0.56364635  1
  Pr3+  Pr39  1  -0.00167837  0.87123582  0.55479222  1
  Pr3+  Pr40  1  0.09826110  0.23531117  0.90670788  1
  Pr3+  Pr41  1  0.74593536  0.87253181  0.57562379  1
  Pr3+  Pr42  1  0.71408554  0.61415356  0.06772762  1
  Pr3+  Pr43  1  -0.03985397  0.11472824  0.07044195  1
  Pr3+  Pr44  1  0.47649695  0.85976843  0.06109917  1
  Pr3+  Pr45  1  0.11967237  0.49953843  0.42933060  1
  Pr3+  Pr46  1  0.36658223  -0.00032600  0.44139657  1
  Pr3+  Pr47  1  0.22744207  0.85673637  0.07286814  1
  Pr3+  Pr48  1  0.37144438  0.75363031  0.44342907  1
  Pr3+  Pr49  1  0.60116610  0.48922066  0.92481759  1
  Nd3+  Nd50  1  0.61465743  0.24527006  0.43771182  1
  Nd3+  Nd51  1  0.47386249  0.11186809  0.06218029  1
  Nd3+  Nd52  1  0.71368137  0.35953016  0.06769247  1
  Nd3+  Nd53  1  0.34733366  0.48107964  0.93774377  1
  Nd3+  Nd54  1  0.74052305  0.36979064  0.57395339  1
  Nd3+  Nd55  1  0.22101922  0.60662263  0.05458644  1
  Nd3+  Nd56  1  0.11783248  -0.00485397  0.42761887  1
  Nd3+  Nd57  1  -0.00618262  0.12456041  0.55503677  1
  Sm3+  Sm58  1  -0.03012355  0.61149009  0.06318563  1
  Sm3+  Sm59  1  0.72341876  0.86259256  0.06192316  1
  Sm3+  Sm60  1  0.49484019  0.62338679  0.55868560  1
  Sm3+  Sm61  1  0.74501151  0.62622694  0.56289650  1
  Sm3+  Sm62  1  0.49582787  0.37443636  0.56812716  1
  Sm3+  Sm63  1  0.09434104  -0.01207135  0.95045841  1
  Bi2+  Bi64  1  0.08805321  0.14428126  0.30457886  1
  Bi2+  Bi65  1  -0.01840926  0.10881910  0.79490837  1
  Bi2+  Bi66  1  0.11603897  0.41272829  0.29954660  1
  Bi2+  Bi67  1  -0.00651221  0.41323377  0.79361921  1
  Bi2+  Bi68  1  0.05463976  0.67214198  0.27063176  1
  Bi2+  Bi69  1  -0.02749144  0.65455892  0.83237740  1
  Bi2+  Bi70  1  0.00939692  0.90672199  0.27854493  1
  Bi2+  Bi71  1  0.00419515  0.84384254  0.79791774  1
  Bi2+  Bi72  1  0.34573528  0.15286438  0.23942415  1
  Bi2+  Bi73  1  0.25878575  0.20088686  0.75779843  1
  Bi2+  Bi74  1  0.30952331  0.44047059  0.30939293  1
  Bi2+  Bi75  1  0.28224766  0.40334082  0.78397601  1
  Bi2+  Bi76  1  0.30013134  0.62988143  0.28869141  1
  Bi2+  Bi77  1  0.15620384  0.60821690  0.80870081  1
  Bi2+  Bi78  1  0.27724738  0.91193697  0.31066844  1
  Bi2+  Bi79  1  0.26944971  0.85761355  0.78404688  1
  Bi2+  Bi80  1  0.51173829  0.11272288  0.29510049  1
  Bi2+  Bi81  1  0.48575722  0.20253523  0.78725325  1
  Bi2+  Bi82  1  0.51708512  0.35569818  0.28841076  1
  Bi2+  Bi83  1  0.52332275  0.40141309  0.79470065  1
  Bi2+  Bi84  1  0.52849448  0.63051853  0.29924158  1
  Bi2+  Bi85  1  0.48571695  0.56509772  0.72020740  1
  Bi2+  Bi86  1  0.50063580  0.81825351  0.32795260  1
  Bi2+  Bi87  1  0.47118127  0.85805589  0.78951015  1
  Bi2+  Bi88  1  0.71163664  0.12028393  0.28626915  1
  Bi2+  Bi89  1  0.71960990  0.13717773  0.78692379  1
  Bi2+  Bi90  1  0.83311337  0.34818229  0.30143499  1
  Bi2+  Bi91  1  0.71142959  0.47111586  0.80087160  1
  Bi2+  Bi92  1  0.78508238  0.58943550  0.29501058  1
  Bi2+  Bi93  1  0.77908692  0.67575369  0.81144839  1
  Bi2+  Bi94  1  0.68611781  0.85877216  0.29016560  1
  Bi2+  Bi95  1  0.74241076  0.88121940  0.78090322  1
  Bi2+  Bi96  1  0.18701664  -0.01746880  0.21680648  1
  Bi2+  Bi97  1  0.11673298  0.00592418  0.71445261  1
  Bi2+  Bi98  1  0.11798425  0.23193146  0.19350145  1
  Bi2+  Bi99  1  0.09798548  0.26521660  0.69868943  1
  Bi2+  Bi100  1  0.12342681  0.50926843  0.20154815  1
  Bi2+  Bi101  1  0.08231624  0.52510894  0.71223498  1
  Bi2+  Bi102  1  0.19267062  0.77199184  0.21583380  1
  Bi2+  Bi103  1  0.11977070  0.75375531  0.71331942  1
  Bi2+  Bi104  1  0.39096481  -0.03545841  0.21505001  1
  Bi2+  Bi105  1  0.38657519  0.00122440  0.72128050  1
  Bi2+  Bi106  1  0.36587823  0.34201731  0.21179610  1
  Bi2+  Bi107  1  0.39930304  0.32090341  0.69500838  1
  Bi2+  Bi108  1  0.38002321  0.54212343  0.19604721  1
  Bi2+  Bi109  1  0.31133444  0.49750784  0.68150120  1
  Bi2+  Bi110  1  0.43480424  0.75350336  0.22299273  1
  Bi2+  Bi111  1  0.31402939  0.66891090  0.74194263  1
  Bi2+  Bi112  1  0.59174252  -0.00769680  0.20843730  1
  Bi2+  Bi113  1  0.64231131  0.01141779  0.70980615  1
  Bi2+  Bi114  1  0.63732925  0.26007099  0.20514421  1
  Bi2+  Bi115  1  0.61471926  0.27871864  0.71228486  1
  Bi2+  Bi116  1  0.56936803  0.49737173  0.21493953  1
  Bi2+  Bi117  1  0.69164011  0.54069352  0.69129151  1
  Bi2+  Bi118  1  0.64523793  0.72821682  0.20158931  1
  Bi2+  Bi119  1  0.64166594  0.73265502  0.71088810  1
  Bi2+  Bi120  1  0.79057017  -0.02022154  0.21988561  1
  Bi2+  Bi121  1  0.89404410  -0.06638478  0.71433436  1
  Bi2+  Bi122  1  0.88478239  0.21346703  0.20357031  1
  Bi2+  Bi123  1  0.83481957  0.29716634  0.72631525  1
  Bi2+  Bi124  1  0.94300013  0.48634393  0.24711783  1
  Bi2+  Bi125  1  0.87412513  0.48212653  0.70805118  1
  Bi2+  Bi126  1  0.87169099  0.74196158  0.21317612  1
  Bi2+  Bi127  1  0.88970355  0.73249332  0.71842612  1
  S2-  S128  1  0.01689383  0.10984016  0.17121348  1
  S2-  S129  1  0.06456493  0.11465184  0.64870177  1
  S2-  S130  1  -0.01373218  0.32208604  0.15395304  1
  S2-  S131  1  -0.04691663  0.29160619  0.65474384  1
  S2-  S132  1  -0.01767692  0.70088236  0.14700850  1
  S2-  S133  1  0.00752873  0.65164697  0.65114090  1
  S2-  S134  1  0.10924603  0.87301546  0.15076202  1
  S2-  S135  1  0.08642553  0.88005932  0.64569668  1
  S2-  S136  1  0.24435175  0.11989403  0.15558913  1
  S2-  S137  1  0.25308186  0.24852384  0.64797105  1
  S2-  S138  1  0.21184210  0.37210113  0.15717205  1
  S2-  S139  1  0.11944205  0.40723733  0.64044076  1
  S2-  S140  1  0.22557805  0.62737025  0.15451240  1
  S2-  S141  1  0.24334655  0.71117975  0.64713338  1
  S2-  S142  1  0.36345571  0.84119243  0.14094134  1
  S2-  S143  1  0.25082534  1.01978484  0.65815433  1
  S2-  S144  1  0.58965145  0.12826231  0.13761141  1
  S2-  S145  1  0.50389875  0.09363344  0.66434543  1
  S2-  S146  1  0.57072144  0.36938735  0.13558204  1
  S2-  S147  1  0.60845568  0.40039416  0.64356222  1
  S2-  S148  1  0.57185229  0.61275058  0.13453230  1
  S2-  S149  1  0.50440178  0.68749853  0.65106682  1
  S2-  S150  1  0.60347039  0.85537040  0.13691901  1
  S2-  S151  1  0.38691368  0.87383672  0.66389700  1
  S2-  S152  1  0.81749406  0.10786365  0.14171903  1
  S2-  S153  1  0.78488977  0.00692179  0.64780844  1
  S2-  S154  1  0.76989138  0.33262581  0.16614205  1
  S2-  S155  1  0.74818849  0.23801194  0.64649920  1
  S2-  S156  1  0.77984847  0.62958695  0.16719616  1
  S2-  S157  1  0.77043640  0.73349449  0.64202764  1
  S2-  S158  1  0.83188199  0.87003765  0.14588711  1
  S2-  S159  1  0.61845977  0.87641423  0.65544179  1
  S2-  S160  1  0.21788055  0.05932332  0.35083861  1
  S2-  S161  1  0.02212967  -0.02398094  0.86052108  1
  S2-  S162  1  0.19048713  0.26799909  0.33623264  1
  S2-  S163  1  0.14721254  0.13955111  0.82078701  1
  S2-  S164  1  0.12357867  0.61638102  0.35126213  1
  S2-  S165  1  0.13480693  0.37948288  0.84617186  1
  S2-  S166  1  0.11730710  0.87324472  0.34764459  1
  S2-  S167  1  0.21186551  0.76103749  0.86081350  1
  S2-  S168  1  0.48865748  -0.01289899  0.36404676  1
  S2-  S169  1  0.35973902  -0.02520212  0.84147955  1
  S2-  S170  1  0.47951455  0.24538915  0.36509009  1
  S2-  S171  1  0.34697378  0.23738304  0.84690413  1
  S2-  S172  1  0.48870580  0.49023748  0.36073344  1
  S2-  S173  1  0.39047690  0.49003137  0.84029558  1
  S2-  S174  1  0.28682270  0.75392131  0.35438061  1
  S2-  S175  1  0.44576490  0.73456566  0.84998785  1
  S2-  S176  1  0.72734386  -0.01107511  0.35955184  1
  S2-  S177  1  0.58071877  0.10185094  0.84963487  1
  S2-  S178  1  0.72933565  0.24900455  0.35800952  1
  S2-  S179  1  0.72281158  0.26989901  0.84834190  1
  S2-  S180  1  0.73720691  0.47007555  0.35777232  1
  S2-  S181  1  0.63092352  0.60899931  0.84895999  1
  S2-  S182  1  0.72754540  0.72460750  0.35447845  1
  S2-  S183  1  0.60862464  0.87328425  0.84882654  1
  S2-  S184  1  0.96843060  0.02408330  0.34083200  1
  S2-  S185  1  0.83547316  0.08278984  0.84876728  1
  S2-  S186  1  0.96120083  0.25865266  0.34211460  1
  S2-  S187  1  0.96118457  0.25036600  0.84091477  1
  S2-  S188  1  0.91725811  0.54460424  0.34646299  1
  S2-  S189  1  0.86183281  0.47084949  0.85466862  1
  S2-  S190  1  0.93037965  0.77432359  0.32068653  1
  S2-  S191  1  0.84155522  0.84383475  0.86098772  1
  S2-  S192  1  -0.00554780  0.12299707  0.44996499  1
  S2-  S193  1  -0.02031152  0.11841383  0.95723488  1
  S2-  S194  1  -0.00655391  0.37804448  0.45150347  1
  S2-  S195  1  -0.02607071  0.36000594  0.95208927  1
  S2-  S196  1  -0.00818697  0.62303925  0.45009240  1
  S2-  S197  1  -0.02652652  0.61014183  0.95817259  1
  S2-  S198  1  -0.00819094  0.86840348  0.44807115  1
  S2-  S199  1  -0.02083332  0.85521757  0.96541437  1
  S2-  S200  1  0.24801820  0.12947981  0.46165196  1
  S2-  S201  1  0.21690875  0.11357019  0.95017023  1
  S2-  S202  1  0.24667960  0.37475608  0.45496254  1
  S2-  S203  1  0.22030493  0.35790026  0.95322409  1
  S2-  S204  1  0.25220425  0.61782074  0.45458728  1
  S2-  S205  1  0.22179721  0.60374806  0.94891223  1
  S2-  S206  1  0.24541039  0.87741150  0.45585472  1
  S2-  S207  1  0.21946521  0.86712786  0.96415380  1
  S2-  S208  1  0.49424415  0.12189441  0.46222776  1
  S2-  S209  1  0.46630063  0.11059288  0.95544911  1
  S2-  S210  1  0.49441403  0.37248497  0.46478950  1
  S2-  S211  1  0.47488854  0.35935440  0.94563176  1
  S2-  S212  1  0.49376668  0.62664075  0.45465167  1
  S2-  S213  1  0.46927024  0.60580301  0.94884295  1
  S2-  S214  1  0.49469855  0.87330465  0.46762805  1
  S2-  S215  1  0.46531278  0.86436398  0.95360398  1
  S2-  S216  1  0.74057718  0.12161246  0.45988962  1
  S2-  S217  1  0.72366572  0.10842571  0.95404166  1
  S2-  S218  1  0.73822082  0.36988046  0.46714921  1
  S2-  S219  1  0.72066170  0.36598456  0.95710510  1
  S2-  S220  1  0.74412789  0.62122869  0.45927375  1
  S2-  S221  1  0.72623758  0.61113765  0.95769222  1
  S2-  S222  1  0.74566280  0.86996753  0.46084941  1
  S2-  S223  1  0.72218779  0.85879037  0.95798402  1
  S2-  S224  1  0.09257064  -0.00945579  0.05305821  1
  S2-  S225  1  0.11835265  -0.00189031  0.53808450  1
  S2-  S226  1  0.09451309  0.23575936  0.04978990  1
  S2-  S227  1  0.11702920  0.25056910  0.54006749  1
  S2-  S228  1  0.09223005  0.48607286  0.04352632  1
  S2-  S229  1  0.12043396  0.50185855  0.53693494  1
  S2-  S230  1  0.10100012  0.73087269  0.04419078  1
  S2-  S231  1  0.12229142  0.74499424  0.53765665  1
  S2-  S232  1  0.34625049  -0.00901090  0.04916296  1
  S2-  S233  1  0.36784013  -0.00307519  0.54997545  1
  S2-  S234  1  0.34872219  0.23743906  0.05277584  1
  S2-  S235  1  0.37418293  0.25107399  0.54950798  1
  S2-  S236  1  0.34772037  0.48222724  0.04632425  1
  S2-  S237  1  0.37288933  0.49708994  0.54854114  1
  S2-  S238  1  0.34644887  0.72962245  0.03928605  1
  S2-  S239  1  0.36900159  0.74557534  0.54896319  1
  S2-  S240  1  0.59586867  -0.01272929  0.03894145  1
  S2-  S241  1  0.61789272  -0.00195258  0.54973305  1
  S2-  S242  1  0.59480112  0.23714085  0.03238932  1
  S2-  S243  1  0.61222219  0.24698106  0.54763783  1
  S2-  S244  1  0.59619788  0.48693587  0.03304743  1
  S2-  S245  1  0.61908864  0.50478097  0.54388570  1
  S2-  S246  1  0.59594771  0.73547328  0.03227053  1
  S2-  S247  1  0.62052080  0.74398944  0.54528398  1
  S2-  S248  1  0.84676296  -0.01570635  0.04090261  1
  S2-  S249  1  0.87511758  -0.00346994  0.53933731  1
  S2-  S250  1  0.84071667  0.24109589  0.04079340  1
  S2-  S251  1  0.87041791  0.24909906  0.54052505  1
  S2-  S252  1  0.84486919  0.48697840  0.05962494  1
  S2-  S253  1  0.86584914  0.49863087  0.55153498  1
  S2-  S254  1  0.84395602  0.73183366  0.04545130  1
  S2-  S255  1  0.87230201  0.74674282  0.53769433  1
