# generated using pymatgen
data_La9Ce10Pr6Nd4Sm3(BiS2)32
_symmetry_space_group_name_H-M   'P 1'
_cell_length_a   16.15530489
_cell_length_b   16.16133536
_cell_length_c   27.23483582
_cell_angle_alpha   90.13064387
_cell_angle_beta   89.93860113
_cell_angle_gamma   90.00721916
_symmetry_Int_Tables_number   1
_chemical_formula_structural   La9Ce10Pr6Nd4Sm3(BiS2)32
_chemical_formula_sum   'La18 Ce20 Pr12 Nd8 Sm6 Bi64 S128'
_cell_volume   7110.75607115
_cell_formula_units_Z   2
loop_
 _symmetry_equiv_pos_site_id
 _symmetry_equiv_pos_as_xyz
  1  'x, y, z'
loop_
 _atom_type_symbol
 _atom_type_oxidation_number
  La3+  3.0
  Ce3+  3.0
  Pr3+  3.0
  Nd3+  3.0
  Sm3+  3.0
  Bi2+  2.0
  S2-  -2.0
loop_
 _atom_site_type_symbol
 _atom_site_label
 _atom_site_symmetry_multiplicity
 _atom_site_fract_x
 _atom_site_fract_y
 _atom_site_fract_z
 _atom_site_occupancy
  La3+  La0  1  0.87699498  0.47861779  0.41739072  1
  La3+  La1  1  0.49550887  0.12763818  0.07532210  1
  La3+  La2  1  0.11854418  -0.01431604  0.44625221  1
  La3+  La3  1  0.74710766  0.36135189  0.56539523  1
  La3+  La4  1  -0.00879149  0.36300782  0.56623595  1
  La3+  La5  1  0.87503431  0.22444393  0.42521476  1
  La3+  La6  1  0.49156367  0.61159436  0.57308421  1
  La3+  La7  1  0.12064079  0.74880897  0.91626252  1
  La3+  La8  1  0.24396909  0.12105870  0.07059603  1
  La3+  La9  1  0.37910745  0.74163022  0.89915040  1
  La3+  La10  1  -0.00635254  0.85439674  0.60600491  1
  La3+  La11  1  0.61474104  -0.02454011  0.40484625  1
  La3+  La12  1  0.37789590  0.01108465  0.91898697  1
  La3+  La13  1  0.49428609  0.36130074  0.59816465  1
  La3+  La14  1  0.62463090  0.75512081  0.93560453  1
  La3+  La15  1  0.75060276  0.64243895  0.10791400  1
  La3+  La16  1  -0.01584273  0.11202604  0.58090775  1
  La3+  La17  1  0.74809971  0.88679779  0.07137628  1
  Ce3+  Ce18  1  0.61757615  0.23337724  0.44485903  1
  Ce3+  Ce19  1  0.24824931  0.37968937  0.05799118  1
  Ce3+  Ce20  1  0.49036525  0.85724913  0.56872042  1
  Ce3+  Ce21  1  0.61617659  0.73401378  0.43664482  1
  Ce3+  Ce22  1  0.11602645  0.73608168  0.45286867  1
  Ce3+  Ce23  1  0.12508016  0.48931387  0.43645600  1
  Ce3+  Ce24  1  0.37263717  0.23338417  0.44537431  1
  Ce3+  Ce25  1  0.36637860  0.48756680  0.44351416  1
  Ce3+  Ce26  1  0.00536066  0.62406426  0.07723195  1
  Ce3+  Ce27  1  0.61819175  0.48268114  0.44134439  1
  Ce3+  Ce28  1  0.62090207  0.00700323  0.93903696  1
  Ce3+  Ce29  1  0.11745253  0.23629393  0.45043493  1
  Ce3+  Ce30  1  0.75480952  0.38474499  0.07392820  1
  Ce3+  Ce31  1  0.86971117  0.73503770  0.43413234  1
  Ce3+  Ce32  1  0.12279610  0.50708832  0.93988230  1
  Ce3+  Ce33  1  0.12389804  0.25510974  0.94187386  1
  Ce3+  Ce34  1  0.24563460  0.86379405  0.57431370  1
  Ce3+  Ce35  1  0.24594464  0.36386090  0.56270936  1
  Ce3+  Ce36  1  0.36821524  0.73808184  0.44809154  1
  Ce3+  Ce37  1  0.00103233  0.11734393  0.06506818  1
  Pr3+  Pr38  1  0.36563373  -0.01527332  0.43497164  1
  Pr3+  Pr39  1  0.87336960  0.25811713  0.93611039  1
  Pr3+  Pr40  1  0.23753155  0.61001971  0.57126537  1
  Pr3+  Pr41  1  0.50230073  0.63576170  0.06926283  1
  Pr3+  Pr42  1  0.74335660  0.85763486  0.55902856  1
  Pr3+  Pr43  1  0.50225023  0.38376388  0.06435021  1
  Pr3+  Pr44  1  -0.01697024  0.61027066  0.56852594  1
  Pr3+  Pr45  1  0.37525867  0.25679422  0.93914071  1
  Pr3+  Pr46  1  0.74078385  0.10695593  0.56106097  1
  Pr3+  Pr47  1  0.24368185  0.11202617  0.56861872  1
  Pr3+  Pr48  1  0.87478178  0.75390862  0.94432100  1
  Pr3+  Pr49  1  0.62501201  0.25897775  0.94948444  1
  Nd3+  Nd50  1  0.00280320  0.87556527  0.04769151  1
  Nd3+  Nd51  1  0.24783151  0.63458442  0.05776993  1
  Nd3+  Nd52  1  0.12520778  0.01632068  0.92184463  1
  Nd3+  Nd53  1  0.49304172  0.10967061  0.56611234  1
  Nd3+  Nd54  1  0.25211630  0.88094481  0.03833680  1
  Nd3+  Nd55  1  0.87522743  0.00617322  0.93121497  1
  Nd3+  Nd56  1  0.75161715  0.12735585  0.05642051  1
  Nd3+  Nd57  1  -0.00626355  0.37805050  0.06510800  1
  Sm3+  Sm58  1  0.86725654  -0.01551392  0.44619602  1
  Sm3+  Sm59  1  0.49659998  0.88051092  0.05069871  1
  Sm3+  Sm60  1  0.37633031  0.50921186  0.94780521  1
  Sm3+  Sm61  1  0.62589949  0.50833879  0.94951781  1
  Sm3+  Sm62  1  0.87429738  0.50925311  0.95088420  1
  Sm3+  Sm63  1  0.74577986  0.60928408  0.54712781  1
  Bi2+  Bi64  1  -0.00114028  0.08461718  0.29590812  1
  Bi2+  Bi65  1  -0.00730259  0.14335779  0.79003592  1
  Bi2+  Bi66  1  0.02595966  0.38569588  0.26940685  1
  Bi2+  Bi67  1  0.07480043  0.40174579  0.79477145  1
  Bi2+  Bi68  1  0.05744415  0.60830704  0.28480432  1
  Bi2+  Bi69  1  -0.02779813  0.61090674  0.80098576  1
  Bi2+  Bi70  1  0.00267547  0.88854133  0.29791367  1
  Bi2+  Bi71  1  -0.01716200  0.88045576  0.79151820  1
  Bi2+  Bi72  1  0.28237982  0.09808945  0.28656242  1
  Bi2+  Bi73  1  0.24634948  0.08726696  0.79711562  1
  Bi2+  Bi74  1  0.24382707  0.38260281  0.30049718  1
  Bi2+  Bi75  1  0.27606021  0.34234673  0.80670413  1
  Bi2+  Bi76  1  0.25499898  0.66342907  0.30349304  1
  Bi2+  Bi77  1  0.22781545  0.52824220  0.78211222  1
  Bi2+  Bi78  1  0.20338829  0.90074577  0.28202308  1
  Bi2+  Bi79  1  0.22700319  0.85673125  0.76087687  1
  Bi2+  Bi80  1  0.51299405  0.11575496  0.29663478  1
  Bi2+  Bi81  1  0.51737614  0.17133342  0.80472615  1
  Bi2+  Bi82  1  0.44312483  0.37760785  0.28700386  1
  Bi2+  Bi83  1  0.55196779  0.36271585  0.79224547  1
  Bi2+  Bi84  1  0.47316498  0.58774713  0.30069574  1
  Bi2+  Bi85  1  0.51495670  0.60110504  0.79505391  1
  Bi2+  Bi86  1  0.42025487  0.86908106  0.27191703  1
  Bi2+  Bi87  1  0.53270704  0.88815156  0.77903850  1
  Bi2+  Bi88  1  0.75865462  0.15101846  0.28920595  1
  Bi2+  Bi89  1  0.68716886  0.06672971  0.78949097  1
  Bi2+  Bi90  1  0.74258868  0.42158816  0.29759540  1
  Bi2+  Bi91  1  0.77334894  0.46897334  0.77432209  1
  Bi2+  Bi92  1  0.74802681  0.69082918  0.29277016  1
  Bi2+  Bi93  1  0.70323663  0.66979508  0.77159104  1
  Bi2+  Bi94  1  0.83265656  0.85846998  0.24004991  1
  Bi2+  Bi95  1  0.72750757  0.87057245  0.79712912  1
  Bi2+  Bi96  1  0.12500565  -0.00002189  0.19168564  1
  Bi2+  Bi97  1  0.13069027  0.02759369  0.69154693  1
  Bi2+  Bi98  1  0.13674766  0.22346140  0.26976925  1
  Bi2+  Bi99  1  0.15295131  0.27627800  0.72106524  1
  Bi2+  Bi100  1  0.17570342  0.49551525  0.20780207  1
  Bi2+  Bi101  1  0.12867062  0.45027402  0.66139172  1
  Bi2+  Bi102  1  0.19741136  0.78137761  0.19059078  1
  Bi2+  Bi103  1  0.15536718  0.62984234  0.69752497  1
  Bi2+  Bi104  1  0.39595638  -0.00262000  0.18949339  1
  Bi2+  Bi105  1  0.43368222  0.00004587  0.70569183  1
  Bi2+  Bi106  1  0.33725853  0.26128714  0.21868476  1
  Bi2+  Bi107  1  0.37334856  0.23077770  0.71546108  1
  Bi2+  Bi108  1  0.38825737  0.51330830  0.20353902  1
  Bi2+  Bi109  1  0.40239759  0.43944941  0.73351246  1
  Bi2+  Bi110  1  0.37848057  0.70847849  0.20266551  1
  Bi2+  Bi111  1  0.40531523  0.73997609  0.71089800  1
  Bi2+  Bi112  1  0.63248915  -0.02775811  0.20455615  1
  Bi2+  Bi113  1  0.61800334  0.03537309  0.67232952  1
  Bi2+  Bi114  1  0.61399576  0.29994021  0.24522731  1
  Bi2+  Bi115  1  0.65876918  0.22806542  0.71415414  1
  Bi2+  Bi116  1  0.59092275  0.51065848  0.20722278  1
  Bi2+  Bi117  1  0.66839188  0.52918324  0.68696923  1
  Bi2+  Bi118  1  0.57365792  0.74417406  0.25840443  1
  Bi2+  Bi119  1  0.65312781  0.83487738  0.68992595  1
  Bi2+  Bi120  1  0.89457806  0.06645047  0.19578156  1
  Bi2+  Bi121  1  0.81460978  0.00836172  0.71001950  1
  Bi2+  Bi122  1  0.89060239  0.25086141  0.22871027  1
  Bi2+  Bi123  1  0.83709405  0.29423153  0.73740442  1
  Bi2+  Bi124  1  0.89531765  0.48662918  0.20311644  1
  Bi2+  Bi125  1  0.94986426  0.46406444  0.70973682  1
  Bi2+  Bi126  1  1.00202909  0.75453841  0.21539783  1
  Bi2+  Bi127  1  0.86206301  0.70492698  0.71009467  1
  S2-  S128  1  0.11122141  0.13902145  0.14116833  1
  S2-  S129  1  0.04474816  0.17264198  0.67408550  1
  S2-  S130  1  -0.12553973  0.33842471  0.14300665  1
  S2-  S131  1  -0.12571655  0.35472881  0.64227650  1
  S2-  S132  1  0.03092452  0.47401092  0.14666097  1
  S2-  S133  1  0.00534050  0.70036975  0.65768350  1
  S2-  S134  1  -0.01158623  0.95855478  0.13453661  1
  S2-  S135  1  -0.01523588  0.95676905  0.69204460  1
  S2-  S136  1  0.36191651  0.14722362  0.14482293  1
  S2-  S137  1  0.29358083  0.08906119  0.66559368  1
  S2-  S138  1  0.23722699  0.35980777  0.15512984  1
  S2-  S139  1  0.33404300  0.36076886  0.64849673  1
  S2-  S140  1  0.14614811  0.64595937  0.13833882  1
  S2-  S141  1  0.32279968  0.62971540  0.66002273  1
  S2-  S142  1  0.25941799  0.95770047  0.13037027  1
  S2-  S143  1  0.15747378  0.86484327  0.66061921  1
  S2-  S144  1  0.55772941  0.10267029  0.17444706  1
  S2-  S145  1  0.49424961  0.20800456  0.65222253  1
  S2-  S146  1  0.52736999  0.35696822  0.16321251  1
  S2-  S147  1  0.50676498  0.50930096  0.65696650  1
  S2-  S148  1  0.59247190  0.65043637  0.15588971  1
  S2-  S149  1  0.53030112  0.73782738  0.64416452  1
  S2-  S150  1  0.52119663  0.88868803  0.14933161  1
  S2-  S151  1  0.37343753  0.87550215  0.64675606  1
  S2-  S152  1  0.75158151  0.03000336  0.13966460  1
  S2-  S153  1  0.83837927  0.12285227  0.64483877  1
  S2-  S154  1  0.73813889  0.48739013  0.15722575  1
  S2-  S155  1  0.65104858  0.36371368  0.65273592  1
  S2-  S156  1  0.90313230  0.64125226  0.16053739  1
  S2-  S157  1  0.81607103  0.59294582  0.63653884  1
  S2-  S158  1  0.75182871  0.80283006  0.16135313  1
  S2-  S159  1  0.82471341  0.84149637  0.64892073  1
  S2-  S160  1  0.22841098  -0.00701063  0.36561126  1
  S2-  S161  1  0.11362670  -0.02338559  0.82146992  1
  S2-  S162  1  0.04275056  0.21259658  0.36399862  1
  S2-  S163  1  0.12232154  0.16752108  0.85754838  1
  S2-  S164  1  0.02875509  0.47823764  0.35440959  1
  S2-  S165  1  0.12188442  0.59652048  0.85704268  1
  S2-  S166  1  0.11653037  0.71939403  0.35397546  1
  S2-  S167  1  0.10472993  0.78342954  0.81304585  1
  S2-  S168  1  0.46656324  -0.01325386  0.34930364  1
  S2-  S169  1  0.32701998  -0.04521538  0.82221120  1
  S2-  S170  1  0.38277315  0.19113436  0.34913962  1
  S2-  S171  1  0.36379410  0.15828462  0.85609098  1
  S2-  S172  1  0.25741765  0.51378084  0.36559274  1
  S2-  S173  1  0.39021048  0.57073599  0.85686769  1
  S2-  S174  1  0.35616150  0.77373286  0.35249403  1
  S2-  S175  1  0.31300065  0.74488033  0.80292336  1
  S2-  S176  1  0.66469111  0.01808400  0.30681227  1
  S2-  S177  1  0.53064828  0.01346576  0.85614823  1
  S2-  S178  1  0.62633219  0.22876656  0.34528707  1
  S2-  S179  1  0.65161682  0.26274502  0.85013577  1
  S2-  S180  1  0.60770028  0.50715217  0.34394297  1
  S2-  S181  1  0.61261745  0.49985980  0.85104831  1
  S2-  S182  1  0.62087529  0.81156209  0.34919021  1
  S2-  S183  1  0.53235633  0.75112502  0.84882838  1
  S2-  S184  1  0.86216138  0.07816128  0.36152133  1
  S2-  S185  1  0.90587733  0.02675705  0.83269658  1
  S2-  S186  1  0.84806807  0.34020780  0.35003247  1
  S2-  S187  1  0.89890774  0.25102840  0.83526111  1
  S2-  S188  1  0.83391401  0.56675366  0.32608246  1
  S2-  S189  1  0.88376675  0.49872356  0.85149919  1
  S2-  S190  1  0.85920836  0.80107909  0.34208336  1
  S2-  S191  1  0.90646471  0.75007972  0.84451637  1
  S2-  S192  1  -0.00554416  0.10523357  0.46811636  1
  S2-  S193  1  -0.00424187  0.13111084  0.95456697  1
  S2-  S194  1  -0.00179986  0.36010724  0.45818987  1
  S2-  S195  1  -0.00244519  0.38208627  0.95453565  1
  S2-  S196  1  -0.00686197  0.61183690  0.45568345  1
  S2-  S197  1  -0.00189319  0.62926266  0.96059996  1
  S2-  S198  1  -0.00834289  0.86341535  0.44768759  1
  S2-  S199  1  0.00165452  0.88301628  0.94133992  1
  S2-  S200  1  0.24338552  0.11588486  0.46212986  1
  S2-  S201  1  0.24803274  0.13339241  0.95899518  1
  S2-  S202  1  0.24611075  0.35702259  0.45664033  1
  S2-  S203  1  0.25128115  0.38461587  0.95016726  1
  S2-  S204  1  0.24489431  0.61737871  0.46582162  1
  S2-  S205  1  0.25588812  0.63450508  0.95272409  1
  S2-  S206  1  0.24216922  0.85894712  0.46541438  1
  S2-  S207  1  0.24963212  0.87551581  0.93374344  1
  S2-  S208  1  0.49646434  0.10623578  0.45779547  1
  S2-  S209  1  0.50240994  0.13620722  0.96171780  1
  S2-  S210  1  0.49163185  0.36151550  0.44550878  1
  S2-  S211  1  0.49909568  0.38505380  0.95600884  1
  S2-  S212  1  0.49140508  0.61074888  0.45601643  1
  S2-  S213  1  0.50008256  0.62982744  0.96159970  1
  S2-  S214  1  0.49512267  0.86103051  0.45832311  1
  S2-  S215  1  0.49137491  0.87426148  0.94808276  1
  S2-  S216  1  0.73342131  0.10007353  0.45422574  1
  S2-  S217  1  0.74914825  0.12995963  0.94960842  1
  S2-  S218  1  0.73978904  0.35832853  0.45444803  1
  S2-  S219  1  0.75100828  0.38499862  0.96059454  1
  S2-  S220  1  0.74326412  0.61046511  0.44386294  1
  S2-  S221  1  0.74940150  0.62887010  0.94443031  1
  S2-  S222  1  0.74242272  0.86420265  0.45193586  1
  S2-  S223  1  0.74979102  0.88287150  0.95077495  1
  S2-  S224  1  0.12295471  0.00044249  0.02925509  1
  S2-  S225  1  0.11410148  -0.01272481  0.55641766  1
  S2-  S226  1  0.12033613  0.25896629  0.04514913  1
  S2-  S227  1  0.11930962  0.23756570  0.55632967  1
  S2-  S228  1  0.12776700  0.50307655  0.04209756  1
  S2-  S229  1  0.11552152  0.48906980  0.54322719  1
  S2-  S230  1  0.12739424  0.75746451  0.03150420  1
  S2-  S231  1  0.11386217  0.73795563  0.55569925  1
  S2-  S232  1  0.37901051  0.00442517  0.03256515  1
  S2-  S233  1  0.36807220  -0.00988996  0.54390042  1
  S2-  S234  1  0.37653955  0.26128216  0.04539831  1
  S2-  S235  1  0.37019601  0.23648231  0.54901966  1
  S2-  S236  1  0.37434450  0.50842028  0.05323691  1
  S2-  S237  1  0.36870690  0.48601999  0.54805794  1
  S2-  S238  1  0.37380045  0.75742977  0.05470204  1
  S2-  S239  1  0.36455412  0.73461934  0.55089493  1
  S2-  S240  1  0.61984904  0.00546379  0.04254211  1
  S2-  S241  1  0.61515644  -0.01882512  0.55335205  1
  S2-  S242  1  0.62902932  0.25492512  0.05694311  1
  S2-  S243  1  0.61760759  0.23497195  0.54898159  1
  S2-  S244  1  0.62644448  0.50965922  0.05202707  1
  S2-  S245  1  0.61889177  0.48770185  0.54546304  1
  S2-  S246  1  0.62587600  0.75919074  0.04447333  1
  S2-  S247  1  0.62293622  0.73147941  0.54066685  1
  S2-  S248  1  0.87360193  0.00176011  0.03537451  1
  S2-  S249  1  0.87217352  -0.02120488  0.54923645  1
  S2-  S250  1  0.87648293  0.24586829  0.04165940  1
  S2-  S251  1  0.86728121  0.23287022  0.53727350  1
  S2-  S252  1  0.87152612  0.51106042  0.05259525  1
  S2-  S253  1  0.86880793  0.48588495  0.53335058  1
  S2-  S254  1  0.87399935  0.75542545  0.05035296  1
  S2-  S255  1  0.86906947  0.73565889  0.53986222  1
