# generated using pymatgen
data_La9Ce10Pr6Nd4Sm3(BiS2)32
_symmetry_space_group_name_H-M   'P 1'
_cell_length_a   16.09900365
_cell_length_b   16.19367479
_cell_length_c   27.06251480
_cell_angle_alpha   89.82378846
_cell_angle_beta   89.60821931
_cell_angle_gamma   90.01771831
_symmetry_Int_Tables_number   1
_chemical_formula_structural   La9Ce10Pr6Nd4Sm3(BiS2)32
_chemical_formula_sum   'La18 Ce20 Pr12 Nd8 Sm6 Bi64 S128'
_cell_volume   7055.05384455
_cell_formula_units_Z   2
loop_
 _symmetry_equiv_pos_site_id
 _symmetry_equiv_pos_as_xyz
  1  'x, y, z'
loop_
 _atom_type_symbol
 _atom_type_oxidation_number
  La3+  3.0
  Ce3+  3.0
  Pr3+  3.0
  Nd3+  3.0
  Sm3+  3.0
  Bi2+  2.0
  S2-  -2.0
loop_
 _atom_site_type_symbol
 _atom_site_label
 _atom_site_symmetry_multiplicity
 _atom_site_fract_x
 _atom_site_fract_y
 _atom_site_fract_z
 _atom_site_occupancy
  La3+  La0  1  0.48398666  0.12475044  0.09030922  1
  La3+  La1  1  0.11902329  0.49679794  0.93064453  1
  La3+  La2  1  -0.01338472  0.61800203  0.06449732  1
  La3+  La3  1  0.75003926  0.37614566  0.57122344  1
  La3+  La4  1  0.87282872  0.00162410  0.90525508  1
  La3+  La5  1  0.36311493  0.74730696  0.93249426  1
  La3+  La6  1  0.23412726  0.11712795  0.08201163  1
  La3+  La7  1  0.12500905  0.49621508  0.42606399  1
  La3+  La8  1  0.86237946  0.74890460  0.91725209  1
  La3+  La9  1  0.50047453  0.87217086  0.57003201  1
  La3+  La10  1  0.61958257  0.49512685  0.92909898  1
  La3+  La11  1  0.11641885  0.74816391  0.93613803  1
  La3+  La12  1  0.00926211  0.87202400  0.57933606  1
  La3+  La13  1  0.12687937  0.24035482  0.92770357  1
  La3+  La14  1  0.38459983  0.74631075  0.42308000  1
  La3+  La15  1  0.13548973  0.74950577  0.41002545  1
  La3+  La16  1  -0.00339756  0.12184733  0.59816900  1
  La3+  La17  1  0.23434581  0.86692024  0.08139678  1
  Ce3+  Ce18  1  0.37813853  0.25418518  0.43839359  1
  Ce3+  Ce19  1  0.23712087  0.62297114  0.06924657  1
  Ce3+  Ce20  1  0.62414861  0.75491806  0.43652255  1
  Ce3+  Ce21  1  0.25087466  0.37626841  0.56685834  1
  Ce3+  Ce22  1  0.25016747  0.12326474  0.55788221  1
  Ce3+  Ce23  1  0.88037159  0.75374514  0.43293261  1
  Ce3+  Ce24  1  0.62977982  0.25045002  0.43720140  1
  Ce3+  Ce25  1  0.86809323  0.49501117  0.93136099  1
  Ce3+  Ce26  1  0.74746785  0.12146848  0.56570816  1
  Ce3+  Ce27  1  0.00481266  0.63098537  0.55469472  1
  Ce3+  Ce28  1  0.38045859  0.49954010  0.44213765  1
  Ce3+  Ce29  1  0.86890074  0.24623536  0.93467557  1
  Ce3+  Ce30  1  0.49127114  0.37240270  0.06161956  1
  Ce3+  Ce31  1  0.74185012  0.12462904  0.06323372  1
  Ce3+  Ce32  1  0.13561756  -0.00017112  0.43555198  1
  Ce3+  Ce33  1  0.50427973  0.62738266  0.56047626  1
  Ce3+  Ce34  1  0.74267340  0.87020057  0.05519620  1
  Ce3+  Ce35  1  0.73976430  0.36493475  0.06165177  1
  Ce3+  Ce36  1  0.36742831  0.49526209  0.93564145  1
  Ce3+  Ce37  1  0.49819842  0.37556023  0.56580358  1
  Pr3+  Pr38  1  0.23963222  0.37255242  0.06537067  1
  Pr3+  Pr39  1  0.61607721  0.24262255  0.94150814  1
  Pr3+  Pr40  1  0.38215738  0.00693102  0.42601610  1
  Pr3+  Pr41  1  0.11955778  -0.00417800  0.93799478  1
  Pr3+  Pr42  1  0.87997103  0.24965285  0.44627194  1
  Pr3+  Pr43  1  0.63131994  0.49771859  0.42943915  1
  Pr3+  Pr44  1  -0.00960976  0.11818535  0.06490589  1
  Pr3+  Pr45  1  0.88588107  0.00256624  0.44323806  1
  Pr3+  Pr46  1  0.62033268  0.74782684  0.93978347  1
  Pr3+  Pr47  1  0.00413715  0.37899542  0.57133905  1
  Pr3+  Pr48  1  0.36361017  -0.00263956  0.94160304  1
  Pr3+  Pr49  1  0.61608610  -0.00065991  0.94733350  1
  Nd3+  Nd50  1  0.50453186  0.12413279  0.56054103  1
  Nd3+  Nd51  1  0.73746409  0.61052250  0.07199992  1
  Nd3+  Nd52  1  0.49130220  0.62190290  0.06148316  1
  Nd3+  Nd53  1  0.87898837  0.50423934  0.43200153  1
  Nd3+  Nd54  1  0.75481822  0.62870634  0.55249205  1
  Nd3+  Nd55  1  0.62602763  0.00634861  0.42536764  1
  Nd3+  Nd56  1  -0.00920288  0.36811230  0.05580168  1
  Nd3+  Nd57  1  0.25604759  0.87497804  0.55794888  1
  Sm3+  Sm58  1  0.36599508  0.24354388  0.94868258  1
  Sm3+  Sm59  1  -0.01348216  0.87028058  0.05492786  1
  Sm3+  Sm60  1  0.25040554  0.62921299  0.55314472  1
  Sm3+  Sm61  1  0.75318940  0.87872898  0.55234984  1
  Sm3+  Sm62  1  0.48800753  0.87265153  0.05932258  1
  Sm3+  Sm63  1  0.12692224  0.25097892  0.44612168  1
  Bi2+  Bi64  1  -0.03547870  0.13670240  0.30194087  1
  Bi2+  Bi65  1  -0.01810491  0.16136366  0.78888859  1
  Bi2+  Bi66  1  0.01080406  0.35440421  0.29584861  1
  Bi2+  Bi67  1  -0.00774211  0.38682866  0.78008913  1
  Bi2+  Bi68  1  0.00945510  0.63883436  0.28833480  1
  Bi2+  Bi69  1  0.04763976  0.63106774  0.79061813  1
  Bi2+  Bi70  1  -0.12150962  0.88671979  0.29158616  1
  Bi2+  Bi71  1  -0.00911970  0.89166299  0.78707048  1
  Bi2+  Bi72  1  0.22289121  0.14020211  0.31220825  1
  Bi2+  Bi73  1  0.29203270  0.09384883  0.79206830  1
  Bi2+  Bi74  1  0.38031756  0.39973096  0.31564256  1
  Bi2+  Bi75  1  0.29511910  0.35854039  0.79060985  1
  Bi2+  Bi76  1  0.27721076  0.64011801  0.28125027  1
  Bi2+  Bi77  1  0.26764823  0.61053756  0.78621667  1
  Bi2+  Bi78  1  0.20575698  0.88408631  0.27479637  1
  Bi2+  Bi79  1  0.24765197  0.86317383  0.78445070  1
  Bi2+  Bi80  1  0.50998541  0.11023360  0.29245112  1
  Bi2+  Bi81  1  0.47557111  0.04265627  0.82445819  1
  Bi2+  Bi82  1  0.57202474  0.35305279  0.32183768  1
  Bi2+  Bi83  1  0.48987195  0.33463845  0.80553232  1
  Bi2+  Bi84  1  0.54312024  0.54307354  0.30182302  1
  Bi2+  Bi85  1  0.46558135  0.62962503  0.79541162  1
  Bi2+  Bi86  1  0.48241821  0.80030147  0.25782168  1
  Bi2+  Bi87  1  0.44132645  0.82552502  0.81284740  1
  Bi2+  Bi88  1  0.75769904  0.13969122  0.27582011  1
  Bi2+  Bi89  1  0.65704448  0.11146457  0.79075119  1
  Bi2+  Bi90  1  0.74462682  0.39699008  0.26977460  1
  Bi2+  Bi91  1  0.72115270  0.39947721  0.77872859  1
  Bi2+  Bi92  1  0.73635788  0.61666043  0.28942639  1
  Bi2+  Bi93  1  0.83102968  0.63308149  0.79677602  1
  Bi2+  Bi94  1  0.67937196  0.82166607  0.31368150  1
  Bi2+  Bi95  1  0.63632964  0.82675039  0.78320896  1
  Bi2+  Bi96  1  0.00477068  -0.02067815  0.21321852  1
  Bi2+  Bi97  1  0.13098882  0.00033869  0.70938669  1
  Bi2+  Bi98  1  0.08343233  0.22305074  0.21830274  1
  Bi2+  Bi99  1  0.18895728  0.25525893  0.70460821  1
  Bi2+  Bi100  1  0.12868292  0.46319317  0.20754417  1
  Bi2+  Bi101  1  0.07342142  0.52148823  0.70011688  1
  Bi2+  Bi102  1  0.11627751  0.72668528  0.20790126  1
  Bi2+  Bi103  1  0.13183908  0.73842778  0.70522188  1
  Bi2+  Bi104  1  0.39368320  -0.00270515  0.20628235  1
  Bi2+  Bi105  1  0.44240489  0.00342626  0.71168623  1
  Bi2+  Bi106  1  0.36415076  0.28145884  0.22353575  1
  Bi2+  Bi107  1  0.42082507  0.20296369  0.72817657  1
  Bi2+  Bi108  1  0.33020846  0.47718165  0.20873701  1
  Bi2+  Bi109  1  0.36165025  0.48568150  0.71182642  1
  Bi2+  Bi110  1  0.40085699  0.66122051  0.19370156  1
  Bi2+  Bi111  1  0.37573893  0.76405583  0.70404928  1
  Bi2+  Bi112  1  0.71181749  -0.03859755  0.23391542  1
  Bi2+  Bi113  1  0.62236985  -0.06283958  0.68833724  1
  Bi2+  Bi114  1  0.61868683  0.23410009  0.21532253  1
  Bi2+  Bi115  1  0.61277721  0.23316772  0.70164228  1
  Bi2+  Bi116  1  0.58602295  0.46817956  0.19809959  1
  Bi2+  Bi117  1  0.56125946  0.47697577  0.72450666  1
  Bi2+  Bi118  1  0.65167739  0.73436487  0.21012723  1
  Bi2+  Bi119  1  0.61769578  0.66529249  0.71785464  1
  Bi2+  Bi120  1  0.85233717  0.06740004  0.17322064  1
  Bi2+  Bi121  1  0.79963442  0.01102626  0.72212622  1
  Bi2+  Bi122  1  0.88986117  0.25344420  0.19951790  1
  Bi2+  Bi123  1  0.80397454  0.27266849  0.71357309  1
  Bi2+  Bi124  1  0.86592863  0.50534852  0.20731724  1
  Bi2+  Bi125  1  0.87335386  0.51993035  0.70788751  1
  Bi2+  Bi126  1  0.87438146  0.75635132  0.21137411  1
  Bi2+  Bi127  1  0.85819292  0.73844259  0.70530587  1
  S2-  S128  1  0.09488477  0.10477092  0.14889427  1
  S2-  S129  1  0.04076686  0.19716111  0.69096040  1
  S2-  S130  1  -0.01659030  0.42090054  0.15325548  1
  S2-  S131  1  0.13354607  0.38888386  0.64501150  1
  S2-  S132  1  0.10790304  0.59863447  0.14333245  1
  S2-  S133  1  -0.01242180  0.72485125  0.64060060  1
  S2-  S134  1  0.04969081  0.85806064  0.14910536  1
  S2-  S135  1  -0.00806466  0.98037579  0.66444737  1
  S2-  S136  1  0.34600689  0.14650399  0.16121279  1
  S2-  S137  1  0.23980682  0.11428955  0.65694812  1
  S2-  S138  1  0.20042029  0.33004291  0.16259382  1
  S2-  S139  1  0.37058831  0.36602814  0.64050815  1
  S2-  S140  1  0.26102166  0.73362189  0.14815803  1
  S2-  S141  1  0.25669820  0.66057434  0.65239405  1
  S2-  S142  1  0.25191173  0.95032580  0.17465839  1
  S2-  S143  1  0.15652587  0.87491573  0.64391296  1
  S2-  S144  1  0.54954926  0.08456191  0.18350896  1
  S2-  S145  1  0.61889940  0.10244823  0.63646007  1
  S2-  S146  1  0.49650168  0.31883986  0.15697954  1
  S2-  S147  1  0.61352714  0.38231457  0.64118073  1
  S2-  S148  1  0.59743161  0.61551696  0.14275869  1
  S2-  S149  1  0.50956858  0.72727028  0.64225370  1
  S2-  S150  1  0.47492628  0.87335150  0.15834253  1
  S2-  S151  1  0.36923410  0.89513841  0.64031176  1
  S2-  S152  1  0.74328939  0.24437321  0.13917376  1
  S2-  S153  1  0.83558365  0.12547471  0.65508175  1
  S2-  S154  1  0.73695001  0.46796431  0.14137944  1
  S2-  S155  1  0.87541218  0.37610213  0.64572145  1
  S2-  S156  1  0.86824837  0.63984202  0.14213737  1
  S2-  S157  1  0.75153283  0.61815406  0.65327823  1
  S2-  S158  1  0.75889062  0.85143427  0.15380638  1
  S2-  S159  1  0.77780114  0.87087580  0.65200386  1
  S2-  S160  1  0.08386546  0.05186532  0.34400765  1
  S2-  S161  1  0.03106074  0.02067316  0.84568078  1
  S2-  S162  1  0.15423213  0.28740410  0.34873505  1
  S2-  S163  1  0.08947046  0.27061481  0.82705416  1
  S2-  S164  1  0.14998210  0.60374747  0.34418580  1
  S2-  S165  1  0.24910547  0.49003133  0.85750873  1
  S2-  S166  1  0.07668979  0.81537190  0.31516567  1
  S2-  S167  1  0.01002414  0.75593557  0.85260791  1
  S2-  S168  1  0.26508550  -0.00935863  0.34787049  1
  S2-  S169  1  0.24664827  -0.02021927  0.86336800  1
  S2-  S170  1  0.38023641  0.16930310  0.35175674  1
  S2-  S171  1  0.28308126  0.22736753  0.86221573  1
  S2-  S172  1  0.39072861  0.57971683  0.35471040  1
  S2-  S173  1  0.48810139  0.49074128  0.85889640  1
  S2-  S174  1  0.27786292  0.77676511  0.34228040  1
  S2-  S175  1  0.23816047  0.74098026  0.85685284  1
  S2-  S176  1  0.50501854  -0.01747730  0.34997686  1
  S2-  S177  1  0.63901253  -0.03046073  0.84823018  1
  S2-  S178  1  0.64074919  0.14492379  0.35679163  1
  S2-  S179  1  0.63993320  0.27201472  0.84194273  1
  S2-  S180  1  0.76076744  0.48329955  0.35676093  1
  S2-  S181  1  0.74798984  0.50094135  0.85542667  1
  S2-  S182  1  0.52449504  0.75618815  0.35412844  1
  S2-  S183  1  0.71102953  0.72126089  0.85347292  1
  S2-  S184  1  0.84036489  0.02683295  0.34582786  1
  S2-  S185  1  0.82771110  0.08703107  0.81592005  1
  S2-  S186  1  0.88043905  0.27724219  0.34544279  1
  S2-  S187  1  0.88455687  0.28466167  0.83730546  1
  S2-  S188  1  0.99107044  0.48234565  0.35345354  1
  S2-  S189  1  0.99491626  0.49425251  0.85512025  1
  S2-  S190  1  0.88063398  0.67203674  0.34488772  1
  S2-  S191  1  0.85649841  0.87655285  0.83500419  1
  S2-  S192  1  0.00702205  0.12851761  0.45411593  1
  S2-  S193  1  -0.00761122  0.12316473  0.95368309  1
  S2-  S194  1  0.00357974  0.37362807  0.46183455  1
  S2-  S195  1  -0.00329661  0.36386514  0.95079708  1
  S2-  S196  1  0.00501959  0.63120879  0.45001285  1
  S2-  S197  1  -0.01103346  0.62184259  0.95467605  1
  S2-  S198  1  0.00779661  0.87476315  0.44466763  1
  S2-  S199  1  -0.01278123  0.87819985  0.95203158  1
  S2-  S200  1  0.25225364  0.13134443  0.45329606  1
  S2-  S201  1  0.24331166  0.11984296  0.96823207  1
  S2-  S202  1  0.25294545  0.37619022  0.45740931  1
  S2-  S203  1  0.24455992  0.36801195  0.95884771  1
  S2-  S204  1  0.25379909  0.62260400  0.45036914  1
  S2-  S205  1  0.24383753  0.62013656  0.96128528  1
  S2-  S206  1  0.25717425  0.87427829  0.45229932  1
  S2-  S207  1  0.24386093  0.86910885  0.96660904  1
  S2-  S208  1  0.50434270  0.13094714  0.45597362  1
  S2-  S209  1  0.48779865  0.12172950  0.95971398  1
  S2-  S210  1  0.50454896  0.37629012  0.45715024  1
  S2-  S211  1  0.48917780  0.36527502  0.95665240  1
  S2-  S212  1  0.50956644  0.62142166  0.45610022  1
  S2-  S213  1  0.49259672  0.62636967  0.95488886  1
  S2-  S214  1  0.50363828  0.87753922  0.45821472  1
  S2-  S215  1  0.49194515  0.87195384  0.95326954  1
  S2-  S216  1  0.75514325  0.12425777  0.45836985  1
  S2-  S217  1  0.74507791  0.12036254  0.95194310  1
  S2-  S218  1  0.75358561  0.37370544  0.46065511  1
  S2-  S219  1  0.74205812  0.36538982  0.95416331  1
  S2-  S220  1  0.75062068  0.63118900  0.44783909  1
  S2-  S221  1  0.74190822  0.62049088  0.96220363  1
  S2-  S222  1  0.75307328  0.87970140  0.44649182  1
  S2-  S223  1  0.74414207  0.87735636  0.95047174  1
  S2-  S224  1  0.11305182  -0.00942923  0.04592534  1
  S2-  S225  1  0.12378991  0.00457450  0.54480421  1
  S2-  S226  1  0.11609677  0.24584869  0.04528321  1
  S2-  S227  1  0.12323279  0.24569798  0.55187742  1
  S2-  S228  1  0.11556795  0.49150167  0.04016029  1
  S2-  S229  1  0.12765634  0.50642265  0.54017122  1
  S2-  S230  1  0.11066751  0.74656391  0.04384260  1
  S2-  S231  1  0.13048649  0.75071571  0.53704678  1
  S2-  S232  1  0.36704414  -0.00355333  0.05300421  1
  S2-  S233  1  0.37935625  0.00590849  0.53888266  1
  S2-  S234  1  0.36450130  0.24748177  0.05244207  1
  S2-  S235  1  0.37729512  0.24421870  0.54451921  1
  S2-  S236  1  0.36682695  0.49770516  0.05034740  1
  S2-  S237  1  0.37606625  0.50743918  0.54792652  1
  S2-  S238  1  0.37100629  0.74705402  0.04354512  1
  S2-  S239  1  0.37775505  0.74605543  0.53739562  1
  S2-  S240  1  0.61377202  -0.00239400  0.05579612  1
  S2-  S241  1  0.62644064  -0.00519423  0.53534036  1
  S2-  S242  1  0.60787169  0.24055803  0.04779013  1
  S2-  S243  1  0.62561682  0.25074508  0.54244518  1
  S2-  S244  1  0.61228945  0.49137751  0.03834182  1
  S2-  S245  1  0.62828726  0.50561138  0.54124584  1
  S2-  S246  1  0.61393853  0.75048014  0.04664945  1
  S2-  S247  1  0.63274554  0.75359277  0.54312708  1
  S2-  S248  1  0.86497660  -0.00411952  0.04874263  1
  S2-  S249  1  0.87999725  -0.00246628  0.54938661  1
  S2-  S250  1  0.86973548  0.24312950  0.04157536  1
  S2-  S251  1  0.88072678  0.24498699  0.55206807  1
  S2-  S252  1  0.86521982  0.48893901  0.03901669  1
  S2-  S253  1  0.87974085  0.50601968  0.54195134  1
  S2-  S254  1  0.86489809  0.74981890  0.03836344  1
  S2-  S255  1  0.87581004  0.75636467  0.53885413  1
