# generated using pymatgen
data_La9Ce10Pr6Nd4Sm3(BiS2)32
_symmetry_space_group_name_H-M   'P 1'
_cell_length_a   16.15446946
_cell_length_b   16.15946423
_cell_length_c   27.04714504
_cell_angle_alpha   90.06417069
_cell_angle_beta   89.88649158
_cell_angle_gamma   89.98709564
_symmetry_Int_Tables_number   1
_chemical_formula_structural   La9Ce10Pr6Nd4Sm3(BiS2)32
_chemical_formula_sum   'La18 Ce20 Pr12 Nd8 Sm6 Bi64 S128'
_cell_volume   7060.57306176
_cell_formula_units_Z   2
loop_
 _symmetry_equiv_pos_site_id
 _symmetry_equiv_pos_as_xyz
  1  'x, y, z'
loop_
 _atom_type_symbol
 _atom_type_oxidation_number
  La3+  3.0
  Ce3+  3.0
  Pr3+  3.0
  Nd3+  3.0
  Sm3+  3.0
  Bi2+  2.0
  S2-  -2.0
loop_
 _atom_site_type_symbol
 _atom_site_label
 _atom_site_symmetry_multiplicity
 _atom_site_fract_x
 _atom_site_fract_y
 _atom_site_fract_z
 _atom_site_occupancy
  La3+  La0  1  0.73673591  0.11988646  0.57409599  1
  La3+  La1  1  0.48781825  0.38145416  0.56693842  1
  La3+  La2  1  0.36577823  0.25118427  0.42907509  1
  La3+  La3  1  0.00879526  0.13667836  0.08448413  1
  La3+  La4  1  0.73218825  0.87719363  0.55870502  1
  La3+  La5  1  0.87124980  0.01098944  0.41997877  1
  La3+  La6  1  0.49469523  0.62579760  0.07611361  1
  La3+  La7  1  0.62592436  0.00558653  0.93356018  1
  La3+  La8  1  0.37729340  0.75016585  0.92871057  1
  La3+  La9  1  0.11253751  0.24951932  0.43764175  1
  La3+  La10  1  0.74288148  0.13547111  0.07740508  1
  La3+  La11  1  0.73321892  0.38016846  0.59777483  1
  La3+  La12  1  0.61517935  0.75793702  0.41951758  1
  La3+  La13  1  0.88083571  0.51126690  0.90566400  1
  La3+  La14  1  -0.01495955  0.12636634  0.57984482  1
  La3+  La15  1  0.35775361  0.74674555  0.41587818  1
  La3+  La16  1  0.37390335  0.00185936  0.89659718  1
  La3+  La17  1  0.49833323  0.88066390  0.06667073  1
  Ce3+  Ce18  1  0.74324036  0.62661958  0.56708947  1
  Ce3+  Ce19  1  -0.01057397  0.88124433  0.56051703  1
  Ce3+  Ce20  1  0.12383416  0.51036770  0.93643379  1
  Ce3+  Ce21  1  0.24938583  0.13298113  0.05216252  1
  Ce3+  Ce22  1  0.24616496  0.37451073  0.56108447  1
  Ce3+  Ce23  1  0.37513795  0.25424870  0.93078326  1
  Ce3+  Ce24  1  0.12319763  0.01421209  0.92730091  1
  Ce3+  Ce25  1  0.36701862  0.00005096  0.44312783  1
  Ce3+  Ce26  1  0.49430053  0.12752202  0.56484231  1
  Ce3+  Ce27  1  0.87384696  0.25649534  0.93775811  1
  Ce3+  Ce28  1  0.86401929  0.24850070  0.45111919  1
  Ce3+  Ce29  1  0.24711130  0.62805913  0.55813889  1
  Ce3+  Ce30  1  0.87694794  0.75675988  0.94116074  1
  Ce3+  Ce31  1  0.37675928  0.50797645  0.93454600  1
  Ce3+  Ce32  1  -0.01280202  0.62170116  0.57374360  1
  Ce3+  Ce33  1  0.11587286  0.00062083  0.44092246  1
  Ce3+  Ce34  1  0.75266883  0.62817652  0.06106313  1
  Ce3+  Ce35  1  0.49185167  0.62612856  0.54477509  1
  Ce3+  Ce36  1  0.86718692  0.49975020  0.44867375  1
  Ce3+  Ce37  1  0.11275870  0.50095355  0.45001787  1
  Pr3+  Pr38  1  0.62721278  0.50683517  0.92867130  1
  Pr3+  Pr39  1  0.61856540  0.24995509  0.43865645  1
  Pr3+  Pr40  1  0.87163702  0.01467274  0.93612693  1
  Pr3+  Pr41  1  -0.00568156  0.37328993  0.57416656  1
  Pr3+  Pr42  1  0.24686473  0.63741795  0.07118199  1
  Pr3+  Pr43  1  0.62138189  0.50325221  0.43143708  1
  Pr3+  Pr44  1  0.60880672  0.00607709  0.42660906  1
  Pr3+  Pr45  1  0.24976140  0.88309883  0.05551416  1
  Pr3+  Pr46  1  0.86642688  0.74992341  0.43758455  1
  Pr3+  Pr47  1  -0.00216676  0.88683830  0.05812023  1
  Pr3+  Pr48  1  0.12232906  0.25539399  0.92992034  1
  Pr3+  Pr49  1  0.49940419  0.13181150  0.05627936  1
  Nd3+  Nd50  1  0.75127260  0.38308249  0.06141781  1
  Nd3+  Nd51  1  0.24336478  0.12344003  0.56522131  1
  Nd3+  Nd52  1  0.36670001  0.49591665  0.42309512  1
  Nd3+  Nd53  1  0.75372470  0.88102231  0.06729621  1
  Nd3+  Nd54  1  0.62481131  0.75511575  0.95039542  1
  Nd3+  Nd55  1  -0.00161896  0.38111725  0.05802505  1
  Nd3+  Nd56  1  0.24959526  0.38142910  0.05304092  1
  Nd3+  Nd57  1  0.11519557  0.75177696  0.44622839  1
  Sm3+  Sm58  1  0.48629930  0.86983710  0.55742973  1
  Sm3+  Sm59  1  0.62637411  0.25885864  0.93895855  1
  Sm3+  Sm60  1  0.24537335  0.87997352  0.56689773  1
  Sm3+  Sm61  1  0.00247417  0.63211097  0.06487866  1
  Sm3+  Sm62  1  0.49994899  0.38248022  0.05637674  1
  Sm3+  Sm63  1  0.12589917  0.75910065  0.94182425  1
  Bi2+  Bi64  1  0.00163840  0.14078513  0.28816826  1
  Bi2+  Bi65  1  -0.01680028  0.01268533  0.81114648  1
  Bi2+  Bi66  1  -0.09046015  0.40377190  0.29175892  1
  Bi2+  Bi67  1  0.01204216  0.36558209  0.79718684  1
  Bi2+  Bi68  1  0.00503046  0.62826001  0.30586342  1
  Bi2+  Bi69  1  0.06508928  0.62632114  0.76711841  1
  Bi2+  Bi70  1  0.07510885  0.86437178  0.31083787  1
  Bi2+  Bi71  1  -0.03137545  0.81898194  0.81175553  1
  Bi2+  Bi72  1  0.27345362  0.15912979  0.30827103  1
  Bi2+  Bi73  1  0.22478182  0.12984097  0.78819990  1
  Bi2+  Bi74  1  0.18103558  0.42087011  0.27481457  1
  Bi2+  Bi75  1  0.20769269  0.33590675  0.81067492  1
  Bi2+  Bi76  1  0.17686374  0.63384116  0.24818491  1
  Bi2+  Bi77  1  0.24785730  0.60203299  0.79463495  1
  Bi2+  Bi78  1  0.28642608  0.88007751  0.29263796  1
  Bi2+  Bi79  1  0.24451391  0.85181661  0.77718361  1
  Bi2+  Bi80  1  0.47300433  0.16528198  0.30426033  1
  Bi2+  Bi81  1  0.47414277  0.09653488  0.76866769  1
  Bi2+  Bi82  1  0.45061878  0.36107536  0.27867850  1
  Bi2+  Bi83  1  0.40041511  0.38331873  0.80902634  1
  Bi2+  Bi84  1  0.52031756  0.61142689  0.30022008  1
  Bi2+  Bi85  1  0.51410309  0.64177388  0.78016850  1
  Bi2+  Bi86  1  0.50309971  0.89924408  0.28421298  1
  Bi2+  Bi87  1  0.52025902  0.85391573  0.78755159  1
  Bi2+  Bi88  1  0.75420738  0.12626816  0.29089789  1
  Bi2+  Bi89  1  0.74957148  0.11808113  0.79500597  1
  Bi2+  Bi90  1  0.72523557  0.32694633  0.28981882  1
  Bi2+  Bi91  1  0.71109058  0.37027413  0.80023895  1
  Bi2+  Bi92  1  0.77844259  0.58335879  0.26166352  1
  Bi2+  Bi93  1  0.76540528  0.65146108  0.78054583  1
  Bi2+  Bi94  1  0.76440506  0.81572770  0.30186039  1
  Bi2+  Bi95  1  0.74637850  0.85594021  0.78777656  1
  Bi2+  Bi96  1  0.17735499  0.01593433  0.24574392  1
  Bi2+  Bi97  1  0.10304737  0.00441185  0.71833848  1
  Bi2+  Bi98  1  0.15134848  0.26602571  0.20170795  1
  Bi2+  Bi99  1  0.19610511  0.25979325  0.69837421  1
  Bi2+  Bi100  1  0.04220320  0.50181266  0.20257855  1
  Bi2+  Bi101  1  0.13289526  0.45272633  0.71877604  1
  Bi2+  Bi102  1  0.13217302  0.81344249  0.20707350  1
  Bi2+  Bi103  1  0.08691704  0.80063079  0.71282588  1
  Bi2+  Bi104  1  0.37020022  0.04408669  0.22633577  1
  Bi2+  Bi105  1  0.35682377  -0.02808345  0.70697537  1
  Bi2+  Bi106  1  0.35058808  0.24172003  0.20541397  1
  Bi2+  Bi107  1  0.36610276  0.16588901  0.67548735  1
  Bi2+  Bi108  1  0.33812746  0.52439794  0.24672153  1
  Bi2+  Bi109  1  0.33848793  0.48943474  0.71580273  1
  Bi2+  Bi110  1  0.39760490  0.73441959  0.19832992  1
  Bi2+  Bi111  1  0.38822029  0.70189174  0.69673663  1
  Bi2+  Bi112  1  0.65301892  0.01802103  0.21612884  1
  Bi2+  Bi113  1  0.61385062  -0.00748693  0.69913015  1
  Bi2+  Bi114  1  0.60300778  0.26190028  0.20363116  1
  Bi2+  Bi115  1  0.49629654  0.28134925  0.73066451  1
  Bi2+  Bi116  1  0.66312924  0.45429621  0.20489605  1
  Bi2+  Bi117  1  0.58331201  0.50367253  0.71233523  1
  Bi2+  Bi118  1  0.64035278  0.76232695  0.20687400  1
  Bi2+  Bi119  1  0.65308195  0.74768492  0.70532876  1
  Bi2+  Bi120  1  0.89173615  -0.04295940  0.21628787  1
  Bi2+  Bi121  1  0.86412988  0.01286979  0.71748860  1
  Bi2+  Bi122  1  0.87720068  0.27480405  0.21263838  1
  Bi2+  Bi123  1  0.92303348  0.24335806  0.72822931  1
  Bi2+  Bi124  1  0.85498639  0.47076577  0.17040586  1
  Bi2+  Bi125  1  0.86121627  0.51249009  0.70573837  1
  Bi2+  Bi126  1  0.92112030  0.68421872  0.20437106  1
  Bi2+  Bi127  1  0.87838609  0.79316298  0.70776344  1
  S2-  S128  1  -0.01050890  0.06798292  0.18566198  1
  S2-  S129  1  0.03120959  0.25433411  0.65212917  1
  S2-  S130  1  0.00893453  0.28699630  0.14415451  1
  S2-  S131  1  -0.00339737  0.49446186  0.65078168  1
  S2-  S132  1  0.11559241  0.62071034  0.14159013  1
  S2-  S133  1  -0.13021080  0.65643286  0.64569082  1
  S2-  S134  1  -0.02498540  0.84146600  0.15605642  1
  S2-  S135  1  -0.01061543  0.98117945  0.64260616  1
  S2-  S136  1  0.17155422  0.13588903  0.13890569  1
  S2-  S137  1  0.22385157  0.00351341  0.64279568  1
  S2-  S138  1  0.26371598  0.37067731  0.15323660  1
  S2-  S139  1  0.35302982  0.38631944  0.63803926  1
  S2-  S140  1  0.35764208  0.59942990  0.14733260  1
  S2-  S141  1  0.25202472  0.62835405  0.65720509  1
  S2-  S142  1  0.26866439  0.80319488  0.14593104  1
  S2-  S143  1  0.36867979  0.84108719  0.63728118  1
  S2-  S144  1  0.57905873  0.11768683  0.14665436  1
  S2-  S145  1  0.59890747  0.12644152  0.64480756  1
  S2-  S146  1  0.52108409  0.39754427  0.15506444  1
  S2-  S147  1  0.58141797  0.36123665  0.65559529  1
  S2-  S148  1  0.54620224  0.64183842  0.17738101  1
  S2-  S149  1  0.48638139  0.58698349  0.64098931  1
  S2-  S150  1  0.50661416  0.86420119  0.16879071  1
  S2-  S151  1  0.58959201  0.85416037  0.63802417  1
  S2-  S152  1  0.78763127  0.07619630  0.17340194  1
  S2-  S153  1  0.85103973  0.15102800  0.65591340  1
  S2-  S154  1  0.74618109  0.27740263  0.14279913  1
  S2-  S155  1  0.79995140  0.35477080  0.69663780  1
  S2-  S156  1  0.76875214  0.67787902  0.15650566  1
  S2-  S157  1  0.71085381  0.53321129  0.65162956  1
  S2-  S158  1  0.74043505  0.88713686  0.16837571  1
  S2-  S159  1  0.75260069  0.97510567  0.64261073  1
  S2-  S160  1  0.02590392  0.01346339  0.35645569  1
  S2-  S161  1  0.22055300  -0.01910775  0.84328299  1
  S2-  S162  1  0.11271770  0.23114863  0.33562685  1
  S2-  S163  1  0.09439092  0.14061635  0.85428673  1
  S2-  S164  1  0.10156165  0.49473923  0.35190827  1
  S2-  S165  1  0.03473778  0.51967715  0.85058685  1
  S2-  S166  1  0.20348219  0.77013758  0.35855020  1
  S2-  S167  1  0.16813784  0.73557726  0.84637245  1
  S2-  S168  1  0.45285596  0.01214392  0.35830899  1
  S2-  S169  1  0.53036607  -0.00659372  0.84629736  1
  S2-  S170  1  0.34083772  0.36733294  0.35278378  1
  S2-  S171  1  0.37306341  0.15961892  0.84640664  1
  S2-  S172  1  0.36049312  0.60081930  0.34118235  1
  S2-  S173  1  0.38437334  0.61576401  0.85709861  1
  S2-  S174  1  0.47904717  0.76707646  0.34054409  1
  S2-  S175  1  0.38120653  0.84593745  0.84158782  1
  S2-  S176  1  0.63687290  -0.10571947  0.34608268  1
  S2-  S177  1  0.74944935  -0.01951502  0.85830574  1
  S2-  S178  1  0.62840639  0.14096976  0.35618824  1
  S2-  S179  1  0.64582671  0.22209378  0.84081713  1
  S2-  S180  1  0.55571607  0.46773798  0.33834261  1
  S2-  S181  1  0.56754827  0.42881007  0.83844741  1
  S2-  S182  1  0.67145998  0.66173129  0.33730059  1
  S2-  S183  1  0.59622692  0.73278234  0.85229145  1
  S2-  S184  1  0.82508773  -0.03642649  0.31860049  1
  S2-  S185  1  0.87606940  0.14182093  0.86073864  1
  S2-  S186  1  0.88082499  0.17422610  0.36142365  1
  S2-  S187  1  0.86048623  0.35516620  0.85157875  1
  S2-  S188  1  0.86354910  0.53895881  0.35203223  1
  S2-  S189  1  0.73802274  0.52166385  0.84538393  1
  S2-  S190  1  0.92383131  0.77145403  0.34131156  1
  S2-  S191  1  0.88405858  0.67669932  0.85409697  1
  S2-  S192  1  -0.00673332  0.12742220  0.46652759  1
  S2-  S193  1  -0.00051286  0.13230444  0.96537700  1
  S2-  S194  1  -0.01045766  0.37424972  0.46050871  1
  S2-  S195  1  0.00143010  0.38314146  0.95198536  1
  S2-  S196  1  -0.00814377  0.62777579  0.46330329  1
  S2-  S197  1  0.00361941  0.63529907  0.95917054  1
  S2-  S198  1  -0.00823330  0.87601474  0.45488368  1
  S2-  S199  1  0.00082973  0.88467135  0.94975565  1
  S2-  S200  1  0.24133253  0.12475977  0.45418597  1
  S2-  S201  1  0.25286187  0.13027294  0.94857824  1
  S2-  S202  1  0.23601159  0.37549637  0.45524224  1
  S2-  S203  1  0.25041982  0.38293041  0.94582194  1
  S2-  S204  1  0.23679344  0.62246287  0.45173169  1
  S2-  S205  1  0.24558495  0.63208146  0.95903543  1
  S2-  S206  1  0.24048095  0.88015498  0.46009553  1
  S2-  S207  1  0.25049177  0.88134797  0.95057689  1
  S2-  S208  1  0.48777690  0.13078365  0.45879031  1
  S2-  S209  1  0.50111662  0.13371372  0.95020821  1
  S2-  S210  1  0.49312862  0.37489252  0.45282990  1
  S2-  S211  1  0.49900942  0.38000890  0.95197881  1
  S2-  S212  1  0.49179504  0.62389950  0.44145397  1
  S2-  S213  1  0.50479656  0.62645797  0.96186138  1
  S2-  S214  1  0.48512326  0.87305838  0.45278817  1
  S2-  S215  1  0.49807716  0.88048237  0.95701375  1
  S2-  S216  1  0.74155671  0.12412288  0.46070756  1
  S2-  S217  1  0.74354625  0.13606108  0.96301433  1
  S2-  S218  1  0.74400111  0.37511504  0.44060168  1
  S2-  S219  1  0.74665248  0.38260923  0.95574692  1
  S2-  S220  1  0.74458017  0.62573209  0.45731080  1
  S2-  S221  1  0.75147736  0.63120461  0.95574994  1
  S2-  S222  1  0.74663418  0.87979202  0.44900398  1
  S2-  S223  1  0.75246967  0.87628828  0.96068267  1
  S2-  S224  1  0.12489399  0.00585324  0.04235627  1
  S2-  S225  1  0.11748757  0.00080259  0.54364020  1
  S2-  S226  1  0.12746468  0.25962381  0.03714450  1
  S2-  S227  1  0.12343469  0.24899448  0.54641134  1
  S2-  S228  1  0.12410304  0.50363841  0.04283570  1
  S2-  S229  1  0.12186442  0.50086760  0.55469662  1
  S2-  S230  1  0.12019395  0.76053714  0.04560534  1
  S2-  S231  1  0.11762767  0.75394987  0.55432365  1
  S2-  S232  1  0.37390657  0.00841031  0.06270965  1
  S2-  S233  1  0.37053923  0.00194863  0.54711607  1
  S2-  S234  1  0.37646614  0.25854512  0.04231864  1
  S2-  S235  1  0.36489451  0.24772020  0.53988639  1
  S2-  S236  1  0.37418137  0.50166269  0.04147184  1
  S2-  S237  1  0.36433156  0.50370307  0.53278550  1
  S2-  S238  1  0.37665079  0.75475364  0.04193856  1
  S2-  S239  1  0.36482892  0.74774908  0.53170647  1
  S2-  S240  1  0.62679163  0.00111796  0.04607769  1
  S2-  S241  1  0.60615659  -0.00180647  0.53642264  1
  S2-  S242  1  0.61988744  0.26156704  0.04341155  1
  S2-  S243  1  0.61960929  0.25792761  0.54504477  1
  S2-  S244  1  0.62495653  0.50555044  0.04738207  1
  S2-  S245  1  0.61876745  0.49940471  0.53968195  1
  S2-  S246  1  0.62633201  0.75449530  0.05643892  1
  S2-  S247  1  0.61575835  0.74642669  0.53375409  1
  S2-  S248  1  0.87360914  0.01052338  0.05142102  1
  S2-  S249  1  0.86680287  0.00092615  0.53794534  1
  S2-  S250  1  0.87584930  0.25619557  0.04555383  1
  S2-  S251  1  0.85840734  0.26187478  0.55488927  1
  S2-  S252  1  0.87940642  0.50874153  0.04780413  1
  S2-  S253  1  0.86137554  0.49430252  0.55256391  1
  S2-  S254  1  0.87821770  0.75426730  0.04760249  1
  S2-  S255  1  0.86693724  0.75590680  0.54430173  1
