# generated using pymatgen
data_La9Ce10Pr6Nd4Sm3(BiS2)32
_symmetry_space_group_name_H-M   'P 1'
_cell_length_a   16.10684064
_cell_length_b   16.13277135
_cell_length_c   26.95365947
_cell_angle_alpha   90.03527746
_cell_angle_beta   90.02379163
_cell_angle_gamma   89.95196449
_symmetry_Int_Tables_number   1
_chemical_formula_structural   La9Ce10Pr6Nd4Sm3(BiS2)32
_chemical_formula_sum   'La18 Ce20 Pr12 Nd8 Sm6 Bi64 S128'
_cell_volume   7003.84949752
_cell_formula_units_Z   2
loop_
 _symmetry_equiv_pos_site_id
 _symmetry_equiv_pos_as_xyz
  1  'x, y, z'
loop_
 _atom_type_symbol
 _atom_type_oxidation_number
  La3+  3.0
  Ce3+  3.0
  Pr3+  3.0
  Nd3+  3.0
  Sm3+  3.0
  Bi2+  2.0
  S2-  -2.0
loop_
 _atom_site_type_symbol
 _atom_site_label
 _atom_site_symmetry_multiplicity
 _atom_site_fract_x
 _atom_site_fract_y
 _atom_site_fract_z
 _atom_site_occupancy
  La3+  La0  1  0.37349826  0.75736403  0.93158145  1
  La3+  La1  1  0.61692837  0.49547902  0.42499557  1
  La3+  La2  1  0.72700087  0.87137030  0.59304948  1
  La3+  La3  1  -0.01021504  0.61475936  0.57844946  1
  La3+  La4  1  0.23855820  0.12366160  0.57199096  1
  La3+  La5  1  0.86924589  -0.00120521  0.92265728  1
  La3+  La6  1  0.24154293  0.88390756  0.08889667  1
  La3+  La7  1  -0.00890653  0.12735531  0.07669167  1
  La3+  La8  1  0.35599519  0.00537717  0.41947511  1
  La3+  La9  1  0.23653017  0.87581924  0.56981563  1
  La3+  La10  1  0.24872571  0.62486822  0.06460102  1
  La3+  La11  1  0.25440720  0.62261401  0.57686829  1
  La3+  La12  1  0.62684586  0.76109448  0.41150585  1
  La3+  La13  1  0.48173365  0.37964420  0.57727701  1
  La3+  La14  1  0.37253057  0.50309831  0.91107964  1
  La3+  La15  1  0.35656216  0.74307845  0.41471901  1
  La3+  La16  1  0.74583862  0.13100070  0.58174901  1
  La3+  La17  1  0.62194780  0.74899710  0.93371512  1
  Ce3+  Ce18  1  0.11540305  -0.00104521  0.44196048  1
  Ce3+  Ce19  1  0.49250757  0.37989973  0.06023505  1
  Ce3+  Ce20  1  0.87065458  0.74826464  0.91896804  1
  Ce3+  Ce21  1  0.75188114  0.62349077  0.05845896  1
  Ce3+  Ce22  1  0.36024618  0.49747808  0.42729957  1
  Ce3+  Ce23  1  0.36589053  0.25114047  0.44189485  1
  Ce3+  Ce24  1  0.11183066  0.24834733  0.43959145  1
  Ce3+  Ce25  1  0.75299519  0.38055111  0.06685886  1
  Ce3+  Ce26  1  -0.01514818  0.87335051  0.56720089  1
  Ce3+  Ce27  1  0.73433723  0.62640966  0.55479794  1
  Ce3+  Ce28  1  0.49077968  0.62536118  0.54218275  1
  Ce3+  Ce29  1  0.49160337  0.62591971  0.06212468  1
  Ce3+  Ce30  1  0.25241419  0.37495405  0.06223698  1
  Ce3+  Ce31  1  0.37332215  -0.00584043  0.95055528  1
  Ce3+  Ce32  1  0.86185112  0.00089699  0.44584561  1
  Ce3+  Ce33  1  0.61150481  0.24812824  0.44355170  1
  Ce3+  Ce34  1  0.00193767  0.62150671  0.07084279  1
  Ce3+  Ce35  1  -0.01362613  0.37680485  0.55510737  1
  Ce3+  Ce36  1  0.62180692  0.24990769  0.94664565  1
  Ce3+  Ce37  1  0.48884907  0.87061697  0.54433852  1
  Pr3+  Pr38  1  0.87464632  0.49872523  0.93438105  1
  Pr3+  Pr39  1  0.50941582  0.86656266  0.08335620  1
  Pr3+  Pr40  1  0.37240988  0.24656920  0.93611134  1
  Pr3+  Pr41  1  0.50154595  0.12399961  0.07000220  1
  Pr3+  Pr42  1  0.85264440  0.24017477  0.41646571  1
  Pr3+  Pr43  1  0.87259027  0.24567988  0.93515007  1
  Pr3+  Pr44  1  0.86855526  0.74838821  0.44175438  1
  Pr3+  Pr45  1  -0.00086854  0.37557877  0.10113769  1
  Pr3+  Pr46  1  0.62131192  0.49604788  0.93486709  1
  Pr3+  Pr47  1  0.10575542  0.49956993  0.43036435  1
  Pr3+  Pr48  1  0.74441345  0.12569792  0.06702874  1
  Pr3+  Pr49  1  0.49047406  0.12107922  0.56160550  1
  Nd3+  Nd50  1  0.12095217  0.24698865  0.94462868  1
  Nd3+  Nd51  1  0.11443403  0.74497167  0.44480029  1
  Nd3+  Nd52  1  -0.00705924  0.87185513  0.06006997  1
  Nd3+  Nd53  1  0.62034347  -0.00109908  0.94080093  1
  Nd3+  Nd54  1  0.61779197  0.00126537  0.44008183  1
  Nd3+  Nd55  1  0.12303140  0.49945900  0.93946503  1
  Nd3+  Nd56  1  0.12099817  -0.00339008  0.94327259  1
  Nd3+  Nd57  1  0.12174621  0.74853371  0.94174833  1
  Sm3+  Sm58  1  0.24078417  0.37542589  0.55437106  1
  Sm3+  Sm59  1  0.24737057  0.12218241  0.06145036  1
  Sm3+  Sm60  1  0.75210752  0.87056747  0.05744422  1
  Sm3+  Sm61  1  0.73689105  0.37380722  0.56071511  1
  Sm3+  Sm62  1  0.85877150  0.49608875  0.43324648  1
  Sm3+  Sm63  1  -0.01389032  0.12879613  0.55949528  1
  Bi2+  Bi64  1  -0.02575376  0.06700046  0.28237406  1
  Bi2+  Bi65  1  0.02643561  0.17207828  0.79153674  1
  Bi2+  Bi66  1  0.02954254  0.38668595  0.30215856  1
  Bi2+  Bi67  1  -0.06933887  0.35735606  0.82052841  1
  Bi2+  Bi68  1  0.00930884  0.68629181  0.32551473  1
  Bi2+  Bi69  1  0.00602936  0.64807282  0.78785520  1
  Bi2+  Bi70  1  0.01854963  0.87938508  0.30502797  1
  Bi2+  Bi71  1  0.02953108  0.89397186  0.78439883  1
  Bi2+  Bi72  1  0.22861954  0.13486467  0.29221712  1
  Bi2+  Bi73  1  0.24899153  0.07240298  0.79169364  1
  Bi2+  Bi74  1  0.30880339  0.37104955  0.29234601  1
  Bi2+  Bi75  1  0.20014148  0.34098981  0.75711101  1
  Bi2+  Bi76  1  0.22254933  0.63379857  0.29437851  1
  Bi2+  Bi77  1  0.24044128  0.59166067  0.77881341  1
  Bi2+  Bi78  1  0.28900651  0.89946885  0.28061448  1
  Bi2+  Bi79  1  0.25160334  0.86768272  0.78798016  1
  Bi2+  Bi80  1  0.51310592  0.18270625  0.30255673  1
  Bi2+  Bi81  1  0.43661641  0.11801959  0.81458192  1
  Bi2+  Bi82  1  0.48655910  0.36514774  0.34954742  1
  Bi2+  Bi83  1  0.55826159  0.35448262  0.80714968  1
  Bi2+  Bi84  1  0.55605299  0.51371259  0.28838281  1
  Bi2+  Bi85  1  0.48660131  0.64680139  0.78685822  1
  Bi2+  Bi86  1  0.53808244  0.87647744  0.27848338  1
  Bi2+  Bi87  1  0.51702665  0.93992257  0.82003080  1
  Bi2+  Bi88  1  0.69815982  0.09285922  0.30715993  1
  Bi2+  Bi89  1  0.77783304  0.21573167  0.79071827  1
  Bi2+  Bi90  1  0.75324251  0.39543901  0.25766882  1
  Bi2+  Bi91  1  0.74464569  0.42374212  0.82261114  1
  Bi2+  Bi92  1  0.73256518  0.63168252  0.28943420  1
  Bi2+  Bi93  1  0.73738137  0.61634186  0.78962983  1
  Bi2+  Bi94  1  0.83016969  0.86131607  0.26947198  1
  Bi2+  Bi95  1  0.75430439  0.88540434  0.78079027  1
  Bi2+  Bi96  1  0.11659459  0.06282567  0.20356924  1
  Bi2+  Bi97  1  0.13098639  0.01274967  0.70212910  1
  Bi2+  Bi98  1  0.16899474  0.27596113  0.22307047  1
  Bi2+  Bi99  1  0.12182221  0.20901028  0.67967333  1
  Bi2+  Bi100  1  0.11851467  0.52260277  0.21431714  1
  Bi2+  Bi101  1  0.03487944  0.45114428  0.73907905  1
  Bi2+  Bi102  1  0.07296406  0.76226326  0.21452569  1
  Bi2+  Bi103  1  0.14784878  0.73079173  0.69758355  1
  Bi2+  Bi104  1  0.47805188  0.07393844  0.20376787  1
  Bi2+  Bi105  1  0.40512407  -0.01766153  0.71557695  1
  Bi2+  Bi106  1  0.38507760  0.24244276  0.20923803  1
  Bi2+  Bi107  1  0.31194283  0.20307403  0.71046019  1
  Bi2+  Bi108  1  0.39533026  0.48941299  0.21841656  1
  Bi2+  Bi109  1  0.40636902  0.48444892  0.70455793  1
  Bi2+  Bi110  1  0.40198233  0.72720145  0.20931404  1
  Bi2+  Bi111  1  0.39518342  0.78241513  0.72297864  1
  Bi2+  Bi112  1  0.73145197  -0.00065530  0.21111247  1
  Bi2+  Bi113  1  0.57929467  0.07260561  0.72626421  1
  Bi2+  Bi114  1  0.61937828  0.26970549  0.21740963  1
  Bi2+  Bi115  1  0.62682426  0.26546938  0.71320680  1
  Bi2+  Bi116  1  0.59801852  0.45315161  0.18127963  1
  Bi2+  Bi117  1  0.66544641  0.55641249  0.68865400  1
  Bi2+  Bi118  1  0.68520022  0.72979805  0.19083681  1
  Bi2+  Bi119  1  0.59453758  0.75914396  0.71315364  1
  Bi2+  Bi120  1  0.92528123  -0.03203769  0.18033352  1
  Bi2+  Bi121  1  0.85313513  0.01442710  0.71692298  1
  Bi2+  Bi122  1  0.88216210  0.23593516  0.22297706  1
  Bi2+  Bi123  1  0.91365268  0.27071207  0.70912358  1
  Bi2+  Bi124  1  0.91154845  0.61730614  0.23458902  1
  Bi2+  Bi125  1  0.83719461  0.47242357  0.71561038  1
  Bi2+  Bi126  1  0.87282350  0.76375690  0.15598474  1
  Bi2+  Bi127  1  0.85378642  0.75360190  0.72121729  1
  S2-  S128  1  0.02484240  0.23348530  0.16304260  1
  S2-  S129  1  -0.09689980  0.12402150  0.64861264  1
  S2-  S130  1  -0.02671122  0.52079962  0.15702517  1
  S2-  S131  1  -0.01948056  0.46458207  0.64151185  1
  S2-  S132  1  0.13420467  0.63952119  0.14586763  1
  S2-  S133  1  -0.01925166  0.67983305  0.67681907  1
  S2-  S134  1  0.08467727  0.88536609  0.14852535  1
  S2-  S135  1  0.09813318  0.87739145  0.64501080  1
  S2-  S136  1  0.25171161  0.04338518  0.15047965  1
  S2-  S137  1  0.27767230  0.00218475  0.64436484  1
  S2-  S138  1  0.16173109  0.39762981  0.14807603  1
  S2-  S139  1  0.33170928  0.38566438  0.64125787  1
  S2-  S140  1  0.36704102  0.60229467  0.14222827  1
  S2-  S141  1  0.19142092  0.57988848  0.67284345  1
  S2-  S142  1  0.27582563  0.81557564  0.18464260  1
  S2-  S143  1  0.28762433  0.76254419  0.64351662  1
  S2-  S144  1  0.62107351  0.12697290  0.14792757  1
  S2-  S145  1  0.49497843  0.17925708  0.65879148  1
  S2-  S146  1  0.38055023  0.37405927  0.13752100  1
  S2-  S147  1  0.55708819  0.42096854  0.66882846  1
  S2-  S148  1  0.53307946  0.71706705  0.14569767  1
  S2-  S149  1  0.42573090  0.59145559  0.63267109  1
  S2-  S150  1  0.46134933  0.91394020  0.18204961  1
  S2-  S151  1  0.55672286  0.85630707  0.63638432  1
  S2-  S152  1  0.85174992  0.12248264  0.14788429  1
  S2-  S153  1  0.71239402  0.01738510  0.66083902  1
  S2-  S154  1  0.83377559  0.35715449  0.15565009  1
  S2-  S155  1  0.74851081  0.27961304  0.64573377  1
  S2-  S156  1  0.72528136  0.57006134  0.15242786  1
  S2-  S157  1  0.73137114  0.70765297  0.64363836  1
  S2-  S158  1  0.66750125  0.88752549  0.14536524  1
  S2-  S159  1  0.87890643  0.88092173  0.65125208  1
  S2-  S160  1  0.20594097  -0.00548528  0.35626316  1
  S2-  S161  1  0.08899719  0.02108025  0.84414403  1
  S2-  S162  1  0.10341634  0.24011687  0.34039331  1
  S2-  S163  1  0.14070002  0.25884154  0.84275686  1
  S2-  S164  1  0.17727148  0.47500595  0.33539293  1
  S2-  S165  1  0.10633997  0.53990036  0.83910305  1
  S2-  S166  1  0.20204287  0.76135541  0.35509619  1
  S2-  S167  1  0.12389010  0.77326784  0.83896256  1
  S2-  S168  1  0.41859119  -0.02430799  0.31933231  1
  S2-  S169  1  0.34725599  -0.09630115  0.86591941  1
  S2-  S170  1  0.35067983  0.16192731  0.35793872  1
  S2-  S171  1  0.41066284  0.28236783  0.83865458  1
  S2-  S172  1  0.35642945  0.59635260  0.34684827  1
  S2-  S173  1  0.30790201  0.45548451  0.81005767  1
  S2-  S174  1  0.39717377  0.78773364  0.31166320  1
  S2-  S175  1  0.34121131  0.65073714  0.84850699  1
  S2-  S176  1  0.63984169  -0.06791877  0.34681618  1
  S2-  S177  1  0.68744265  -0.01296773  0.84669736  1
  S2-  S178  1  0.69762276  0.23815740  0.35865695  1
  S2-  S179  1  0.63281366  0.20998581  0.85088525  1
  S2-  S180  1  0.74733596  0.48464128  0.35168389  1
  S2-  S181  1  0.52205051  0.50726230  0.84934202  1
  S2-  S182  1  0.58965191  0.71070274  0.31313050  1
  S2-  S183  1  0.51227681  0.77546404  0.85448866  1
  S2-  S184  1  0.85562404  0.08507801  0.35751307  1
  S2-  S185  1  0.90349799  -0.12043764  0.84550239  1
  S2-  S186  1  0.88734053  0.31105339  0.31957737  1
  S2-  S187  1  0.88232425  0.13178118  0.85386795  1
  S2-  S188  1  0.96931491  0.51818164  0.35642113  1
  S2-  S189  1  0.89512183  0.61289766  0.85371634  1
  S2-  S190  1  0.78611276  0.76010413  0.35098607  1
  S2-  S191  1  0.73268904  0.75201761  0.85137795  1
  S2-  S192  1  -0.01145130  0.12548407  0.45393050  1
  S2-  S193  1  -0.00169960  0.12282815  0.96085207  1
  S2-  S194  1  -0.01747890  0.36933595  0.44945147  1
  S2-  S195  1  0.00018831  0.37244326  0.94467968  1
  S2-  S196  1  -0.01341756  0.62049515  0.46447218  1
  S2-  S197  1  0.00169823  0.62407613  0.95897938  1
  S2-  S198  1  -0.00860549  0.87513965  0.45545805  1
  S2-  S199  1  -0.00268017  0.87303235  0.95377618  1
  S2-  S200  1  0.23346543  0.12760342  0.46220379  1
  S2-  S201  1  0.24691897  0.12085561  0.95370655  1
  S2-  S202  1  0.23691786  0.37158959  0.44902384  1
  S2-  S203  1  0.24798272  0.37317001  0.94851088  1
  S2-  S204  1  0.23440998  0.61675183  0.45473719  1
  S2-  S205  1  0.24543520  0.62468214  0.95447072  1
  S2-  S206  1  0.23555954  0.87341211  0.45966701  1
  S2-  S207  1  0.24174490  0.87530242  0.96799189  1
  S2-  S208  1  0.49061567  0.12264745  0.45275899  1
  S2-  S209  1  0.49781225  0.12295842  0.95927005  1
  S2-  S210  1  0.48941830  0.37538328  0.46233346  1
  S2-  S211  1  0.49469519  0.37207711  0.95388313  1
  S2-  S212  1  0.49719996  0.62537589  0.43719335  1
  S2-  S213  1  0.49482544  0.62416709  0.95503253  1
  S2-  S214  1  0.48794004  0.87531114  0.43882869  1
  S2-  S215  1  0.49999939  0.87712236  0.96795140  1
  S2-  S216  1  0.73744155  0.12395743  0.46574567  1
  S2-  S217  1  0.74523746  0.12377247  0.95889405  1
  S2-  S218  1  0.74004260  0.36959588  0.45654625  1
  S2-  S219  1  0.74852124  0.37302763  0.95645469  1
  S2-  S220  1  0.73990432  0.62495392  0.44975798  1
  S2-  S221  1  0.74593205  0.61787817  0.95199427  1
  S2-  S222  1  0.74343961  0.87752660  0.45790635  1
  S2-  S223  1  0.74934806  0.87553818  0.95392598  1
  S2-  S224  1  0.11686580  0.00554588  0.04860980  1
  S2-  S225  1  0.10681246  0.00641116  0.54730594  1
  S2-  S226  1  0.12676715  0.24755751  0.05062578  1
  S2-  S227  1  0.11287388  0.25309261  0.54789652  1
  S2-  S228  1  0.12042617  0.49367578  0.04404548  1
  S2-  S229  1  0.11988214  0.49572464  0.54451220  1
  S2-  S230  1  0.12150608  0.75423224  0.04715424  1
  S2-  S231  1  0.11276068  0.73957002  0.55051122  1
  S2-  S232  1  0.37739124  -0.00050376  0.05577053  1
  S2-  S233  1  0.36783510  -0.00052640  0.53637494  1
  S2-  S234  1  0.37257282  0.24076776  0.04503765  1
  S2-  S235  1  0.36278949  0.24660337  0.54798589  1
  S2-  S236  1  0.37140088  0.49766004  0.03250348  1
  S2-  S237  1  0.36329585  0.49659059  0.53272017  1
  S2-  S238  1  0.37063882  0.75892337  0.05080371  1
  S2-  S239  1  0.36804313  0.74749947  0.53000683  1
  S2-  S240  1  0.62442583  -0.00286729  0.04636626  1
  S2-  S241  1  0.61525862  -0.00096485  0.54648570  1
  S2-  S242  1  0.62228021  0.25829163  0.05257496  1
  S2-  S243  1  0.61057006  0.25258444  0.55017191  1
  S2-  S244  1  0.62052834  0.50046804  0.04326866  1
  S2-  S245  1  0.61527154  0.49738920  0.54120529  1
  S2-  S246  1  0.63031785  0.74588460  0.04180106  1
  S2-  S247  1  0.61401384  0.74822717  0.53125244  1
  S2-  S248  1  0.86920132  -0.00252576  0.04181503  1
  S2-  S249  1  0.86354061  0.00129735  0.54897382  1
  S2-  S250  1  0.87542973  0.25591939  0.04434118  1
  S2-  S251  1  0.86672402  0.25342659  0.54066900  1
  S2-  S252  1  0.87714365  0.49793926  0.04356024  1
  S2-  S253  1  0.85595590  0.49806181  0.54211306  1
  S2-  S254  1  0.87305540  0.74612965  0.03607380  1
  S2-  S255  1  0.86573073  0.74447080  0.54870429  1
