# generated using pymatgen
data_La9Ce10Pr6Nd4Sm3(BiS2)32
_symmetry_space_group_name_H-M   'P 1'
_cell_length_a   16.12876619
_cell_length_b   16.11452505
_cell_length_c   27.08658576
_cell_angle_alpha   89.93541021
_cell_angle_beta   90.22820693
_cell_angle_gamma   90.17471851
_symmetry_Int_Tables_number   1
_chemical_formula_structural   La9Ce10Pr6Nd4Sm3(BiS2)32
_chemical_formula_sum   'La18 Ce20 Pr12 Nd8 Sm6 Bi64 S128'
_cell_volume   7039.91131271
_cell_formula_units_Z   2
loop_
 _symmetry_equiv_pos_site_id
 _symmetry_equiv_pos_as_xyz
  1  'x, y, z'
loop_
 _atom_type_symbol
 _atom_type_oxidation_number
  La3+  3.0
  Ce3+  3.0
  Pr3+  3.0
  Nd3+  3.0
  Sm3+  3.0
  Bi2+  2.0
  S2-  -2.0
loop_
 _atom_site_type_symbol
 _atom_site_label
 _atom_site_symmetry_multiplicity
 _atom_site_fract_x
 _atom_site_fract_y
 _atom_site_fract_z
 _atom_site_occupancy
  La3+  La0  1  0.75239477  0.63027596  0.56921584  1
  La3+  La1  1  0.63320594  -0.01789343  0.92964822  1
  La3+  La2  1  0.37461010  0.24953498  0.42601503  1
  La3+  La3  1  0.12335621  0.23616803  0.92338950  1
  La3+  La4  1  0.50294222  0.37587514  0.55715827  1
  La3+  La5  1  0.86873127  0.24529420  0.91770039  1
  La3+  La6  1  0.25668755  0.87202948  0.09840995  1
  La3+  La7  1  0.37936778  -0.00260365  0.39921423  1
  La3+  La8  1  0.50613070  0.85957227  0.08189056  1
  La3+  La9  1  0.00590769  0.87641273  0.55607856  1
  La3+  La10  1  0.63245171  0.74820342  0.41778809  1
  La3+  La11  1  0.37235618  0.74927940  0.93369918  1
  La3+  La12  1  -0.00277612  0.36452783  0.58620207  1
  La3+  La13  1  0.76407058  0.60828848  0.08312297  1
  La3+  La14  1  0.11706574  0.26188169  0.42105030  1
  La3+  La15  1  0.25900284  0.36415921  0.57958485  1
  La3+  La16  1  0.50482614  0.86704423  0.56197203  1
  La3+  La17  1  0.12436815  0.00283085  0.39873307  1
  Ce3+  Ce18  1  0.13094889  -0.00816781  0.95261890  1
  Ce3+  Ce19  1  0.62887915  0.24064497  0.93960549  1
  Ce3+  Ce20  1  0.37834540  0.49210903  0.94776536  1
  Ce3+  Ce21  1  0.88065588  0.74763252  0.43598221  1
  Ce3+  Ce22  1  0.00594966  0.62326837  0.56021393  1
  Ce3+  Ce23  1  0.50366136  0.11982785  0.06430731  1
  Ce3+  Ce24  1  0.75520976  0.11635538  0.06196938  1
  Ce3+  Ce25  1  0.00356597  0.86950894  0.07032857  1
  Ce3+  Ce26  1  0.75256743  0.87003078  0.55622744  1
  Ce3+  Ce27  1  0.62311753  0.73863172  0.94853973  1
  Ce3+  Ce28  1  0.75451392  0.86636017  0.07029973  1
  Ce3+  Ce29  1  0.49758873  0.62512022  0.55798186  1
  Ce3+  Ce30  1  0.37973426  -0.00982979  0.95272699  1
  Ce3+  Ce31  1  0.13012843  0.75206268  0.43397936  1
  Ce3+  Ce32  1  0.62716785  0.49376046  0.94689968  1
  Ce3+  Ce33  1  0.62885110  -0.00224629  0.43236478  1
  Ce3+  Ce34  1  0.25878186  0.62827635  0.56604504  1
  Ce3+  Ce35  1  0.50213937  0.36200338  0.06756328  1
  Ce3+  Ce36  1  0.50054840  0.12116420  0.55425675  1
  Ce3+  Ce37  1  0.00741706  0.36690563  0.04291300  1
  Pr3+  Pr38  1  0.88041610  0.49752895  0.43918143  1
  Pr3+  Pr39  1  0.75162170  0.12415005  0.56174552  1
  Pr3+  Pr40  1  0.25014086  0.36602926  0.06672745  1
  Pr3+  Pr41  1  0.74865802  0.38300496  0.57042111  1
  Pr3+  Pr42  1  0.63018554  0.25114122  0.43403454  1
  Pr3+  Pr43  1  -0.00103102  0.12340738  0.06736493  1
  Pr3+  Pr44  1  0.00650823  0.61676054  0.05992035  1
  Pr3+  Pr45  1  0.14173953  0.49623710  0.92542103  1
  Pr3+  Pr46  1  0.76157006  0.36356125  0.06092191  1
  Pr3+  Pr47  1  0.24414715  0.12646638  0.09130839  1
  Pr3+  Pr48  1  0.87841757  0.49759027  0.92638046  1
  Pr3+  Pr49  1  0.87893335  0.73990633  0.93664491  1
  Nd3+  Nd50  1  0.37631653  0.75141676  0.43092142  1
  Nd3+  Nd51  1  0.87684721  0.00142749  0.42406635  1
  Nd3+  Nd52  1  0.13024204  0.49425951  0.45547572  1
  Nd3+  Nd53  1  0.37911773  0.24131544  0.94031033  1
  Nd3+  Nd54  1  0.25622151  0.87537555  0.55944536  1
  Nd3+  Nd55  1  0.37474237  0.49625145  0.43176712  1
  Nd3+  Nd56  1  0.50574964  0.61003353  0.07169648  1
  Nd3+  Nd57  1  0.00445437  0.12606601  0.55125929  1
  Sm3+  Sm58  1  0.13061392  0.74634577  0.94735692  1
  Sm3+  Sm59  1  0.63526231  0.50355354  0.43141186  1
  Sm3+  Sm60  1  0.25601080  0.62228500  0.06876644  1
  Sm3+  Sm61  1  0.87238650  0.25188930  0.43842801  1
  Sm3+  Sm62  1  0.87919047  -0.00990695  0.94263671  1
  Sm3+  Sm63  1  0.25221540  0.12499507  0.54491020  1
  Bi2+  Bi64  1  0.00894294  0.15680694  0.28287201  1
  Bi2+  Bi65  1  0.05583707  0.06696109  0.71809371  1
  Bi2+  Bi66  1  -0.01480074  0.43073323  0.30737700  1
  Bi2+  Bi67  1  0.00443983  0.34322466  0.79657759  1
  Bi2+  Bi68  1  -0.01552201  0.62981580  0.31650008  1
  Bi2+  Bi69  1  -0.01102681  0.76112761  0.81902772  1
  Bi2+  Bi70  1  -0.02116659  0.81162660  0.27288362  1
  Bi2+  Bi71  1  -0.01044036  0.95314536  0.80815578  1
  Bi2+  Bi72  1  0.27472887  0.13155534  0.26510832  1
  Bi2+  Bi73  1  0.23978803  0.08489378  0.77971718  1
  Bi2+  Bi74  1  0.25386666  0.47838287  0.29802749  1
  Bi2+  Bi75  1  0.23309663  0.42345675  0.78564348  1
  Bi2+  Bi76  1  0.18928281  0.66411404  0.31564102  1
  Bi2+  Bi77  1  0.33025892  0.65576384  0.79611845  1
  Bi2+  Bi78  1  0.24073932  0.84789194  0.27814596  1
  Bi2+  Bi79  1  0.25986492  0.89156950  0.79247256  1
  Bi2+  Bi80  1  0.53687249  0.15586042  0.28773362  1
  Bi2+  Bi81  1  0.49227252  0.16123661  0.80186510  1
  Bi2+  Bi82  1  0.52603488  0.34476552  0.31716529  1
  Bi2+  Bi83  1  0.50432591  0.38164609  0.79514273  1
  Bi2+  Bi84  1  0.43230752  0.57672975  0.31132806  1
  Bi2+  Bi85  1  0.58714839  0.60512720  0.77331938  1
  Bi2+  Bi86  1  0.47790396  0.90852736  0.26880549  1
  Bi2+  Bi87  1  0.50867772  0.85594741  0.80750834  1
  Bi2+  Bi88  1  0.75935416  0.13459796  0.28247214  1
  Bi2+  Bi89  1  0.83605543  0.11607063  0.80300164  1
  Bi2+  Bi90  1  0.71660703  0.36554359  0.28534511  1
  Bi2+  Bi91  1  0.72326831  0.35933014  0.79017011  1
  Bi2+  Bi92  1  0.73648975  0.60814696  0.29389540  1
  Bi2+  Bi93  1  0.77523630  0.62269784  0.77117456  1
  Bi2+  Bi94  1  0.75757617  0.87373680  0.28644821  1
  Bi2+  Bi95  1  0.76081334  0.85835944  0.78895036  1
  Bi2+  Bi96  1  0.05552937  -0.00238781  0.21794340  1
  Bi2+  Bi97  1  0.22011166  -0.01580639  0.67964414  1
  Bi2+  Bi98  1  0.12142836  0.28540860  0.20695075  1
  Bi2+  Bi99  1  0.13425137  0.27936881  0.70038299  1
  Bi2+  Bi100  1  0.09427527  0.48526881  0.20355016  1
  Bi2+  Bi101  1  0.13161923  0.64180084  0.78318619  1
  Bi2+  Bi102  1  0.09493492  0.68446749  0.21366468  1
  Bi2+  Bi103  1  0.13743274  0.80540568  0.71763063  1
  Bi2+  Bi104  1  0.44657051  0.04505612  0.18932883  1
  Bi2+  Bi105  1  0.40618622  0.03133826  0.72391141  1
  Bi2+  Bi106  1  0.42449672  0.35691612  0.20605561  1
  Bi2+  Bi107  1  0.36622838  0.25138471  0.70468548  1
  Bi2+  Bi108  1  0.28578420  0.49094214  0.17988768  1
  Bi2+  Bi109  1  0.43096784  0.52345320  0.72623366  1
  Bi2+  Bi110  1  0.35284054  0.66427454  0.22347046  1
  Bi2+  Bi111  1  0.39677651  0.75583636  0.68809704  1
  Bi2+  Bi112  1  0.64976530  0.03325999  0.19613690  1
  Bi2+  Bi113  1  0.68450276  0.01346424  0.72345607  1
  Bi2+  Bi114  1  0.66075374  0.23626520  0.19661882  1
  Bi2+  Bi115  1  0.60546989  0.22830686  0.71548383  1
  Bi2+  Bi116  1  0.56348543  0.49136482  0.24126037  1
  Bi2+  Bi117  1  0.60379597  0.41883648  0.69047445  1
  Bi2+  Bi118  1  0.59346590  0.75160286  0.22002795  1
  Bi2+  Bi119  1  0.63639474  0.83378544  0.69926741  1
  Bi2+  Bi120  1  0.85857657  0.01568563  0.20685827  1
  Bi2+  Bi121  1  0.87942909  -0.03001458  0.70969952  1
  Bi2+  Bi122  1  0.85319557  0.30176459  0.19256882  1
  Bi2+  Bi123  1  0.87491893  0.21891526  0.71397547  1
  Bi2+  Bi124  1  0.88122490  0.50815880  0.22160037  1
  Bi2+  Bi125  1  0.87283807  0.48868281  0.70543761  1
  Bi2+  Bi126  1  0.83249323  0.74697510  0.20593049  1
  Bi2+  Bi127  1  0.89543146  0.74064625  0.70879798  1
  S2-  S128  1  0.09148123  0.13805327  0.15592757  1
  S2-  S129  1  0.00468861  0.19426936  0.64408947  1
  S2-  S130  1  -0.00509875  0.34810390  0.14071017  1
  S2-  S131  1  0.02375447  0.40828208  0.69095097  1
  S2-  S132  1  -0.08749344  0.62543133  0.14545083  1
  S2-  S133  1  -0.03942177  0.61441435  0.65563569  1
  S2-  S134  1  -0.12045568  0.87420423  0.14310191  1
  S2-  S135  1  0.00443402  0.84790805  0.65661379  1
  S2-  S136  1  0.27452378  0.03439877  0.17687580  1
  S2-  S137  1  0.25203686  0.20404257  0.63590188  1
  S2-  S138  1  0.25828722  0.26999641  0.15447077  1
  S2-  S139  1  0.22603145  0.41149082  0.68346879  1
  S2-  S140  1  0.24159223  0.71620632  0.15372377  1
  S2-  S141  1  0.38186899  0.59958591  0.63749689  1
  S2-  S142  1  0.10346812  0.88265083  0.15537795  1
  S2-  S143  1  0.24409754  0.75766536  0.63762441  1
  S2-  S144  1  0.49903561  0.24009899  0.14278978  1
  S2-  S145  1  0.48051288  0.14661572  0.65265964  1
  S2-  S146  1  0.51098266  0.47448820  0.14557232  1
  S2-  S147  1  0.41110012  0.36250125  0.64248428  1
  S2-  S148  1  0.48328664  0.70418953  0.15496588  1
  S2-  S149  1  0.54394188  0.72909535  0.63569335  1
  S2-  S150  1  0.40169904  0.88568920  0.16563986  1
  S2-  S151  1  0.42447576  0.90486068  0.65294755  1
  S2-  S152  1  0.86471977  0.14841202  0.13833949  1
  S2-  S153  1  0.73739335  0.15100320  0.66178414  1
  S2-  S154  1  0.77456882  0.44831567  0.14949669  1
  S2-  S155  1  0.84986439  0.34643384  0.65098403  1
  S2-  S156  1  0.69197904  0.64630449  0.17674442  1
  S2-  S157  1  0.73044387  0.51612992  0.64603387  1
  S2-  S158  1  0.64343781  0.87425790  0.14997926  1
  S2-  S159  1  0.76142005  0.76985891  0.63811261  1
  S2-  S160  1  -0.02109202  0.02460419  0.33989358  1
  S2-  S161  1  0.14072060  -0.00807577  0.85256358  1
  S2-  S162  1  0.16041771  0.18931530  0.32677168  1
  S2-  S163  1  0.16745606  0.29494546  0.82889855  1
  S2-  S164  1  0.12872047  0.41889557  0.36384747  1
  S2-  S165  1  0.07348938  0.50079900  0.83020112  1
  S2-  S166  1  0.11976625  0.84126058  0.34705279  1
  S2-  S167  1  0.22338064  0.73931769  0.86298239  1
  S2-  S168  1  0.24779304  -0.00153144  0.32266175  1
  S2-  S169  1  0.37734540  -0.10093865  0.86817232  1
  S2-  S170  1  0.38394007  0.15085967  0.33875659  1
  S2-  S171  1  0.38811520  0.28692994  0.84136553  1
  S2-  S172  1  0.35983192  0.37755838  0.35414189  1
  S2-  S173  1  0.29819235  0.51054498  0.86156596  1
  S2-  S174  1  0.37539569  0.83940674  0.34227453  1
  S2-  S175  1  0.47118016  0.70017915  0.85128396  1
  S2-  S176  1  0.53232775  0.01113524  0.34525597  1
  S2-  S177  1  0.54937173  0.01686756  0.83963097  1
  S2-  S178  1  0.75273293  0.25002247  0.36029958  1
  S2-  S179  1  0.71491329  0.22731256  0.85312989  1
  S2-  S180  1  0.60393957  0.60981659  0.35098697  1
  S2-  S181  1  0.63388813  0.48923416  0.84692343  1
  S2-  S182  1  0.59867330  0.82201305  0.32020599  1
  S2-  S183  1  0.64064564  0.82344660  0.86248179  1
  S2-  S184  1  0.74919781  0.00089872  0.35305924  1
  S2-  S185  1  0.77877843  -0.01180482  0.86066063  1
  S2-  S186  1  0.96674260  0.27599735  0.35464191  1
  S2-  S187  1  0.98630493  0.20122049  0.84535441  1
  S2-  S188  1  0.76768182  0.48284829  0.35898934  1
  S2-  S189  1  0.86269200  0.38885591  0.84340366  1
  S2-  S190  1  0.78596055  0.74493236  0.35313486  1
  S2-  S191  1  0.87071371  0.62903081  0.85490452  1
  S2-  S192  1  -0.00048364  0.12591223  0.44784006  1
  S2-  S193  1  0.00045344  0.11110052  0.95608672  1
  S2-  S194  1  -0.00221806  0.37616167  0.46826767  1
  S2-  S195  1  0.00926486  0.37342485  0.93987449  1
  S2-  S196  1  0.00712294  0.62269128  0.45316454  1
  S2-  S197  1  0.01280980  0.61744556  0.95272856  1
  S2-  S198  1  0.00035408  0.87956896  0.44764015  1
  S2-  S199  1  0.00357203  0.86674822  0.95871351  1
  S2-  S200  1  0.24475937  0.12157527  0.44209543  1
  S2-  S201  1  0.25668700  0.11659590  0.94375013  1
  S2-  S202  1  0.25259896  0.37169451  0.46302391  1
  S2-  S203  1  0.25347351  0.36405784  0.95606678  1
  S2-  S204  1  0.25285196  0.62299615  0.45208603  1
  S2-  S205  1  0.25345425  0.62024931  0.96524588  1
  S2-  S206  1  0.25127182  0.87899478  0.44994993  1
  S2-  S207  1  0.25039796  0.87005685  0.97054687  1
  S2-  S208  1  0.50655765  0.12564531  0.44945446  1
  S2-  S209  1  0.50463807  0.11750412  0.95641732  1
  S2-  S210  1  0.50988402  0.37990816  0.44892358  1
  S2-  S211  1  0.50308889  0.36623912  0.95758182  1
  S2-  S212  1  0.49634458  0.62384660  0.45110220  1
  S2-  S213  1  0.50143755  0.61378665  0.96369778  1
  S2-  S214  1  0.50289603  0.87315041  0.44919795  1
  S2-  S215  1  0.50560865  0.86624684  0.96898720  1
  S2-  S216  1  0.75397364  0.12232998  0.45626515  1
  S2-  S217  1  0.75275622  0.11434900  0.95782244  1
  S2-  S218  1  0.75117805  0.37678208  0.46298993  1
  S2-  S219  1  0.74985217  0.37074908  0.95373630  1
  S2-  S220  1  0.75832101  0.62404184  0.45802314  1
  S2-  S221  1  0.75086444  0.61681764  0.95867626  1
  S2-  S222  1  0.75772539  0.87476297  0.45289865  1
  S2-  S223  1  0.75817114  0.86163031  0.96333001  1
  S2-  S224  1  0.13069371  -0.00091342  0.05579506  1
  S2-  S225  1  0.12977985  0.00244777  0.54827227  1
  S2-  S226  1  0.12933007  0.24020551  0.03735488  1
  S2-  S227  1  0.12610878  0.24919400  0.53872582  1
  S2-  S228  1  0.13214947  0.49470552  0.04534903  1
  S2-  S229  1  0.13047741  0.49734990  0.56246644  1
  S2-  S230  1  0.12764792  0.74390369  0.05078814  1
  S2-  S231  1  0.12763438  0.74865522  0.53974260  1
  S2-  S232  1  0.37420575  0.00138388  0.05641195  1
  S2-  S233  1  0.37526589  0.00103187  0.54278534  1
  S2-  S234  1  0.37189595  0.23813180  0.04521467  1
  S2-  S235  1  0.38134911  0.24463395  0.53455115  1
  S2-  S236  1  0.37377637  0.49151346  0.05103125  1
  S2-  S237  1  0.37402580  0.49565046  0.53662656  1
  S2-  S238  1  0.37665028  0.74131559  0.04965242  1
  S2-  S239  1  0.37617679  0.75100294  0.53597575  1
  S2-  S240  1  0.62822493  -0.00309088  0.04682963  1
  S2-  S241  1  0.62768394  -0.00377129  0.54857112  1
  S2-  S242  1  0.63378234  0.24225653  0.04529535  1
  S2-  S243  1  0.62805826  0.24986330  0.54672253  1
  S2-  S244  1  0.63369220  0.48800190  0.05078762  1
  S2-  S245  1  0.62343223  0.50533033  0.53830127  1
  S2-  S246  1  0.63488289  0.73155850  0.05309039  1
  S2-  S247  1  0.63084110  0.74935986  0.52945966  1
  S2-  S248  1  0.87853382  -0.00602323  0.04493516  1
  S2-  S249  1  0.87740856  -0.00033071  0.54899418  1
  S2-  S250  1  0.88091083  0.24477888  0.03022087  1
  S2-  S251  1  0.87425176  0.24724696  0.54342722  1
  S2-  S252  1  0.88415512  0.49107344  0.03663404  1
  S2-  S253  1  0.88169529  0.50065227  0.54765523  1
  S2-  S254  1  0.88073606  0.74086807  0.04356376  1
  S2-  S255  1  0.88384346  0.74888232  0.54054811  1
