# generated using pymatgen
data_La9Ce10Pr6Nd4Sm3(BiS2)32
_symmetry_space_group_name_H-M   'P 1'
_cell_length_a   16.20433285
_cell_length_b   16.18204899
_cell_length_c   27.18508565
_cell_angle_alpha   90.26413778
_cell_angle_beta   89.96069997
_cell_angle_gamma   90.00258101
_symmetry_Int_Tables_number   1
_chemical_formula_structural   La9Ce10Pr6Nd4Sm3(BiS2)32
_chemical_formula_sum   'La18 Ce20 Pr12 Nd8 Sm6 Bi64 S128'
_cell_volume   7128.37691849
_cell_formula_units_Z   2
loop_
 _symmetry_equiv_pos_site_id
 _symmetry_equiv_pos_as_xyz
  1  'x, y, z'
loop_
 _atom_type_symbol
 _atom_type_oxidation_number
  La3+  3.0
  Ce3+  3.0
  Pr3+  3.0
  Nd3+  3.0
  Sm3+  3.0
  Bi2+  2.0
  S2-  -2.0
loop_
 _atom_site_type_symbol
 _atom_site_label
 _atom_site_symmetry_multiplicity
 _atom_site_fract_x
 _atom_site_fract_y
 _atom_site_fract_z
 _atom_site_occupancy
  La3+  La0  1  0.00406722  0.37487872  0.59970986  1
  La3+  La1  1  0.76011631  0.11395383  0.09449753  1
  La3+  La2  1  0.23942104  0.60156282  0.08338782  1
  La3+  La3  1  0.12646735  0.49385523  0.92642437  1
  La3+  La4  1  0.62555081  0.23591584  0.94242660  1
  La3+  La5  1  0.50121943  0.35643362  0.06585899  1
  La3+  La6  1  0.25532356  0.12076124  0.57081360  1
  La3+  La7  1  0.13294518  -0.01382299  0.92771554  1
  La3+  La8  1  0.12033685  0.48954236  0.43332760  1
  La3+  La9  1  0.37584622  0.00957798  0.42688706  1
  La3+  La10  1  0.74994424  0.87338758  0.55754457  1
  La3+  La11  1  0.86535780  0.23169442  0.91655159  1
  La3+  La12  1  0.49489196  0.60706537  0.07316228  1
  La3+  La13  1  0.63958400  0.24533019  0.40145248  1
  La3+  La14  1  0.13097818  0.23285676  0.91417572  1
  La3+  La15  1  0.37997784  0.76746352  0.38063615  1
  La3+  La16  1  0.49911168  0.86623966  0.06509654  1
  La3+  La17  1  0.73788243  0.38260374  0.59798466  1
  Ce3+  Ce18  1  0.62488825  0.00132084  0.44361571  1
  Ce3+  Ce19  1  0.62364275  0.74776231  0.43211091  1
  Ce3+  Ce20  1  0.62375940  0.73866070  0.94381594  1
  Ce3+  Ce21  1  -0.00050111  0.62013529  0.55867055  1
  Ce3+  Ce22  1  0.75138163  0.62201107  0.06521001  1
  Ce3+  Ce23  1  0.62754834  0.49501485  0.43487538  1
  Ce3+  Ce24  1  0.00075303  0.61553126  0.05828574  1
  Ce3+  Ce25  1  0.12474624  -0.00272178  0.43840931  1
  Ce3+  Ce26  1  0.87589302  0.00059252  0.44230160  1
  Ce3+  Ce27  1  0.12888693  0.73866854  0.95131633  1
  Ce3+  Ce28  1  0.49774793  0.12599852  0.56202874  1
  Ce3+  Ce29  1  0.75085009  0.62063817  0.55752622  1
  Ce3+  Ce30  1  0.12360579  0.25089513  0.45016996  1
  Ce3+  Ce31  1  -0.00273248  0.11722683  0.04796591  1
  Ce3+  Ce32  1  0.87368630  0.48916969  0.93995829  1
  Ce3+  Ce33  1  0.50585798  0.37341474  0.54904235  1
  Ce3+  Ce34  1  0.75006047  0.12600378  0.56780137  1
  Ce3+  Ce35  1  0.37553836  0.24999254  0.44232316  1
  Ce3+  Ce36  1  0.37555122  0.23957067  0.93716731  1
  Ce3+  Ce37  1  0.87698257  0.74719648  0.43698650  1
  Pr3+  Pr38  1  0.75255980  0.86513352  0.06908748  1
  Pr3+  Pr39  1  0.25198420  0.38158324  0.57528417  1
  Pr3+  Pr40  1  0.87276088  0.74132662  0.92911101  1
  Pr3+  Pr41  1  0.37865671  0.49633803  0.93423321  1
  Pr3+  Pr42  1  0.24631790  0.11920533  0.06396001  1
  Pr3+  Pr43  1  0.12129087  0.73822385  0.42133886  1
  Pr3+  Pr44  1  0.50043875  0.62192488  0.55392111  1
  Pr3+  Pr45  1  0.75678456  0.36520891  0.06257900  1
  Pr3+  Pr46  1  0.86937789  0.48908372  0.44879465  1
  Pr3+  Pr47  1  0.37402198  0.50175801  0.43228500  1
  Pr3+  Pr48  1  -0.00135564  0.36136360  0.04762808  1
  Pr3+  Pr49  1  0.49742832  0.86978726  0.55166024  1
  Nd3+  Nd50  1  0.86951569  -0.01344546  0.93231662  1
  Nd3+  Nd51  1  -0.00190086  0.86739346  0.05390418  1
  Nd3+  Nd52  1  0.25060917  0.87030381  0.54740047  1
  Nd3+  Nd53  1  0.24638165  0.62177501  0.55631201  1
  Nd3+  Nd54  1  0.24709109  0.87521618  0.07515429  1
  Nd3+  Nd55  1  0.00119172  0.87374608  0.56476264  1
  Nd3+  Nd56  1  0.37523403  -0.01150796  0.93778463  1
  Nd3+  Nd57  1  0.37110272  0.73570642  0.94775430  1
  Sm3+  Sm58  1  0.87069024  0.24761421  0.45555923  1
  Sm3+  Sm59  1  0.62650378  -0.01313260  0.95316835  1
  Sm3+  Sm60  1  0.62720677  0.49015244  0.94590723  1
  Sm3+  Sm61  1  0.24475435  0.36353636  0.04864047  1
  Sm3+  Sm62  1  0.49905498  0.11466251  0.06053418  1
  Sm3+  Sm63  1  0.00353351  0.12186169  0.57009709  1
  Bi2+  Bi64  1  0.02963737  0.16697212  0.28524227  1
  Bi2+  Bi65  1  -0.01005471  0.06609476  0.77908736  1
  Bi2+  Bi66  1  0.01567321  0.36833505  0.29012306  1
  Bi2+  Bi67  1  -0.01425592  0.41841992  0.79168243  1
  Bi2+  Bi68  1  0.00423567  0.63525435  0.28695959  1
  Bi2+  Bi69  1  -0.03038895  0.67766000  0.79609274  1
  Bi2+  Bi70  1  -0.00051732  0.91517536  0.29930431  1
  Bi2+  Bi71  1  -0.00840625  0.87335687  0.79573549  1
  Bi2+  Bi72  1  0.23139655  0.15990969  0.29007057  1
  Bi2+  Bi73  1  0.27038911  0.08287229  0.79584799  1
  Bi2+  Bi74  1  0.23259710  0.37638106  0.28141643  1
  Bi2+  Bi75  1  0.25238025  0.35816599  0.78515870  1
  Bi2+  Bi76  1  0.25180237  0.63693172  0.27842460  1
  Bi2+  Bi77  1  0.27383289  0.60595602  0.80209033  1
  Bi2+  Bi78  1  0.25933541  0.90013027  0.27766126  1
  Bi2+  Bi79  1  0.19002124  0.84019494  0.78771321  1
  Bi2+  Bi80  1  0.49173070  0.09002279  0.29843305  1
  Bi2+  Bi81  1  0.44603687  0.16778120  0.81087446  1
  Bi2+  Bi82  1  0.41215729  0.41932856  0.31142524  1
  Bi2+  Bi83  1  0.50758269  0.36962489  0.79219252  1
  Bi2+  Bi84  1  0.59545173  0.52485963  0.29977187  1
  Bi2+  Bi85  1  0.51303518  0.69918500  0.79021597  1
  Bi2+  Bi86  1  0.63912139  0.86982224  0.30964152  1
  Bi2+  Bi87  1  0.46140559  0.88747005  0.79331049  1
  Bi2+  Bi88  1  0.76778347  0.12136097  0.29007781  1
  Bi2+  Bi89  1  0.72192128  0.11391744  0.79310057  1
  Bi2+  Bi90  1  0.80387482  0.37322785  0.29084859  1
  Bi2+  Bi91  1  0.74230748  0.38720427  0.79886140  1
  Bi2+  Bi92  1  0.76167713  0.64359003  0.31061370  1
  Bi2+  Bi93  1  0.78222698  0.70680528  0.75673368  1
  Bi2+  Bi94  1  0.82331819  0.82165987  0.27928681  1
  Bi2+  Bi95  1  0.69933386  0.86940423  0.80302830  1
  Bi2+  Bi96  1  0.13364761  0.08659520  0.19594459  1
  Bi2+  Bi97  1  0.12642903  -0.02939190  0.70409255  1
  Bi2+  Bi98  1  0.18138582  0.26778652  0.16327401  1
  Bi2+  Bi99  1  0.11398593  0.22749543  0.72258507  1
  Bi2+  Bi100  1  0.09947101  0.45022423  0.19112224  1
  Bi2+  Bi101  1  0.16201758  0.51229317  0.71190285  1
  Bi2+  Bi102  1  0.08831631  0.76330901  0.21377687  1
  Bi2+  Bi103  1  0.09128140  0.71524018  0.70545912  1
  Bi2+  Bi104  1  0.41141674  0.05449277  0.20016907  1
  Bi2+  Bi105  1  0.37596098  -0.02636498  0.69895258  1
  Bi2+  Bi106  1  0.35149212  0.25632020  0.21955457  1
  Bi2+  Bi107  1  0.38055904  0.28220149  0.71176635  1
  Bi2+  Bi108  1  0.44715455  0.52776658  0.22226340  1
  Bi2+  Bi109  1  0.42190965  0.48078113  0.69729318  1
  Bi2+  Bi110  1  0.39587327  0.76958900  0.17908347  1
  Bi2+  Bi111  1  0.34670648  0.75493211  0.73839128  1
  Bi2+  Bi112  1  0.65216177  -0.02085175  0.21397889  1
  Bi2+  Bi113  1  0.55492669  0.05057188  0.74073783  1
  Bi2+  Bi114  1  0.58827303  0.28257553  0.21422840  1
  Bi2+  Bi115  1  0.57453038  0.23855650  0.71366146  1
  Bi2+  Bi116  1  0.69137382  0.49275833  0.19723922  1
  Bi2+  Bi117  1  0.60806622  0.52707925  0.71109793  1
  Bi2+  Bi118  1  0.65112631  0.72794735  0.22867654  1
  Bi2+  Bi119  1  0.61705476  0.78666181  0.70284368  1
  Bi2+  Bi120  1  0.94005764  0.01846085  0.20991435  1
  Bi2+  Bi121  1  0.85679624  -0.02690294  0.70907558  1
  Bi2+  Bi122  1  0.91187461  0.26512634  0.21216404  1
  Bi2+  Bi123  1  0.86405087  0.23344903  0.71741890  1
  Bi2+  Bi124  1  0.86524237  0.55264022  0.22178454  1
  Bi2+  Bi125  1  0.88487272  0.55828777  0.71176917  1
  Bi2+  Bi126  1  0.91069597  0.72993082  0.17879950  1
  Bi2+  Bi127  1  0.91959943  0.78566254  0.68261518  1
  S2-  S128  1  -0.07979075  0.13917954  0.13675474  1
  S2-  S129  1  -0.01006338  0.21707364  0.65391521  1
  S2-  S130  1  -0.04677163  0.38300545  0.14500091  1
  S2-  S131  1  -0.08683029  0.39701696  0.68877077  1
  S2-  S132  1  0.08903579  0.59986338  0.14303859  1
  S2-  S133  1  0.02841228  0.55902654  0.64944281  1
  S2-  S134  1  0.00657809  0.88462645  0.15365560  1
  S2-  S135  1  -0.00466193  0.99109254  0.63990532  1
  S2-  S136  1  0.27047271  0.01437158  0.14425123  1
  S2-  S137  1  0.17124324  0.11813910  0.66111312  1
  S2-  S138  1  0.24317069  0.43600950  0.13800873  1
  S2-  S139  1  0.14999166  0.36409524  0.66119282  1
  S2-  S140  1  0.31590403  0.62167075  0.17505081  1
  S2-  S141  1  0.27582989  0.53002868  0.64133506  1
  S2-  S142  1  0.22829457  0.82131590  0.17176801  1
  S2-  S143  1  0.24643513  0.89333417  0.64707350  1
  S2-  S144  1  0.48347383  0.19238694  0.14776231  1
  S2-  S145  1  0.39234166  0.10845169  0.63937764  1
  S2-  S146  1  0.49995250  0.41837617  0.15996875  1
  S2-  S147  1  0.55502383  0.40792121  0.64078197  1
  S2-  S148  1  0.53415092  0.66699881  0.16511177  1
  S2-  S149  1  0.50599730  0.62313918  0.65620630  1
  S2-  S150  1  0.50338204  0.91232634  0.16399276  1
  S2-  S151  1  0.50181484  0.87575475  0.65279457  1
  S2-  S152  1  0.68726104  0.14094958  0.19300058  1
  S2-  S153  1  0.78258049  0.10972457  0.66483451  1
  S2-  S154  1  0.72687418  0.33977757  0.16112990  1
  S2-  S155  1  0.72274475  0.32127828  0.69634121  1
  S2-  S156  1  0.74801055  0.73720555  0.14145536  1
  S2-  S157  1  0.73874371  0.54516561  0.64689321  1
  S2-  S158  1  0.77812241  0.96619154  0.15218554  1
  S2-  S159  1  0.73649797  0.88895757  0.65772933  1
  S2-  S160  1  0.14298866  -0.01430599  0.34004970  1
  S2-  S161  1  0.11988053  0.09229306  0.84530163  1
  S2-  S162  1  0.13346287  0.34854511  0.36729961  1
  S2-  S163  1  0.09306444  0.30231898  0.82071093  1
  S2-  S164  1  0.12742820  0.59000638  0.34800687  1
  S2-  S165  1  0.12883951  0.50899065  0.82511936  1
  S2-  S166  1  0.21541434  0.77604095  0.33716718  1
  S2-  S167  1  0.18476617  0.71740767  0.86080143  1
  S2-  S168  1  0.38800178  -0.06536952  0.33549316  1
  S2-  S169  1  0.27138304  -0.04698647  0.85960768  1
  S2-  S170  1  0.36609708  0.15277402  0.35922290  1
  S2-  S171  1  0.28503109  0.23027329  0.85374121  1
  S2-  S172  1  0.35839428  0.59441560  0.34557259  1
  S2-  S173  1  0.36483251  0.44117730  0.83642133  1
  S2-  S174  1  0.37332145  0.76537289  0.27211632  1
  S2-  S175  1  0.39834164  0.64010884  0.86501083  1
  S2-  S176  1  0.63733884  0.07703244  0.35493135  1
  S2-  S177  1  0.63548466  -0.00005546  0.85480613  1
  S2-  S178  1  0.55700332  0.24526869  0.30587185  1
  S2-  S179  1  0.69620766  0.24415519  0.85002012  1
  S2-  S180  1  0.67138701  0.40450158  0.35417541  1
  S2-  S181  1  0.62172271  0.47135942  0.84709295  1
  S2-  S182  1  0.54748198  0.74123029  0.34437677  1
  S2-  S183  1  0.66105904  0.71195458  0.84898932  1
  S2-  S184  1  0.86624042  0.00974029  0.34402278  1
  S2-  S185  1  0.86089981  0.08930934  0.84934502  1
  S2-  S186  1  0.80858695  0.23158500  0.35854174  1
  S2-  S187  1  0.88630888  0.29580382  0.81865562  1
  S2-  S188  1  0.90551830  0.46673097  0.35003474  1
  S2-  S189  1  0.85267141  0.49852611  0.84224267  1
  S2-  S190  1  0.98037129  0.76234344  0.35777157  1
  S2-  S191  1  0.84760925  0.86501122  0.85799896  1
  S2-  S192  1  -0.00099813  0.12548052  0.45767044  1
  S2-  S193  1  -0.00047118  0.11167061  0.94468158  1
  S2-  S194  1  -0.00683638  0.36660285  0.46411239  1
  S2-  S195  1  -0.00116272  0.36332824  0.93989461  1
  S2-  S196  1  -0.00629892  0.61740093  0.45428785  1
  S2-  S197  1  -0.00143574  0.61728150  0.94870193  1
  S2-  S198  1  0.00058432  0.87596585  0.45878815  1
  S2-  S199  1  0.00408361  0.86400460  0.94726825  1
  S2-  S200  1  0.24501315  0.12590222  0.45929395  1
  S2-  S201  1  0.25522358  0.11244233  0.95690325  1
  S2-  S202  1  0.25574572  0.37334931  0.46241295  1
  S2-  S203  1  0.25026712  0.36940671  0.94585532  1
  S2-  S204  1  0.24512753  0.62083646  0.45368537  1
  S2-  S205  1  0.25032304  0.61202508  0.96618796  1
  S2-  S206  1  0.25089570  0.87157584  0.44353257  1
  S2-  S207  1  0.25372190  0.86147603  0.96686250  1
  S2-  S208  1  0.50802794  0.13349045  0.45673414  1
  S2-  S209  1  0.49991240  0.11068035  0.95506786  1
  S2-  S210  1  0.50385163  0.36890572  0.44301141  1
  S2-  S211  1  0.50218051  0.36613729  0.95429432  1
  S2-  S212  1  0.50468256  0.61995838  0.44779970  1
  S2-  S213  1  0.50502362  0.61316873  0.96440617  1
  S2-  S214  1  0.50058739  0.87433558  0.44561614  1
  S2-  S215  1  0.49798551  0.86262458  0.95458140  1
  S2-  S216  1  0.74859987  0.12274680  0.46207657  1
  S2-  S217  1  0.74534601  0.10875575  0.95710782  1
  S2-  S218  1  0.74619808  0.36427517  0.46381995  1
  S2-  S219  1  0.74952938  0.36686785  0.95441871  1
  S2-  S220  1  0.75045809  0.62249451  0.45088776  1
  S2-  S221  1  0.75010844  0.61518854  0.95672595  1
  S2-  S222  1  0.75116127  0.87354613  0.44849513  1
  S2-  S223  1  0.74477602  0.86224427  0.96200787  1
  S2-  S224  1  0.12226649  -0.00767597  0.04192991  1
  S2-  S225  1  0.12709976  -0.00271172  0.54324389  1
  S2-  S226  1  0.12356527  0.23904335  0.03018613  1
  S2-  S227  1  0.12608251  0.24870653  0.55362382  1
  S2-  S228  1  0.11891922  0.48595303  0.03470822  1
  S2-  S229  1  0.12285720  0.49420196  0.54385079  1
  S2-  S230  1  0.12561460  0.74473198  0.05416300  1
  S2-  S231  1  0.12257444  0.74692918  0.54631385  1
  S2-  S232  1  0.37838449  -0.00707473  0.04357931  1
  S2-  S233  1  0.37567462  -0.00574953  0.53562910  1
  S2-  S234  1  0.37108706  0.24052752  0.04391827  1
  S2-  S235  1  0.37607512  0.25563701  0.54815464  1
  S2-  S236  1  0.37514625  0.48367571  0.04432857  1
  S2-  S237  1  0.37893517  0.49715314  0.53913688  1
  S2-  S238  1  0.37056325  0.73935425  0.05623805  1
  S2-  S239  1  0.37183536  0.74420518  0.55374855  1
  S2-  S240  1  0.62467910  -0.00430199  0.05694449  1
  S2-  S241  1  0.62202080  -0.00042392  0.55118656  1
  S2-  S242  1  0.63067428  0.23378445  0.05109483  1
  S2-  S243  1  0.62472021  0.24764410  0.56514544  1
  S2-  S244  1  0.62853028  0.48943138  0.05155361  1
  S2-  S245  1  0.62792257  0.49937644  0.53971928  1
  S2-  S246  1  0.61941669  0.73936932  0.04841681  1
  S2-  S247  1  0.62664225  0.74615838  0.54257459  1
  S2-  S248  1  0.87557324  -0.00937551  0.04021192  1
  S2-  S249  1  0.87372076  0.00097732  0.54675026  1
  S2-  S250  1  0.87121100  0.23939124  0.03330532  1
  S2-  S251  1  0.86882627  0.25377277  0.55915008  1
  S2-  S252  1  0.87392904  0.49601872  0.04697190  1
  S2-  S253  1  0.87429580  0.49362495  0.55519108  1
  S2-  S254  1  0.87854165  0.74072867  0.03745169  1
  S2-  S255  1  0.87568563  0.74723358  0.54495108  1
