# generated using pymatgen
data_La9Ce10Pr6Nd4Sm3(BiS2)32
_symmetry_space_group_name_H-M   'P 1'
_cell_length_a   16.11071752
_cell_length_b   16.06881430
_cell_length_c   27.29861418
_cell_angle_alpha   90.35095389
_cell_angle_beta   89.59689204
_cell_angle_gamma   89.83813189
_symmetry_Int_Tables_number   1
_chemical_formula_structural   La9Ce10Pr6Nd4Sm3(BiS2)32
_chemical_formula_sum   'La18 Ce20 Pr12 Nd8 Sm6 Bi64 S128'
_cell_volume   7066.73218781
_cell_formula_units_Z   2
loop_
 _symmetry_equiv_pos_site_id
 _symmetry_equiv_pos_as_xyz
  1  'x, y, z'
loop_
 _atom_type_symbol
 _atom_type_oxidation_number
  La3+  3.0
  Ce3+  3.0
  Pr3+  3.0
  Nd3+  3.0
  Sm3+  3.0
  Bi2+  2.0
  S2-  -2.0
loop_
 _atom_site_type_symbol
 _atom_site_label
 _atom_site_symmetry_multiplicity
 _atom_site_fract_x
 _atom_site_fract_y
 _atom_site_fract_z
 _atom_site_occupancy
  La3+  La0  1  0.63334704  -0.00829877  0.42903236  1
  La3+  La1  1  0.25812302  0.62802327  0.58344686  1
  La3+  La2  1  0.60704135  0.48640248  0.93020416  1
  La3+  La3  1  0.50543890  0.11280927  0.57217915  1
  La3+  La4  1  0.11991309  0.49617160  0.42476489  1
  La3+  La5  1  0.13077937  -0.00413238  0.42730073  1
  La3+  La6  1  0.00720015  0.37039577  0.56966194  1
  La3+  La7  1  0.00819131  0.11564227  0.58194658  1
  La3+  La8  1  0.85443815  0.73418236  0.93952397  1
  La3+  La9  1  0.47926613  0.61724620  0.07944583  1
  La3+  La10  1  0.85250901  0.48160182  0.93137822  1
  La3+  La11  1  0.73011609  0.35778302  0.07709343  1
  La3+  La12  1  0.37773552  0.73815156  0.42618744  1
  La3+  La13  1  0.37991057  0.24191829  0.42965358  1
  La3+  La14  1  0.60736039  -0.01822934  0.91744158  1
  La3+  La15  1  0.23051216  0.10863188  0.09856478  1
  La3+  La16  1  -0.01948247  0.61244960  0.06767520  1
  La3+  La17  1  0.25783176  0.12820631  0.56998880  1
  Ce3+  Ce18  1  0.48416359  0.11116330  0.05791510  1
  Ce3+  Ce19  1  0.22914442  0.61333770  0.06815309  1
  Ce3+  Ce20  1  0.60674470  0.73971517  0.94845069  1
  Ce3+  Ce21  1  0.48346469  0.36056219  0.06398814  1
  Ce3+  Ce22  1  0.23058351  0.86716690  0.05210046  1
  Ce3+  Ce23  1  0.88414501  0.74091690  0.44758730  1
  Ce3+  Ce24  1  0.49971792  0.87080985  0.55270559  1
  Ce3+  Ce25  1  -0.01095825  0.86778111  0.05210234  1
  Ce3+  Ce26  1  0.75501259  0.61949595  0.55948981  1
  Ce3+  Ce27  1  0.36159857  -0.01249621  0.93896757  1
  Ce3+  Ce28  1  0.73042972  0.61227890  0.07174196  1
  Ce3+  Ce29  1  -0.01058404  0.11353773  0.05396657  1
  Ce3+  Ce30  1  0.12688490  0.74294721  0.43570823  1
  Ce3+  Ce31  1  0.72909154  0.10821943  0.06351490  1
  Ce3+  Ce32  1  0.36168449  0.48936844  0.94782633  1
  Ce3+  Ce33  1  0.63171787  0.74222777  0.44599964  1
  Ce3+  Ce34  1  0.22500881  0.36034659  0.06252356  1
  Ce3+  Ce35  1  0.88054253  0.24264138  0.45077081  1
  Ce3+  Ce36  1  0.87610765  -0.00747582  0.43796176  1
  Ce3+  Ce37  1  0.75105978  0.37016481  0.56540868  1
  Pr3+  Pr38  1  0.63190508  0.49227424  0.43301206  1
  Pr3+  Pr39  1  0.11128607  0.23869408  0.93120706  1
  Pr3+  Pr40  1  -0.01943061  0.36322975  0.06143556  1
  Pr3+  Pr41  1  0.00776973  0.61776253  0.57454501  1
  Pr3+  Pr42  1  0.38659152  -0.00751522  0.41845936  1
  Pr3+  Pr43  1  0.37462936  0.49287406  0.43013143  1
  Pr3+  Pr44  1  0.60503507  0.23505803  0.92877963  1
  Pr3+  Pr45  1  0.36187622  0.73587410  0.94401458  1
  Pr3+  Pr46  1  0.12734115  0.24214109  0.43308937  1
  Pr3+  Pr47  1  0.63027387  0.24270577  0.44160504  1
  Pr3+  Pr48  1  0.10977962  -0.01141528  0.91960651  1
  Pr3+  Pr49  1  0.11074015  0.73374631  0.92906881  1
  Nd3+  Nd50  1  0.35921146  0.23679472  0.94299561  1
  Nd3+  Nd51  1  0.10410808  0.48922707  0.92613027  1
  Nd3+  Nd52  1  0.85496130  0.23771642  0.93918423  1
  Nd3+  Nd53  1  0.50140432  0.37425835  0.56165431  1
  Nd3+  Nd54  1  0.25267150  0.87390224  0.55343619  1
  Nd3+  Nd55  1  0.48140539  0.87439563  0.06896388  1
  Nd3+  Nd56  1  0.73223981  0.86753686  0.06586973  1
  Nd3+  Nd57  1  0.85709900  -0.01168151  0.94020875  1
  Sm3+  Sm58  1  0.87360316  0.48939675  0.43817745  1
  Sm3+  Sm59  1  0.74953212  0.11662064  0.56632452  1
  Sm3+  Sm60  1  0.25407877  0.37672194  0.55761915  1
  Sm3+  Sm61  1  0.00524473  0.87252481  0.55974884  1
  Sm3+  Sm62  1  0.50057647  0.62149312  0.55753395  1
  Sm3+  Sm63  1  0.75226101  0.87134267  0.56034825  1
  Bi2+  Bi64  1  -0.03890192  0.09321144  0.27302553  1
  Bi2+  Bi65  1  -0.01691975  0.13272846  0.77812450  1
  Bi2+  Bi66  1  -0.00816310  0.37212102  0.29262472  1
  Bi2+  Bi67  1  -0.01694381  0.38014592  0.79520660  1
  Bi2+  Bi68  1  -0.00370839  0.64442924  0.29589537  1
  Bi2+  Bi69  1  0.02029168  0.63961268  0.79180732  1
  Bi2+  Bi70  1  -0.02236595  0.90131559  0.30175437  1
  Bi2+  Bi71  1  0.03583934  0.94097074  0.78222152  1
  Bi2+  Bi72  1  0.23267300  0.11710381  0.28018546  1
  Bi2+  Bi73  1  0.25608879  0.16148730  0.79406564  1
  Bi2+  Bi74  1  0.25197541  0.36892770  0.28081150  1
  Bi2+  Bi75  1  0.25038185  0.36054793  0.78263974  1
  Bi2+  Bi76  1  0.26125597  0.58079886  0.28816080  1
  Bi2+  Bi77  1  0.29382726  0.62908937  0.78824187  1
  Bi2+  Bi78  1  0.23844008  0.89525934  0.28231479  1
  Bi2+  Bi79  1  0.24279424  0.96091673  0.78387142  1
  Bi2+  Bi80  1  0.49316274  0.11890901  0.28410612  1
  Bi2+  Bi81  1  0.49908461  0.10740726  0.79149379  1
  Bi2+  Bi82  1  0.49816597  0.46806949  0.31260223  1
  Bi2+  Bi83  1  0.49706137  0.36248538  0.79514854  1
  Bi2+  Bi84  1  0.55023598  0.61130473  0.24476099  1
  Bi2+  Bi85  1  0.51441456  0.61880130  0.80213394  1
  Bi2+  Bi86  1  0.50983524  0.85158559  0.28944184  1
  Bi2+  Bi87  1  0.53943089  0.87725101  0.78071586  1
  Bi2+  Bi88  1  0.76091274  0.11182379  0.27819957  1
  Bi2+  Bi89  1  0.78700184  0.14559099  0.79733744  1
  Bi2+  Bi90  1  0.73832926  0.31823654  0.30736066  1
  Bi2+  Bi91  1  0.74313904  0.42493266  0.78794810  1
  Bi2+  Bi92  1  0.73889155  0.59907627  0.28384306  1
  Bi2+  Bi93  1  0.73778122  0.69903589  0.80872975  1
  Bi2+  Bi94  1  0.73460288  0.86117416  0.29455986  1
  Bi2+  Bi95  1  0.82200917  0.90836907  0.75600566  1
  Bi2+  Bi96  1  0.10256856  -0.01647652  0.21280650  1
  Bi2+  Bi97  1  0.13793354  -0.06503081  0.68268893  1
  Bi2+  Bi98  1  0.09128269  0.26366783  0.20056741  1
  Bi2+  Bi99  1  0.13537847  0.24110792  0.71088734  1
  Bi2+  Bi100  1  0.10842984  0.49972228  0.21738827  1
  Bi2+  Bi101  1  0.12763545  0.51556804  0.71041469  1
  Bi2+  Bi102  1  0.07758241  0.75240986  0.21210815  1
  Bi2+  Bi103  1  0.19168646  0.75854155  0.72632811  1
  Bi2+  Bi104  1  0.37846154  -0.05832236  0.19833306  1
  Bi2+  Bi105  1  0.39083010  -0.01865830  0.71181086  1
  Bi2+  Bi106  1  0.38018014  0.27601341  0.21151774  1
  Bi2+  Bi107  1  0.37406338  0.24892010  0.70906131  1
  Bi2+  Bi108  1  0.39152118  0.48261428  0.21112020  1
  Bi2+  Bi109  1  0.37866491  0.49402592  0.71211823  1
  Bi2+  Bi110  1  0.26898979  0.73237615  0.21843207  1
  Bi2+  Bi111  1  0.41007067  0.75299407  0.71119227  1
  Bi2+  Bi112  1  0.62015725  0.10011771  0.19749814  1
  Bi2+  Bi113  1  0.63691912  -0.00535217  0.70769884  1
  Bi2+  Bi114  1  0.57307415  0.31187610  0.24281419  1
  Bi2+  Bi115  1  0.66281787  0.24264714  0.72510095  1
  Bi2+  Bi116  1  0.68387339  0.47416250  0.20242985  1
  Bi2+  Bi117  1  0.63302485  0.51936737  0.71264754  1
  Bi2+  Bi118  1  0.62769560  0.84741189  0.19680200  1
  Bi2+  Bi119  1  0.61088258  0.71792746  0.71855407  1
  Bi2+  Bi120  1  0.86583602  -0.04512298  0.20821187  1
  Bi2+  Bi121  1  0.86296738  0.08035328  0.68976945  1
  Bi2+  Bi122  1  0.86150005  0.23887997  0.20912131  1
  Bi2+  Bi123  1  0.85413893  0.27523021  0.70831550  1
  Bi2+  Bi124  1  0.90473151  0.50063575  0.21751812  1
  Bi2+  Bi125  1  0.88091653  0.54996606  0.72066028  1
  Bi2+  Bi126  1  0.79246069  0.74252188  0.20846676  1
  Bi2+  Bi127  1  0.90674106  0.74199694  0.72199036  1
  S2-  S128  1  0.06631797  0.11523728  0.14301737  1
  S2-  S129  1  0.00012598  0.25774391  0.64934208  1
  S2-  S130  1  0.09599869  0.39239255  0.13697780  1
  S2-  S131  1  -0.00529930  0.48692287  0.64895244  1
  S2-  S132  1  0.10519503  0.61947657  0.14140999  1
  S2-  S133  1  0.11835421  0.65598788  0.65387108  1
  S2-  S134  1  -0.01517703  0.85912231  0.15046542  1
  S2-  S135  1  -0.01701157  0.96426576  0.64355355  1
  S2-  S136  1  0.33047021  0.10651750  0.18997314  1
  S2-  S137  1  0.14756515  0.09748162  0.64991974  1
  S2-  S138  1  0.23952790  0.26757021  0.14897330  1
  S2-  S139  1  0.25146372  0.27649958  0.63940573  1
  S2-  S140  1  0.33879522  0.61675093  0.14802944  1
  S2-  S141  1  0.24882731  0.48423189  0.64512821  1
  S2-  S142  1  0.22649333  0.93854517  0.14206469  1
  S2-  S143  1  0.28451429  0.79567170  0.64224376  1
  S2-  S144  1  0.49737428  0.01290585  0.13869936  1
  S2-  S145  1  0.38403872  0.11238979  0.64681086  1
  S2-  S146  1  0.58462631  0.36926701  0.14346298  1
  S2-  S147  1  0.46692570  0.37270880  0.66083306  1
  S2-  S148  1  0.61208080  0.60498576  0.14725838  1
  S2-  S149  1  0.41632611  0.62200161  0.64445185  1
  S2-  S150  1  0.46916444  0.80259326  0.16176783  1
  S2-  S151  1  0.50958122  0.93953995  0.64169524  1
  S2-  S152  1  0.72997931  0.20920436  0.14482036  1
  S2-  S153  1  0.63679392  0.13088776  0.64483828  1
  S2-  S154  1  0.87122641  0.37531808  0.14608887  1
  S2-  S155  1  0.70021486  0.37802304  0.65991811  1
  S2-  S156  1  0.85730965  0.61596627  0.14545921  1
  S2-  S157  1  0.75463678  0.60999071  0.65671131  1
  S2-  S158  1  0.73038070  0.98619626  0.14105973  1
  S2-  S159  1  0.74739582  0.89607743  0.65727988  1
  S2-  S160  1  0.12001638  -0.13712706  0.35556433  1
  S2-  S161  1  0.10222445  0.12500047  0.84953969  1
  S2-  S162  1  0.12885450  0.12264363  0.35234923  1
  S2-  S163  1  0.12163079  0.35908423  0.85335790  1
  S2-  S164  1  0.12875078  0.35994102  0.35368882  1
  S2-  S165  1  0.15186243  0.61332903  0.85588911  1
  S2-  S166  1  0.13126321  0.63625607  0.35657050  1
  S2-  S167  1  0.11537998  0.85173423  0.84978762  1
  S2-  S168  1  0.36049008  0.12531539  0.34793311  1
  S2-  S169  1  0.45370224  -0.02056943  0.85506105  1
  S2-  S170  1  0.37439627  0.36576346  0.35481819  1
  S2-  S171  1  0.45060600  0.24079424  0.85508486  1
  S2-  S172  1  0.38996977  0.61023338  0.35210123  1
  S2-  S173  1  0.45457323  0.49086164  0.86269182  1
  S2-  S174  1  0.37462061  0.85449288  0.34742590  1
  S2-  S175  1  0.39642943  0.72858982  0.84421660  1
  S2-  S176  1  0.53157279  -0.00452906  0.34541634  1
  S2-  S177  1  0.63110685  0.11550863  0.84880438  1
  S2-  S178  1  0.58640432  0.23359290  0.34397375  1
  S2-  S179  1  0.62701408  0.35765757  0.85351291  1
  S2-  S180  1  0.75098767  0.47734089  0.35672579  1
  S2-  S181  1  0.73395801  0.54558284  0.85942228  1
  S2-  S182  1  0.62273498  0.75697130  0.34870981  1
  S2-  S183  1  0.63050423  0.82148043  0.86064365  1
  S2-  S184  1  0.76771330  -0.00318756  0.35913775  1
  S2-  S185  1  0.82058840  -0.01153944  0.84240597  1
  S2-  S186  1  0.88024114  0.27315427  0.35406556  1
  S2-  S187  1  0.85710182  0.33560705  0.85496257  1
  S2-  S188  1  0.96875469  0.50632292  0.35661963  1
  S2-  S189  1  0.96748615  0.51126838  0.85362630  1
  S2-  S190  1  0.89538739  0.76306594  0.34966282  1
  S2-  S191  1  0.88851924  0.74205944  0.84026558  1
  S2-  S192  1  -0.00154427  0.11540916  0.45649529  1
  S2-  S193  1  -0.01916735  0.11199629  0.94813525  1
  S2-  S194  1  -0.00097651  0.36960729  0.46094715  1
  S2-  S195  1  -0.01642030  0.35863097  0.95635719  1
  S2-  S196  1  -0.00057830  0.61759746  0.46516310  1
  S2-  S197  1  -0.01715144  0.61669248  0.95817543  1
  S2-  S198  1  0.00047481  0.87146867  0.45749428  1
  S2-  S199  1  -0.01813524  0.86440263  0.94706388  1
  S2-  S200  1  0.25692453  0.11761490  0.45626629  1
  S2-  S201  1  0.23909821  0.10989263  0.94159138  1
  S2-  S202  1  0.25005857  0.36959927  0.45545722  1
  S2-  S203  1  0.23903900  0.36438855  0.95537883  1
  S2-  S204  1  0.25078730  0.61952092  0.45591420  1
  S2-  S205  1  0.23939687  0.61299793  0.96106231  1
  S2-  S206  1  0.25554755  0.86874660  0.45055632  1
  S2-  S207  1  0.23757448  0.86226204  0.94687677  1
  S2-  S208  1  0.50787322  0.11735584  0.45713849  1
  S2-  S209  1  0.48352843  0.11078854  0.95494661  1
  S2-  S210  1  0.50854430  0.37194013  0.45426365  1
  S2-  S211  1  0.48213713  0.36056181  0.96132396  1
  S2-  S212  1  0.51016350  0.61629018  0.45408920  1
  S2-  S213  1  0.48462142  0.61454028  0.96627049  1
  S2-  S214  1  0.50661362  0.86528927  0.45005900  1
  S2-  S215  1  0.48241382  0.86308424  0.96106851  1
  S2-  S216  1  0.75448310  0.12053256  0.46086983  1
  S2-  S217  1  0.73371971  0.11182339  0.95520080  1
  S2-  S218  1  0.75347126  0.36701629  0.46107803  1
  S2-  S219  1  0.73005781  0.35727635  0.96277727  1
  S2-  S220  1  0.75618547  0.61960178  0.45403228  1
  S2-  S221  1  0.72815265  0.61760390  0.96624055  1
  S2-  S222  1  0.75745784  0.86289371  0.45647413  1
  S2-  S223  1  0.73577130  0.86520358  0.95989216  1
  S2-  S224  1  0.11130392  -0.00841331  0.03305074  1
  S2-  S225  1  0.12715745  -0.00667052  0.53871946  1
  S2-  S226  1  0.11309144  0.23232545  0.03864723  1
  S2-  S227  1  0.12626923  0.24386619  0.54035363  1
  S2-  S228  1  0.10730446  0.49064765  0.03350929  1
  S2-  S229  1  0.13072653  0.49786799  0.54340833  1
  S2-  S230  1  0.10924479  0.74222232  0.03931334  1
  S2-  S231  1  0.12693703  0.75066869  0.54350842  1
  S2-  S232  1  0.35162384  -0.00446003  0.04369160  1
  S2-  S233  1  0.37789012  -0.00679079  0.53722308  1
  S2-  S234  1  0.35668855  0.23276948  0.04819633  1
  S2-  S235  1  0.38557061  0.25038780  0.53992741  1
  S2-  S236  1  0.35555974  0.48247057  0.05236766  1
  S2-  S237  1  0.38072383  0.49807915  0.53952950  1
  S2-  S238  1  0.35628210  0.74529686  0.04984001  1
  S2-  S239  1  0.38073966  0.74406942  0.53644047  1
  S2-  S240  1  0.60783215  -0.01217017  0.03495693  1
  S2-  S241  1  0.63255680  -0.00890343  0.53935158  1
  S2-  S242  1  0.60340761  0.23395821  0.04175278  1
  S2-  S243  1  0.62719275  0.24765202  0.54735682  1
  S2-  S244  1  0.60302162  0.48724022  0.04337163  1
  S2-  S245  1  0.62706049  0.49898263  0.54566828  1
  S2-  S246  1  0.60658012  0.74622841  0.05338720  1
  S2-  S247  1  0.62754100  0.74539927  0.55410951  1
  S2-  S248  1  0.86321257  -0.01018395  0.04487892  1
  S2-  S249  1  0.87271960  -0.00498276  0.54378989  1
  S2-  S250  1  0.86052149  0.23139326  0.04377417  1
  S2-  S251  1  0.87132086  0.24066240  0.55508230  1
  S2-  S252  1  0.85275687  0.48770921  0.04155416  1
  S2-  S253  1  0.87352985  0.49388597  0.54627572  1
  S2-  S254  1  0.85837196  0.74702279  0.04738987  1
  S2-  S255  1  0.88045149  0.74781044  0.55716121  1
