# generated using pymatgen
data_La9Ce10Pr6Nd4Sm3(BiS2)32
_symmetry_space_group_name_H-M   'P 1'
_cell_length_a   16.14797961
_cell_length_b   16.10668928
_cell_length_c   27.17960591
_cell_angle_alpha   90.04373492
_cell_angle_beta   89.80451427
_cell_angle_gamma   89.85097576
_symmetry_Int_Tables_number   1
_chemical_formula_structural   La9Ce10Pr6Nd4Sm3(BiS2)32
_chemical_formula_sum   'La18 Ce20 Pr12 Nd8 Sm6 Bi64 S128'
_cell_volume   7069.08985478
_cell_formula_units_Z   2
loop_
 _symmetry_equiv_pos_site_id
 _symmetry_equiv_pos_as_xyz
  1  'x, y, z'
loop_
 _atom_type_symbol
 _atom_type_oxidation_number
  La3+  3.0
  Ce3+  3.0
  Pr3+  3.0
  Nd3+  3.0
  Sm3+  3.0
  Bi2+  2.0
  S2-  -2.0
loop_
 _atom_site_type_symbol
 _atom_site_label
 _atom_site_symmetry_multiplicity
 _atom_site_fract_x
 _atom_site_fract_y
 _atom_site_fract_z
 _atom_site_occupancy
  La3+  La0  1  0.87054086  0.24659928  0.89520488  1
  La3+  La1  1  0.12129950  0.25565770  0.93059597  1
  La3+  La2  1  0.24263314  0.12294682  0.07311207  1
  La3+  La3  1  0.25258926  0.62954158  0.07586439  1
  La3+  La4  1  0.74646052  0.88113600  0.07644522  1
  La3+  La5  1  0.11954476  0.50717593  0.93854458  1
  La3+  La6  1  0.38942336  0.51739971  0.41078283  1
  La3+  La7  1  -0.00581517  0.61999393  0.08343625  1
  La3+  La8  1  0.86797808  0.50628510  0.93500076  1
  La3+  La9  1  0.01487319  0.89425631  0.57559226  1
  La3+  La10  1  0.89274003  0.77177313  0.41303039  1
  La3+  La11  1  0.37566061  0.49660640  0.94237193  1
  La3+  La12  1  0.38347625  0.25573346  0.39971601  1
  La3+  La13  1  0.02671728  0.39730435  0.60129740  1
  La3+  La14  1  0.75693713  0.38454334  0.59466401  1
  La3+  La15  1  0.63655805  0.76874332  0.43101235  1
  La3+  La16  1  0.61029068  0.25887287  0.91481599  1
  La3+  La17  1  0.49879688  0.36997117  0.08266249  1
  Ce3+  Ce18  1  -0.00784709  0.87004364  0.07263778  1
  Ce3+  Ce19  1  0.26087589  0.14851528  0.56213361  1
  Ce3+  Ce20  1  0.87172180  0.00172732  0.93806063  1
  Ce3+  Ce21  1  0.63448217  0.01571994  0.43252739  1
  Ce3+  Ce22  1  0.49457720  0.88174095  0.05424700  1
  Ce3+  Ce23  1  0.38224278  0.76653063  0.43410008  1
  Ce3+  Ce24  1  0.36564688  0.00653308  0.92791006  1
  Ce3+  Ce25  1  0.62225468  0.49633074  0.95002484  1
  Ce3+  Ce26  1  0.74667036  0.62968753  0.07486018  1
  Ce3+  Ce27  1  0.24356632  0.37667620  0.06401720  1
  Ce3+  Ce28  1  0.11663937  0.74804501  0.94333056  1
  Ce3+  Ce29  1  0.13201003  0.26819949  0.44159324  1
  Ce3+  Ce30  1  0.50827439  0.63868308  0.55720940  1
  Ce3+  Ce31  1  0.13059968  0.51511804  0.43623256  1
  Ce3+  Ce32  1  0.37177733  0.24651231  0.94962239  1
  Ce3+  Ce33  1  0.13256684  0.76970958  0.43882067  1
  Ce3+  Ce34  1  0.88652344  0.01502947  0.43772705  1
  Ce3+  Ce35  1  0.13444858  0.02147986  0.44455507  1
  Ce3+  Ce36  1  0.87259550  0.75207225  0.94422669  1
  Ce3+  Ce37  1  0.50990391  0.88918201  0.55622960  1
  Pr3+  Pr38  1  0.62447953  0.75289625  0.94215753  1
  Pr3+  Pr39  1  0.38189742  0.01718914  0.44275129  1
  Pr3+  Pr40  1  0.00747895  0.14530094  0.56691394  1
  Pr3+  Pr41  1  0.37169123  0.75036753  0.93698002  1
  Pr3+  Pr42  1  0.76327084  0.64019001  0.56105595  1
  Pr3+  Pr43  1  0.75847239  0.13616468  0.56431593  1
  Pr3+  Pr44  1  0.61905607  0.00438200  0.93065542  1
  Pr3+  Pr45  1  0.87699598  0.26979397  0.43913519  1
  Pr3+  Pr46  1  -0.00735666  0.37473547  0.05967435  1
  Pr3+  Pr47  1  0.00830957  0.64681154  0.56686499  1
  Pr3+  Pr48  1  0.63547316  0.52088897  0.43087454  1
  Pr3+  Pr49  1  0.51051719  0.39755977  0.55784775  1
  Nd3+  Nd50  1  0.63445286  0.26937585  0.43077680  1
  Nd3+  Nd51  1  0.24557649  0.87636180  0.05546133  1
  Nd3+  Nd52  1  0.76068772  0.89044422  0.56089018  1
  Nd3+  Nd53  1  0.51264941  0.14620695  0.55832927  1
  Nd3+  Nd54  1  0.74597123  0.37125927  0.05791706  1
  Nd3+  Nd55  1  0.88473085  0.51590753  0.44761214  1
  Nd3+  Nd56  1  0.26128915  0.89089478  0.56303541  1
  Nd3+  Nd57  1  0.49580078  0.62706913  0.06523029  1
  Sm3+  Sm58  1  0.26371174  0.39398974  0.54490393  1
  Sm3+  Sm59  1  0.12080222  0.00140935  0.94193835  1
  Sm3+  Sm60  1  0.49198465  0.12517871  0.06860287  1
  Sm3+  Sm61  1  0.74439645  0.12805381  0.04746945  1
  Sm3+  Sm62  1  -0.00302510  0.12498952  0.06237859  1
  Sm3+  Sm63  1  0.26048390  0.63745310  0.54838237  1
  Bi2+  Bi64  1  -0.03556367  0.15282074  0.29433662  1
  Bi2+  Bi65  1  0.06770636  0.01005416  0.81146835  1
  Bi2+  Bi66  1  -0.03139891  0.35288725  0.28752849  1
  Bi2+  Bi67  1  0.00187718  0.38943664  0.79494664  1
  Bi2+  Bi68  1  -0.01495217  0.62352574  0.30611665  1
  Bi2+  Bi69  1  -0.04409996  0.65853449  0.78872194  1
  Bi2+  Bi70  1  0.00400731  0.94749908  0.27351159  1
  Bi2+  Bi71  1  0.00159293  0.83723823  0.84142189  1
  Bi2+  Bi72  1  0.21694796  0.09617829  0.29152462  1
  Bi2+  Bi73  1  0.28152441  0.18080584  0.82726695  1
  Bi2+  Bi74  1  0.21389489  0.37264049  0.29331251  1
  Bi2+  Bi75  1  0.26262043  0.37863446  0.78680546  1
  Bi2+  Bi76  1  0.25501992  0.74495038  0.30230726  1
  Bi2+  Bi77  1  0.18123981  0.64368024  0.77260801  1
  Bi2+  Bi78  1  0.32635942  0.92529976  0.32022172  1
  Bi2+  Bi79  1  0.25466904  0.82415525  0.79183677  1
  Bi2+  Bi80  1  0.56938381  0.09554355  0.30466815  1
  Bi2+  Bi81  1  0.41599278  0.06946144  0.76750246  1
  Bi2+  Bi82  1  0.48231491  0.38098362  0.27772926  1
  Bi2+  Bi83  1  0.46702031  0.38406390  0.79901972  1
  Bi2+  Bi84  1  0.52928514  0.62314238  0.28483150  1
  Bi2+  Bi85  1  0.45305847  0.62693927  0.78591223  1
  Bi2+  Bi86  1  0.49867252  0.83380950  0.31411071  1
  Bi2+  Bi87  1  0.57067258  0.88589713  0.79734691  1
  Bi2+  Bi88  1  0.76755462  0.12376742  0.30837089  1
  Bi2+  Bi89  1  0.76268335  0.07694615  0.78625505  1
  Bi2+  Bi90  1  0.70785881  0.36142277  0.27068115  1
  Bi2+  Bi91  1  0.72225815  0.35606514  0.79073713  1
  Bi2+  Bi92  1  0.75806621  0.55504718  0.29158887  1
  Bi2+  Bi93  1  0.66248361  0.61972699  0.77195659  1
  Bi2+  Bi94  1  0.75755970  0.93185183  0.28055035  1
  Bi2+  Bi95  1  0.83039653  0.81938469  0.78282896  1
  Bi2+  Bi96  1  0.16155113  -0.01762619  0.20417527  1
  Bi2+  Bi97  1  0.15132711  0.03347473  0.70898875  1
  Bi2+  Bi98  1  0.10209015  0.24206218  0.21859405  1
  Bi2+  Bi99  1  0.11852878  0.20429412  0.76255149  1
  Bi2+  Bi100  1  0.08587779  0.51602848  0.23289730  1
  Bi2+  Bi101  1  0.11472158  0.47566341  0.72297799  1
  Bi2+  Bi102  1  0.11521800  0.79604473  0.23041332  1
  Bi2+  Bi103  1  0.08066002  0.79484425  0.72568763  1
  Bi2+  Bi104  1  0.45005711  -0.00205641  0.23299456  1
  Bi2+  Bi105  1  0.32967904  -0.06804500  0.70435587  1
  Bi2+  Bi106  1  0.36314546  0.22390771  0.19349624  1
  Bi2+  Bi107  1  0.36267563  0.24120371  0.72286490  1
  Bi2+  Bi108  1  0.32765146  0.52024629  0.20408383  1
  Bi2+  Bi109  1  0.31768766  0.50075697  0.68421798  1
  Bi2+  Bi110  1  0.37783835  0.77904855  0.21261936  1
  Bi2+  Bi111  1  0.36062429  0.73487428  0.70274537  1
  Bi2+  Bi112  1  0.63279679  -0.02807560  0.19592858  1
  Bi2+  Bi113  1  0.63087830  -0.01168679  0.71041674  1
  Bi2+  Bi114  1  0.64974489  0.19261941  0.21757567  1
  Bi2+  Bi115  1  0.61107290  0.23370492  0.71365414  1
  Bi2+  Bi116  1  0.63638887  0.51665219  0.20366305  1
  Bi2+  Bi117  1  0.55665415  0.48709316  0.71625664  1
  Bi2+  Bi118  1  0.62060476  0.77589924  0.23083840  1
  Bi2+  Bi119  1  0.55929186  0.71673428  0.68750053  1
  Bi2+  Bi120  1  0.89402808  0.05520315  0.19679203  1
  Bi2+  Bi121  1  0.88800100  -0.08144123  0.69434408  1
  Bi2+  Bi122  1  0.91604649  0.25316786  0.18837842  1
  Bi2+  Bi123  1  0.90466453  0.21907916  0.69460242  1
  Bi2+  Bi124  1  0.86963140  0.45146125  0.19987980  1
  Bi2+  Bi125  1  0.86596329  0.54212436  0.71115932  1
  Bi2+  Bi126  1  0.86592301  0.75363791  0.20625159  1
  Bi2+  Bi127  1  0.75622795  0.73414109  0.68681915  1
  S2-  S128  1  0.10868776  0.12462274  0.14342335  1
  S2-  S129  1  -0.01167874  0.02669001  0.64837301  1
  S2-  S130  1  0.01347990  0.46770526  0.14476932  1
  S2-  S131  1  0.04533020  0.24141432  0.65255707  1
  S2-  S132  1  0.01469304  0.75321873  0.15264260  1
  S2-  S133  1  0.01539060  0.55175417  0.65295596  1
  S2-  S134  1  -0.12384501  0.89983672  0.14865262  1
  S2-  S135  1  -0.01841861  0.76975063  0.64692199  1
  S2-  S136  1  0.36740200  0.08575312  0.14458286  1
  S2-  S137  1  0.26609940  0.14149380  0.66060345  1
  S2-  S138  1  0.27065797  0.36800943  0.16201881  1
  S2-  S139  1  0.20769631  0.40086121  0.64003816  1
  S2-  S140  1  0.18998618  0.59892532  0.17006757  1
  S2-  S141  1  0.24496417  0.64244864  0.64773025  1
  S2-  S142  1  0.24701897  0.85015546  0.15519665  1
  S2-  S143  1  0.17046029  0.88818744  0.64827622  1
  S2-  S144  1  0.51183361  0.23243736  0.15130453  1
  S2-  S145  1  0.54058294  0.12029610  0.65738236  1
  S2-  S146  1  0.48401309  0.44865443  0.17624950  1
  S2-  S147  1  0.59766026  0.36234660  0.64760601  1
  S2-  S148  1  0.39523669  0.64590662  0.14793903  1
  S2-  S149  1  0.46612403  0.52766595  0.63020514  1
  S2-  S150  1  0.48991137  0.87281866  0.15244484  1
  S2-  S151  1  0.53626858  0.88218405  0.65305566  1
  S2-  S152  1  0.73870082  0.09867204  0.14652040  1
  S2-  S153  1  0.74940788  0.22662558  0.65218653  1
  S2-  S154  1  0.71779390  0.37784937  0.15754744  1
  S2-  S155  1  0.88562920  0.38132865  0.66827522  1
  S2-  S156  1  0.85646324  0.61015848  0.15457131  1
  S2-  S157  1  0.74450382  0.54323787  0.64758947  1
  S2-  S158  1  0.71904542  0.75310763  0.15073168  1
  S2-  S159  1  0.75846145  0.99994371  0.64123018  1
  S2-  S160  1  0.12414078  -0.01252255  0.34877518  1
  S2-  S161  1  0.22733388  0.01736956  0.86104892  1
  S2-  S162  1  0.15939605  0.23341863  0.34788084  1
  S2-  S163  1  0.02462819  0.23918977  0.84544503  1
  S2-  S164  1  0.12780802  0.51696060  0.33772035  1
  S2-  S165  1  0.13491825  0.40414939  0.85651752  1
  S2-  S166  1  0.04387024  0.75775528  0.35588298  1
  S2-  S167  1  0.12266838  0.63749922  0.86613719  1
  S2-  S168  1  0.36252856  0.09375314  0.35271696  1
  S2-  S169  1  0.48770400  0.01296842  0.85512978  1
  S2-  S170  1  0.34986708  0.27674177  0.29441416  1
  S2-  S171  1  0.45030026  0.26004014  0.86269550  1
  S2-  S172  1  0.34034706  0.47726195  0.30821789  1
  S2-  S173  1  0.35815824  0.51221597  0.84166127  1
  S2-  S174  1  0.39535445  0.67132234  0.35085510  1
  S2-  S175  1  0.39798243  0.76982757  0.83758221  1
  S2-  S176  1  0.64664669  -0.10207733  0.35693288  1
  S2-  S177  1  0.70822271  -0.04182673  0.84547906  1
  S2-  S178  1  0.53521730  0.25800205  0.34561353  1
  S2-  S179  1  0.64422588  0.19841389  0.81832558  1
  S2-  S180  1  0.53387744  0.48441138  0.34818790  1
  S2-  S181  1  0.60906789  0.42469849  0.86024334  1
  S2-  S182  1  0.65013000  0.64949128  0.35460494  1
  S2-  S183  1  0.62571610  0.74678500  0.84066829  1
  S2-  S184  1  0.88688433  -0.07631366  0.35294096  1
  S2-  S185  1  0.89397333  0.07217842  0.84949674  1
  S2-  S186  1  0.76299772  0.28002733  0.35642515  1
  S2-  S187  1  0.83370925  0.23715383  0.78864964  1
  S2-  S188  1  0.88498876  0.48809567  0.34604015  1
  S2-  S189  1  0.85462783  0.41106466  0.84756020  1
  S2-  S190  1  0.84981567  0.71743901  0.31103518  1
  S2-  S191  1  0.85200898  0.64386135  0.86674486  1
  S2-  S192  1  0.00595379  0.14436451  0.45320715  1
  S2-  S193  1  -0.00088151  0.12548257  0.95794602  1
  S2-  S194  1  0.00724243  0.38947571  0.44506470  1
  S2-  S195  1  -0.01052326  0.37492117  0.95385054  1
  S2-  S196  1  0.00930695  0.64086220  0.45720558  1
  S2-  S197  1  -0.00711093  0.62952247  0.96766441  1
  S2-  S198  1  0.01339007  0.89527081  0.46065556  1
  S2-  S199  1  -0.00287205  0.87838241  0.96267982  1
  S2-  S200  1  0.26099341  0.14790937  0.45663803  1
  S2-  S201  1  0.24150530  0.12861279  0.96405145  1
  S2-  S202  1  0.26368748  0.38774236  0.43911155  1
  S2-  S203  1  0.25036749  0.37454182  0.95785156  1
  S2-  S204  1  0.25436727  0.64099372  0.44396524  1
  S2-  S205  1  0.25311659  0.62584258  0.96278776  1
  S2-  S206  1  0.25723494  0.89205136  0.45608577  1
  S2-  S207  1  0.24324038  0.87247687  0.95016710  1
  S2-  S208  1  0.50777414  0.14173722  0.45251413  1
  S2-  S209  1  0.49788031  0.12724975  0.96157137  1
  S2-  S210  1  0.50319829  0.38404556  0.45099813  1
  S2-  S211  1  0.49757382  0.37437098  0.96871274  1
  S2-  S212  1  0.50851793  0.64542264  0.45348778  1
  S2-  S213  1  0.49927044  0.62559184  0.95544826  1
  S2-  S214  1  0.50531311  0.89181419  0.45222316  1
  S2-  S215  1  0.49574676  0.87641081  0.94945093  1
  S2-  S216  1  0.75744720  0.13653777  0.45418143  1
  S2-  S217  1  0.74550287  0.13377286  0.94323572  1
  S2-  S218  1  0.75627832  0.39776867  0.45455622  1
  S2-  S219  1  0.74540310  0.36868407  0.95315404  1
  S2-  S220  1  0.76927163  0.64727730  0.45314656  1
  S2-  S221  1  0.73875207  0.62556057  0.96631719  1
  S2-  S222  1  0.76381656  0.89200920  0.45621234  1
  S2-  S223  1  0.74788179  0.87704845  0.96072937  1
  S2-  S224  1  0.11686540  -0.00488823  0.04641585  1
  S2-  S225  1  0.13972145  0.02284633  0.54901286  1
  S2-  S226  1  0.11900459  0.25405254  0.04484341  1
  S2-  S227  1  0.13598225  0.27205268  0.54476873  1
  S2-  S228  1  0.12482073  0.50209869  0.04623515  1
  S2-  S229  1  0.13574408  0.51613092  0.54117832  1
  S2-  S230  1  0.12430654  0.74931007  0.04873884  1
  S2-  S231  1  0.13978929  0.76406805  0.54436652  1
  S2-  S232  1  0.36890357  -0.00020794  0.03686009  1
  S2-  S233  1  0.38546145  0.01805381  0.55166923  1
  S2-  S234  1  0.36820811  0.25055974  0.05351513  1
  S2-  S235  1  0.38583719  0.27120500  0.55740036  1
  S2-  S236  1  0.37427994  0.49799482  0.05165234  1
  S2-  S237  1  0.37917379  0.51755248  0.52484178  1
  S2-  S238  1  0.37401439  0.75532198  0.04376097  1
  S2-  S239  1  0.38258786  0.76430365  0.54501990  1
  S2-  S240  1  0.62032047  0.00459088  0.04379311  1
  S2-  S241  1  0.63052974  0.01430823  0.53965219  1
  S2-  S242  1  0.62188299  0.24706907  0.04599453  1
  S2-  S243  1  0.63661770  0.26518216  0.53907052  1
  S2-  S244  1  0.62072293  0.50155423  0.05574040  1
  S2-  S245  1  0.63529483  0.52013132  0.53893831  1
  S2-  S246  1  0.61571096  0.75364931  0.04867205  1
  S2-  S247  1  0.63611217  0.76571556  0.54340110  1
  S2-  S248  1  0.87247942  0.00686201  0.04404135  1
  S2-  S249  1  0.88612277  0.01583646  0.54106699  1
  S2-  S250  1  0.87089403  0.24560705  0.05372054  1
  S2-  S251  1  0.88219030  0.26758585  0.54636886  1
  S2-  S252  1  0.86540439  0.49830850  0.04505348  1
  S2-  S253  1  0.88876225  0.51119263  0.55149930  1
  S2-  S254  1  0.86833867  0.75100595  0.04868244  1
  S2-  S255  1  0.88260186  0.76939447  0.54175484  1
