# generated using pymatgen
data_La9Ce10Pr6Nd4Sm3(BiS2)32
_symmetry_space_group_name_H-M   'P 1'
_cell_length_a   16.15765371
_cell_length_b   16.15547485
_cell_length_c   27.25780155
_cell_angle_alpha   89.65579120
_cell_angle_beta   89.82345218
_cell_angle_gamma   90.03471691
_symmetry_Int_Tables_number   1
_chemical_formula_structural   La9Ce10Pr6Nd4Sm3(BiS2)32
_chemical_formula_sum   'La18 Ce20 Pr12 Nd8 Sm6 Bi64 S128'
_cell_volume   7115.06489582
_cell_formula_units_Z   2
loop_
 _symmetry_equiv_pos_site_id
 _symmetry_equiv_pos_as_xyz
  1  'x, y, z'
loop_
 _atom_type_symbol
 _atom_type_oxidation_number
  La3+  3.0
  Ce3+  3.0
  Pr3+  3.0
  Nd3+  3.0
  Sm3+  3.0
  Bi2+  2.0
  S2-  -2.0
loop_
 _atom_site_type_symbol
 _atom_site_label
 _atom_site_symmetry_multiplicity
 _atom_site_fract_x
 _atom_site_fract_y
 _atom_site_fract_z
 _atom_site_occupancy
  La3+  La0  1  0.37279611  0.00060761  0.43235702  1
  La3+  La1  1  0.73330740  0.88706733  0.59231359  1
  La3+  La2  1  0.86959861  -0.00298624  0.44486137  1
  La3+  La3  1  0.76006812  0.87359310  0.06564211  1
  La3+  La4  1  0.61418379  0.50545291  0.41979217  1
  La3+  La5  1  0.61311448  0.25717181  0.40924496  1
  La3+  La6  1  0.00022525  0.37004204  0.57703109  1
  La3+  La7  1  0.50153957  0.11901070  0.07525372  1
  La3+  La8  1  0.50697597  0.61889263  0.06357450  1
  La3+  La9  1  0.25280526  0.36768370  0.57180174  1
  La3+  La10  1  0.87715314  0.50474940  0.43414133  1
  La3+  La11  1  0.87912807  0.25384121  0.42565377  1
  La3+  La12  1  0.25839448  0.37212129  0.05662849  1
  La3+  La13  1  0.74079737  0.37172031  0.55512654  1
  La3+  La14  1  0.10811098  0.75815401  0.42547039  1
  La3+  La15  1  0.62352458  -0.01131281  0.42539342  1
  La3+  La16  1  0.74820418  0.12247011  0.11715227  1
  La3+  La17  1  0.87426677  0.75629366  0.90005676  1
  Ce3+  Ce18  1  0.88286130  0.49676289  0.92973198  1
  Ce3+  Ce19  1  0.49361157  0.37194251  0.55497415  1
  Ce3+  Ce20  1  0.38612172  0.24736118  0.93258769  1
  Ce3+  Ce21  1  0.38490112  -0.00007562  0.94244923  1
  Ce3+  Ce22  1  -0.00782641  0.12599125  0.56094601  1
  Ce3+  Ce23  1  0.50992053  0.36968784  0.05495206  1
  Ce3+  Ce24  1  0.74136711  0.13024994  0.55775980  1
  Ce3+  Ce25  1  0.36801828  0.25294535  0.43400300  1
  Ce3+  Ce26  1  0.50689024  0.87327692  0.06071293  1
  Ce3+  Ce27  1  0.24446857  0.86993999  0.56083491  1
  Ce3+  Ce28  1  0.62163638  0.75099007  0.45117544  1
  Ce3+  Ce29  1  0.24784931  0.12277214  0.55314683  1
  Ce3+  Ce30  1  0.75608874  0.37154753  0.07011503  1
  Ce3+  Ce31  1  0.12237176  0.25337969  0.44015046  1
  Ce3+  Ce32  1  0.88502402  -0.00206912  0.94222488  1
  Ce3+  Ce33  1  0.63584594  0.74955175  0.94220204  1
  Ce3+  Ce34  1  0.75907866  0.61582194  0.05730271  1
  Ce3+  Ce35  1  0.25815202  0.12104237  0.05884507  1
  Ce3+  Ce36  1  0.11835784  -0.00232904  0.45114392  1
  Ce3+  Ce37  1  0.12974918  0.74344995  0.94469483  1
  Pr3+  Pr38  1  -0.00303736  0.86607009  0.57931439  1
  Pr3+  Pr39  1  0.38336928  0.74607605  0.94091871  1
  Pr3+  Pr40  1  -0.01406181  0.61845085  0.57618789  1
  Pr3+  Pr41  1  0.48413235  0.86559954  0.57134549  1
  Pr3+  Pr42  1  0.13390873  0.49363515  0.91932855  1
  Pr3+  Pr43  1  0.36557222  0.50437165  0.43113806  1
  Pr3+  Pr44  1  0.49263842  0.62028871  0.56013424  1
  Pr3+  Pr45  1  0.25857551  0.61694931  0.06152420  1
  Pr3+  Pr46  1  0.12934994  -0.00398485  0.94672054  1
  Pr3+  Pr47  1  0.12109045  0.50122306  0.43876217  1
  Pr3+  Pr48  1  0.00660556  0.61677410  0.05717366  1
  Pr3+  Pr49  1  0.00518841  0.12949899  0.07355106  1
  Nd3+  Nd50  1  0.38907875  0.49042275  0.91679904  1
  Nd3+  Nd51  1  0.50050331  0.12168841  0.55276755  1
  Nd3+  Nd52  1  0.00395083  0.87177563  0.06410059  1
  Nd3+  Nd53  1  0.12911202  0.24799593  0.93433419  1
  Nd3+  Nd54  1  0.88127667  0.24762393  0.94834746  1
  Nd3+  Nd55  1  0.00702441  0.37637310  0.06405755  1
  Nd3+  Nd56  1  0.36758977  0.75859205  0.42789762  1
  Nd3+  Nd57  1  0.63954935  0.49616940  0.93156273  1
  Sm3+  Sm58  1  0.74168523  0.61935647  0.56473999  1
  Sm3+  Sm59  1  0.63592102  -0.00121112  0.94511401  1
  Sm3+  Sm60  1  0.63621516  0.24409078  0.94883818  1
  Sm3+  Sm61  1  0.87034643  0.75085103  0.45752399  1
  Sm3+  Sm62  1  0.25503349  0.86999019  0.05493692  1
  Sm3+  Sm63  1  0.23999116  0.62419333  0.55258073  1
  Bi2+  Bi64  1  0.02489746  0.12879477  0.28587399  1
  Bi2+  Bi65  1  -0.00454239  0.13229325  0.79073098  1
  Bi2+  Bi66  1  0.06869889  0.38594685  0.28838596  1
  Bi2+  Bi67  1  0.00774821  0.37530747  0.79343750  1
  Bi2+  Bi68  1  -0.06750394  0.61689747  0.30048660  1
  Bi2+  Bi69  1  0.06072776  0.64128306  0.78261868  1
  Bi2+  Bi70  1  -0.00901957  0.87733281  0.30256981  1
  Bi2+  Bi71  1  0.01360459  0.89431947  0.79618952  1
  Bi2+  Bi72  1  0.22215931  0.10542860  0.29961715  1
  Bi2+  Bi73  1  0.22947035  0.17677179  0.79755205  1
  Bi2+  Bi74  1  0.24339953  0.30973948  0.32206422  1
  Bi2+  Bi75  1  0.26567276  0.40369597  0.78309001  1
  Bi2+  Bi76  1  0.28642905  0.60096046  0.29219948  1
  Bi2+  Bi77  1  0.25631196  0.67999259  0.79300532  1
  Bi2+  Bi78  1  0.19126926  0.89760191  0.25104498  1
  Bi2+  Bi79  1  0.25492613  0.89820062  0.77906197  1
  Bi2+  Bi80  1  0.41934335  0.10432141  0.29637191  1
  Bi2+  Bi81  1  0.41608463  0.12706418  0.80112257  1
  Bi2+  Bi82  1  0.40537360  0.39957928  0.27829461  1
  Bi2+  Bi83  1  0.51800874  0.37302284  0.78598233  1
  Bi2+  Bi84  1  0.53397391  0.62836591  0.28259703  1
  Bi2+  Bi85  1  0.49288308  0.61434271  0.77574975  1
  Bi2+  Bi86  1  0.49383344  0.86400358  0.30411352  1
  Bi2+  Bi87  1  0.47226247  0.86249310  0.78452106  1
  Bi2+  Bi88  1  0.76635920  0.11682974  0.32383702  1
  Bi2+  Bi89  1  0.69015510  0.13785805  0.79301061  1
  Bi2+  Bi90  1  0.78039610  0.42484988  0.28997482  1
  Bi2+  Bi91  1  0.74931199  0.36307874  0.79355734  1
  Bi2+  Bi92  1  0.72438741  0.61406971  0.31915229  1
  Bi2+  Bi93  1  0.67302909  0.58447878  0.73319485  1
  Bi2+  Bi94  1  0.75319998  0.80524520  0.28987094  1
  Bi2+  Bi95  1  0.73481292  0.88785704  0.79404990  1
  Bi2+  Bi96  1  0.13153443  0.06353658  0.19741796  1
  Bi2+  Bi97  1  0.15418515  0.04572665  0.72103109  1
  Bi2+  Bi98  1  0.15505477  0.26181234  0.21021143  1
  Bi2+  Bi99  1  0.11684053  0.24345250  0.70993542  1
  Bi2+  Bi100  1  0.14355805  0.51607312  0.21375328  1
  Bi2+  Bi101  1  0.12566187  0.51521389  0.70955214  1
  Bi2+  Bi102  1  0.09577672  0.70755472  0.24809914  1
  Bi2+  Bi103  1  0.13031047  0.85472847  0.69311537  1
  Bi2+  Bi104  1  0.37462919  -0.01197288  0.20592167  1
  Bi2+  Bi105  1  0.38965574  -0.00320388  0.71452659  1
  Bi2+  Bi106  1  0.35162262  0.24063354  0.22087091  1
  Bi2+  Bi107  1  0.37934077  0.22924968  0.70523786  1
  Bi2+  Bi108  1  0.40167292  0.50480732  0.18277982  1
  Bi2+  Bi109  1  0.40268677  0.48193229  0.71406429  1
  Bi2+  Bi110  1  0.31029318  0.74729937  0.21600735  1
  Bi2+  Bi111  1  0.32040146  0.73517643  0.69292712  1
  Bi2+  Bi112  1  0.61864278  -0.00560247  0.22211735  1
  Bi2+  Bi113  1  0.60446219  0.04706968  0.70547843  1
  Bi2+  Bi114  1  0.61713520  0.27640086  0.21942072  1
  Bi2+  Bi115  1  0.61985181  0.31122139  0.69402244  1
  Bi2+  Bi116  1  0.64907452  0.51840942  0.21776638  1
  Bi2+  Bi117  1  0.61366034  0.48651912  0.64261639  1
  Bi2+  Bi118  1  0.68953910  0.71099633  0.20024503  1
  Bi2+  Bi119  1  0.58556994  0.76487381  0.71238671  1
  Bi2+  Bi120  1  0.87812978  -0.03018603  0.21739160  1
  Bi2+  Bi121  1  0.83890774  0.09270786  0.72979024  1
  Bi2+  Bi122  1  0.90584186  0.24012215  0.21750180  1
  Bi2+  Bi123  1  0.86073797  0.29436693  0.70765851  1
  Bi2+  Bi124  1  0.89069036  0.51325571  0.20686888  1
  Bi2+  Bi125  1  0.84531307  0.49076309  0.71656688  1
  Bi2+  Bi126  1  0.88589355  0.72816840  0.20508475  1
  Bi2+  Bi127  1  0.89848730  0.76065117  0.70306847  1
  S2-  S128  1  -0.08853592  0.09852184  0.15732700  1
  S2-  S129  1  -0.01610097  0.22332240  0.64190029  1
  S2-  S130  1  0.01480818  0.27457266  0.14782994  1
  S2-  S131  1  -0.01493609  0.49296554  0.65222878  1
  S2-  S132  1  0.01661843  0.50506274  0.13678554  1
  S2-  S133  1  0.03999164  0.72678678  0.64845798  1
  S2-  S134  1  -0.02136639  0.86198063  0.16345156  1
  S2-  S135  1  -0.03504287  0.91621165  0.67705296  1
  S2-  S136  1  0.35590332  0.12527551  0.14072103  1
  S2-  S137  1  0.26152971  0.18813955  0.64276085  1
  S2-  S138  1  0.25177416  0.42979319  0.15178453  1
  S2-  S139  1  0.14536245  0.37750947  0.65144005  1
  S2-  S140  1  0.21681141  0.64935647  0.15848145  1
  S2-  S141  1  0.25204961  0.59754868  0.65175667  1
  S2-  S142  1  0.26105327  0.87887298  0.15298897  1
  S2-  S143  1  0.34532317  0.88747013  0.64020009  1
  S2-  S144  1  0.58761241  0.13383831  0.16415078  1
  S2-  S145  1  0.52121943  0.17552456  0.64851879  1
  S2-  S146  1  0.51527141  0.37647361  0.15288783  1
  S2-  S147  1  0.39234966  0.37395974  0.63828612  1
  S2-  S148  1  0.45824016  0.65281555  0.15947753  1
  S2-  S149  1  0.47221375  0.71536995  0.64466835  1
  S2-  S150  1  0.50249969  0.91562184  0.15656137  1
  S2-  S151  1  0.57951987  0.91705972  0.64980965  1
  S2-  S152  1  0.75616343  0.09270781  0.22969705  1
  S2-  S153  1  0.74693698  0.04385646  0.64680793  1
  S2-  S154  1  0.76188683  0.28434033  0.16093837  1
  S2-  S155  1  0.74275049  0.25533763  0.63330375  1
  S2-  S156  1  0.75893952  0.50797547  0.13622238  1
  S2-  S157  1  0.82908640  0.62748429  0.65057170  1
  S2-  S158  1  0.74033253  0.94836473  0.15524459  1
  S2-  S159  1  0.75437838  0.83177804  0.69183572  1
  S2-  S160  1  0.10570434  -0.08047264  0.36472464  1
  S2-  S161  1  0.07949014  0.01049500  0.85074785  1
  S2-  S162  1  0.02847448  0.25678590  0.35784749  1
  S2-  S163  1  0.13828959  0.34873202  0.85135603  1
  S2-  S164  1  0.23788935  0.48682015  0.35895420  1
  S2-  S165  1  -0.00208586  0.50633776  0.85127902  1
  S2-  S166  1  0.18212593  0.70776682  0.33423511  1
  S2-  S167  1  0.11078618  0.76951826  0.84862715  1
  S2-  S168  1  0.35932822  -0.10048001  0.35167541  1
  S2-  S169  1  0.37495401  -0.03304118  0.84754388  1
  S2-  S170  1  0.45203707  0.24809056  0.34956634  1
  S2-  S171  1  0.38435368  0.34806187  0.85187181  1
  S2-  S172  1  0.47356394  0.50676528  0.34786748  1
  S2-  S173  1  0.26256437  0.53162903  0.84892639  1
  S2-  S174  1  0.42296936  0.71397868  0.33448277  1
  S2-  S175  1  0.40765002  0.73180617  0.84127831  1
  S2-  S176  1  0.57159333  0.01311410  0.32619818  1
  S2-  S177  1  0.63756762  -0.01449083  0.84496694  1
  S2-  S178  1  0.63544517  0.20986059  0.30528791  1
  S2-  S179  1  0.62622736  0.26583072  0.85002163  1
  S2-  S180  1  0.64780615  0.39667915  0.34417711  1
  S2-  S181  1  0.52737724  0.50674023  0.85327867  1
  S2-  S182  1  0.63336143  0.83019012  0.36290236  1
  S2-  S183  1  0.70751058  0.75885892  0.85263068  1
  S2-  S184  1  0.85107411  -0.03652191  0.34577892  1
  S2-  S185  1  0.87601140  -0.08085371  0.85257769  1
  S2-  S186  1  0.83736473  0.26788461  0.32451030  1
  S2-  S187  1  0.92565869  0.24937627  0.85022983  1
  S2-  S188  1  1.00392923  0.49788458  0.36051741  1
  S2-  S189  1  0.76275233  0.48970685  0.85792610  1
  S2-  S190  1  0.95142836  0.75228261  0.36911763  1
  S2-  S191  1  0.91101744  0.70538508  0.80323917  1
  S2-  S192  1  -0.00247974  0.12125799  0.45437640  1
  S2-  S193  1  0.00851088  0.12455075  0.96138126  1
  S2-  S194  1  -0.00075611  0.37555225  0.46299406  1
  S2-  S195  1  0.00766180  0.36997832  0.95726017  1
  S2-  S196  1  -0.00540576  0.62663346  0.46730223  1
  S2-  S197  1  -0.00208303  0.63304959  0.95077245  1
  S2-  S198  1  -0.00844805  0.87656483  0.47123412  1
  S2-  S199  1  0.00387463  0.86821367  0.95738385  1
  S2-  S200  1  0.24386218  0.12355456  0.44649466  1
  S2-  S201  1  0.25597696  0.12312153  0.95043457  1
  S2-  S202  1  0.24590201  0.37221418  0.46114925  1
  S2-  S203  1  0.25994947  0.36981321  0.95093556  1
  S2-  S204  1  0.24320457  0.63374101  0.44975183  1
  S2-  S205  1  0.25859244  0.62388390  0.95423087  1
  S2-  S206  1  0.24372222  0.87592016  0.45723504  1
  S2-  S207  1  0.25599817  0.87185587  0.95030354  1
  S2-  S208  1  0.49960227  0.12142256  0.44586758  1
  S2-  S209  1  0.51063984  0.12160455  0.95508360  1
  S2-  S210  1  0.49021520  0.37724913  0.44963962  1
  S2-  S211  1  0.51322163  0.36864865  0.95194156  1
  S2-  S212  1  0.49293882  0.63253337  0.45262675  1
  S2-  S213  1  0.51063441  0.62415500  0.95450727  1
  S2-  S214  1  0.49435711  0.87272485  0.46013006  1
  S2-  S215  1  0.51031079  0.87381760  0.95290495  1
  S2-  S216  1  0.74303292  0.12799511  0.44261334  1
  S2-  S217  1  0.75840265  0.12087855  0.94523183  1
  S2-  S218  1  0.75151602  0.37877030  0.44678693  1
  S2-  S219  1  0.75619708  0.36743188  0.96026651  1
  S2-  S220  1  0.74780819  0.62636392  0.45771846  1
  S2-  S221  1  0.76300096  0.63041821  0.95342818  1
  S2-  S222  1  0.74858836  0.87163323  0.46419105  1
  S2-  S223  1  0.75889837  0.87467430  0.95847330  1
  S2-  S224  1  0.13096498  -0.00377224  0.05364921  1
  S2-  S225  1  0.12041494  -0.00054769  0.55809265  1
  S2-  S226  1  0.13447774  0.24586693  0.04304698  1
  S2-  S227  1  0.12190914  0.24381703  0.54390682  1
  S2-  S228  1  0.13473121  0.49722915  0.03331356  1
  S2-  S229  1  0.12198177  0.50048327  0.54645054  1
  S2-  S230  1  0.13085745  0.74703501  0.05141180  1
  S2-  S231  1  0.12268333  0.74946509  0.54111243  1
  S2-  S232  1  0.37844951  -0.00788580  0.04533656  1
  S2-  S233  1  0.37185427  0.00155730  0.54080355  1
  S2-  S234  1  0.38404676  0.24727884  0.04025815  1
  S2-  S235  1  0.37490290  0.24321247  0.53750977  1
  S2-  S236  1  0.38474122  0.49570959  0.03958798  1
  S2-  S237  1  0.36710613  0.50298134  0.53944805  1
  S2-  S238  1  0.37935825  0.74923951  0.04789799  1
  S2-  S239  1  0.36402039  0.74502317  0.53695234  1
  S2-  S240  1  0.63119466  0.00054719  0.04914309  1
  S2-  S241  1  0.62239936  0.00114724  0.53704354  1
  S2-  S242  1  0.63323896  0.24215053  0.05225986  1
  S2-  S243  1  0.61517036  0.25074515  0.52896560  1
  S2-  S244  1  0.63061967  0.49597349  0.03974310  1
  S2-  S245  1  0.61801090  0.50118999  0.53006730  1
  S2-  S246  1  0.63240728  0.74714713  0.05114717  1
  S2-  S247  1  0.62349651  0.74682125  0.55580483  1
  S2-  S248  1  0.88434906  -0.00079370  0.04830222  1
  S2-  S249  1  0.87045164  0.00089101  0.55263908  1
  S2-  S250  1  0.87848531  0.24784624  0.05207447  1
  S2-  S251  1  0.87187710  0.24728652  0.53437367  1
  S2-  S252  1  0.88196943  0.49439081  0.03684074  1
  S2-  S253  1  0.86399834  0.49579763  0.54373153  1
  S2-  S254  1  0.88222698  0.74293987  0.05948880  1
  S2-  S255  1  0.85917535  0.75491981  0.55853929  1
