# generated using pymatgen
data_La9Ce10Pr6Nd4Sm3(BiS2)32
_symmetry_space_group_name_H-M   'P 1'
_cell_length_a   16.18652496
_cell_length_b   16.15903723
_cell_length_c   27.01193479
_cell_angle_alpha   90.04891035
_cell_angle_beta   89.99461962
_cell_angle_gamma   90.06331577
_symmetry_Int_Tables_number   1
_chemical_formula_structural   La9Ce10Pr6Nd4Sm3(BiS2)32
_chemical_formula_sum   'La18 Ce20 Pr12 Nd8 Sm6 Bi64 S128'
_cell_volume   7065.19853609
_cell_formula_units_Z   2
loop_
 _symmetry_equiv_pos_site_id
 _symmetry_equiv_pos_as_xyz
  1  'x, y, z'
loop_
 _atom_type_symbol
 _atom_type_oxidation_number
  La3+  3.0
  Ce3+  3.0
  Pr3+  3.0
  Nd3+  3.0
  Sm3+  3.0
  Bi2+  2.0
  S2-  -2.0
loop_
 _atom_site_type_symbol
 _atom_site_label
 _atom_site_symmetry_multiplicity
 _atom_site_fract_x
 _atom_site_fract_y
 _atom_site_fract_z
 _atom_site_occupancy
  La3+  La0  1  0.76613017  0.90052428  0.57055432  1
  La3+  La1  1  0.26129886  0.64979614  0.56731153  1
  La3+  La2  1  0.88621192  0.28025398  0.42880111  1
  La3+  La3  1  0.26053990  0.15216896  0.56388838  1
  La3+  La4  1  0.14166130  0.02972088  0.41402517  1
  La3+  La5  1  0.48626429  0.64095636  0.06435853  1
  La3+  La6  1  0.52056993  0.38929405  0.58340594  1
  La3+  La7  1  0.61303958  0.26274317  0.93311044  1
  La3+  La8  1  0.73678584  0.38501722  0.08512579  1
  La3+  La9  1  0.13694142  0.27687804  0.42663924  1
  La3+  La10  1  0.61828086  0.51401153  0.92325091  1
  La3+  La11  1  0.48744250  0.38923578  0.06287288  1
  La3+  La12  1  0.86379612  0.01300576  0.90283364  1
  La3+  La13  1  0.73483622  0.63446643  0.07807119  1
  La3+  La14  1  0.49981391  0.13382166  0.07254541  1
  La3+  La15  1  0.50659668  0.64636676  0.60607943  1
  La3+  La16  1  0.11714772  0.25198887  0.92753691  1
  La3+  La17  1  0.76642910  0.65197537  0.57587980  1
  Ce3+  Ce18  1  -0.00950940  0.38257345  0.05723530  1
  Ce3+  Ce19  1  0.13838650  0.52236716  0.44027420  1
  Ce3+  Ce20  1  0.01278791  0.64844010  0.56750042  1
  Ce3+  Ce21  1  0.11161682  0.76260732  0.94218024  1
  Ce3+  Ce22  1  -0.01355752  0.13729559  0.06257516  1
  Ce3+  Ce23  1  -0.00999121  0.63522341  0.05630500  1
  Ce3+  Ce24  1  0.13885114  0.77059661  0.44051196  1
  Ce3+  Ce25  1  0.61846234  0.01025763  0.93597698  1
  Ce3+  Ce26  1  0.01605552  0.39640204  0.56304597  1
  Ce3+  Ce27  1  0.11361268  0.01220272  0.94372342  1
  Ce3+  Ce28  1  0.39052828  0.27656135  0.43526211  1
  Ce3+  Ce29  1  0.63637232  0.76410487  0.44577919  1
  Ce3+  Ce30  1  0.74188252  0.88241962  0.06108217  1
  Ce3+  Ce31  1  0.11481170  0.50814716  0.94954388  1
  Ce3+  Ce32  1  0.23842204  0.88630636  0.06245175  1
  Ce3+  Ce33  1  0.24219973  0.38550680  0.06692246  1
  Ce3+  Ce34  1  0.86350663  0.76052189  0.94155059  1
  Ce3+  Ce35  1  0.39330880  0.52284653  0.45336907  1
  Ce3+  Ce36  1  0.85690650  0.25907571  0.93519361  1
  Ce3+  Ce37  1  0.26067188  0.90483459  0.54895215  1
  Pr3+  Pr38  1  0.38960340  0.77150741  0.44053259  1
  Pr3+  Pr39  1  0.36088107  0.76132325  0.93179287  1
  Pr3+  Pr40  1  0.76591119  0.39819779  0.56595140  1
  Pr3+  Pr41  1  0.62834455  0.76183942  0.92788925  1
  Pr3+  Pr42  1  0.88625374  0.02375720  0.43377853  1
  Pr3+  Pr43  1  0.88554346  0.76911372  0.43252108  1
  Pr3+  Pr44  1  0.50843896  0.89715553  0.56394133  1
  Pr3+  Pr45  1  0.63861541  0.28040815  0.43000207  1
  Pr3+  Pr46  1  0.51208072  0.14510534  0.55809875  1
  Pr3+  Pr47  1  0.39439724  0.03231629  0.41905047  1
  Pr3+  Pr48  1  0.36502552  0.01247899  0.94747477  1
  Pr3+  Pr49  1  0.01601667  0.14945339  0.58132088  1
  Nd3+  Nd50  1  0.36818020  0.26048974  0.93386851  1
  Nd3+  Nd51  1  0.86329755  0.50855262  0.94393145  1
  Nd3+  Nd52  1  0.24014589  0.13772491  0.07066541  1
  Nd3+  Nd53  1  0.76332104  0.14590286  0.55976086  1
  Nd3+  Nd54  1  0.23919039  0.63847130  0.06770052  1
  Nd3+  Nd55  1  0.35597514  0.51126255  0.93547297  1
  Nd3+  Nd56  1  0.01416483  0.90324581  0.54854477  1
  Nd3+  Nd57  1  0.88801364  0.52792508  0.43776635  1
  Sm3+  Sm58  1  0.74079106  0.13554714  0.05962499  1
  Sm3+  Sm59  1  0.49071080  0.88447600  0.04659320  1
  Sm3+  Sm60  1  0.63883382  0.02192326  0.43633809  1
  Sm3+  Sm61  1  -0.01241075  0.88928224  0.05660425  1
  Sm3+  Sm62  1  0.26409849  0.39440656  0.56021949  1
  Sm3+  Sm63  1  0.63554027  0.52277561  0.44497268  1
  Bi2+  Bi64  1  0.01618916  0.11464979  0.28762843  1
  Bi2+  Bi65  1  0.00512944  0.08282251  0.77917444  1
  Bi2+  Bi66  1  -0.00858034  0.36365201  0.29113160  1
  Bi2+  Bi67  1  -0.00543608  0.35435278  0.78825151  1
  Bi2+  Bi68  1  0.04040565  0.59737479  0.29217508  1
  Bi2+  Bi69  1  -0.04313348  0.56752167  0.79731261  1
  Bi2+  Bi70  1  -0.08792229  0.84750726  0.28406732  1
  Bi2+  Bi71  1  0.07154269  0.82648633  0.73351337  1
  Bi2+  Bi72  1  0.24909965  0.07676566  0.27874487  1
  Bi2+  Bi73  1  0.25757697  0.12138177  0.79221266  1
  Bi2+  Bi74  1  0.24538739  0.38304032  0.28671381  1
  Bi2+  Bi75  1  0.18985870  0.36705293  0.78660511  1
  Bi2+  Bi76  1  0.23549409  0.62750209  0.29158571  1
  Bi2+  Bi77  1  0.14364751  0.63636469  0.79430115  1
  Bi2+  Bi78  1  0.20626370  0.82779732  0.25936413  1
  Bi2+  Bi79  1  0.25479324  0.84957458  0.80531730  1
  Bi2+  Bi80  1  0.49438147  0.11585422  0.28795121  1
  Bi2+  Bi81  1  0.52412967  0.13356755  0.77730428  1
  Bi2+  Bi82  1  0.46369218  0.39118625  0.27897571  1
  Bi2+  Bi83  1  0.45436517  0.35499590  0.78106290  1
  Bi2+  Bi84  1  0.48064633  0.60738578  0.30614519  1
  Bi2+  Bi85  1  0.46412179  0.58917429  0.81044966  1
  Bi2+  Bi86  1  0.51078554  0.85142809  0.29821683  1
  Bi2+  Bi87  1  0.44409203  0.92096122  0.77984694  1
  Bi2+  Bi88  1  0.73794748  0.06326111  0.30363177  1
  Bi2+  Bi89  1  0.76614856  0.14931459  0.78796131  1
  Bi2+  Bi90  1  0.74995649  0.33361097  0.30182121  1
  Bi2+  Bi91  1  0.79874631  0.38349337  0.78757698  1
  Bi2+  Bi92  1  0.75963350  0.67311728  0.30876867  1
  Bi2+  Bi93  1  0.75570719  0.64112462  0.79438308  1
  Bi2+  Bi94  1  0.74707615  0.87006569  0.34365731  1
  Bi2+  Bi95  1  0.62984701  0.88084788  0.80145312  1
  Bi2+  Bi96  1  0.09816816  0.00814489  0.18347849  1
  Bi2+  Bi97  1  0.19906942  -0.02046060  0.71993802  1
  Bi2+  Bi98  1  0.11347554  0.33923537  0.20111158  1
  Bi2+  Bi99  1  0.11374787  0.21247019  0.71450795  1
  Bi2+  Bi100  1  0.21345201  0.50521930  0.19384404  1
  Bi2+  Bi101  1  0.08771499  0.47863720  0.68881160  1
  Bi2+  Bi102  1  0.12366924  0.68239658  0.19700413  1
  Bi2+  Bi103  1  0.13886664  0.66521103  0.68069708  1
  Bi2+  Bi104  1  0.45279422  -0.02713512  0.21054525  1
  Bi2+  Bi105  1  0.44476085  0.02192351  0.67077270  1
  Bi2+  Bi106  1  0.34789308  0.27160103  0.21630491  1
  Bi2+  Bi107  1  0.37284547  0.18976661  0.70536537  1
  Bi2+  Bi108  1  0.43774205  0.53291789  0.20086130  1
  Bi2+  Bi109  1  0.27880312  0.43599403  0.69319589  1
  Bi2+  Bi110  1  0.37488645  0.78791330  0.20809704  1
  Bi2+  Bi111  1  0.35941871  0.77891104  0.71206166  1
  Bi2+  Bi112  1  0.65848252  -0.06624365  0.23035012  1
  Bi2+  Bi113  1  0.62753588  0.00956845  0.70946457  1
  Bi2+  Bi114  1  0.60372936  0.23777031  0.20352105  1
  Bi2+  Bi115  1  0.65027440  0.22883837  0.70623360  1
  Bi2+  Bi116  1  0.63506907  0.49940522  0.21704983  1
  Bi2+  Bi117  1  0.61091409  0.48846706  0.71787759  1
  Bi2+  Bi118  1  0.62121284  0.73288859  0.23136772  1
  Bi2+  Bi119  1  0.63772313  0.75367246  0.71289315  1
  Bi2+  Bi120  1  0.84913179  -0.05054967  0.19208919  1
  Bi2+  Bi121  1  0.86941597  -0.04186666  0.70322726  1
  Bi2+  Bi122  1  0.82050614  0.14276565  0.20734942  1
  Bi2+  Bi123  1  0.87524575  0.26633686  0.70219071  1
  Bi2+  Bi124  1  0.91070071  0.50505149  0.22300973  1
  Bi2+  Bi125  1  0.88833100  0.47442169  0.69652167  1
  Bi2+  Bi126  1  0.84473182  0.71662614  0.21067328  1
  Bi2+  Bi127  1  0.89852646  0.72172749  0.73280698  1
  S2-  S128  1  -0.01340276  0.13290018  0.16366320  1
  S2-  S129  1  -0.06433182  0.10265307  0.67454789  1
  S2-  S130  1  -0.03470817  0.38407208  0.15601621  1
  S2-  S131  1  0.02502394  0.29448536  0.64343454  1
  S2-  S132  1  -0.03091604  0.62642931  0.15337913  1
  S2-  S133  1  -0.09542579  0.63776467  0.64521330  1
  S2-  S134  1  -0.00710174  0.87745814  0.15609545  1
  S2-  S135  1  -0.00380104  0.89538016  0.65035285  1
  S2-  S136  1  0.21495468  0.12588217  0.17204943  1
  S2-  S137  1  0.15321388  0.09939190  0.64129295  1
  S2-  S138  1  0.36077415  0.38431157  0.13930855  1
  S2-  S139  1  0.26670082  0.28869573  0.63979678  1
  S2-  S140  1  0.35967535  0.65418865  0.14268561  1
  S2-  S141  1  0.34162812  0.64644746  0.65716612  1
  S2-  S142  1  0.23216677  0.89732327  0.16207774  1
  S2-  S143  1  0.26438179  0.87838841  0.64731076  1
  S2-  S144  1  0.43926681  0.15865188  0.16876283  1
  S2-  S145  1  0.51361781  0.23798018  0.64414311  1
  S2-  S146  1  0.58908118  0.37693931  0.14777627  1
  S2-  S147  1  0.45778819  0.43563880  0.67974449  1
  S2-  S148  1  0.58700388  0.62596097  0.14971630  1
  S2-  S149  1  0.51218201  0.63127935  0.72044228  1
  S2-  S150  1  0.49746847  0.85022269  0.14301006  1
  S2-  S151  1  0.51107195  0.80563911  0.65199174  1
  S2-  S152  1  0.64423636  0.12102165  0.14273305  1
  S2-  S153  1  0.75117675  0.03499128  0.63983118  1
  S2-  S154  1  0.76803433  0.29205099  0.18633259  1
  S2-  S155  1  0.67140125  0.38007762  0.65161327  1
  S2-  S156  1  0.76359744  0.51451801  0.15669983  1
  S2-  S157  1  0.66588490  0.61109000  0.65589297  1
  S2-  S158  1  0.73866032  0.77915462  0.14134568  1
  S2-  S159  1  0.77564551  0.80835123  0.65823800  1
  S2-  S160  1  0.11906507  -0.02119886  0.31265657  1
  S2-  S161  1  0.11549008  0.09617168  0.85850156  1
  S2-  S162  1  0.14765869  0.17195311  0.34279902  1
  S2-  S163  1  0.25072058  0.26192376  0.85838606  1
  S2-  S164  1  0.12585579  0.41719637  0.35835883  1
  S2-  S165  1  0.16356092  0.50637916  0.85584120  1
  S2-  S166  1  0.13489434  0.74259435  0.34333320  1
  S2-  S167  1  0.09927043  0.79114027  0.84443691  1
  S2-  S168  1  0.32609600  -0.02900436  0.32952343  1
  S2-  S169  1  0.36948207  0.03259483  0.84686378  1
  S2-  S170  1  0.39052960  0.18530982  0.35006586  1
  S2-  S171  1  0.48694249  0.24276245  0.85637256  1
  S2-  S172  1  0.39439347  0.47551131  0.35717299  1
  S2-  S173  1  0.36724411  0.45283041  0.83965614  1
  S2-  S174  1  0.39121110  0.73667090  0.33991879  1
  S2-  S175  1  0.33960700  0.70350380  0.83621973  1
  S2-  S176  1  0.53595804  0.00508344  0.35588486  1
  S2-  S177  1  0.70574535  0.01744592  0.85030550  1
  S2-  S178  1  0.65157034  0.20433673  0.33378588  1
  S2-  S179  1  0.72811962  0.27184278  0.85601534  1
  S2-  S180  1  0.64817191  0.41381225  0.35758241  1
  S2-  S181  1  0.57132495  0.44652891  0.82276873  1
  S2-  S182  1  0.62074810  0.64505696  0.36985485  1
  S2-  S183  1  0.60101464  0.64960024  0.85179308  1
  S2-  S184  1  0.91640930  0.01534463  0.33294447  1
  S2-  S185  1  0.91618640  -0.04521634  0.80767063  1
  S2-  S186  1  0.89912129  0.23062042  0.32659488  1
  S2-  S187  1  0.89970063  0.16349775  0.85045677  1
  S2-  S188  1  0.87121627  0.42096998  0.35558116  1
  S2-  S189  1  0.76828100  0.51046989  0.86006051  1
  S2-  S190  1  0.91117394  0.64366864  0.35975006  1
  S2-  S191  1  0.77845718  0.77385700  0.85705489  1
  S2-  S192  1  0.00784966  0.15063091  0.44225484  1
  S2-  S193  1  -0.01332361  0.13256776  0.95812208  1
  S2-  S194  1  0.01066400  0.40211018  0.45824530  1
  S2-  S195  1  -0.00983838  0.38112391  0.94793462  1
  S2-  S196  1  0.01927667  0.64702142  0.46066758  1
  S2-  S197  1  -0.01061260  0.63467088  0.94856418  1
  S2-  S198  1  0.01211578  0.89594084  0.44061869  1
  S2-  S199  1  -0.01497415  0.89152200  0.94956152  1
  S2-  S200  1  0.26560594  0.15131365  0.45156416  1
  S2-  S201  1  0.24095778  0.13345543  0.96255005  1
  S2-  S202  1  0.26534900  0.39916131  0.45628134  1
  S2-  S203  1  0.23785320  0.38294028  0.96059688  1
  S2-  S204  1  0.26363690  0.64538107  0.45561976  1
  S2-  S205  1  0.23425991  0.63901202  0.95884263  1
  S2-  S206  1  0.26226863  0.89725159  0.44277064  1
  S2-  S207  1  0.23687271  0.88777148  0.95353521  1
  S2-  S208  1  0.51994307  0.15107701  0.45190808  1
  S2-  S209  1  0.49364917  0.13061123  0.96027167  1
  S2-  S210  1  0.51442369  0.39727497  0.46197202  1
  S2-  S211  1  0.48575014  0.39102021  0.95383744  1
  S2-  S212  1  0.50790654  0.64774471  0.46836142  1
  S2-  S213  1  0.48115538  0.63509211  0.95212641  1
  S2-  S214  1  0.51525466  0.89427007  0.45606828  1
  S2-  S215  1  0.49083318  0.88330952  0.94077276  1
  S2-  S216  1  0.76122702  0.14744968  0.45096067  1
  S2-  S217  1  0.74248772  0.13058933  0.95602512  1
  S2-  S218  1  0.76248330  0.40296638  0.46077804  1
  S2-  S219  1  0.74184907  0.38547956  0.96384453  1
  S2-  S220  1  0.76385417  0.64680486  0.46403993  1
  S2-  S221  1  0.74461750  0.63741892  0.96338467  1
  S2-  S222  1  0.76185289  0.89716562  0.45926570  1
  S2-  S223  1  0.74737498  0.89291617  0.95595730  1
  S2-  S224  1  0.11396568  0.01224587  0.05022541  1
  S2-  S225  1  0.13543879  0.02550136  0.52859239  1
  S2-  S226  1  0.11603561  0.25826085  0.04778822  1
  S2-  S227  1  0.13546085  0.27265912  0.53685105  1
  S2-  S228  1  0.11617155  0.51055077  0.05661563  1
  S2-  S229  1  0.14007894  0.51936049  0.54873520  1
  S2-  S230  1  0.11230783  0.76418888  0.05042319  1
  S2-  S231  1  0.13649700  0.77709430  0.54680890  1
  S2-  S232  1  0.36617373  0.00973985  0.05564519  1
  S2-  S233  1  0.38559009  0.02511561  0.53597572  1
  S2-  S234  1  0.36609459  0.25340500  0.04375339  1
  S2-  S235  1  0.39053493  0.27433695  0.54069610  1
  S2-  S236  1  0.35786653  0.51566749  0.04238677  1
  S2-  S237  1  0.38919607  0.51725922  0.55827624  1
  S2-  S238  1  0.36124762  0.76776217  0.03960278  1
  S2-  S239  1  0.38251322  0.77566940  0.54752171  1
  S2-  S240  1  0.61689998  0.00385702  0.04260906  1
  S2-  S241  1  0.63475212  0.02067447  0.54085693  1
  S2-  S242  1  0.61855631  0.25953961  0.04360193  1
  S2-  S243  1  0.64343146  0.26827222  0.54096362  1
  S2-  S244  1  0.61258830  0.51285583  0.04152977  1
  S2-  S245  1  0.63580394  0.52009583  0.54993488  1
  S2-  S246  1  0.61324887  0.76441318  0.03635192  1
  S2-  S247  1  0.63675794  0.77267428  0.55145953  1
  S2-  S248  1  0.86342660  0.01110447  0.05656821  1
  S2-  S249  1  0.89347280  0.02854396  0.54176851  1
  S2-  S250  1  0.86129074  0.25999643  0.04945670  1
  S2-  S251  1  0.88670183  0.26889351  0.54452660  1
  S2-  S252  1  0.86857303  0.50846668  0.04904618  1
  S2-  S253  1  0.89168421  0.51949123  0.54551447  1
  S2-  S254  1  0.87063225  0.76182770  0.04631316  1
  S2-  S255  1  0.89370522  0.77479350  0.54075041  1
