# generated using pymatgen
data_La9Ce10Pr6Nd4Sm3(BiS2)32
_symmetry_space_group_name_H-M   'P 1'
_cell_length_a   16.23136444
_cell_length_b   16.23580971
_cell_length_c   27.08684884
_cell_angle_alpha   90.01026637
_cell_angle_beta   90.01499643
_cell_angle_gamma   90.00819992
_symmetry_Int_Tables_number   1
_chemical_formula_structural   La9Ce10Pr6Nd4Sm3(BiS2)32
_chemical_formula_sum   'La18 Ce20 Pr12 Nd8 Sm6 Bi64 S128'
_cell_volume   7138.17908420
_cell_formula_units_Z   2
loop_
 _symmetry_equiv_pos_site_id
 _symmetry_equiv_pos_as_xyz
  1  'x, y, z'
loop_
 _atom_type_symbol
 _atom_type_oxidation_number
  La3+  3.0
  Ce3+  3.0
  Pr3+  3.0
  Nd3+  3.0
  Sm3+  3.0
  Bi2+  2.0
  S2-  -2.0
loop_
 _atom_site_type_symbol
 _atom_site_label
 _atom_site_symmetry_multiplicity
 _atom_site_fract_x
 _atom_site_fract_y
 _atom_site_fract_z
 _atom_site_occupancy
  La3+  La0  1  0.50194869  0.86964356  0.06782044  1
  La3+  La1  1  0.62746417  0.24234103  0.93479777  1
  La3+  La2  1  0.73703415  0.36883301  0.11513174  1
  La3+  La3  1  -0.00253423  0.36782784  0.07105160  1
  La3+  La4  1  -0.00354015  0.61835956  0.06561772  1
  La3+  La5  1  0.12249730  -0.00026590  0.43197072  1
  La3+  La6  1  0.36774048  0.75112393  0.42817669  1
  La3+  La7  1  -0.00192679  0.86753118  0.06808013  1
  La3+  La8  1  0.12263323  -0.01105289  0.92562405  1
  La3+  La9  1  0.61943182  0.24778465  0.43801970  1
  La3+  La10  1  0.00430850  0.11411598  0.07032641  1
  La3+  La11  1  0.38273200  0.00733479  0.38322034  1
  La3+  La12  1  0.87854129  0.74520092  0.93013813  1
  La3+  La13  1  0.50331379  0.12366712  0.05988586  1
  La3+  La14  1  0.24642940  0.87127148  0.56657587  1
  La3+  La15  1  0.49476676  0.61644936  0.06714706  1
  La3+  La16  1  -0.00598156  0.38288119  0.58754472  1
  La3+  La17  1  0.87466284  0.49388978  0.42203592  1
  Ce3+  Ce18  1  0.25232990  0.87224757  0.06471256  1
  Ce3+  Ce19  1  0.62729207  0.49441119  0.94263477  1
  Ce3+  Ce20  1  0.62001003  -0.00102436  0.44197333  1
  Ce3+  Ce21  1  0.49413792  0.12175298  0.55928353  1
  Ce3+  Ce22  1  0.25151131  0.61960582  0.05589416  1
  Ce3+  Ce23  1  0.75267771  0.86886460  0.06746449  1
  Ce3+  Ce24  1  0.36838384  0.24604250  0.44329780  1
  Ce3+  Ce25  1  0.87483806  0.25016605  0.44662645  1
  Ce3+  Ce26  1  0.87035165  0.74973626  0.44542685  1
  Ce3+  Ce27  1  0.75128255  0.61548343  0.05815078  1
  Ce3+  Ce28  1  0.74959843  0.37501844  0.56443364  1
  Ce3+  Ce29  1  -0.00557565  0.61989490  0.55908399  1
  Ce3+  Ce30  1  0.11724152  0.49530235  0.43481132  1
  Ce3+  Ce31  1  0.11883302  0.24959708  0.44870353  1
  Ce3+  Ce32  1  0.24827850  0.11739629  0.04755482  1
  Ce3+  Ce33  1  0.37093603  0.50191671  0.42927180  1
  Ce3+  Ce34  1  0.50313633  0.36911384  0.05526548  1
  Ce3+  Ce35  1  0.62593034  0.74416348  0.94477157  1
  Ce3+  Ce36  1  0.12654319  0.74578043  0.95000024  1
  Ce3+  Ce37  1  -0.00517845  0.87610759  0.55951520  1
  Pr3+  Pr38  1  0.74630926  0.87412599  0.56159817  1
  Pr3+  Pr39  1  0.75163654  0.11753668  0.06815176  1
  Pr3+  Pr40  1  0.24684374  0.36821007  0.06947666  1
  Pr3+  Pr41  1  0.24524519  0.12299382  0.56245778  1
  Pr3+  Pr42  1  0.87640296  0.24602321  0.94418056  1
  Pr3+  Pr43  1  0.87684099  0.49327903  0.93606759  1
  Pr3+  Pr44  1  0.37302282  0.24556573  0.94235510  1
  Pr3+  Pr45  1  0.12346749  0.24595947  0.93555601  1
  Pr3+  Pr46  1  0.37508616  0.74664987  0.93774399  1
  Pr3+  Pr47  1  0.62629705  -0.01253962  0.93688232  1
  Pr3+  Pr48  1  0.24659370  0.61595456  0.55820315  1
  Pr3+  Pr49  1  0.87590171  0.00125213  0.43172650  1
  Nd3+  Nd50  1  0.74637787  0.12439043  0.55822972  1
  Nd3+  Nd51  1  0.74692533  0.62257777  0.55431752  1
  Nd3+  Nd52  1  -0.00455307  0.12217042  0.57028734  1
  Nd3+  Nd53  1  0.62030487  0.75172564  0.43914900  1
  Nd3+  Nd54  1  0.49391384  0.87392250  0.55752996  1
  Nd3+  Nd55  1  0.49443534  0.62324165  0.55844762  1
  Nd3+  Nd56  1  0.49623972  0.37338061  0.55533992  1
  Nd3+  Nd57  1  0.37560787  0.49452038  0.94078507  1
  Sm3+  Sm58  1  0.12487552  0.49470092  0.94194265  1
  Sm3+  Sm59  1  0.37506762  -0.00602817  0.94152275  1
  Sm3+  Sm60  1  0.11996008  0.74783719  0.44680612  1
  Sm3+  Sm61  1  0.87454307  -0.00348299  0.94055343  1
  Sm3+  Sm62  1  0.62085742  0.49908241  0.44352303  1
  Sm3+  Sm63  1  0.24698360  0.37403529  0.55451755  1
  Bi2+  Bi64  1  -0.04158328  0.14823193  0.31248979  1
  Bi2+  Bi65  1  0.00827985  0.15996580  0.77376706  1
  Bi2+  Bi66  1  0.10222369  0.38041174  0.30043307  1
  Bi2+  Bi67  1  0.02046935  0.36345159  0.77590752  1
  Bi2+  Bi68  1  0.02497646  0.65561648  0.30055174  1
  Bi2+  Bi69  1  -0.05042693  0.58141724  0.81641853  1
  Bi2+  Bi70  1  -0.02921613  0.83310757  0.25338422  1
  Bi2+  Bi71  1  0.00649119  0.89592433  0.79716944  1
  Bi2+  Bi72  1  0.23491283  0.13908683  0.28820897  1
  Bi2+  Bi73  1  0.29406147  0.15596680  0.77063848  1
  Bi2+  Bi74  1  0.29482167  0.40723234  0.31571008  1
  Bi2+  Bi75  1  0.29223757  0.35236628  0.79332078  1
  Bi2+  Bi76  1  0.25047425  0.59793616  0.28303075  1
  Bi2+  Bi77  1  0.26417877  0.62348934  0.78419576  1
  Bi2+  Bi78  1  0.23435857  0.86103847  0.28341841  1
  Bi2+  Bi79  1  0.25397024  0.87002911  0.80698764  1
  Bi2+  Bi80  1  0.50547038  0.14023585  0.28801188  1
  Bi2+  Bi81  1  0.54581959  0.15173779  0.79809087  1
  Bi2+  Bi82  1  0.48047744  0.39841217  0.28051867  1
  Bi2+  Bi83  1  0.48176975  0.42938927  0.78604765  1
  Bi2+  Bi84  1  0.49936042  0.61242632  0.28385834  1
  Bi2+  Bi85  1  0.52831479  0.62093596  0.76221867  1
  Bi2+  Bi86  1  0.53494052  0.85249118  0.29054590  1
  Bi2+  Bi87  1  0.51191345  0.84170934  0.76427863  1
  Bi2+  Bi88  1  0.78443870  0.05182950  0.31355775  1
  Bi2+  Bi89  1  0.78910232  0.11376656  0.79123452  1
  Bi2+  Bi90  1  0.72502258  0.37450679  0.32360688  1
  Bi2+  Bi91  1  0.74875085  0.38733741  0.78348516  1
  Bi2+  Bi92  1  0.77399058  0.65825404  0.26087466  1
  Bi2+  Bi93  1  0.71606245  0.58286435  0.78208075  1
  Bi2+  Bi94  1  0.77390705  0.85586751  0.30594419  1
  Bi2+  Bi95  1  0.71782857  0.87751482  0.79253693  1
  Bi2+  Bi96  1  0.11741505  0.04165741  0.20353156  1
  Bi2+  Bi97  1  0.14247038  -0.00724098  0.69978845  1
  Bi2+  Bi98  1  0.16224993  0.26376727  0.21360556  1
  Bi2+  Bi99  1  0.20899161  0.28643340  0.69499732  1
  Bi2+  Bi100  1  0.11846540  0.51975946  0.21175930  1
  Bi2+  Bi101  1  0.10338520  0.53494566  0.74317414  1
  Bi2+  Bi102  1  0.13598788  0.73737001  0.21866491  1
  Bi2+  Bi103  1  0.11161616  0.73398459  0.74979729  1
  Bi2+  Bi104  1  0.35455278  0.01403008  0.17886229  1
  Bi2+  Bi105  1  0.42777891  0.01530773  0.74694983  1
  Bi2+  Bi106  1  0.36506729  0.27594739  0.21662170  1
  Bi2+  Bi107  1  0.42242958  0.27710592  0.70952193  1
  Bi2+  Bi108  1  0.32646209  0.46400338  0.20001463  1
  Bi2+  Bi109  1  0.34365614  0.52928379  0.68969091  1
  Bi2+  Bi110  1  0.39406938  0.72171345  0.21113026  1
  Bi2+  Bi111  1  0.37729653  0.76955516  0.68963145  1
  Bi2+  Bi112  1  0.65840628  -0.02802317  0.23287473  1
  Bi2+  Bi113  1  0.63231516  0.06394032  0.70578977  1
  Bi2+  Bi114  1  0.58268831  0.22604418  0.20259117  1
  Bi2+  Bi115  1  0.62500742  0.25963177  0.69608569  1
  Bi2+  Bi116  1  0.60881517  0.51352091  0.21124853  1
  Bi2+  Bi117  1  0.62353815  0.45763567  0.70352098  1
  Bi2+  Bi118  1  0.68402863  0.78760267  0.19609896  1
  Bi2+  Bi119  1  0.66034049  0.75839975  0.70300285  1
  Bi2+  Bi120  1  0.86980423  -0.01046050  0.21598847  1
  Bi2+  Bi121  1  0.89033469  -0.02283160  0.69531057  1
  Bi2+  Bi122  1  0.88230540  0.23307758  0.21905040  1
  Bi2+  Bi123  1  0.82026623  0.25378477  0.71015172  1
  Bi2+  Bi124  1  0.86566429  0.49637745  0.22381324  1
  Bi2+  Bi125  1  0.87564824  0.54391131  0.70132718  1
  Bi2+  Bi126  1  0.86903839  0.76216118  0.16365443  1
  Bi2+  Bi127  1  0.91560056  0.72881748  0.74465926  1
  S2-  S128  1  0.00583151  0.18528944  0.16736502  1
  S2-  S129  1  0.01120133  0.09998688  0.67068830  1
  S2-  S130  1  -0.09962084  0.37098911  0.15720690  1
  S2-  S131  1  0.04253551  0.31568623  0.68212571  1
  S2-  S132  1  -0.01850902  0.58136579  0.16450209  1
  S2-  S133  1  0.01420727  0.53656424  0.64422234  1
  S2-  S134  1  0.00418032  0.98123167  0.14427920  1
  S2-  S135  1  0.01986355  0.88509588  0.65664439  1
  S2-  S136  1  0.23375707  0.13087532  0.14509752  1
  S2-  S137  1  0.23334637  0.11214677  0.66418440  1
  S2-  S138  1  0.12640216  0.37855724  0.14321930  1
  S2-  S139  1  0.23076094  0.44127732  0.64444302  1
  S2-  S140  1  0.31870633  0.62019481  0.14508967  1
  S2-  S141  1  0.25611744  0.67042895  0.65434200  1
  S2-  S142  1  0.21305322  0.91504593  0.15841969  1
  S2-  S143  1  0.26091913  0.89473873  0.66798272  1
  S2-  S144  1  0.51113554  0.08988540  0.15869363  1
  S2-  S145  1  0.48605249  0.08697102  0.65541097  1
  S2-  S146  1  0.56335599  0.37570787  0.14713098  1
  S2-  S147  1  0.45542172  0.41004430  0.64957629  1
  S2-  S148  1  0.53238482  0.64127986  0.16465525  1
  S2-  S149  1  0.47781998  0.63416365  0.65801034  1
  S2-  S150  1  0.43105252  0.86268022  0.16007186  1
  S2-  S151  1  0.52332922  0.85184450  0.65559608  1
  S2-  S152  1  0.73688839  0.20608891  0.15710718  1
  S2-  S153  1  0.79334078  0.10300898  0.65347044  1
  S2-  S154  1  0.73718232  0.38102636  0.22827505  1
  S2-  S155  1  0.84257429  0.39300109  0.64724399  1
  S2-  S156  1  0.74850656  0.53935569  0.14736358  1
  S2-  S157  1  0.74288616  0.63597402  0.65393236  1
  S2-  S158  1  0.74975092  0.98755853  0.14088755  1
  S2-  S159  1  0.77483514  0.87836852  0.66179760  1
  S2-  S160  1  0.21588045  -0.00431753  0.34480683  1
  S2-  S161  1  0.13466468  0.00362671  0.82405139  1
  S2-  S162  1  0.11340813  0.21769825  0.35086900  1
  S2-  S163  1  0.10638131  0.23719374  0.83389493  1
  S2-  S164  1  0.01520364  0.50021729  0.35428248  1
  S2-  S165  1  0.10493690  0.47876274  0.84473036  1
  S2-  S166  1  0.13924844  0.76172205  0.34879590  1
  S2-  S167  1  0.11050612  0.78425798  0.85529889  1
  S2-  S168  1  0.38410319  0.01841693  0.27208401  1
  S2-  S169  1  0.36948690  -0.03574661  0.84493759  1
  S2-  S170  1  0.37372030  0.18008079  0.35275704  1
  S2-  S171  1  0.39641157  0.22416161  0.84361178  1
  S2-  S172  1  0.37608121  0.62068281  0.35543755  1
  S2-  S173  1  0.34666252  0.49735983  0.84269505  1
  S2-  S174  1  0.37442466  0.84465654  0.34158691  1
  S2-  S175  1  0.34907680  0.74230417  0.83729046  1
  S2-  S176  1  0.55458981  -0.00022325  0.35079185  1
  S2-  S177  1  0.65809684  0.02153605  0.83983498  1
  S2-  S178  1  0.62461760  0.23110959  0.33705782  1
  S2-  S179  1  0.64377168  0.26991032  0.83549962  1
  S2-  S180  1  0.58866107  0.48051719  0.34700356  1
  S2-  S181  1  0.58802480  0.53037993  0.84923541  1
  S2-  S182  1  0.59577179  0.73008713  0.34031673  1
  S2-  S183  1  0.60419477  0.80600961  0.85407783  1
  S2-  S184  1  0.99619948  0.00617847  0.35651588  1
  S2-  S185  1  0.89459344  -0.01576552  0.84133081  1
  S2-  S186  1  0.87266769  0.29805920  0.35157329  1
  S2-  S187  1  0.89015972  0.20201826  0.84404378  1
  S2-  S188  1  0.80132951  0.52825543  0.32930847  1
  S2-  S189  1  0.88857146  0.42320350  0.84232609  1
  S2-  S190  1  0.89418812  0.74712899  0.34846301  1
  S2-  S191  1  0.82810255  0.77029240  0.83404735  1
  S2-  S192  1  -0.00383620  0.12672272  0.46249236  1
  S2-  S193  1  0.00151554  0.11654774  0.95267507  1
  S2-  S194  1  -0.00308903  0.37243250  0.46046090  1
  S2-  S195  1  0.00352218  0.37069881  0.95672910  1
  S2-  S196  1  -0.00519669  0.62607411  0.45448015  1
  S2-  S197  1  0.00374484  0.61988734  0.95483562  1
  S2-  S198  1  -0.00319156  0.87032556  0.45402539  1
  S2-  S199  1  -0.00228112  0.87044275  0.95648558  1
  S2-  S200  1  0.24513918  0.12562839  0.45600274  1
  S2-  S201  1  0.25008036  0.11734320  0.94033285  1
  S2-  S202  1  0.24572118  0.37361606  0.44999587  1
  S2-  S203  1  0.24813991  0.37156092  0.95501303  1
  S2-  S204  1  0.23957731  0.62156523  0.45076609  1
  S2-  S205  1  0.24910865  0.61869579  0.94908624  1
  S2-  S206  1  0.24084585  0.86938423  0.45747111  1
  S2-  S207  1  0.25171669  0.87105094  0.95547387  1
  S2-  S208  1  0.49354657  0.12120500  0.45422159  1
  S2-  S209  1  0.49932434  0.11608540  0.95065365  1
  S2-  S210  1  0.49397303  0.37439309  0.44848061  1
  S2-  S211  1  0.49920465  0.36960765  0.94793166  1
  S2-  S212  1  0.50118990  0.62353543  0.45300382  1
  S2-  S213  1  0.49776310  0.62107504  0.95656125  1
  S2-  S214  1  0.49659536  0.87477359  0.45196689  1
  S2-  S215  1  0.49695675  0.87102223  0.95784205  1
  S2-  S216  1  0.74829578  0.12386287  0.45170384  1
  S2-  S217  1  0.75183284  0.11646780  0.95416656  1
  S2-  S218  1  0.74359124  0.37499357  0.45622929  1
  S2-  S219  1  0.75043794  0.36997333  0.94472826  1
  S2-  S220  1  0.74294756  0.62360093  0.44749364  1
  S2-  S221  1  0.75166196  0.62019491  0.94787997  1
  S2-  S222  1  0.74668689  0.87607281  0.45268131  1
  S2-  S223  1  0.75390316  0.87007071  0.95577227  1
  S2-  S224  1  0.12785979  -0.00833644  0.03742312  1
  S2-  S225  1  0.11982109  -0.00010430  0.54703531  1
  S2-  S226  1  0.12603761  0.24205062  0.04289848  1
  S2-  S227  1  0.11987229  0.25189616  0.55584358  1
  S2-  S228  1  0.12712342  0.49891647  0.04652999  1
  S2-  S229  1  0.12070387  0.49511614  0.54027412  1
  S2-  S230  1  0.12637335  0.74454948  0.05733253  1
  S2-  S231  1  0.11881005  0.74493954  0.55262219  1
  S2-  S232  1  0.37648091  -0.00322480  0.04663864  1
  S2-  S233  1  0.37041075  -0.00255891  0.55507528  1
  S2-  S234  1  0.37343465  0.24657489  0.05011469  1
  S2-  S235  1  0.37017538  0.25064757  0.55100817  1
  S2-  S236  1  0.37315801  0.48849674  0.04726571  1
  S2-  S237  1  0.37251270  0.49668734  0.53762149  1
  S2-  S238  1  0.37456886  0.74631298  0.04542332  1
  S2-  S239  1  0.37217305  0.74633593  0.54159475  1
  S2-  S240  1  0.62320241  -0.00648171  0.04453761  1
  S2-  S241  1  0.62181983  -0.00172664  0.55009920  1
  S2-  S242  1  0.62898010  0.24717095  0.04414547  1
  S2-  S243  1  0.62157357  0.24918607  0.54778903  1
  S2-  S244  1  0.62436095  0.49454290  0.04650580  1
  S2-  S245  1  0.62085641  0.49858441  0.54940069  1
  S2-  S246  1  0.62698650  0.74273869  0.05136235  1
  S2-  S247  1  0.62120292  0.74764158  0.54645224  1
  S2-  S248  1  0.87623343  -0.00720244  0.04358101  1
  S2-  S249  1  0.87138531  -0.00032633  0.54273378  1
  S2-  S250  1  0.87790644  0.23793192  0.04984574  1
  S2-  S251  1  0.87335967  0.24762161  0.55350936  1
  S2-  S252  1  0.87507131  0.49399290  0.04386426  1
  S2-  S253  1  0.86959329  0.50064258  0.53833488  1
  S2-  S254  1  0.87382342  0.74290110  0.03995720  1
  S2-  S255  1  0.87133275  0.74800135  0.55311957  1
