# generated using pymatgen
data_La9Ce10Pr6Nd4Sm3(BiS2)32
_symmetry_space_group_name_H-M   'P 1'
_cell_length_a   16.20361269
_cell_length_b   16.21092335
_cell_length_c   27.11463345
_cell_angle_alpha   89.85402519
_cell_angle_beta   89.98835095
_cell_angle_gamma   90.17371846
_symmetry_Int_Tables_number   1
_chemical_formula_structural   La9Ce10Pr6Nd4Sm3(BiS2)32
_chemical_formula_sum   'La18 Ce20 Pr12 Nd8 Sm6 Bi64 S128'
_cell_volume   7122.29451691
_cell_formula_units_Z   2
loop_
 _symmetry_equiv_pos_site_id
 _symmetry_equiv_pos_as_xyz
  1  'x, y, z'
loop_
 _atom_type_symbol
 _atom_type_oxidation_number
  La3+  3.0
  Ce3+  3.0
  Pr3+  3.0
  Nd3+  3.0
  Sm3+  3.0
  Bi2+  2.0
  S2-  -2.0
loop_
 _atom_site_type_symbol
 _atom_site_label
 _atom_site_symmetry_multiplicity
 _atom_site_fract_x
 _atom_site_fract_y
 _atom_site_fract_z
 _atom_site_occupancy
  La3+  La0  1  0.61281907  0.75989115  0.93409908  1
  La3+  La1  1  0.00001595  0.36257776  0.58754895  1
  La3+  La2  1  0.61998805  0.51538218  0.92889226  1
  La3+  La3  1  0.87731271  0.76079109  0.94120016  1
  La3+  La4  1  0.00225639  0.11570581  0.59297265  1
  La3+  La5  1  0.00695061  0.86732998  0.56707093  1
  La3+  La6  1  0.74880231  0.37785366  0.56732179  1
  La3+  La7  1  0.62103839  0.25614324  0.93392915  1
  La3+  La8  1  0.63932946  0.49603574  0.41397026  1
  La3+  La9  1  -0.00801020  0.38022273  0.05896401  1
  La3+  La10  1  0.26731427  0.37461302  0.58215015  1
  La3+  La11  1  -0.00067804  0.88058747  0.09143415  1
  La3+  La12  1  0.11904796  -0.01483614  0.90045291  1
  La3+  La13  1  0.87583031  0.25840839  0.92879545  1
  La3+  La14  1  0.49114786  0.62313339  0.09288509  1
  La3+  La15  1  0.87584948  0.51883251  0.88444740  1
  La3+  La16  1  0.25915454  0.11093341  0.58038139  1
  La3+  La17  1  0.88649149  0.74684826  0.42783632  1
  Ce3+  Ce18  1  0.38312816  0.73744980  0.41812997  1
  Ce3+  Ce19  1  0.63017086  0.24366721  0.44394221  1
  Ce3+  Ce20  1  0.62913720  -0.00426190  0.44573920  1
  Ce3+  Ce21  1  0.24096961  0.12849944  0.05089127  1
  Ce3+  Ce22  1  0.37908775  -0.00054318  0.43959444  1
  Ce3+  Ce23  1  0.26133958  0.61686996  0.55310698  1
  Ce3+  Ce24  1  0.12075052  0.75676505  0.95405782  1
  Ce3+  Ce25  1  0.13117606  0.49113896  0.44619255  1
  Ce3+  Ce26  1  0.74358345  0.88141072  0.05735041  1
  Ce3+  Ce27  1  0.61814975  0.00291559  0.93517063  1
  Ce3+  Ce28  1  0.50574190  0.86313780  0.55251309  1
  Ce3+  Ce29  1  0.88014767  0.49483802  0.44234981  1
  Ce3+  Ce30  1  0.49426110  0.13164764  0.05603079  1
  Ce3+  Ce31  1  0.88294555  0.24485530  0.44431282  1
  Ce3+  Ce32  1  0.36912491  0.25451602  0.93440175  1
  Ce3+  Ce33  1  0.74396205  0.38252806  0.05482155  1
  Ce3+  Ce34  1  0.11776145  0.50906881  0.94263728  1
  Ce3+  Ce35  1  0.50524745  0.37412097  0.55107653  1
  Ce3+  Ce36  1  0.36760721  0.75622225  0.94846875  1
  Ce3+  Ce37  1  0.74579858  0.12805562  0.05049778  1
  Pr3+  Pr38  1  0.74183953  0.63172762  0.06120401  1
  Pr3+  Pr39  1  0.75335147  0.86532152  0.55904902  1
  Pr3+  Pr40  1  0.13024991  0.24537571  0.45682050  1
  Pr3+  Pr41  1  0.24872142  0.62596211  0.06721639  1
  Pr3+  Pr42  1  0.25968627  0.86574415  0.55768140  1
  Pr3+  Pr43  1  0.01120542  0.61122013  0.56758610  1
  Pr3+  Pr44  1  0.12490610  0.25461868  0.93068128  1
  Pr3+  Pr45  1  0.24593204  0.37877728  0.05599272  1
  Pr3+  Pr46  1  0.37370148  0.50850596  0.93422119  1
  Pr3+  Pr47  1  0.24641990  0.88438909  0.07303320  1
  Pr3+  Pr48  1  0.75966603  0.62836066  0.56614387  1
  Pr3+  Pr49  1  0.63136146  0.74833428  0.41998759  1
  Nd3+  Nd50  1  -0.00719038  0.63169671  0.06840030  1
  Nd3+  Nd51  1  0.49610631  0.37151026  0.06475621  1
  Nd3+  Nd52  1  0.37933346  0.24069921  0.43675615  1
  Nd3+  Nd53  1  0.37456577  0.48464341  0.42491263  1
  Nd3+  Nd54  1  0.49488994  0.88130567  0.06678837  1
  Nd3+  Nd55  1  -0.00428637  0.13051818  0.05878370  1
  Nd3+  Nd56  1  0.50549736  0.12045901  0.56876418  1
  Nd3+  Nd57  1  0.88465073  -0.00267100  0.44107840  1
  Sm3+  Sm58  1  0.87923448  0.00465887  0.94677477  1
  Sm3+  Sm59  1  0.75664084  0.11889296  0.55887565  1
  Sm3+  Sm60  1  0.50760998  0.61955036  0.54395830  1
  Sm3+  Sm61  1  0.12908736  0.00729796  0.44104420  1
  Sm3+  Sm62  1  0.36556252  0.00421828  0.93923758  1
  Sm3+  Sm63  1  0.13073982  0.74835758  0.43884056  1
  Bi2+  Bi64  1  0.00472030  0.11441624  0.30972247  1
  Bi2+  Bi65  1  -0.05501600  0.10146092  0.80466304  1
  Bi2+  Bi66  1  0.05332574  0.42033623  0.28593289  1
  Bi2+  Bi67  1  -0.00075340  0.39794463  0.78705468  1
  Bi2+  Bi68  1  0.02184376  0.61871840  0.29642675  1
  Bi2+  Bi69  1  0.11070300  0.64261436  0.77481242  1
  Bi2+  Bi70  1  -0.02778518  0.88368378  0.29536704  1
  Bi2+  Bi71  1  -0.02124269  0.80919767  0.80052230  1
  Bi2+  Bi72  1  0.24978302  0.13616967  0.28732435  1
  Bi2+  Bi73  1  0.36644097  0.10400556  0.80059988  1
  Bi2+  Bi74  1  0.23623931  0.34552501  0.28419795  1
  Bi2+  Bi75  1  0.28773443  0.47341069  0.80912180  1
  Bi2+  Bi76  1  0.24514735  0.61909889  0.28314497  1
  Bi2+  Bi77  1  0.29801396  0.66455951  0.82066764  1
  Bi2+  Bi78  1  0.24419586  0.80732083  0.31639637  1
  Bi2+  Bi79  1  0.27592625  0.84841610  0.77547095  1
  Bi2+  Bi80  1  0.50780953  0.08633228  0.30250341  1
  Bi2+  Bi81  1  0.55541650  0.07181571  0.81016012  1
  Bi2+  Bi82  1  0.48508755  0.31965349  0.28632539  1
  Bi2+  Bi83  1  0.43789253  0.35080478  0.81147503  1
  Bi2+  Bi84  1  0.51010642  0.62158163  0.28811921  1
  Bi2+  Bi85  1  0.49251448  0.63682277  0.79003966  1
  Bi2+  Bi86  1  0.41714709  0.89471609  0.29107101  1
  Bi2+  Bi87  1  0.49734413  0.88421475  0.79179115  1
  Bi2+  Bi88  1  0.76627450  0.19536770  0.28461345  1
  Bi2+  Bi89  1  0.75085968  0.08727039  0.79381261  1
  Bi2+  Bi90  1  0.78830001  0.38637090  0.26088666  1
  Bi2+  Bi91  1  0.71591066  0.35549838  0.77882433  1
  Bi2+  Bi92  1  0.78460086  0.61598206  0.29017108  1
  Bi2+  Bi93  1  0.74306933  0.63082416  0.78359628  1
  Bi2+  Bi94  1  0.69327797  0.87778159  0.28458730  1
  Bi2+  Bi95  1  0.75997897  0.87760245  0.78658360  1
  Bi2+  Bi96  1  0.21648259  -0.03795813  0.24212573  1
  Bi2+  Bi97  1  0.13226683  -0.02279720  0.72166299  1
  Bi2+  Bi98  1  0.13058151  0.24344157  0.18910210  1
  Bi2+  Bi99  1  0.14076824  0.22374864  0.73890929  1
  Bi2+  Bi100  1  0.11951688  0.55501602  0.19763903  1
  Bi2+  Bi101  1  0.16707809  0.48148168  0.71675239  1
  Bi2+  Bi102  1  0.13680022  0.75546778  0.21702225  1
  Bi2+  Bi103  1  0.16969173  0.75769340  0.69033713  1
  Bi2+  Bi104  1  0.38706086  -0.03764698  0.17869177  1
  Bi2+  Bi105  1  0.38456949  -0.01933441  0.70905068  1
  Bi2+  Bi106  1  0.38615379  0.17742840  0.21096059  1
  Bi2+  Bi107  1  0.41614072  0.25037754  0.71599042  1
  Bi2+  Bi108  1  0.34012319  0.47183678  0.21430514  1
  Bi2+  Bi109  1  0.41202164  0.51763651  0.70350801  1
  Bi2+  Bi110  1  0.35564078  0.76505080  0.20811565  1
  Bi2+  Bi111  1  0.36212310  0.72566331  0.69006728  1
  Bi2+  Bi112  1  0.57864517  -0.00623127  0.20528934  1
  Bi2+  Bi113  1  0.62085133  0.05381810  0.69766549  1
  Bi2+  Bi114  1  0.62446344  0.18563038  0.20539374  1
  Bi2+  Bi115  1  0.60997120  0.24652487  0.69402876  1
  Bi2+  Bi116  1  0.61586083  0.44085908  0.21259975  1
  Bi2+  Bi117  1  0.60002975  0.43893610  0.70405701  1
  Bi2+  Bi118  1  0.64250209  0.75386832  0.20335120  1
  Bi2+  Bi119  1  0.62409328  0.85485608  0.70292834  1
  Bi2+  Bi120  1  0.80138452  0.00728558  0.22105455  1
  Bi2+  Bi121  1  0.86861019  -0.01788039  0.71138653  1
  Bi2+  Bi122  1  0.89278205  0.23862712  0.19969045  1
  Bi2+  Bi123  1  0.87584506  0.22520154  0.72210531  1
  Bi2+  Bi124  1  0.92416719  0.51502375  0.21686898  1
  Bi2+  Bi125  1  0.86407077  0.50304658  0.68210099  1
  Bi2+  Bi126  1  0.86855310  0.76930863  0.21114632  1
  Bi2+  Bi127  1  0.87124777  0.78668723  0.70464188  1
  S2-  S128  1  0.01177021  0.13572265  0.16015935  1
  S2-  S129  1  0.01556347  0.24291956  0.66874517  1
  S2-  S130  1  0.00205052  0.34718050  0.15835613  1
  S2-  S131  1  0.02894323  0.49807230  0.65055345  1
  S2-  S132  1  -0.01077824  0.73037488  0.15205325  1
  S2-  S133  1  -0.09611611  0.65939260  0.64312343  1
  S2-  S134  1  -0.06686663  0.93217397  0.18878308  1
  S2-  S135  1  0.01149900  0.96624807  0.65105270  1
  S2-  S136  1  0.24331632  0.14452363  0.14931251  1
  S2-  S137  1  0.16144461  0.11761868  0.66852622  1
  S2-  S138  1  0.24379511  0.37051841  0.15694912  1
  S2-  S139  1  0.22221648  0.32547174  0.68300364  1
  S2-  S140  1  0.34370799  0.61797817  0.15232410  1
  S2-  S141  1  0.26779298  0.53482356  0.64024119  1
  S2-  S142  1  0.14457541  0.89522709  0.15685772  1
  S2-  S143  1  0.25130195  0.94843814  0.64672259  1
  S2-  S144  1  0.49729268  0.23015684  0.13789381  1
  S2-  S145  1  0.39669068  0.12474603  0.64797058  1
  S2-  S146  1  0.47121013  0.44183231  0.15524183  1
  S2-  S147  1  0.42494411  0.37595219  0.63884497  1
  S2-  S148  1  0.57550244  0.60143555  0.18689910  1
  S2-  S149  1  0.48747562  0.63218006  0.64472730  1
  S2-  S150  1  0.50143698  0.77860434  0.14871231  1
  S2-  S151  1  0.46252278  0.85509706  0.64816966  1
  S2-  S152  1  0.76801781  0.13902166  0.14775932  1
  S2-  S153  1  0.84015812  0.11520596  0.64573681  1
  S2-  S154  1  0.73659295  0.38006743  0.15449576  1
  S2-  S155  1  0.84722564  0.34563249  0.65106225  1
  S2-  S156  1  0.77448946  0.65971671  0.16311959  1
  S2-  S157  1  0.70679802  0.51173700  0.63873544  1
  S2-  S158  1  0.72273532  0.89387745  0.15442574  1
  S2-  S159  1  0.72181572  0.76030852  0.63838875  1
  S2-  S160  1  0.08010418  -0.03202423  0.34566042  1
  S2-  S161  1  0.11239782  0.07138225  0.80865086  1
  S2-  S162  1  0.12789054  0.16479911  0.36524880  1
  S2-  S163  1  0.07642496  0.28406587  0.83417303  1
  S2-  S164  1  0.17967966  0.46225596  0.35358751  1
  S2-  S165  1  0.04985541  0.52819476  0.85286354  1
  S2-  S166  1  0.02390046  0.75222003  0.35936813  1
  S2-  S167  1  0.11118466  0.81864719  0.86179412  1
  S2-  S168  1  0.36502862  0.11199545  0.36454030  1
  S2-  S169  1  0.28715354  -0.02901156  0.85363123  1
  S2-  S170  1  0.36485018  0.34862340  0.35582857  1
  S2-  S171  1  0.30001069  0.24601071  0.84447521  1
  S2-  S172  1  0.37809976  0.59614225  0.34579941  1
  S2-  S173  1  0.48948636  0.50431112  0.85548033  1
  S2-  S174  1  0.50079668  0.76652057  0.34489613  1
  S2-  S175  1  0.44489887  0.75995513  0.86000997  1
  S2-  S176  1  0.63405366  -0.00496701  0.34780410  1
  S2-  S177  1  0.62858865  -0.11056477  0.85988305  1
  S2-  S178  1  0.58304541  0.22847392  0.34957954  1
  S2-  S179  1  0.59696692  0.28618722  0.83543120  1
  S2-  S180  1  0.56240487  0.45363533  0.31862452  1
  S2-  S181  1  0.71619779  0.49237802  0.84231975  1
  S2-  S182  1  0.64795009  0.63030680  0.34343795  1
  S2-  S183  1  0.63056355  0.66576913  0.84876775  1
  S2-  S184  1  0.87759856  0.00154083  0.33999578  1
  S2-  S185  1  0.94425191  -0.04834871  0.86074836  1
  S2-  S186  1  0.90819209  0.23469901  0.34556964  1
  S2-  S187  1  0.86939502  0.34752524  0.84116804  1
  S2-  S188  1  0.79952988  0.48225750  0.35423985  1
  S2-  S189  1  0.88612735  0.53665604  0.77508843  1
  S2-  S190  1  0.80074744  0.76755815  0.33785888  1
  S2-  S191  1  0.86811406  0.69092271  0.84895129  1
  S2-  S192  1  0.00288256  0.11922937  0.46689761  1
  S2-  S193  1  -0.00034301  0.12898039  0.94930607  1
  S2-  S194  1  0.00437235  0.36997616  0.45613375  1
  S2-  S195  1  -0.00231414  0.38224946  0.95124549  1
  S2-  S196  1  0.00920294  0.61660955  0.45763795  1
  S2-  S197  1  -0.00432649  0.63117907  0.96179572  1
  S2-  S198  1  0.00987138  0.87662155  0.45889651  1
  S2-  S199  1  0.00186177  0.88248996  0.97072442  1
  S2-  S200  1  0.25472910  0.11879228  0.46896137  1
  S2-  S201  1  0.23845322  0.12197280  0.94596897  1
  S2-  S202  1  0.25527952  0.36732767  0.46485023  1
  S2-  S203  1  0.24440031  0.38388062  0.94853900  1
  S2-  S204  1  0.24997005  0.62243283  0.44719646  1
  S2-  S205  1  0.24422907  0.62980477  0.95840640  1
  S2-  S206  1  0.25142700  0.87452650  0.44943009  1
  S2-  S207  1  0.24419711  0.88155226  0.96446637  1
  S2-  S208  1  0.50744554  0.11896199  0.46187733  1
  S2-  S209  1  0.49173012  0.12826018  0.94817697  1
  S2-  S210  1  0.50901298  0.36896408  0.44728540  1
  S2-  S211  1  0.49439224  0.37698224  0.95620242  1
  S2-  S212  1  0.50582452  0.61524868  0.44186283  1
  S2-  S213  1  0.49102346  0.63369622  0.96300413  1
  S2-  S214  1  0.50258326  0.87426057  0.44780170  1
  S2-  S215  1  0.48913640  0.88756669  0.96033236  1
  S2-  S216  1  0.75646949  0.11967574  0.45322453  1
  S2-  S217  1  0.75032223  0.12634109  0.94242372  1
  S2-  S218  1  0.75584789  0.36531012  0.45582950  1
  S2-  S219  1  0.74597387  0.38049179  0.94976196  1
  S2-  S220  1  0.76154049  0.62360736  0.45345546  1
  S2-  S221  1  0.75033463  0.63231181  0.95527437  1
  S2-  S222  1  0.75586653  0.87386345  0.45103082  1
  S2-  S223  1  0.75238377  0.88546584  0.95336128  1
  S2-  S224  1  0.11774406  0.00850805  0.05540805  1
  S2-  S225  1  0.13082901  -0.00814884  0.54592369  1
  S2-  S226  1  0.11906784  0.25548740  0.04019847  1
  S2-  S227  1  0.13266961  0.24534338  0.56118211  1
  S2-  S228  1  0.11904910  0.50631686  0.05153554  1
  S2-  S229  1  0.13621350  0.48721337  0.54799642  1
  S2-  S230  1  0.12644266  0.75157008  0.05783784  1
  S2-  S231  1  0.13214045  0.74120470  0.54490937  1
  S2-  S232  1  0.37037418  0.00808264  0.04555217  1
  S2-  S233  1  0.38609722  -0.00974020  0.54436794  1
  S2-  S234  1  0.36649337  0.25310419  0.04045135  1
  S2-  S235  1  0.38492446  0.24414280  0.54377161  1
  S2-  S236  1  0.37149948  0.50111379  0.04329863  1
  S2-  S237  1  0.38502861  0.49853664  0.53244249  1
  S2-  S238  1  0.36751588  0.75804601  0.05257340  1
  S2-  S239  1  0.38124108  0.74199388  0.53210123  1
  S2-  S240  1  0.61804850  0.00682961  0.04453725  1
  S2-  S241  1  0.63054601  -0.00570123  0.55336766  1
  S2-  S242  1  0.62506258  0.25296686  0.04122334  1
  S2-  S243  1  0.63115980  0.24258881  0.55172793  1
  S2-  S244  1  0.61739795  0.50452824  0.04874877  1
  S2-  S245  1  0.62627399  0.49828573  0.52958534  1
  S2-  S246  1  0.61930041  0.75771614  0.04547176  1
  S2-  S247  1  0.62710337  0.74347644  0.52984053  1
  S2-  S248  1  0.87290324  0.00486832  0.05221251  1
  S2-  S249  1  0.87600762  -0.00890077  0.54749778  1
  S2-  S250  1  0.86904728  0.25409965  0.03940476  1
  S2-  S251  1  0.87785664  0.24229602  0.54781936  1
  S2-  S252  1  0.86981399  0.50756295  0.06106041  1
  S2-  S253  1  0.88136943  0.49427806  0.54637275  1
  S2-  S254  1  0.86903408  0.75833296  0.05017874  1
  S2-  S255  1  0.88415137  0.74997603  0.53685618  1
