# generated using pymatgen
data_La9Ce10Pr6Nd4Sm3(BiS2)32
_symmetry_space_group_name_H-M   'P 1'
_cell_length_a   16.22484125
_cell_length_b   16.21132374
_cell_length_c   27.08277278
_cell_angle_alpha   89.96545390
_cell_angle_beta   89.90272868
_cell_angle_gamma   90.00012876
_symmetry_Int_Tables_number   1
_chemical_formula_structural   La9Ce10Pr6Nd4Sm3(BiS2)32
_chemical_formula_sum   'La18 Ce20 Pr12 Nd8 Sm6 Bi64 S128'
_cell_volume   7123.46600785
_cell_formula_units_Z   2
loop_
 _symmetry_equiv_pos_site_id
 _symmetry_equiv_pos_as_xyz
  1  'x, y, z'
loop_
 _atom_type_symbol
 _atom_type_oxidation_number
  La3+  3.0
  Ce3+  3.0
  Pr3+  3.0
  Nd3+  3.0
  Sm3+  3.0
  Bi2+  2.0
  S2-  -2.0
loop_
 _atom_site_type_symbol
 _atom_site_label
 _atom_site_symmetry_multiplicity
 _atom_site_fract_x
 _atom_site_fract_y
 _atom_site_fract_z
 _atom_site_occupancy
  La3+  La0  1  0.88064577  0.25908851  0.92506981  1
  La3+  La1  1  0.24387602  0.64017147  0.58407337  1
  La3+  La2  1  0.49189668  0.38256264  0.56785144  1
  La3+  La3  1  0.61315691  0.26223432  0.91130389  1
  La3+  La4  1  0.00091447  0.12559452  0.07316869  1
  La3+  La5  1  0.50270273  0.14191567  0.06735852  1
  La3+  La6  1  0.36724906  0.51726281  0.93193873  1
  La3+  La7  1  0.37986615  0.77024138  0.92889906  1
  La3+  La8  1  -0.01070719  0.63681576  0.56562183  1
  La3+  La9  1  -0.01332770  0.37036694  0.10696106  1
  La3+  La10  1  0.36713407  0.74591095  0.40767389  1
  La3+  La11  1  0.11707119  0.76849795  0.90356487  1
  La3+  La12  1  0.73895636  0.88433073  0.55838870  1
  La3+  La13  1  -0.00274636  0.62962564  0.06263038  1
  La3+  La14  1  0.61942348  0.02191930  0.40942317  1
  La3+  La15  1  0.24671628  0.88074568  0.06612146  1
  La3+  La16  1  0.73878046  0.13476177  0.60276767  1
  La3+  La17  1  0.24875021  0.13974357  0.06940786  1
  Ce3+  Ce18  1  0.75192384  0.38190985  0.05018649  1
  Ce3+  Ce19  1  0.87381964  0.76132126  0.93996803  1
  Ce3+  Ce20  1  -0.00736855  0.88465652  0.55682563  1
  Ce3+  Ce21  1  0.24569965  0.87848102  0.55814275  1
  Ce3+  Ce22  1  0.86611596  0.76104227  0.43253176  1
  Ce3+  Ce23  1  0.62198905  0.00867395  0.94578758  1
  Ce3+  Ce24  1  0.86750438  0.50809439  0.44507273  1
  Ce3+  Ce25  1  0.37050150  -0.00078441  0.42554077  1
  Ce3+  Ce26  1  0.74264229  0.37787321  0.56284902  1
  Ce3+  Ce27  1  0.49015753  0.63520421  0.55068360  1
  Ce3+  Ce28  1  -0.01000584  0.13173976  0.56536765  1
  Ce3+  Ce29  1  0.37006868  0.25966946  0.43877539  1
  Ce3+  Ce30  1  0.36709821  0.50274748  0.43672557  1
  Ce3+  Ce31  1  0.12437836  0.00835233  0.94019114  1
  Ce3+  Ce32  1  0.62269219  0.76402535  0.94487289  1
  Ce3+  Ce33  1  0.37212575  0.25940017  0.94072600  1
  Ce3+  Ce34  1  0.12100602  0.75632599  0.43976607  1
  Ce3+  Ce35  1  0.24741868  0.12982984  0.55737949  1
  Ce3+  Ce36  1  0.49942900  0.38605783  0.06125865  1
  Ce3+  Ce37  1  0.49679709  0.63407570  0.05627274  1
  Pr3+  Pr38  1  0.48711815  0.88135531  0.09447003  1
  Pr3+  Pr39  1  0.49399357  0.88311039  0.55068572  1
  Pr3+  Pr40  1  0.12086705  0.25804417  0.94321041  1
  Pr3+  Pr41  1  0.86811862  0.25452903  0.43558443  1
  Pr3+  Pr42  1  0.11725131  0.25462106  0.44511911  1
  Pr3+  Pr43  1  0.11779469  0.51050090  0.43867722  1
  Pr3+  Pr44  1  0.74440833  0.88316159  0.06391343  1
  Pr3+  Pr45  1  0.74266115  0.63295205  0.56752642  1
  Pr3+  Pr46  1  0.62369992  0.50942714  0.93227883  1
  Pr3+  Pr47  1  0.11534653  0.50923460  0.93510648  1
  Pr3+  Pr48  1  0.24141903  0.38583545  0.56283442  1
  Pr3+  Pr49  1  0.87296765  0.51211881  0.93420997  1
  Nd3+  Nd50  1  -0.00466586  0.88195269  0.06420364  1
  Nd3+  Nd51  1  -0.00801606  0.37996194  0.56185673  1
  Nd3+  Nd52  1  0.75014244  0.13901386  0.05175478  1
  Nd3+  Nd53  1  0.61940419  0.25628005  0.44302902  1
  Nd3+  Nd54  1  0.87434200  0.00906903  0.93946058  1
  Nd3+  Nd55  1  0.62263826  0.75862434  0.42812509  1
  Nd3+  Nd56  1  0.37437991  0.00900908  0.94486601  1
  Nd3+  Nd57  1  0.48655233  0.12830921  0.56481389  1
  Sm3+  Sm58  1  0.86740054  0.01057067  0.44818675  1
  Sm3+  Sm59  1  0.74602666  0.63193863  0.05559386  1
  Sm3+  Sm60  1  0.62080918  0.50690943  0.44418013  1
  Sm3+  Sm61  1  0.24587445  0.63541200  0.05206396  1
  Sm3+  Sm62  1  0.11992696  0.00677095  0.44532951  1
  Sm3+  Sm63  1  0.24365495  0.38787265  0.05351473  1
  Bi2+  Bi64  1  0.00423562  0.12011180  0.31479518  1
  Bi2+  Bi65  1  0.01651789  0.11849795  0.79430177  1
  Bi2+  Bi66  1  -0.00276543  0.37556821  0.30922471  1
  Bi2+  Bi67  1  0.05779692  0.38687732  0.78971610  1
  Bi2+  Bi68  1  -0.02268673  0.63700538  0.27623253  1
  Bi2+  Bi69  1  -0.07001146  0.62540726  0.78753683  1
  Bi2+  Bi70  1  -0.02703581  0.81967892  0.30992440  1
  Bi2+  Bi71  1  0.00609072  0.89620314  0.78924779  1
  Bi2+  Bi72  1  0.29364011  0.14841745  0.27842428  1
  Bi2+  Bi73  1  0.20151944  0.13593729  0.83823776  1
  Bi2+  Bi74  1  0.28099807  0.35106135  0.27405339  1
  Bi2+  Bi75  1  0.23832004  0.31321221  0.79480879  1
  Bi2+  Bi76  1  0.23839529  0.59562369  0.29268821  1
  Bi2+  Bi77  1  0.27734895  0.58374958  0.78745099  1
  Bi2+  Bi78  1  0.19878719  0.87598663  0.29351530  1
  Bi2+  Bi79  1  0.30672966  0.81680376  0.78354112  1
  Bi2+  Bi80  1  0.49422112  0.16330779  0.28172662  1
  Bi2+  Bi81  1  0.38116730  0.07310440  0.81120259  1
  Bi2+  Bi82  1  0.49276104  0.35749088  0.29457760  1
  Bi2+  Bi83  1  0.48659677  0.37343849  0.78529203  1
  Bi2+  Bi84  1  0.56832970  0.61683819  0.27984165  1
  Bi2+  Bi85  1  0.56404322  0.59678789  0.76864790  1
  Bi2+  Bi86  1  0.49763311  0.89120316  0.29170533  1
  Bi2+  Bi87  1  0.53373810  0.91625918  0.79366573  1
  Bi2+  Bi88  1  0.74567115  0.10049331  0.29161696  1
  Bi2+  Bi89  1  0.75895605  0.10481513  0.80065362  1
  Bi2+  Bi90  1  0.73459902  0.41981701  0.28464014  1
  Bi2+  Bi91  1  0.75004338  0.40916066  0.78166292  1
  Bi2+  Bi92  1  0.78016543  0.62026568  0.29397761  1
  Bi2+  Bi93  1  0.74201566  0.59729716  0.82535013  1
  Bi2+  Bi94  1  0.77465999  0.83423300  0.26479099  1
  Bi2+  Bi95  1  0.70607512  0.78812879  0.80620738  1
  Bi2+  Bi96  1  0.12401373  -0.04803012  0.19845702  1
  Bi2+  Bi97  1  0.16005000  -0.00963241  0.71545535  1
  Bi2+  Bi98  1  0.10084790  0.20760545  0.22380091  1
  Bi2+  Bi99  1  0.15014725  0.18783301  0.71840092  1
  Bi2+  Bi100  1  0.15092372  0.50443142  0.19657570  1
  Bi2+  Bi101  1  0.13944301  0.45510933  0.69150998  1
  Bi2+  Bi102  1  0.12729074  0.75550216  0.20914345  1
  Bi2+  Bi103  1  0.11743341  0.74829205  0.70428415  1
  Bi2+  Bi104  1  0.35654284  0.00786745  0.20971616  1
  Bi2+  Bi105  1  0.35308141  -0.01384380  0.70825672  1
  Bi2+  Bi106  1  0.35749699  0.25149597  0.18673975  1
  Bi2+  Bi107  1  0.35296741  0.20511707  0.72661667  1
  Bi2+  Bi108  1  0.40424709  0.47113275  0.20824680  1
  Bi2+  Bi109  1  0.40085565  0.48365013  0.68695020  1
  Bi2+  Bi110  1  0.39343005  0.65998529  0.23512410  1
  Bi2+  Bi111  1  0.46684933  0.74969386  0.72083937  1
  Bi2+  Bi112  1  0.64608033  0.01251140  0.20013535  1
  Bi2+  Bi113  1  0.61287117  -0.02806483  0.69500845  1
  Bi2+  Bi114  1  0.62960829  0.29610073  0.21639735  1
  Bi2+  Bi115  1  0.62179762  0.23959043  0.71849565  1
  Bi2+  Bi116  1  0.59577362  0.48652444  0.19099697  1
  Bi2+  Bi117  1  0.66810858  0.51093043  0.68383458  1
  Bi2+  Bi118  1  0.63268180  0.72242816  0.19120047  1
  Bi2+  Bi119  1  0.65146684  0.70891768  0.68524387  1
  Bi2+  Bi120  1  0.93329558  -0.02221902  0.24217564  1
  Bi2+  Bi121  1  0.97338184  -0.00510775  0.69212214  1
  Bi2+  Bi122  1  0.83079769  0.24150198  0.21450412  1
  Bi2+  Bi123  1  0.87689789  0.27516101  0.71837703  1
  Bi2+  Bi124  1  0.85336158  0.51083150  0.20695468  1
  Bi2+  Bi125  1  0.85807840  0.50838927  0.70571634  1
  Bi2+  Bi126  1  0.93750400  0.77130304  0.19421804  1
  Bi2+  Bi127  1  0.83452401  0.75827883  0.72149524  1
  S2-  S128  1  -0.03684649  0.21212635  0.15887139  1
  S2-  S129  1  -0.08717912  0.15264696  0.65256131  1
  S2-  S130  1  0.04100057  0.36875972  0.21290375  1
  S2-  S131  1  -0.00885966  0.37296236  0.66286116  1
  S2-  S132  1  0.00196542  0.53323594  0.14718227  1
  S2-  S133  1  0.08556473  0.61711491  0.65075110  1
  S2-  S134  1  -0.02254431  0.98811860  0.14432104  1
  S2-  S135  1  -0.00371604  0.83305478  0.65018031  1
  S2-  S136  1  0.16021394  0.11193769  0.15491176  1
  S2-  S137  1  0.35219857  0.12141254  0.63634090  1
  S2-  S138  1  0.23364404  0.37069533  0.15165595  1
  S2-  S139  1  0.27674388  0.36744946  0.66157254  1
  S2-  S140  1  0.22150602  0.63673802  0.15196616  1
  S2-  S141  1  0.26359298  0.57140499  0.68087692  1
  S2-  S142  1  0.33922450  0.88007040  0.15244530  1
  S2-  S143  1  0.24028935  0.78860255  0.64362516  1
  S2-  S144  1  0.49456962  0.05000987  0.15491052  1
  S2-  S145  1  0.57570194  0.12792051  0.65276839  1
  S2-  S146  1  0.51103354  0.27615052  0.13852380  1
  S2-  S147  1  0.51308526  0.35045185  0.66759536  1
  S2-  S148  1  0.47721078  0.70178581  0.14591990  1
  S2-  S149  1  0.43676051  0.63722541  0.64364777  1
  S2-  S150  1  0.55573671  0.87163820  0.19096685  1
  S2-  S151  1  0.46948530  0.88918713  0.65238330  1
  S2-  S152  1  0.74102030  0.13978640  0.15331894  1
  S2-  S153  1  0.74423264  0.06665230  0.70236470  1
  S2-  S154  1  0.81988398  0.37415403  0.14253825  1
  S2-  S155  1  0.74941508  0.29320809  0.65112725  1
  S2-  S156  1  0.76545273  0.63353271  0.15366194  1
  S2-  S157  1  0.86445837  0.64421536  0.64198865  1
  S2-  S158  1  0.75567453  0.90185687  0.16482934  1
  S2-  S159  1  0.73830526  0.86638760  0.65965883  1
  S2-  S160  1  0.12248642  0.01213340  0.34643536  1
  S2-  S161  1  0.12880669  -0.07625658  0.85343447  1
  S2-  S162  1  0.10617078  0.25714231  0.34417935  1
  S2-  S163  1  0.02163620  0.25210411  0.85770770  1
  S2-  S164  1  0.11794525  0.48503410  0.33804483  1
  S2-  S165  1  0.16395101  0.49660488  0.83764487  1
  S2-  S166  1  0.20010454  0.73509849  0.35292596  1
  S2-  S167  1  0.16783938  0.71994753  0.80631972  1
  S2-  S168  1  0.47348180  0.03925478  0.34701949  1
  S2-  S169  1  0.37389582  -0.08889933  0.86017260  1
  S2-  S170  1  0.36040477  0.37317167  0.36316861  1
  S2-  S171  1  0.45330831  0.26492197  0.85559297  1
  S2-  S172  1  0.36786648  0.59401284  0.35225808  1
  S2-  S173  1  0.39109848  0.47589689  0.83370685  1
  S2-  S174  1  0.35148922  0.88461638  0.34410880  1
  S2-  S175  1  0.36652307  0.68336182  0.84072803  1
  S2-  S176  1  0.66222703  -0.04822917  0.31537137  1
  S2-  S177  1  0.65167260  -0.00781530  0.84852215  1
  S2-  S178  1  0.64336918  0.17973125  0.35136737  1
  S2-  S179  1  0.62453522  0.18936416  0.81196068  1
  S2-  S180  1  0.60504456  0.47192018  0.34757922  1
  S2-  S181  1  0.61622674  0.40613718  0.84989246  1
  S2-  S182  1  0.52370007  0.75630939  0.34331987  1
  S2-  S183  1  0.55442327  0.77849348  0.85609970  1
  S2-  S184  1  0.86919320  0.02086492  0.34900018  1
  S2-  S185  1  0.89426375  0.00602239  0.83963322  1
  S2-  S186  1  0.88115270  0.24840705  0.33300482  1
  S2-  S187  1  0.82082803  0.26275892  0.82428427  1
  S2-  S188  1  0.87155147  0.47933073  0.34825732  1
  S2-  S189  1  0.94938059  0.48321503  0.84409424  1
  S2-  S190  1  0.75264981  0.75464986  0.35705645  1
  S2-  S191  1  0.95907891  0.76518884  0.85357297  1
  S2-  S192  1  -0.00563316  0.12919446  0.45766416  1
  S2-  S193  1  -0.00050700  0.12802368  0.95981057  1
  S2-  S194  1  -0.00693236  0.38137722  0.45423775  1
  S2-  S195  1  -0.00241275  0.38586265  0.95430600  1
  S2-  S196  1  -0.00924424  0.63519882  0.45002587  1
  S2-  S197  1  -0.00098699  0.63846701  0.95268577  1
  S2-  S198  1  -0.00629972  0.88649061  0.44998454  1
  S2-  S199  1  -0.00241020  0.88439065  0.95864694  1
  S2-  S200  1  0.24531787  0.13078660  0.44892000  1
  S2-  S201  1  0.24963800  0.13373622  0.96102863  1
  S2-  S202  1  0.23675907  0.38066321  0.45681946  1
  S2-  S203  1  0.24660813  0.38366995  0.94794652  1
  S2-  S204  1  0.24172971  0.63014447  0.45995639  1
  S2-  S205  1  0.23916679  0.64211189  0.94660389  1
  S2-  S206  1  0.23962169  0.88303313  0.45253752  1
  S2-  S207  1  0.24405768  0.88200428  0.95787041  1
  S2-  S208  1  0.49215908  0.13621514  0.45645918  1
  S2-  S209  1  0.49833036  0.13318674  0.95563478  1
  S2-  S210  1  0.49933756  0.38223895  0.45906095  1
  S2-  S211  1  0.49280202  0.39066801  0.95607329  1
  S2-  S212  1  0.49979337  0.62906433  0.44725954  1
  S2-  S213  1  0.50100653  0.63354975  0.94982404  1
  S2-  S214  1  0.50483605  0.88840212  0.44519676  1
  S2-  S215  1  0.50126621  0.88914201  0.96712412  1
  S2-  S216  1  0.74647704  0.13110577  0.45366891  1
  S2-  S217  1  0.74800115  0.13580200  0.94432958  1
  S2-  S218  1  0.74280904  0.38102780  0.45321451  1
  S2-  S219  1  0.75130161  0.38331557  0.94435907  1
  S2-  S220  1  0.74322581  0.62949805  0.45819651  1
  S2-  S221  1  0.74696540  0.63796529  0.95086341  1
  S2-  S222  1  0.74190878  0.89294782  0.45009717  1
  S2-  S223  1  0.74961480  0.88489604  0.95474889  1
  S2-  S224  1  0.12554037  0.00518040  0.04633174  1
  S2-  S225  1  0.12023960  0.00729929  0.55235690  1
  S2-  S226  1  0.11885558  0.26516579  0.05261500  1
  S2-  S227  1  0.11879756  0.25488266  0.55438990  1
  S2-  S228  1  0.12690920  0.51085252  0.04272997  1
  S2-  S229  1  0.11475705  0.50645038  0.54690904  1
  S2-  S230  1  0.11934525  0.75817802  0.05535924  1
  S2-  S231  1  0.11577021  0.75990321  0.54347139  1
  S2-  S232  1  0.37147538  0.01297282  0.05029923  1
  S2-  S233  1  0.36600414  0.00242826  0.53494003  1
  S2-  S234  1  0.36928435  0.26521153  0.04534441  1
  S2-  S235  1  0.36627391  0.26091802  0.54460528  1
  S2-  S236  1  0.36914161  0.51071956  0.04518519  1
  S2-  S237  1  0.36593863  0.50817368  0.54538672  1
  S2-  S238  1  0.37034017  0.75501811  0.04073440  1
  S2-  S239  1  0.36926918  0.75896545  0.53697004  1
  S2-  S240  1  0.62529599  0.01079205  0.05241462  1
  S2-  S241  1  0.61823996  0.01094977  0.55135148  1
  S2-  S242  1  0.62725291  0.26294380  0.03477352  1
  S2-  S243  1  0.61736021  0.25496886  0.54870009  1
  S2-  S244  1  0.62502413  0.50912651  0.04235592  1
  S2-  S245  1  0.61810896  0.50820341  0.54961172  1
  S2-  S246  1  0.62232620  0.75776140  0.05161624  1
  S2-  S247  1  0.61810535  0.75568548  0.54058012  1
  S2-  S248  1  0.86692326  0.00792375  0.04528362  1
  S2-  S249  1  0.86493209  0.00949890  0.55396763  1
  S2-  S250  1  0.87634203  0.25770241  0.04024581  1
  S2-  S251  1  0.86878460  0.25725391  0.54366595  1
  S2-  S252  1  0.86888057  0.51116052  0.04191817  1
  S2-  S253  1  0.86648751  0.50165188  0.55009710  1
  S2-  S254  1  0.86983197  0.75743664  0.04825292  1
  S2-  S255  1  0.86585010  0.76231302  0.53869176  1
