# generated using pymatgen
data_La9Ce10Pr6Nd4Sm3(BiS2)32
_symmetry_space_group_name_H-M   'P 1'
_cell_length_a   16.23662061
_cell_length_b   16.21351930
_cell_length_c   27.11374530
_cell_angle_alpha   89.90577623
_cell_angle_beta   90.12064578
_cell_angle_gamma   90.03674782
_symmetry_Int_Tables_number   1
_chemical_formula_structural   La9Ce10Pr6Nd4Sm3(BiS2)32
_chemical_formula_sum   'La18 Ce20 Pr12 Nd8 Sm6 Bi64 S128'
_cell_volume   7137.74140208
_cell_formula_units_Z   2
loop_
 _symmetry_equiv_pos_site_id
 _symmetry_equiv_pos_as_xyz
  1  'x, y, z'
loop_
 _atom_type_symbol
 _atom_type_oxidation_number
  La3+  3.0
  Ce3+  3.0
  Pr3+  3.0
  Nd3+  3.0
  Sm3+  3.0
  Bi2+  2.0
  S2-  -2.0
loop_
 _atom_site_type_symbol
 _atom_site_label
 _atom_site_symmetry_multiplicity
 _atom_site_fract_x
 _atom_site_fract_y
 _atom_site_fract_z
 _atom_site_occupancy
  La3+  La0  1  0.38125354  0.75208610  0.93436867  1
  La3+  La1  1  0.25556548  0.13367103  0.56407837  1
  La3+  La2  1  0.86624544  0.24820528  0.41104719  1
  La3+  La3  1  0.00651229  0.36622802  0.06892789  1
  La3+  La4  1  0.75800497  0.13078221  0.57758735  1
  La3+  La5  1  0.37368227  0.50725367  0.91420689  1
  La3+  La6  1  0.26182938  0.12568448  0.06521204  1
  La3+  La7  1  0.75341597  0.87152745  0.06481134  1
  La3+  La8  1  0.26140624  0.87118089  0.06632150  1
  La3+  La9  1  0.49254625  0.36794705  0.60628521  1
  La3+  La10  1  0.00705723  0.87551500  0.06502161  1
  La3+  La11  1  0.38041457  0.51660068  0.43617736  1
  La3+  La12  1  0.76344103  0.61334493  0.08302635  1
  La3+  La13  1  0.24617890  0.63650459  0.56611300  1
  La3+  La14  1  0.00797842  0.13959753  0.57364559  1
  La3+  La15  1  0.63455257  0.51100392  0.92133807  1
  La3+  La16  1  0.49974116  0.61461907  0.08147254  1
  La3+  La17  1  0.50092406  0.62817037  0.58863314  1
  Ce3+  Ce18  1  0.87981276  -0.00017348  0.94855944  1
  Ce3+  Ce19  1  0.75049372  0.87721457  0.55703359  1
  Ce3+  Ce20  1  0.75247509  0.12920911  0.06259636  1
  Ce3+  Ce21  1  0.50831998  0.37943968  0.04311656  1
  Ce3+  Ce22  1  0.37514800  0.00404797  0.43671729  1
  Ce3+  Ce23  1  0.88157517  0.24656252  0.93711510  1
  Ce3+  Ce24  1  0.00195032  0.88105972  0.55411826  1
  Ce3+  Ce25  1  0.00589398  0.61768048  0.05766454  1
  Ce3+  Ce26  1  0.37947690  -0.00399840  0.92925785  1
  Ce3+  Ce27  1  0.62751238  0.25833941  0.44887410  1
  Ce3+  Ce28  1  0.62383600  0.76075569  0.43566322  1
  Ce3+  Ce29  1  0.12971068  -0.00141973  0.94095762  1
  Ce3+  Ce30  1  0.50105035  0.13022215  0.55556854  1
  Ce3+  Ce31  1  0.63147801  0.00178323  0.94270142  1
  Ce3+  Ce32  1  0.87447346  0.01054639  0.44655519  1
  Ce3+  Ce33  1  0.00404199  0.63045572  0.55987267  1
  Ce3+  Ce34  1  0.12268872  0.01354043  0.43692865  1
  Ce3+  Ce35  1  0.13053070  0.24566009  0.93671159  1
  Ce3+  Ce36  1  -0.00017365  0.37974407  0.54848610  1
  Ce3+  Ce37  1  0.74684487  0.62990950  0.56068985  1
  Pr3+  Pr38  1  0.62941287  0.24053532  0.92295337  1
  Pr3+  Pr39  1  0.62759731  0.00873904  0.44507412  1
  Pr3+  Pr40  1  0.75077242  0.38182136  0.56244812  1
  Pr3+  Pr41  1  0.37684899  0.26050411  0.43698877  1
  Pr3+  Pr42  1  0.75220470  0.36703672  0.06010481  1
  Pr3+  Pr43  1  0.87464807  0.51180580  0.43443055  1
  Pr3+  Pr44  1  0.87889065  0.49485990  0.93654608  1
  Pr3+  Pr45  1  0.12800617  0.49727523  0.42806612  1
  Pr3+  Pr46  1  0.87580918  0.75763878  0.44016644  1
  Pr3+  Pr47  1  0.25327322  0.38578111  0.56291512  1
  Pr3+  Pr48  1  0.12571485  0.49693692  0.93553213  1
  Pr3+  Pr49  1  0.12551880  0.25002251  0.43025543  1
  Nd3+  Nd50  1  0.12475012  0.75510859  0.43136952  1
  Nd3+  Nd51  1  0.50272320  0.12474767  0.06106733  1
  Nd3+  Nd52  1  0.37436036  0.76230385  0.43217601  1
  Nd3+  Nd53  1  0.38037160  0.24763499  0.93399930  1
  Nd3+  Nd54  1  0.49954983  0.87700810  0.56579349  1
  Nd3+  Nd55  1  0.25637738  0.61720931  0.05998049  1
  Nd3+  Nd56  1  0.87848372  0.74846355  0.94580633  1
  Nd3+  Nd57  1  0.62452920  0.50878942  0.44504401  1
  Sm3+  Sm58  1  0.01521887  0.12567457  0.06805715  1
  Sm3+  Sm59  1  0.12826675  0.74817504  0.94991138  1
  Sm3+  Sm60  1  0.25130975  0.88117062  0.55721925  1
  Sm3+  Sm61  1  0.63126098  0.74266346  0.95106557  1
  Sm3+  Sm62  1  0.25936441  0.37444137  0.04955475  1
  Sm3+  Sm63  1  0.50709040  0.87103518  0.05471128  1
  Bi2+  Bi64  1  -0.03559823  0.09076764  0.22521769  1
  Bi2+  Bi65  1  0.01600829  0.17838045  0.74815570  1
  Bi2+  Bi66  1  0.01197128  0.41847911  0.29550676  1
  Bi2+  Bi67  1  -0.01058075  0.43795667  0.82417292  1
  Bi2+  Bi68  1  0.00768460  0.63984179  0.23775236  1
  Bi2+  Bi69  1  0.02037068  0.62811071  0.79899429  1
  Bi2+  Bi70  1  0.00762557  0.93544114  0.29729256  1
  Bi2+  Bi71  1  -0.01880883  0.82328330  0.79431444  1
  Bi2+  Bi72  1  0.22354135  0.10945443  0.28549573  1
  Bi2+  Bi73  1  0.27904568  0.10788702  0.80403360  1
  Bi2+  Bi74  1  0.26764475  0.32812751  0.28802242  1
  Bi2+  Bi75  1  0.16598975  0.36220977  0.79861388  1
  Bi2+  Bi76  1  0.25052030  0.59166823  0.30453591  1
  Bi2+  Bi77  1  0.23066257  0.64280498  0.79111975  1
  Bi2+  Bi78  1  0.19909830  0.92184192  0.30930311  1
  Bi2+  Bi79  1  0.24982806  0.89058222  0.77831063  1
  Bi2+  Bi80  1  0.52539837  0.19768783  0.28533844  1
  Bi2+  Bi81  1  0.47033457  0.06257473  0.80051187  1
  Bi2+  Bi82  1  0.46763833  0.39055555  0.27549014  1
  Bi2+  Bi83  1  0.49992148  0.34159861  0.79745935  1
  Bi2+  Bi84  1  0.51739621  0.62660012  0.28722798  1
  Bi2+  Bi85  1  0.50061201  0.60673738  0.79215188  1
  Bi2+  Bi86  1  0.48347567  0.89455028  0.28426673  1
  Bi2+  Bi87  1  0.50671055  0.86639971  0.79642424  1
  Bi2+  Bi88  1  0.69543717  0.09262288  0.32206817  1
  Bi2+  Bi89  1  0.77988227  0.07902087  0.80573036  1
  Bi2+  Bi90  1  0.73971443  0.37521778  0.28455112  1
  Bi2+  Bi91  1  0.80581360  0.36453692  0.80035121  1
  Bi2+  Bi92  1  0.74197483  0.61992137  0.29930442  1
  Bi2+  Bi93  1  0.75396391  0.65214546  0.79417657  1
  Bi2+  Bi94  1  0.84105443  0.84301038  0.31406039  1
  Bi2+  Bi95  1  0.70222410  0.90111673  0.79375896  1
  Bi2+  Bi96  1  0.10931720  -0.02926142  0.19525897  1
  Bi2+  Bi97  1  0.13285607  0.02717893  0.73780565  1
  Bi2+  Bi98  1  0.11701778  0.27105887  0.19185031  1
  Bi2+  Bi99  1  0.14182753  0.29641905  0.69136382  1
  Bi2+  Bi100  1  0.16922292  0.53384671  0.20292042  1
  Bi2+  Bi101  1  0.11112577  0.49788742  0.71480406  1
  Bi2+  Bi102  1  0.18043599  0.72864374  0.22775108  1
  Bi2+  Bi103  1  0.08063533  0.76391575  0.69563956  1
  Bi2+  Bi104  1  0.39857648  0.05552017  0.24168634  1
  Bi2+  Bi105  1  0.38194794  -0.05187544  0.68848576  1
  Bi2+  Bi106  1  0.39297337  0.24771000  0.19599434  1
  Bi2+  Bi107  1  0.32937942  0.12937739  0.69402166  1
  Bi2+  Bi108  1  0.36335268  0.50584337  0.20042027  1
  Bi2+  Bi109  1  0.34154367  0.48981879  0.71072209  1
  Bi2+  Bi110  1  0.36765188  0.79096609  0.21170699  1
  Bi2+  Bi111  1  0.35167642  0.75458186  0.71192243  1
  Bi2+  Bi112  1  0.59641825  0.04798718  0.21613450  1
  Bi2+  Bi113  1  0.57602004  -0.02337181  0.70996026  1
  Bi2+  Bi114  1  0.59097215  0.22622465  0.17005264  1
  Bi2+  Bi115  1  0.59553941  0.18405865  0.73476276  1
  Bi2+  Bi116  1  0.61635216  0.41822146  0.20236422  1
  Bi2+  Bi117  1  0.65270855  0.48719033  0.71215681  1
  Bi2+  Bi118  1  0.61900006  0.79020662  0.20580013  1
  Bi2+  Bi119  1  0.63079044  0.76225087  0.71200852  1
  Bi2+  Bi120  1  0.79644182  -0.00128387  0.24073483  1
  Bi2+  Bi121  1  0.85944727  -0.09533199  0.71907908  1
  Bi2+  Bi122  1  0.84422623  0.24182304  0.23534746  1
  Bi2+  Bi123  1  0.85625687  0.25168510  0.69585852  1
  Bi2+  Bi124  1  0.88953978  0.48347695  0.20740552  1
  Bi2+  Bi125  1  0.90960349  0.51265482  0.72427534  1
  Bi2+  Bi126  1  0.86233036  0.77335012  0.20897117  1
  Bi2+  Bi127  1  0.88727801  0.70497449  0.70500086  1
  S2-  S128  1  -0.01740399  0.23578552  0.14257588  1
  S2-  S129  1  -0.08433761  0.11635454  0.65873116  1
  S2-  S130  1  0.04339228  0.42564243  0.16503742  1
  S2-  S131  1  -0.00372759  0.33091577  0.64295441  1
  S2-  S132  1  -0.07253790  0.61849438  0.14437016  1
  S2-  S133  1  0.10952452  0.61446286  0.63811340  1
  S2-  S134  1  -0.00022426  0.85521257  0.16477903  1
  S2-  S135  1  0.00277349  0.89337037  0.65264393  1
  S2-  S136  1  0.14989632  0.12514737  0.14419263  1
  S2-  S137  1  0.14986687  0.13753767  0.64426793  1
  S2-  S138  1  0.25998818  0.33473724  0.14636791  1
  S2-  S139  1  0.33307375  0.36176199  0.65380789  1
  S2-  S140  1  0.34945063  0.63940730  0.14327484  1
  S2-  S141  1  0.34246191  0.62031293  0.64978002  1
  S2-  S142  1  0.26791362  0.89969414  0.16574915  1
  S2-  S143  1  0.23068282  0.80111802  0.64382365  1
  S2-  S144  1  0.38714205  0.10752592  0.13730482  1
  S2-  S145  1  0.47809179  0.17779189  0.64846922  1
  S2-  S146  1  0.48880754  0.45450111  0.13228185  1
  S2-  S147  1  0.56720138  0.34005726  0.69907201  1
  S2-  S148  1  0.54122427  0.65307427  0.18626817  1
  S2-  S149  1  0.50057577  0.51456101  0.66841499  1
  S2-  S150  1  0.48925571  0.86606746  0.15296622  1
  S2-  S151  1  0.49858200  0.77333729  0.64780821  1
  S2-  S152  1  0.75814702  0.23692990  0.13908167  1
  S2-  S153  1  0.71720528  0.15130949  0.67636971  1
  S2-  S154  1  0.75956711  0.46708076  0.14446829  1
  S2-  S155  1  0.76288434  0.39834774  0.66375363  1
  S2-  S156  1  0.73675228  0.67994462  0.17941865  1
  S2-  S157  1  0.67635164  0.62744385  0.65024039  1
  S2-  S158  1  0.74788539  0.89524987  0.16394668  1
  S2-  S159  1  0.72842270  0.88030406  0.65414720  1
  S2-  S160  1  0.11120122  0.12123057  0.36016817  1
  S2-  S161  1  0.14519188  -0.01155673  0.84372470  1
  S2-  S162  1  0.13851167  0.35924322  0.34925390  1
  S2-  S163  1  0.09348109  0.22158858  0.84154099  1
  S2-  S164  1  0.08494036  0.56218519  0.33735367  1
  S2-  S165  1  0.21845226  0.50944374  0.85110103  1
  S2-  S166  1  0.17600566  0.75980563  0.33540886  1
  S2-  S167  1  0.13748971  0.74211667  0.85125761  1
  S2-  S168  1  0.36905324  -0.10424827  0.35916215  1
  S2-  S169  1  0.36374161  -0.12290044  0.85659046  1
  S2-  S170  1  0.33737275  0.19991306  0.34481027  1
  S2-  S171  1  0.37087395  0.24525789  0.83432565  1
  S2-  S172  1  0.34192243  0.45054052  0.34356752  1
  S2-  S173  1  0.39996167  0.46472060  0.81114000  1
  S2-  S174  1  0.39184815  0.65483005  0.35074514  1
  S2-  S175  1  0.37822465  0.65438229  0.85079091  1
  S2-  S176  1  0.60635161  -0.04838801  0.34980801  1
  S2-  S177  1  0.62393601  0.09128292  0.85847839  1
  S2-  S178  1  0.70669958  0.26293998  0.36073073  1
  S2-  S179  1  0.66206583  0.28812201  0.82496865  1
  S2-  S180  1  0.62298799  0.52151901  0.34286835  1
  S2-  S181  1  0.58982649  0.48061645  0.82006846  1
  S2-  S182  1  0.63428478  0.72656249  0.33583767  1
  S2-  S183  1  0.61780425  0.67765095  0.85945383  1
  S2-  S184  1  0.85809648  0.09019148  0.36225076  1
  S2-  S185  1  0.89682128  -0.00521879  0.85055174  1
  S2-  S186  1  0.94163289  0.27312987  0.31645832  1
  S2-  S187  1  0.86015395  0.21752670  0.83967028  1
  S2-  S188  1  0.85700639  0.46766875  0.33635986  1
  S2-  S189  1  0.77976049  0.51720610  0.85475321  1
  S2-  S190  1  0.87231422  0.67784689  0.34985296  1
  S2-  S191  1  0.85128720  0.75074361  0.84706283  1
  S2-  S192  1  -0.00444682  0.13427762  0.46251912  1
  S2-  S193  1  0.00625467  0.12110208  0.95880846  1
  S2-  S194  1  -0.00747628  0.37766309  0.44373102  1
  S2-  S195  1  0.00619629  0.36879138  0.95435351  1
  S2-  S196  1  0.00246662  0.63128668  0.45332069  1
  S2-  S197  1  0.00347892  0.62475946  0.95143103  1
  S2-  S198  1  0.00100639  0.88358159  0.44608003  1
  S2-  S199  1  0.00485476  0.87213134  0.95618972  1
  S2-  S200  1  0.25509928  0.12799974  0.45673516  1
  S2-  S201  1  0.25733005  0.12142023  0.95170570  1
  S2-  S202  1  0.25445812  0.38203772  0.45546749  1
  S2-  S203  1  0.25493377  0.37083319  0.94495766  1
  S2-  S204  1  0.24639449  0.63424848  0.45277393  1
  S2-  S205  1  0.24906858  0.62777161  0.95605076  1
  S2-  S206  1  0.24381195  0.88251505  0.45426577  1
  S2-  S207  1  0.24843080  0.87248030  0.95811898  1
  S2-  S208  1  0.50063948  0.13111501  0.44793888  1
  S2-  S209  1  0.49970345  0.12121418  0.95477726  1
  S2-  S210  1  0.50456022  0.38138286  0.44095687  1
  S2-  S211  1  0.50596168  0.37425740  0.93697757  1
  S2-  S212  1  0.50547184  0.63779571  0.45588334  1
  S2-  S213  1  0.50497297  0.62402729  0.95933806  1
  S2-  S214  1  0.50096062  0.88236857  0.45936083  1
  S2-  S215  1  0.51426269  0.87351100  0.95013747  1
  S2-  S216  1  0.74845049  0.13247797  0.46774134  1
  S2-  S217  1  0.75738700  0.12309675  0.95707810  1
  S2-  S218  1  0.75253952  0.38574808  0.45542470  1
  S2-  S219  1  0.75255008  0.36778990  0.94931336  1
  S2-  S220  1  0.74836959  0.63324127  0.45490003  1
  S2-  S221  1  0.75908170  0.62695105  0.96524203  1
  S2-  S222  1  0.75161642  0.88286618  0.45100259  1
  S2-  S223  1  0.75298325  0.87233853  0.95625024  1
  S2-  S224  1  0.13338013  -0.00304276  0.04731089  1
  S2-  S225  1  0.12808349  0.00351069  0.54625001  1
  S2-  S226  1  0.13561036  0.24975316  0.04128939  1
  S2-  S227  1  0.13108517  0.26139824  0.53803862  1
  S2-  S228  1  0.13246013  0.49458138  0.04420905  1
  S2-  S229  1  0.12460654  0.50144205  0.53739585  1
  S2-  S230  1  0.13187105  0.74429388  0.05665813  1
  S2-  S231  1  0.12210204  0.75982493  0.53804432  1
  S2-  S232  1  0.38470762  -0.00819912  0.03753157  1
  S2-  S233  1  0.37650082  0.00309480  0.54576504  1
  S2-  S234  1  0.38403944  0.25407078  0.04008964  1
  S2-  S235  1  0.38008294  0.25903709  0.54373272  1
  S2-  S236  1  0.37532577  0.49757989  0.03178357  1
  S2-  S237  1  0.38052278  0.50483927  0.54602745  1
  S2-  S238  1  0.38419536  0.74905394  0.04354703  1
  S2-  S239  1  0.37349572  0.75971176  0.54093252  1
  S2-  S240  1  0.62733060  0.00045291  0.05174543  1
  S2-  S241  1  0.62504026  0.00439442  0.55382120  1
  S2-  S242  1  0.62539824  0.24694255  0.03328029  1
  S2-  S243  1  0.62396234  0.25795984  0.55615056  1
  S2-  S244  1  0.63313941  0.49996010  0.03918820  1
  S2-  S245  1  0.62078198  0.50034918  0.55113278  1
  S2-  S246  1  0.62853615  0.74400710  0.05649984  1
  S2-  S247  1  0.62614573  0.75599392  0.54394985  1
  S2-  S248  1  0.88152444  0.00510836  0.05838773  1
  S2-  S249  1  0.87629439  0.00232035  0.55205377  1
  S2-  S250  1  0.88101436  0.24511476  0.03980042  1
  S2-  S251  1  0.87409723  0.25717463  0.54718374  1
  S2-  S252  1  0.88527140  0.49022253  0.04262560  1
  S2-  S253  1  0.87699768  0.50844766  0.54707002  1
  S2-  S254  1  0.88092284  0.74961982  0.05168035  1
  S2-  S255  1  0.87664634  0.75370070  0.54871771  1
