# generated using pymatgen
data_La9Ce10Pr6Nd4Sm3(BiS2)32
_symmetry_space_group_name_H-M   'P 1'
_cell_length_a   16.19867801
_cell_length_b   16.19882500
_cell_length_c   27.15571453
_cell_angle_alpha   89.72890508
_cell_angle_beta   90.23623726
_cell_angle_gamma   89.99318553
_symmetry_Int_Tables_number   1
_chemical_formula_structural   La9Ce10Pr6Nd4Sm3(BiS2)32
_chemical_formula_sum   'La18 Ce20 Pr12 Nd8 Sm6 Bi64 S128'
_cell_volume   7125.50688517
_cell_formula_units_Z   2
loop_
 _symmetry_equiv_pos_site_id
 _symmetry_equiv_pos_as_xyz
  1  'x, y, z'
loop_
 _atom_type_symbol
 _atom_type_oxidation_number
  La3+  3.0
  Ce3+  3.0
  Pr3+  3.0
  Nd3+  3.0
  Sm3+  3.0
  Bi2+  2.0
  S2-  -2.0
loop_
 _atom_site_type_symbol
 _atom_site_label
 _atom_site_symmetry_multiplicity
 _atom_site_fract_x
 _atom_site_fract_y
 _atom_site_fract_z
 _atom_site_occupancy
  La3+  La0  1  0.50717903  0.88418597  0.08096153  1
  La3+  La1  1  0.87644965  -0.00345325  0.43562406  1
  La3+  La2  1  0.88275323  0.50116767  0.43013659  1
  La3+  La3  1  0.24830411  0.62268080  0.07880945  1
  La3+  La4  1  0.00294950  0.62332226  0.05968359  1
  La3+  La5  1  0.00326176  0.12487465  0.05648253  1
  La3+  La6  1  0.49985016  0.61474527  0.08574815  1
  La3+  La7  1  0.75155638  0.12193145  0.57097433  1
  La3+  La8  1  0.74954743  0.61812784  0.06238305  1
  La3+  La9  1  0.12957265  0.50704064  0.89525813  1
  La3+  La10  1  0.51014119  0.86809802  0.57151197  1
  La3+  La11  1  0.00848911  0.86807887  0.56471696  1
  La3+  La12  1  0.25726760  0.87550796  0.08131825  1
  La3+  La13  1  0.12018965  0.75256357  0.39827049  1
  La3+  La14  1  0.47367539  0.12579569  0.61843307  1
  La3+  La15  1  0.76368681  0.36631556  0.08641985  1
  La3+  La16  1  0.26422085  0.36414542  0.56480145  1
  La3+  La17  1  0.62602394  0.49868528  0.92983602  1
  Ce3+  Ce18  1  0.75386707  0.86706695  0.55874843  1
  Ce3+  Ce19  1  0.25616796  0.62193003  0.55780097  1
  Ce3+  Ce20  1  0.37113488  0.50278534  0.94293037  1
  Ce3+  Ce21  1  0.25699214  0.12311146  0.06322347  1
  Ce3+  Ce22  1  0.00075717  0.12199819  0.56085267  1
  Ce3+  Ce23  1  0.87670557  0.74805058  0.94118827  1
  Ce3+  Ce24  1  0.87206047  0.00051735  0.93893642  1
  Ce3+  Ce25  1  0.00467493  0.37841686  0.05115200  1
  Ce3+  Ce26  1  0.25282742  0.37460309  0.06017262  1
  Ce3+  Ce27  1  0.62250888  0.75108614  0.42956317  1
  Ce3+  Ce28  1  0.12798750  -0.00333649  0.43913956  1
  Ce3+  Ce29  1  0.12607248  0.25276851  0.43231117  1
  Ce3+  Ce30  1  0.13115388  0.49489231  0.43584212  1
  Ce3+  Ce31  1  0.49969867  0.12692639  0.05763468  1
  Ce3+  Ce32  1  0.37655595  0.75023619  0.95501610  1
  Ce3+  Ce33  1  0.87564085  0.50214706  0.93211966  1
  Ce3+  Ce34  1  0.13162502  -0.00425497  0.94039685  1
  Ce3+  Ce35  1  0.00148305  0.87394009  0.05801009  1
  Ce3+  Ce36  1  0.63054812  0.24836212  0.43430705  1
  Ce3+  Ce37  1  0.50028624  0.37312005  0.05939131  1
  Pr3+  Pr38  1  0.50794775  0.62382746  0.56293796  1
  Pr3+  Pr39  1  0.38243160  -0.01116888  0.92952115  1
  Pr3+  Pr40  1  0.51945819  0.37031747  0.56703933  1
  Pr3+  Pr41  1  0.75100094  0.87355475  0.06537070  1
  Pr3+  Pr42  1  0.36875666  0.24427655  0.92797250  1
  Pr3+  Pr43  1  0.62545604  0.50590258  0.42297387  1
  Pr3+  Pr44  1  0.75121238  0.12234121  0.06636910  1
  Pr3+  Pr45  1  0.37620801  0.74700188  0.42763016  1
  Pr3+  Pr46  1  0.00997456  0.37014036  0.56404288  1
  Pr3+  Pr47  1  0.63221757  0.00262761  0.93246964  1
  Pr3+  Pr48  1  0.38029734  -0.00247491  0.44114818  1
  Pr3+  Pr49  1  0.00847257  0.61348202  0.56712966  1
  Nd3+  Nd50  1  0.12689495  0.25102357  0.94093750  1
  Nd3+  Nd51  1  0.62189862  0.75055508  0.94796616  1
  Nd3+  Nd52  1  0.13046708  0.75501482  0.93620397  1
  Nd3+  Nd53  1  0.38049389  0.49858984  0.44368059  1
  Nd3+  Nd54  1  0.25549392  0.12062541  0.54951232  1
  Nd3+  Nd55  1  0.87594269  0.25338251  0.93770004  1
  Nd3+  Nd56  1  0.38334085  0.24696534  0.43733155  1
  Nd3+  Nd57  1  0.62725509  -0.00253530  0.44451253  1
  Sm3+  Sm58  1  0.75471551  0.37516147  0.54898157  1
  Sm3+  Sm59  1  0.87751298  0.24685550  0.44173646  1
  Sm3+  Sm60  1  0.88284570  0.74661853  0.44555171  1
  Sm3+  Sm61  1  0.25557876  0.87095932  0.55519269  1
  Sm3+  Sm62  1  0.62664770  0.25188682  0.94864096  1
  Sm3+  Sm63  1  0.75392233  0.61967988  0.55295698  1
  Bi2+  Bi64  1  0.04614395  0.18178127  0.30631726  1
  Bi2+  Bi65  1  0.00615061  0.07101871  0.79609592  1
  Bi2+  Bi66  1  0.04411472  0.33524201  0.23164620  1
  Bi2+  Bi67  1  0.02056068  0.33065988  0.79178187  1
  Bi2+  Bi68  1  -0.01059658  0.64086088  0.28754917  1
  Bi2+  Bi69  1  -0.01956532  0.63259326  0.78675087  1
  Bi2+  Bi70  1  -0.03692123  0.92421932  0.25276312  1
  Bi2+  Bi71  1  0.01573199  0.87710505  0.79633289  1
  Bi2+  Bi72  1  0.23577513  0.15837330  0.28669769  1
  Bi2+  Bi73  1  0.19544426  0.13462602  0.78179557  1
  Bi2+  Bi74  1  0.23717143  0.38021094  0.28501978  1
  Bi2+  Bi75  1  0.29640381  0.40914134  0.77961881  1
  Bi2+  Bi76  1  0.25821841  0.60814076  0.29255780  1
  Bi2+  Bi77  1  0.24907800  0.66600650  0.78581180  1
  Bi2+  Bi78  1  0.24350996  0.95927621  0.28995202  1
  Bi2+  Bi79  1  0.26050442  0.86432024  0.78506603  1
  Bi2+  Bi80  1  0.48947411  0.10536378  0.28142162  1
  Bi2+  Bi81  1  0.48015042  0.14476024  0.82040690  1
  Bi2+  Bi82  1  0.43245201  0.35818378  0.28312976  1
  Bi2+  Bi83  1  0.51143599  0.44662284  0.81053918  1
  Bi2+  Bi84  1  0.49714731  0.64541683  0.29101362  1
  Bi2+  Bi85  1  0.56270465  0.63165680  0.81805426  1
  Bi2+  Bi86  1  0.52815362  0.91205188  0.28715251  1
  Bi2+  Bi87  1  0.50068878  0.84775120  0.80023521  1
  Bi2+  Bi88  1  0.78319672  0.11010761  0.30735983  1
  Bi2+  Bi89  1  0.76215134  0.15157441  0.79204792  1
  Bi2+  Bi90  1  0.74394490  0.32840570  0.28524859  1
  Bi2+  Bi91  1  0.69779839  0.37384291  0.80711850  1
  Bi2+  Bi92  1  0.75874864  0.57186919  0.29712115  1
  Bi2+  Bi93  1  0.73697278  0.56789541  0.75548525  1
  Bi2+  Bi94  1  0.75686805  0.85670906  0.31078274  1
  Bi2+  Bi95  1  0.72839367  0.89489852  0.78469748  1
  Bi2+  Bi96  1  0.11558674  0.04346768  0.21783544  1
  Bi2+  Bi97  1  0.12939451  -0.03385655  0.71464299  1
  Bi2+  Bi98  1  0.20460588  0.25883205  0.18320341  1
  Bi2+  Bi99  1  0.04566400  0.19987584  0.70686708  1
  Bi2+  Bi100  1  0.12832687  0.51987591  0.21810109  1
  Bi2+  Bi101  1  0.11129750  0.50729232  0.69141713  1
  Bi2+  Bi102  1  0.08885389  0.77951657  0.22982629  1
  Bi2+  Bi103  1  0.11984628  0.75455664  0.68509722  1
  Bi2+  Bi104  1  0.38129223  0.03327983  0.19736442  1
  Bi2+  Bi105  1  0.34869203  -0.00545350  0.71824456  1
  Bi2+  Bi106  1  0.38344231  0.24406227  0.14787342  1
  Bi2+  Bi107  1  0.30081683  0.26789037  0.70412859  1
  Bi2+  Bi108  1  0.37307084  0.48630564  0.20703478  1
  Bi2+  Bi109  1  0.41475029  0.50229381  0.70779676  1
  Bi2+  Bi110  1  0.33001697  0.76100440  0.22332761  1
  Bi2+  Bi111  1  0.42328580  0.69481642  0.74057699  1
  Bi2+  Bi112  1  0.66995044  0.10200434  0.20458927  1
  Bi2+  Bi113  1  0.61616586  0.00412111  0.71022716  1
  Bi2+  Bi114  1  0.54395143  0.25342102  0.21140017  1
  Bi2+  Bi115  1  0.58189069  0.33434854  0.72128224  1
  Bi2+  Bi116  1  0.63053517  0.52716114  0.21020114  1
  Bi2+  Bi117  1  0.59773352  0.52664680  0.67378977  1
  Bi2+  Bi118  1  0.64253310  0.77912415  0.23470468  1
  Bi2+  Bi119  1  0.63494309  0.73291241  0.69586555  1
  Bi2+  Bi120  1  0.78727518  -0.05299386  0.19368616  1
  Bi2+  Bi121  1  0.85164625  0.01318633  0.72827546  1
  Bi2+  Bi122  1  0.91209165  0.19009470  0.21857948  1
  Bi2+  Bi123  1  0.85033610  0.23628039  0.70263880  1
  Bi2+  Bi124  1  0.87727627  0.49338154  0.19882724  1
  Bi2+  Bi125  1  0.86086057  0.42066051  0.73117296  1
  Bi2+  Bi126  1  0.85625550  0.76356832  0.22605599  1
  Bi2+  Bi127  1  0.87265761  0.79291256  0.73880733  1
  S2-  S128  1  -0.01817437  0.08628927  0.15445322  1
  S2-  S129  1  -0.10543699  0.10350571  0.63962074  1
  S2-  S130  1  -0.06801021  0.37245659  0.14053596  1
  S2-  S131  1  -0.03093282  0.44367725  0.65190490  1
  S2-  S132  1  0.00219425  0.58987128  0.16023516  1
  S2-  S133  1  0.00654287  0.64170451  0.66944507  1
  S2-  S134  1  -0.01004110  0.83554312  0.15389965  1
  S2-  S135  1  -0.02318421  0.85587639  0.66368241  1
  S2-  S136  1  0.23486923  0.01941249  0.14299904  1
  S2-  S137  1  0.29695430  0.12440052  0.64682881  1
  S2-  S138  1  0.23429049  0.47060251  0.14384719  1
  S2-  S139  1  0.18482345  0.36239600  0.65427670  1
  S2-  S140  1  0.36505360  0.62951243  0.15810517  1
  S2-  S141  1  0.22662174  0.62372694  0.65566370  1
  S2-  S142  1  0.20312686  0.75505268  0.15550383  1
  S2-  S143  1  0.24832711  0.87271409  0.65477087  1
  S2-  S144  1  0.52304095  0.04277507  0.14185590  1
  S2-  S145  1  0.47598023  0.10896263  0.72779657  1
  S2-  S146  1  0.51409080  0.46160094  0.14440800  1
  S2-  S147  1  0.45258596  0.29586469  0.65270507  1
  S2-  S148  1  0.55156964  0.67634627  0.18104198  1
  S2-  S149  1  0.49231952  0.73395749  0.64180773  1
  S2-  S150  1  0.39064999  0.86749859  0.15943095  1
  S2-  S151  1  0.47440016  0.95672832  0.65659914  1
  S2-  S152  1  0.77554835  0.21015532  0.15202991  1
  S2-  S153  1  0.64226500  0.12987766  0.65073805  1
  S2-  S154  1  0.72650207  0.40080436  0.18541708  1
  S2-  S155  1  0.66510816  0.38035875  0.63345341  1
  S2-  S156  1  0.76608174  0.61012624  0.16315722  1
  S2-  S157  1  0.75726824  0.62480625  0.65212732  1
  S2-  S158  1  0.64853312  0.87617607  0.14636206  1
  S2-  S159  1  0.68109312  0.86824705  0.64770066  1
  S2-  S160  1  0.12224431  -0.08235968  0.35230650  1
  S2-  S161  1  0.14555336  -0.11117005  0.86323600  1
  S2-  S162  1  0.12544351  0.37361567  0.36168227  1
  S2-  S163  1  0.15597173  0.26489488  0.84315123  1
  S2-  S164  1  0.11774034  0.59302158  0.35348956  1
  S2-  S165  1  0.13378500  0.45877570  0.78936830  1
  S2-  S166  1  0.27165778  0.74827242  0.34100026  1
  S2-  S167  1  0.12031896  0.66679139  0.84701907  1
  S2-  S168  1  0.39868784  -0.02066705  0.34075056  1
  S2-  S169  1  0.32926760  0.09065265  0.85042939  1
  S2-  S170  1  0.38553790  0.22132840  0.33760006  1
  S2-  S171  1  0.40450128  0.29545651  0.83289881  1
  S2-  S172  1  0.41373958  0.54409094  0.34773701  1
  S2-  S173  1  0.29883151  0.53465288  0.85405546  1
  S2-  S174  1  0.49643071  0.77920346  0.35320826  1
  S2-  S175  1  0.37166277  0.82981894  0.86612947  1
  S2-  S176  1  0.66259466  -0.01215742  0.34486177  1
  S2-  S177  1  0.52075841  -0.01654644  0.85471620  1
  S2-  S178  1  0.65240246  0.22490548  0.33688194  1
  S2-  S179  1  0.63397942  0.21090587  0.85230229  1
  S2-  S180  1  0.65314773  0.43859949  0.32735786  1
  S2-  S181  1  0.75409925  0.50937570  0.85782858  1
  S2-  S182  1  0.63439490  0.64078346  0.35294884  1
  S2-  S183  1  0.64571295  0.77296509  0.84815682  1
  S2-  S184  1  0.90605716  0.00770799  0.33636233  1
  S2-  S185  1  0.76607824  0.00705411  0.86127708  1
  S2-  S186  1  0.87588354  0.25356970  0.34268289  1
  S2-  S187  1  0.88304534  0.25119358  0.83800725  1
  S2-  S188  1  0.89526265  0.49512245  0.32815579  1
  S2-  S189  1  0.96861387  0.50492613  0.84778242  1
  S2-  S190  1  0.95477510  0.75111900  0.35576147  1
  S2-  S191  1  0.88277871  0.72986445  0.84217975  1
  S2-  S192  1  0.00224742  0.12437214  0.45304468  1
  S2-  S193  1  0.00171426  0.12396011  0.94702835  1
  S2-  S194  1  -0.00187144  0.37071087  0.45667902  1
  S2-  S195  1  0.00499168  0.37583545  0.94621748  1
  S2-  S196  1  0.00566318  0.62394398  0.45893623  1
  S2-  S197  1  0.00295627  0.62723057  0.95204473  1
  S2-  S198  1  0.00432044  0.87192368  0.45681313  1
  S2-  S199  1  -0.00334350  0.87641319  0.95229425  1
  S2-  S200  1  0.25240780  0.12453362  0.44314281  1
  S2-  S201  1  0.24650929  0.12335967  0.95706584  1
  S2-  S202  1  0.26106824  0.36997281  0.45608233  1
  S2-  S203  1  0.24804197  0.37749318  0.94911440  1
  S2-  S204  1  0.25514774  0.62039398  0.45269251  1
  S2-  S205  1  0.25026747  0.62983001  0.96180285  1
  S2-  S206  1  0.25184505  0.87255112  0.45101966  1
  S2-  S207  1  0.25432182  0.87605079  0.96839254  1
  S2-  S208  1  0.50649353  0.12180509  0.44191280  1
  S2-  S209  1  0.50127116  0.12826775  0.95201059  1
  S2-  S210  1  0.50558774  0.37391063  0.44839104  1
  S2-  S211  1  0.49952529  0.37291891  0.95128809  1
  S2-  S212  1  0.50090668  0.62513213  0.45647078  1
  S2-  S213  1  0.50033780  0.62270216  0.95656050  1
  S2-  S214  1  0.50332707  0.87548359  0.46044525  1
  S2-  S215  1  0.50559029  0.87367483  0.96718538  1
  S2-  S216  1  0.75526707  0.12324506  0.45588817  1
  S2-  S217  1  0.75358492  0.13199579  0.95961689  1
  S2-  S218  1  0.75666888  0.37456149  0.44494509  1
  S2-  S219  1  0.75098669  0.37112612  0.95566632  1
  S2-  S220  1  0.75951837  0.62602886  0.44831161  1
  S2-  S221  1  0.74907679  0.62919799  0.95518417  1
  S2-  S222  1  0.75536333  0.86777946  0.45218550  1
  S2-  S223  1  0.75195086  0.87052734  0.95811095  1
  S2-  S224  1  0.12362409  -0.00271568  0.04456671  1
  S2-  S225  1  0.12960222  -0.00202747  0.54883565  1
  S2-  S226  1  0.12805534  0.25017400  0.04787029  1
  S2-  S227  1  0.12955675  0.24340980  0.54290667  1
  S2-  S228  1  0.12536077  0.49912470  0.04513513  1
  S2-  S229  1  0.13536251  0.49256473  0.54525612  1
  S2-  S230  1  0.12360411  0.75151197  0.04407841  1
  S2-  S231  1  0.13225481  0.74532924  0.55215648  1
  S2-  S232  1  0.37915314  0.00372409  0.04228310  1
  S2-  S233  1  0.37714608  -0.00354282  0.54697613  1
  S2-  S234  1  0.37444046  0.25123810  0.03555540  1
  S2-  S235  1  0.38717081  0.23897444  0.54251235  1
  S2-  S236  1  0.37614385  0.49739251  0.04625687  1
  S2-  S237  1  0.38659961  0.49342427  0.55179498  1
  S2-  S238  1  0.38214227  0.74727512  0.05683928  1
  S2-  S239  1  0.37469319  0.74787905  0.53993900  1
  S2-  S240  1  0.63196446  0.00320805  0.03965648  1
  S2-  S241  1  0.63374825  -0.00639953  0.54740248  1
  S2-  S242  1  0.62811016  0.25162403  0.05401740  1
  S2-  S243  1  0.63633571  0.24978757  0.53850511  1
  S2-  S244  1  0.63165431  0.49128380  0.04394638  1
  S2-  S245  1  0.63202307  0.50080003  0.53135374  1
  S2-  S246  1  0.62369539  0.74260277  0.05346238  1
  S2-  S247  1  0.63432547  0.74206019  0.53844551  1
  S2-  S248  1  0.87519393  -0.00172073  0.04658452  1
  S2-  S249  1  0.87867668  -0.00967994  0.54352861  1
  S2-  S250  1  0.87979420  0.24858916  0.04303901  1
  S2-  S251  1  0.87820010  0.25231774  0.54688006  1
  S2-  S252  1  0.87526803  0.49701613  0.04153690  1
  S2-  S253  1  0.87714991  0.49740954  0.54112726  1
  S2-  S254  1  0.87427300  0.74856480  0.04978199  1
  S2-  S255  1  0.88055203  0.74100593  0.55086762  1
