# generated using pymatgen
data_La9Ce10Pr6Nd4Sm3(BiS2)32
_symmetry_space_group_name_H-M   'P 1'
_cell_length_a   16.15376996
_cell_length_b   16.18134890
_cell_length_c   27.14608697
_cell_angle_alpha   90.00006631
_cell_angle_beta   89.60822263
_cell_angle_gamma   89.99003528
_symmetry_Int_Tables_number   1
_chemical_formula_structural   La9Ce10Pr6Nd4Sm3(BiS2)32
_chemical_formula_sum   'La18 Ce20 Pr12 Nd8 Sm6 Bi64 S128'
_cell_volume   7095.54392212
_cell_formula_units_Z   2
loop_
 _symmetry_equiv_pos_site_id
 _symmetry_equiv_pos_as_xyz
  1  'x, y, z'
loop_
 _atom_type_symbol
 _atom_type_oxidation_number
  La3+  3.0
  Ce3+  3.0
  Pr3+  3.0
  Nd3+  3.0
  Sm3+  3.0
  Bi2+  2.0
  S2-  -2.0
loop_
 _atom_site_type_symbol
 _atom_site_label
 _atom_site_symmetry_multiplicity
 _atom_site_fract_x
 _atom_site_fract_y
 _atom_site_fract_z
 _atom_site_occupancy
  La3+  La0  1  0.73286684  0.63298324  0.07865655  1
  La3+  La1  1  0.12215296  0.75340188  0.90113370  1
  La3+  La2  1  0.62461867  0.25468125  0.92437474  1
  La3+  La3  1  0.61025209  0.25449678  0.44144810  1
  La3+  La4  1  -0.02159113  0.87912492  0.56690446  1
  La3+  La5  1  0.22135506  0.37342327  0.58740847  1
  La3+  La6  1  -0.00600590  0.36068566  0.09208775  1
  La3+  La7  1  0.85782699  0.73806345  0.92260552  1
  La3+  La8  1  0.35739237  -0.00352383  0.42060146  1
  La3+  La9  1  0.61371975  0.00189717  0.92317820  1
  La3+  La10  1  0.73943518  0.37865808  0.07870831  1
  La3+  La11  1  0.61535812  0.76321558  0.41061665  1
  La3+  La12  1  0.11506005  0.24884410  0.92748996  1
  La3+  La13  1  0.23508459  0.62887630  0.58395597  1
  La3+  La14  1  0.73031071  0.13162561  0.60060912  1
  La3+  La15  1  0.11849422  0.50116068  0.42972156  1
  La3+  La16  1  0.35788514  0.25416382  0.44225039  1
  La3+  La17  1  0.36743131  0.49073063  0.90923567  1
  Ce3+  Ce18  1  0.86624845  0.25089406  0.94282003  1
  Ce3+  Ce19  1  0.24029848  0.12573072  0.05376708  1
  Ce3+  Ce20  1  0.48295481  0.37593949  0.56425351  1
  Ce3+  Ce21  1  0.85857478  0.75127468  0.44013225  1
  Ce3+  Ce22  1  -0.01741119  0.37560189  0.55396117  1
  Ce3+  Ce23  1  0.11292022  -0.00736912  0.93685261  1
  Ce3+  Ce24  1  0.72842926  0.87577416  0.56039499  1
  Ce3+  Ce25  1  0.23984556  0.62159145  0.05258243  1
  Ce3+  Ce26  1  0.60917289  0.50841168  0.44667678  1
  Ce3+  Ce27  1  -0.00917709  0.12066513  0.05342082  1
  Ce3+  Ce28  1  -0.00464249  0.62390550  0.05541372  1
  Ce3+  Ce29  1  -0.01702630  0.62568008  0.56592918  1
  Ce3+  Ce30  1  0.86835713  0.50020280  0.94930377  1
  Ce3+  Ce31  1  0.49215276  0.12456749  0.05510740  1
  Ce3+  Ce32  1  0.35719053  0.50675849  0.45173775  1
  Ce3+  Ce33  1  0.23474811  0.12405814  0.56466169  1
  Ce3+  Ce34  1  0.35040977  0.75033824  0.43562111  1
  Ce3+  Ce35  1  0.24067840  0.87148983  0.05532951  1
  Ce3+  Ce36  1  0.11119692  0.00081124  0.44092981  1
  Ce3+  Ce37  1  0.48519549  0.62944934  0.56423764  1
  Pr3+  Pr38  1  0.73234183  0.62971580  0.57104431  1
  Pr3+  Pr39  1  -0.01730622  0.12702720  0.55768467  1
  Pr3+  Pr40  1  0.48151872  0.12540075  0.56729870  1
  Pr3+  Pr41  1  0.62130451  0.49696212  0.93720622  1
  Pr3+  Pr42  1  0.23478296  0.87727146  0.56764383  1
  Pr3+  Pr43  1  0.37045403  0.74692108  0.93316148  1
  Pr3+  Pr44  1  0.86254205  -0.00793362  0.92578472  1
  Pr3+  Pr45  1  0.48989739  0.37013566  0.05782926  1
  Pr3+  Pr46  1  0.10970105  0.25278059  0.43834845  1
  Pr3+  Pr47  1  0.11836982  0.49853054  0.93479261  1
  Pr3+  Pr48  1  0.36311680  0.23943130  0.91798367  1
  Pr3+  Pr49  1  0.48560099  0.62189861  0.05894264  1
  Nd3+  Nd50  1  0.74192619  0.12084526  0.05637470  1
  Nd3+  Nd51  1  0.48177116  0.87817781  0.55721827  1
  Nd3+  Nd52  1  0.10859081  0.75214478  0.44316773  1
  Nd3+  Nd53  1  0.61077142  0.00423529  0.44503140  1
  Nd3+  Nd54  1  0.85677061  0.50486002  0.44506169  1
  Nd3+  Nd55  1  0.36649429  -0.00206911  0.93540619  1
  Nd3+  Nd56  1  0.73282905  0.37458666  0.56717248  1
  Nd3+  Nd57  1  -0.00862494  0.86907763  0.05189098  1
  Sm3+  Sm58  1  0.85859711  0.00439677  0.44810639  1
  Sm3+  Sm59  1  0.74232540  0.87277878  0.06013639  1
  Sm3+  Sm60  1  0.24279700  0.37064756  0.05230905  1
  Sm3+  Sm61  1  0.85818289  0.25278828  0.43914346  1
  Sm3+  Sm62  1  0.48930738  0.87499206  0.05987488  1
  Sm3+  Sm63  1  0.61533870  0.74479515  0.94193956  1
  Bi2+  Bi64  1  -0.01311132  0.07061074  0.28162764  1
  Bi2+  Bi65  1  0.00580881  0.14469131  0.76536537  1
  Bi2+  Bi66  1  0.01199665  0.37962401  0.28994838  1
  Bi2+  Bi67  1  0.01251487  0.32329260  0.81654764  1
  Bi2+  Bi68  1  0.00292724  0.68731679  0.29487866  1
  Bi2+  Bi69  1  -0.00885897  0.51784872  0.81392348  1
  Bi2+  Bi70  1  0.03526359  0.87526958  0.30859019  1
  Bi2+  Bi71  1  0.01019638  0.92344040  0.78465436  1
  Bi2+  Bi72  1  0.18104231  0.11695890  0.27868173  1
  Bi2+  Bi73  1  0.24587949  0.10622692  0.78543222  1
  Bi2+  Bi74  1  0.26925708  0.37902988  0.29159593  1
  Bi2+  Bi75  1  0.27120896  0.36654785  0.77659851  1
  Bi2+  Bi76  1  0.30445988  0.63034641  0.29529753  1
  Bi2+  Bi77  1  0.26252708  0.61657149  0.79035883  1
  Bi2+  Bi78  1  0.23710721  0.86096489  0.29713969  1
  Bi2+  Bi79  1  0.29981895  0.91658307  0.76380302  1
  Bi2+  Bi80  1  0.52924013  0.16169998  0.27765172  1
  Bi2+  Bi81  1  0.52874328  0.07182868  0.74756976  1
  Bi2+  Bi82  1  0.47069367  0.38120817  0.28905745  1
  Bi2+  Bi83  1  0.53278481  0.28392307  0.78925176  1
  Bi2+  Bi84  1  0.49733491  0.58583732  0.30000665  1
  Bi2+  Bi85  1  0.49815195  0.73845311  0.80877719  1
  Bi2+  Bi86  1  0.49596347  0.90620307  0.29213246  1
  Bi2+  Bi87  1  0.47083283  0.93166610  0.82200572  1
  Bi2+  Bi88  1  0.78391826  0.14203337  0.30545862  1
  Bi2+  Bi89  1  0.75686627  0.11416010  0.79637467  1
  Bi2+  Bi90  1  0.75270561  0.39347830  0.31460885  1
  Bi2+  Bi91  1  0.76591295  0.40453544  0.80633747  1
  Bi2+  Bi92  1  0.81494957  0.63978945  0.27211107  1
  Bi2+  Bi93  1  0.64135617  0.60592863  0.81094932  1
  Bi2+  Bi94  1  0.76129794  0.88798364  0.28935536  1
  Bi2+  Bi95  1  0.77840733  0.85019390  0.78620589  1
  Bi2+  Bi96  1  0.10897465  -0.03631525  0.21334741  1
  Bi2+  Bi97  1  0.17984270  0.00213402  0.69026163  1
  Bi2+  Bi98  1  0.16380026  0.25005318  0.19240674  1
  Bi2+  Bi99  1  0.12632021  0.27241261  0.71714721  1
  Bi2+  Bi100  1  0.10880908  0.56004439  0.22872909  1
  Bi2+  Bi101  1  0.09560325  0.48897508  0.71444309  1
  Bi2+  Bi102  1  0.17355074  0.72790546  0.18310874  1
  Bi2+  Bi103  1  0.11389245  0.74386820  0.71461099  1
  Bi2+  Bi104  1  0.35520205  0.07483774  0.22958255  1
  Bi2+  Bi105  1  0.36028663  0.00214501  0.65040166  1
  Bi2+  Bi106  1  0.41789501  0.25055457  0.19437611  1
  Bi2+  Bi107  1  0.37611729  0.17399399  0.70672961  1
  Bi2+  Bi108  1  0.38362922  0.51074100  0.21472335  1
  Bi2+  Bi109  1  0.46551584  0.52575835  0.71677482  1
  Bi2+  Bi110  1  0.36118255  0.77970099  0.21328395  1
  Bi2+  Bi111  1  0.38656229  0.76120851  0.71214936  1
  Bi2+  Bi112  1  0.66912073  0.02956671  0.22873090  1
  Bi2+  Bi113  1  0.62288125  -0.09334010  0.71792156  1
  Bi2+  Bi114  1  0.64336588  0.31078730  0.23099347  1
  Bi2+  Bi115  1  0.61207402  0.30331075  0.69026005  1
  Bi2+  Bi116  1  0.61883288  0.50321423  0.21061190  1
  Bi2+  Bi117  1  0.66495400  0.49115030  0.71185818  1
  Bi2+  Bi118  1  0.61247563  0.75777407  0.20679628  1
  Bi2+  Bi119  1  0.67691027  0.71283892  0.71529695  1
  Bi2+  Bi120  1  0.84922559  0.01158354  0.18687308  1
  Bi2+  Bi121  1  0.89500983  -0.01985826  0.69199269  1
  Bi2+  Bi122  1  0.89114573  0.20464400  0.21408638  1
  Bi2+  Bi123  1  0.87808924  0.30251734  0.73289577  1
  Bi2+  Bi124  1  0.87997394  0.47640083  0.21902053  1
  Bi2+  Bi125  1  0.86973109  0.50108737  0.71501284  1
  Bi2+  Bi126  1  0.88940995  0.79747818  0.21883234  1
  Bi2+  Bi127  1  0.87103892  0.69151931  0.73966219  1
  S2-  S128  1  0.01599837  0.19618999  0.14174558  1
  S2-  S129  1  -0.01668800  0.11249285  0.65857796  1
  S2-  S130  1  0.06123471  0.41837752  0.18267328  1
  S2-  S131  1  0.04636086  0.36630559  0.64351633  1
  S2-  S132  1  0.02342525  0.65058400  0.15131392  1
  S2-  S133  1  0.08849229  0.61801504  0.64658753  1
  S2-  S134  1  -0.01862612  0.90172202  0.15133119  1
  S2-  S135  1  0.00745546  0.84414140  0.66554974  1
  S2-  S136  1  0.23734876  0.11336532  0.15172941  1
  S2-  S137  1  0.23875805  0.22554996  0.64597673  1
  S2-  S138  1  0.27937693  0.34005004  0.14915240  1
  S2-  S139  1  0.24429361  0.45184625  0.68168009  1
  S2-  S140  1  0.29413273  0.61026306  0.14574798  1
  S2-  S141  1  0.38361033  0.62305819  0.64838128  1
  S2-  S142  1  0.26267856  0.87638390  0.15368989  1
  S2-  S143  1  0.23205393  0.77213144  0.65109250  1
  S2-  S144  1  0.48078810  0.10700365  0.15358826  1
  S2-  S145  1  0.57685003  0.13689017  0.65356191  1
  S2-  S146  1  0.59132180  0.36687640  0.14143014  1
  S2-  S147  1  0.46265191  0.39188125  0.66378054  1
  S2-  S148  1  0.57348655  0.63173187  0.14738153  1
  S2-  S149  1  0.60015338  0.62485370  0.64205832  1
  S2-  S150  1  0.49954126  0.85384968  0.15949440  1
  S2-  S151  1  0.50095856  0.84794026  0.65675441  1
  S2-  S152  1  0.73176087  0.13621790  0.15630773  1
  S2-  S153  1  0.76897752  0.08058311  0.70042428  1
  S2-  S154  1  0.85326665  0.34154641  0.15759070  1
  S2-  S155  1  0.77305401  0.28298909  0.64994618  1
  S2-  S156  1  0.76097883  0.52156767  0.15462083  1
  S2-  S157  1  0.86326781  0.63875027  0.64364847  1
  S2-  S158  1  0.74298384  0.77714951  0.14431624  1
  S2-  S159  1  0.76968696  0.87023849  0.65477381  1
  S2-  S160  1  0.20966316  0.00589808  0.35862768  1
  S2-  S161  1  0.12815917  -0.08659689  0.84927243  1
  S2-  S162  1  0.12933998  0.31078072  0.34292907  1
  S2-  S163  1  0.22160568  0.24874602  0.84574604  1
  S2-  S164  1  0.06047315  0.51747295  0.33247409  1
  S2-  S165  1  0.21695417  0.48315499  0.84775564  1
  S2-  S166  1  0.21393356  0.72674157  0.36342386  1
  S2-  S167  1  0.09810509  0.66647625  0.81168187  1
  S2-  S168  1  0.43247862  0.05388671  0.33081957  1
  S2-  S169  1  0.37304878  0.09647731  0.85268551  1
  S2-  S170  1  0.36044377  0.27282030  0.34106107  1
  S2-  S171  1  0.39974025  0.35172009  0.84027451  1
  S2-  S172  1  0.27169612  0.50069617  0.36578603  1
  S2-  S173  1  0.42089211  0.56496300  0.81913223  1
  S2-  S174  1  0.37905324  0.85259805  0.35572236  1
  S2-  S175  1  0.27820227  0.74483009  0.84721449  1
  S2-  S176  1  0.62004394  -0.07404698  0.35539204  1
  S2-  S177  1  0.73350805  -0.02700131  0.85148341  1
  S2-  S178  1  0.64967361  0.23933298  0.34389555  1
  S2-  S179  1  0.60123230  0.14239707  0.84444350  1
  S2-  S180  1  0.63528207  0.50305569  0.34997911  1
  S2-  S181  1  0.61459403  0.39222329  0.85331460  1
  S2-  S182  1  0.55851789  0.74310079  0.31038619  1
  S2-  S183  1  0.70948873  0.74394007  0.85964227  1
  S2-  S184  1  0.85097523  0.00093753  0.34922135  1
  S2-  S185  1  0.91299407  0.05650825  0.83188936  1
  S2-  S186  1  0.88654720  0.27736248  0.34194642  1
  S2-  S187  1  0.78244125  0.25451394  0.85748007  1
  S2-  S188  1  0.84861299  0.51434088  0.34499284  1
  S2-  S189  1  0.85384811  0.57742209  0.86188170  1
  S2-  S190  1  0.76912194  0.74762261  0.35553061  1
  S2-  S191  1  0.92983906  0.80202715  0.83413054  1
  S2-  S192  1  -0.01739633  0.12776193  0.44823996  1
  S2-  S193  1  -0.00988981  0.12144027  0.94678810  1
  S2-  S194  1  -0.01789931  0.37825059  0.44884852  1
  S2-  S195  1  -0.00871005  0.37539363  0.94985923  1
  S2-  S196  1  -0.01528081  0.62648637  0.45343516  1
  S2-  S197  1  0.00123671  0.62930816  0.94872975  1
  S2-  S198  1  -0.01758447  0.87877287  0.45571271  1
  S2-  S199  1  -0.01047079  0.86810240  0.94723099  1
  S2-  S200  1  0.23378652  0.12962868  0.45552162  1
  S2-  S201  1  0.23567805  0.11708960  0.94933700  1
  S2-  S202  1  0.23340798  0.37425602  0.46449088  1
  S2-  S203  1  0.24371612  0.37053530  0.95033907  1
  S2-  S204  1  0.23235499  0.62668937  0.47036857  1
  S2-  S205  1  0.24568726  0.62092787  0.94790665  1
  S2-  S206  1  0.23011123  0.87645001  0.46062918  1
  S2-  S207  1  0.24444776  0.87274940  0.95014258  1
  S2-  S208  1  0.48582412  0.12743547  0.45411456  1
  S2-  S209  1  0.49261961  0.12537772  0.95197032  1
  S2-  S210  1  0.48438118  0.38159131  0.45416703  1
  S2-  S211  1  0.49023097  0.37287309  0.95233329  1
  S2-  S212  1  0.48462869  0.63268860  0.45096788  1
  S2-  S213  1  0.49243652  0.61936909  0.94969457  1
  S2-  S214  1  0.48865038  0.87664337  0.45325291  1
  S2-  S215  1  0.49447565  0.87309972  0.95355658  1
  S2-  S216  1  0.73742299  0.12740171  0.45106317  1
  S2-  S217  1  0.74430416  0.11980302  0.95196972  1
  S2-  S218  1  0.73635570  0.37754738  0.45887584  1
  S2-  S219  1  0.74647719  0.37752956  0.96442542  1
  S2-  S220  1  0.73296420  0.62985683  0.46024342  1
  S2-  S221  1  0.73673462  0.62222180  0.96686006  1
  S2-  S222  1  0.73810819  0.88070080  0.45620081  1
  S2-  S223  1  0.73781896  0.87012161  0.95804439  1
  S2-  S224  1  0.11565152  -0.00288226  0.04459005  1
  S2-  S225  1  0.10800002  0.00146033  0.54831141  1
  S2-  S226  1  0.11684449  0.25034095  0.03751695  1
  S2-  S227  1  0.10690920  0.24803767  0.54413210  1
  S2-  S228  1  0.11770913  0.49178816  0.04640096  1
  S2-  S229  1  0.10575091  0.49814259  0.54361334  1
  S2-  S230  1  0.11907244  0.74879368  0.04193864  1
  S2-  S231  1  0.10348206  0.75563824  0.54733789  1
  S2-  S232  1  0.36695877  -0.00215060  0.04359339  1
  S2-  S233  1  0.35848509  0.00343830  0.53526427  1
  S2-  S234  1  0.36589531  0.24583009  0.03699374  1
  S2-  S235  1  0.36151695  0.25184421  0.55000143  1
  S2-  S236  1  0.36553989  0.49402474  0.04229865  1
  S2-  S237  1  0.35521474  0.49481452  0.55478712  1
  S2-  S238  1  0.36812859  0.75064342  0.04228469  1
  S2-  S239  1  0.36077916  0.75462900  0.54408199  1
  S2-  S240  1  0.61687182  -0.00552928  0.04621627  1
  S2-  S241  1  0.61035197  0.00487760  0.55182093  1
  S2-  S242  1  0.61933407  0.24456790  0.04024918  1
  S2-  S243  1  0.61036911  0.25034339  0.54849613  1
  S2-  S244  1  0.61308507  0.50017957  0.04392842  1
  S2-  S245  1  0.60956269  0.49622185  0.55069797  1
  S2-  S246  1  0.60922204  0.75417987  0.04416238  1
  S2-  S247  1  0.60822577  0.75561624  0.54262135  1
  S2-  S248  1  0.86572173  -0.00597867  0.03952188  1
  S2-  S249  1  0.85034541  0.00878207  0.55326500  1
  S2-  S250  1  0.86704990  0.24512388  0.04721261  1
  S2-  S251  1  0.85747829  0.24863011  0.54351513  1
  S2-  S252  1  0.87878590  0.49450066  0.05368007  1
  S2-  S253  1  0.85628358  0.49754258  0.55093169  1
  S2-  S254  1  0.86778635  0.74710030  0.04218739  1
  S2-  S255  1  0.85703148  0.75477694  0.54449509  1
