# generated using pymatgen
data_La9Ce10Pr6Nd4Sm3(BiS2)32
_symmetry_space_group_name_H-M   'P 1'
_cell_length_a   16.09129794
_cell_length_b   16.13160145
_cell_length_c   27.32902266
_cell_angle_alpha   90.35154583
_cell_angle_beta   89.81858230
_cell_angle_gamma   89.87694312
_symmetry_Int_Tables_number   1
_chemical_formula_structural   La9Ce10Pr6Nd4Sm3(BiS2)32
_chemical_formula_sum   'La18 Ce20 Pr12 Nd8 Sm6 Bi64 S128'
_cell_volume   7093.83836748
_cell_formula_units_Z   2
loop_
 _symmetry_equiv_pos_site_id
 _symmetry_equiv_pos_as_xyz
  1  'x, y, z'
loop_
 _atom_type_symbol
 _atom_type_oxidation_number
  La3+  3.0
  Ce3+  3.0
  Pr3+  3.0
  Nd3+  3.0
  Sm3+  3.0
  Bi2+  2.0
  S2-  -2.0
loop_
 _atom_site_type_symbol
 _atom_site_label
 _atom_site_symmetry_multiplicity
 _atom_site_fract_x
 _atom_site_fract_y
 _atom_site_fract_z
 _atom_site_occupancy
  La3+  La0  1  0.47887542  0.12298229  0.56336118  1
  La3+  La1  1  0.88109422  0.01396963  0.92210217  1
  La3+  La2  1  0.48011151  0.37527435  0.56529502  1
  La3+  La3  1  0.35462932  -0.01051052  0.43174600  1
  La3+  La4  1  0.77022055  0.39675801  0.07006018  1
  La3+  La5  1  0.74117092  0.62432528  0.59886247  1
  La3+  La6  1  0.62541231  0.75581859  0.90722016  1
  La3+  La7  1  0.84742436  0.48712770  0.42069724  1
  La3+  La8  1  -0.01581633  0.37785083  0.56858497  1
  La3+  La9  1  0.51072887  0.39656530  0.07620287  1
  La3+  La10  1  0.13749025  0.01341934  0.93504372  1
  La3+  La11  1  0.39920516  0.26822047  0.88857113  1
  La3+  La12  1  0.35980670  0.24885525  0.40817260  1
  La3+  La13  1  0.76602232  0.13753056  0.06294327  1
  La3+  La14  1  0.00651680  0.64427491  0.09986963  1
  La3+  La15  1  0.84454111  0.75308314  0.40144753  1
  La3+  La16  1  0.25352046  0.39521977  0.06830998  1
  La3+  La17  1  0.25576839  0.89310637  0.07184774  1
  Ce3+  Ce18  1  0.60507016  0.24593748  0.43989369  1
  Ce3+  Ce19  1  0.00421371  0.39317242  0.05482309  1
  Ce3+  Ce20  1  0.25591908  0.14129240  0.05844151  1
  Ce3+  Ce21  1  0.50386817  0.89290874  0.07044064  1
  Ce3+  Ce22  1  0.85181207  -0.00000970  0.43185197  1
  Ce3+  Ce23  1  0.63099032  0.51446744  0.94788801  1
  Ce3+  Ce24  1  0.25177100  0.64592804  0.05974018  1
  Ce3+  Ce25  1  0.23402147  0.37342158  0.56511332  1
  Ce3+  Ce26  1  0.88529289  0.76373663  0.92954215  1
  Ce3+  Ce27  1  0.88166082  0.26806866  0.92627294  1
  Ce3+  Ce28  1  0.38656112  0.51112608  0.94576004  1
  Ce3+  Ce29  1  0.63220419  0.26718758  0.95236327  1
  Ce3+  Ce30  1  0.38826875  0.01852591  0.94718586  1
  Ce3+  Ce31  1  0.38558975  0.76399506  0.94447797  1
  Ce3+  Ce32  1  0.10491715  -0.00647793  0.43916131  1
  Ce3+  Ce33  1  0.35634942  0.74637288  0.43655159  1
  Ce3+  Ce34  1  0.62784798  0.01610161  0.94909298  1
  Ce3+  Ce35  1  0.14340926  0.26887808  0.93851832  1
  Ce3+  Ce36  1  0.10550454  0.74508798  0.43465716  1
  Ce3+  Ce37  1  0.85438400  0.24488200  0.44096207  1
  Pr3+  Pr38  1  0.50928199  0.14909274  0.07339790  1
  Pr3+  Pr39  1  0.73059513  0.37337101  0.56938703  1
  Pr3+  Pr40  1  0.00811638  0.13830230  0.05236180  1
  Pr3+  Pr41  1  0.76036653  0.88646022  0.05071385  1
  Pr3+  Pr42  1  0.48272088  0.86818730  0.56155524  1
  Pr3+  Pr43  1  0.22509229  0.87054858  0.56730898  1
  Pr3+  Pr44  1  0.11164502  0.24509611  0.44458590  1
  Pr3+  Pr45  1  -0.00320666  0.89996808  0.09591736  1
  Pr3+  Pr46  1  0.35930907  0.49851746  0.43540352  1
  Pr3+  Pr47  1  0.76178785  0.64851459  0.06021081  1
  Pr3+  Pr48  1  0.72634576  0.11964995  0.57518111  1
  Pr3+  Pr49  1  0.88214782  0.51860357  0.92987544  1
  Nd3+  Nd50  1  0.61090551  0.74378725  0.44086713  1
  Nd3+  Nd51  1  0.50741865  0.64209014  0.07305034  1
  Nd3+  Nd52  1  0.60808253  -0.00254887  0.43969527  1
  Nd3+  Nd53  1  0.23662159  0.11855484  0.56873130  1
  Nd3+  Nd54  1  0.60813305  0.49843191  0.44607984  1
  Nd3+  Nd55  1  -0.02268790  0.11789767  0.55714045  1
  Nd3+  Nd56  1  0.47882650  0.62432269  0.56975812  1
  Nd3+  Nd57  1  0.10515487  0.49567843  0.43427996  1
  Sm3+  Sm58  1  0.23099877  0.62314202  0.55913485  1
  Sm3+  Sm59  1  0.73251555  0.87106638  0.56704973  1
  Sm3+  Sm60  1  -0.03072666  0.62430146  0.53947947  1
  Sm3+  Sm61  1  0.13357939  0.51693678  0.94549176  1
  Sm3+  Sm62  1  -0.02710543  0.86762939  0.54578194  1
  Sm3+  Sm63  1  0.13172730  0.76587036  0.94861001  1
  Bi2+  Bi64  1  -0.07188580  0.12936103  0.32522389  1
  Bi2+  Bi65  1  0.02217336  0.14620143  0.78402230  1
  Bi2+  Bi66  1  -0.01206378  0.38723840  0.29466230  1
  Bi2+  Bi67  1  0.02871742  0.34690945  0.77852279  1
  Bi2+  Bi68  1  0.01148117  0.62320860  0.27856931  1
  Bi2+  Bi69  1  0.04129339  0.63498083  0.74771273  1
  Bi2+  Bi70  1  -0.00082729  0.95427700  0.29927204  1
  Bi2+  Bi71  1  0.01575066  0.82642837  0.78908260  1
  Bi2+  Bi72  1  0.24539001  0.11081013  0.29054204  1
  Bi2+  Bi73  1  0.25849871  0.13189761  0.79075916  1
  Bi2+  Bi74  1  0.23512177  0.35806835  0.28701764  1
  Bi2+  Bi75  1  0.21295222  0.40615108  0.76711429  1
  Bi2+  Bi76  1  0.27668500  0.65335184  0.30621343  1
  Bi2+  Bi77  1  0.21855243  0.60724516  0.80610816  1
  Bi2+  Bi78  1  0.29102811  0.84907442  0.27058967  1
  Bi2+  Bi79  1  0.23299951  0.88199631  0.79296369  1
  Bi2+  Bi80  1  0.53533233  0.11072299  0.31091033  1
  Bi2+  Bi81  1  0.52425455  0.12795711  0.79572933  1
  Bi2+  Bi82  1  0.52485034  0.44180636  0.31704553  1
  Bi2+  Bi83  1  0.57227998  0.42736803  0.82231716  1
  Bi2+  Bi84  1  0.46428904  0.62584915  0.34270351  1
  Bi2+  Bi85  1  0.40085853  0.64819872  0.78215038  1
  Bi2+  Bi86  1  0.52383068  0.76713130  0.26786128  1
  Bi2+  Bi87  1  0.42812015  0.89794074  0.79831379  1
  Bi2+  Bi88  1  0.73286451  0.13307422  0.34975322  1
  Bi2+  Bi89  1  0.74734592  0.08121485  0.80047418  1
  Bi2+  Bi90  1  0.74469158  0.29168112  0.28040310  1
  Bi2+  Bi91  1  0.74975437  0.36084442  0.78918979  1
  Bi2+  Bi92  1  0.73175655  0.61232571  0.30015889  1
  Bi2+  Bi93  1  0.75873434  0.61488849  0.79340078  1
  Bi2+  Bi94  1  0.70797333  0.96686937  0.28383013  1
  Bi2+  Bi95  1  0.78665449  0.89723397  0.76831241  1
  Bi2+  Bi96  1  0.10925989  0.03828326  0.21307288  1
  Bi2+  Bi97  1  0.10175174  -0.06139853  0.71009954  1
  Bi2+  Bi98  1  0.04819207  0.22102358  0.25071683  1
  Bi2+  Bi99  1  0.15490779  0.23409643  0.71650248  1
  Bi2+  Bi100  1  0.18647308  0.53279025  0.20949252  1
  Bi2+  Bi101  1  0.18178051  0.54280281  0.67980065  1
  Bi2+  Bi102  1  0.12824825  0.78446324  0.22406489  1
  Bi2+  Bi103  1  0.16695528  0.75342729  0.67899995  1
  Bi2+  Bi104  1  0.42559570  -0.02286971  0.22832388  1
  Bi2+  Bi105  1  0.34841948  0.00849158  0.70970801  1
  Bi2+  Bi106  1  0.34926181  0.23647682  0.17389725  1
  Bi2+  Bi107  1  0.47100234  0.26017828  0.68790344  1
  Bi2+  Bi108  1  0.38572877  0.53519757  0.23390656  1
  Bi2+  Bi109  1  0.38100837  0.49824777  0.71080617  1
  Bi2+  Bi110  1  0.38120767  0.72027052  0.19454518  1
  Bi2+  Bi111  1  0.35125975  0.79279608  0.70731020  1
  Bi2+  Bi112  1  0.60131273  -0.09930223  0.19389483  1
  Bi2+  Bi113  1  0.58298191  -0.03507209  0.73875251  1
  Bi2+  Bi114  1  0.60484823  0.20048378  0.22131047  1
  Bi2+  Bi115  1  0.68948449  0.20919843  0.72073886  1
  Bi2+  Bi116  1  0.61026091  0.52896204  0.22596073  1
  Bi2+  Bi117  1  0.59060486  0.48561341  0.71765005  1
  Bi2+  Bi118  1  0.63775766  0.71010035  0.17710314  1
  Bi2+  Bi119  1  0.60687203  0.75230325  0.71547712  1
  Bi2+  Bi120  1  0.86584364  0.01738023  0.21968635  1
  Bi2+  Bi121  1  0.88359779  0.01780832  0.69688137  1
  Bi2+  Bi122  1  0.86463709  0.22533235  0.20291216  1
  Bi2+  Bi123  1  0.88020957  0.26060361  0.71815624  1
  Bi2+  Bi124  1  0.85065801  0.47916926  0.20247250  1
  Bi2+  Bi125  1  0.91913684  0.49929749  0.70523618  1
  Bi2+  Bi126  1  0.82769319  0.76850659  0.20842278  1
  Bi2+  Bi127  1  0.89369294  0.75927289  0.70469386  1
  S2-  S128  1  -0.01570323  0.06181254  0.14232329  1
  S2-  S129  1  -0.02698410  0.14424581  0.65543055  1
  S2-  S130  1  -0.08748440  0.36280463  0.13687433  1
  S2-  S131  1  0.11594608  0.39371502  0.63855851  1
  S2-  S132  1  0.02402157  0.53363526  0.18319408  1
  S2-  S133  1  -0.07434898  0.62507504  0.63517945  1
  S2-  S134  1  -0.01114371  0.77424373  0.16901545  1
  S2-  S135  1  -0.03130018  0.88293210  0.64448889  1
  S2-  S136  1  0.24628828  0.10772670  0.15496672  1
  S2-  S137  1  0.36639694  0.13699346  0.64507277  1
  S2-  S138  1  0.23308476  0.37159479  0.16802875  1
  S2-  S139  1  0.35696782  0.36847390  0.64213290  1
  S2-  S140  1  0.18566000  0.66436850  0.15050177  1
  S2-  S141  1  0.34469022  0.61463382  0.63839427  1
  S2-  S142  1  0.14851177  0.90146789  0.15394510  1
  S2-  S143  1  0.21507182  0.99406524  0.64255572  1
  S2-  S144  1  0.49294907  0.08145730  0.16759552  1
  S2-  S145  1  0.59109755  0.14278017  0.64672364  1
  S2-  S146  1  0.51485142  0.28907100  0.15630477  1
  S2-  S147  1  0.59850263  0.37336364  0.64515813  1
  S2-  S148  1  0.49059262  0.52294070  0.14885930  1
  S2-  S149  1  0.57636488  0.62960907  0.65469660  1
  S2-  S150  1  0.38431919  0.87779636  0.14494646  1
  S2-  S151  1  0.52678438  0.87461304  0.65988064  1
  S2-  S152  1  0.73900997  0.13129115  0.16268243  1
  S2-  S153  1  0.75085347  -0.00960108  0.64319435  1
  S2-  S154  1  0.71054644  0.42413885  0.16564916  1
  S2-  S155  1  0.86121344  0.37760458  0.64176149  1
  S2-  S156  1  0.84214971  0.62400309  0.14976017  1
  S2-  S157  1  0.75907189  0.54630182  0.69574485  1
  S2-  S158  1  0.83041137  0.90154953  0.14312839  1
  S2-  S159  1  0.74046394  0.77306460  0.65277045  1
  S2-  S160  1  0.15291667  -0.01028294  0.34514655  1
  S2-  S161  1  0.12789357  0.04083213  0.83534405  1
  S2-  S162  1  0.19670356  0.23736313  0.35630037  1
  S2-  S163  1  0.23089767  0.26561960  0.85343979  1
  S2-  S164  1  0.11805939  0.46874393  0.33469402  1
  S2-  S165  1  0.12201193  0.48651537  0.84796925  1
  S2-  S166  1  0.11980163  0.72304971  0.33676001  1
  S2-  S167  1  0.15427602  0.76400268  0.84893561  1
  S2-  S168  1  0.36807663  0.09560613  0.35207313  1
  S2-  S169  1  0.38933354  0.09267983  0.85834435  1
  S2-  S170  1  0.35613044  0.24201450  0.26646872  1
  S2-  S171  1  0.41698303  0.25639080  0.77670795  1
  S2-  S172  1  0.34278235  0.40089034  0.35201438  1
  S2-  S173  1  0.40826719  0.43874940  0.85759605  1
  S2-  S174  1  0.35458864  0.85401997  0.36113253  1
  S2-  S175  1  0.46836760  0.75573510  0.85764710  1
  S2-  S176  1  0.56707836  -0.04382763  0.34468102  1
  S2-  S177  1  0.61457557  -0.00190333  0.85237914  1
  S2-  S178  1  0.52122527  0.27236613  0.35495301  1
  S2-  S179  1  0.57471126  0.25694959  0.86080407  1
  S2-  S180  1  0.68321790  0.47412116  0.35520751  1
  S2-  S181  1  0.62789005  0.58748277  0.85833711  1
  S2-  S182  1  0.68643606  0.74426402  0.34792753  1
  S2-  S183  1  0.68788917  0.77162776  0.81097493  1
  S2-  S184  1  0.83978538  -0.08797968  0.34846781  1
  S2-  S185  1  0.89110186  -0.11546432  0.85092281  1
  S2-  S186  1  0.85988207  0.33662495  0.35772598  1
  S2-  S187  1  0.88406344  0.14518265  0.85165665  1
  S2-  S188  1  0.89496181  0.53284011  0.32215519  1
  S2-  S189  1  0.87126309  0.39147148  0.85542700  1
  S2-  S190  1  0.89731746  0.73174795  0.29910185  1
  S2-  S191  1  0.87746439  0.64088894  0.85419914  1
  S2-  S192  1  -0.01749977  0.12094628  0.45118072  1
  S2-  S193  1  0.01462525  0.14379602  0.94725179  1
  S2-  S194  1  -0.01444774  0.37084473  0.45708401  1
  S2-  S195  1  0.01285860  0.39076591  0.95142111  1
  S2-  S196  1  -0.02397106  0.62266851  0.43611307  1
  S2-  S197  1  0.01572405  0.64074221  0.94564868  1
  S2-  S198  1  -0.02154437  0.86743374  0.44213126  1
  S2-  S199  1  0.01380298  0.88969889  0.94573654  1
  S2-  S200  1  0.22959360  0.11371080  0.46097606  1
  S2-  S201  1  0.26169341  0.14150375  0.95561274  1
  S2-  S202  1  0.22943382  0.37610093  0.45760608  1
  S2-  S203  1  0.25837913  0.39495062  0.96018489  1
  S2-  S204  1  0.22979991  0.62160078  0.45275453  1
  S2-  S205  1  0.25857785  0.63988123  0.95377161  1
  S2-  S206  1  0.22469442  0.86645970  0.45927496  1
  S2-  S207  1  0.26244614  0.88880513  0.95685291  1
  S2-  S208  1  0.48212817  0.12034045  0.45534984  1
  S2-  S209  1  0.50752267  0.14469961  0.96512919  1
  S2-  S210  1  0.48255805  0.37564966  0.45888416  1
  S2-  S211  1  0.50753374  0.38901450  0.96717049  1
  S2-  S212  1  0.48316218  0.62361798  0.46240822  1
  S2-  S213  1  0.50720060  0.63901274  0.96443739  1
  S2-  S214  1  0.48704619  0.86769451  0.45650059  1
  S2-  S215  1  0.50834114  0.88830578  0.96093068  1
  S2-  S216  1  0.73018369  0.12112214  0.46445770  1
  S2-  S217  1  0.75448627  0.13967625  0.95434616  1
  S2-  S218  1  0.72788800  0.36622146  0.46083417  1
  S2-  S219  1  0.75578517  0.39265084  0.95939336  1
  S2-  S220  1  0.73613254  0.62193162  0.44394975  1
  S2-  S221  1  0.75175756  0.64497045  0.95528597  1
  S2-  S222  1  0.73010952  0.87250543  0.45624994  1
  S2-  S223  1  0.74673443  0.88351334  0.94552931  1
  S2-  S224  1  0.13190328  0.01424033  0.04291919  1
  S2-  S225  1  0.09836105  -0.00779448  0.54373921  1
  S2-  S226  1  0.12952868  0.26721877  0.04809307  1
  S2-  S227  1  0.10698481  0.23918509  0.55026477  1
  S2-  S228  1  0.12548683  0.52142280  0.05091556  1
  S2-  S229  1  0.10283632  0.50930813  0.53885342  1
  S2-  S230  1  0.12440874  0.76962306  0.04988268  1
  S2-  S231  1  0.09973383  0.74448769  0.54192879  1
  S2-  S232  1  0.38450694  0.02047240  0.05062152  1
  S2-  S233  1  0.35629032  -0.01093246  0.54324974  1
  S2-  S234  1  0.37837073  0.26920225  0.06000840  1
  S2-  S235  1  0.35297106  0.24634711  0.53907977  1
  S2-  S236  1  0.37606891  0.52173244  0.05137354  1
  S2-  S237  1  0.35368332  0.50205136  0.54051957  1
  S2-  S238  1  0.38201711  0.76185307  0.04778800  1
  S2-  S239  1  0.35255551  0.74952280  0.54421751  1
  S2-  S240  1  0.63344408  0.01528000  0.05491356  1
  S2-  S241  1  0.60568282  -0.00720081  0.54655419  1
  S2-  S242  1  0.64305026  0.26837052  0.05679213  1
  S2-  S243  1  0.60744826  0.24800478  0.54359235  1
  S2-  S244  1  0.63788665  0.52178044  0.05233161  1
  S2-  S245  1  0.61284794  0.50728537  0.55011246  1
  S2-  S246  1  0.62830633  0.76771939  0.05212273  1
  S2-  S247  1  0.61133259  0.74503992  0.54726977  1
  S2-  S248  1  0.88516624  0.01155733  0.03211346  1
  S2-  S249  1  0.85567607  -0.00524919  0.53831259  1
  S2-  S250  1  0.88490175  0.26260723  0.03396148  1
  S2-  S251  1  0.85383585  0.24207121  0.54717807  1
  S2-  S252  1  0.89066219  0.52395358  0.04024973  1
  S2-  S253  1  0.85112642  0.50048192  0.53712556  1
  S2-  S254  1  0.89130327  0.76683320  0.04156146  1
  S2-  S255  1  0.84995005  0.74840621  0.53932844  1
