# generated using pymatgen
data_La9Ce10Pr6Nd4Sm3(BiS2)32
_symmetry_space_group_name_H-M   'P 1'
_cell_length_a   16.14143343
_cell_length_b   16.20090405
_cell_length_c   27.17272480
_cell_angle_alpha   90.01657067
_cell_angle_beta   89.84538594
_cell_angle_gamma   90.00428709
_symmetry_Int_Tables_number   1
_chemical_formula_structural   La9Ce10Pr6Nd4Sm3(BiS2)32
_chemical_formula_sum   'La18 Ce20 Pr12 Nd8 Sm6 Bi64 S128'
_cell_volume   7105.79933378
_cell_formula_units_Z   2
loop_
 _symmetry_equiv_pos_site_id
 _symmetry_equiv_pos_as_xyz
  1  'x, y, z'
loop_
 _atom_type_symbol
 _atom_type_oxidation_number
  La3+  3.0
  Ce3+  3.0
  Pr3+  3.0
  Nd3+  3.0
  Sm3+  3.0
  Bi2+  2.0
  S2-  -2.0
loop_
 _atom_site_type_symbol
 _atom_site_label
 _atom_site_symmetry_multiplicity
 _atom_site_fract_x
 _atom_site_fract_y
 _atom_site_fract_z
 _atom_site_occupancy
  La3+  La0  1  0.87517206  0.24434783  0.92248763  1
  La3+  La1  1  0.39275180  0.50819936  0.38801025  1
  La3+  La2  1  0.12669063  0.50403996  0.42563267  1
  La3+  La3  1  0.88178482  0.50621223  0.43707543  1
  La3+  La4  1  0.74455603  0.62280584  0.06389377  1
  La3+  La5  1  0.85930283  0.49371174  0.91832700  1
  La3+  La6  1  -0.01107657  0.63506261  0.59432236  1
  La3+  La7  1  0.73409201  0.87420564  0.59123169  1
  La3+  La8  1  0.01384707  0.37234985  0.58155364  1
  La3+  La9  1  0.87051782  0.75369759  0.92491863  1
  La3+  La10  1  0.11312542  0.24485848  0.42305825  1
  La3+  La11  1  0.62453015  0.75359421  0.92940082  1
  La3+  La12  1  0.50326945  0.86882262  0.07434325  1
  La3+  La13  1  0.75231580  0.88067695  0.07662968  1
  La3+  La14  1  0.13356103  -0.01012002  0.91432937  1
  La3+  La15  1  -0.01273168  0.62165851  0.06428228  1
  La3+  La16  1  0.12398795  0.25239610  0.92662547  1
  La3+  La17  1  0.37699823  0.23875880  0.40014731  1
  Ce3+  Ce18  1  0.49716491  0.62693672  0.56209797  1
  Ce3+  Ce19  1  0.74279944  0.12857458  0.56008521  1
  Ce3+  Ce20  1  0.36683342  0.24401532  0.93463625  1
  Ce3+  Ce21  1  0.62071455  0.50103455  0.44436130  1
  Ce3+  Ce22  1  0.87270066  -0.00391165  0.93631222  1
  Ce3+  Ce23  1  0.49660199  0.87389066  0.55001192  1
  Ce3+  Ce24  1  -0.00121389  0.12626055  0.56592814  1
  Ce3+  Ce25  1  0.62058412  -0.00408802  0.94198523  1
  Ce3+  Ce26  1  0.75107025  0.36997051  0.06002857  1
  Ce3+  Ce27  1  0.23780103  0.37212289  0.06751604  1
  Ce3+  Ce28  1  -0.00808682  0.36916863  0.06072092  1
  Ce3+  Ce29  1  0.36989798  0.00145392  0.44412326  1
  Ce3+  Ce30  1  0.24548637  0.12280394  0.05940760  1
  Ce3+  Ce31  1  -0.00431790  0.87413687  0.05767632  1
  Ce3+  Ce32  1  0.61822428  0.49444465  0.94570873  1
  Ce3+  Ce33  1  0.49337480  0.12447348  0.06175449  1
  Ce3+  Ce34  1  0.25336183  0.87218686  0.07102539  1
  Ce3+  Ce35  1  0.48786119  0.37115676  0.05778516  1
  Ce3+  Ce36  1  0.24372274  0.62189431  0.55693693  1
  Ce3+  Ce37  1  0.00179216  0.87963331  0.57089670  1
  Pr3+  Pr38  1  0.36757543  0.50327602  0.93634802  1
  Pr3+  Pr39  1  0.87440431  0.25266154  0.44829768  1
  Pr3+  Pr40  1  0.37023516  0.75011966  0.43325668  1
  Pr3+  Pr41  1  0.24647427  0.87513698  0.56803124  1
  Pr3+  Pr42  1  0.75052618  0.37921588  0.56172494  1
  Pr3+  Pr43  1  0.86643788  -0.00331431  0.45416005  1
  Pr3+  Pr44  1  0.87304619  0.74938159  0.44376000  1
  Pr3+  Pr45  1  0.37294801  -0.01224745  0.93794542  1
  Pr3+  Pr46  1  0.11799464  0.50025086  0.94077989  1
  Pr3+  Pr47  1  0.62049648  0.25362485  0.43489588  1
  Pr3+  Pr48  1  0.12213059  0.75110378  0.44263240  1
  Pr3+  Pr49  1  0.25060378  0.12928195  0.56269011  1
  Nd3+  Nd50  1  0.74708573  0.12433763  0.05654167  1
  Nd3+  Nd51  1  0.50529188  0.12502548  0.56760582  1
  Nd3+  Nd52  1  0.62128311  0.00228429  0.43407473  1
  Nd3+  Nd53  1  0.11758280  0.74490123  0.93711811  1
  Nd3+  Nd54  1  0.23501688  0.62710770  0.07908141  1
  Nd3+  Nd55  1  0.49403350  0.37618704  0.55273999  1
  Nd3+  Nd56  1  0.00078340  0.12363593  0.05295581  1
  Nd3+  Nd57  1  0.24958895  0.37312102  0.53898266  1
  Sm3+  Sm58  1  0.49284178  0.61989046  0.05780651  1
  Sm3+  Sm59  1  0.12007243  -0.00081281  0.44105147  1
  Sm3+  Sm60  1  0.61677139  0.24609362  0.94254322  1
  Sm3+  Sm61  1  0.74094937  0.62640412  0.56398001  1
  Sm3+  Sm62  1  0.36599409  0.74567543  0.94251447  1
  Sm3+  Sm63  1  0.62038595  0.74678224  0.43637127  1
  Bi2+  Bi64  1  -0.02450170  0.09841636  0.30219270  1
  Bi2+  Bi65  1  -0.09527150  0.10882274  0.80988706  1
  Bi2+  Bi66  1  0.00438346  0.34691376  0.28302490  1
  Bi2+  Bi67  1  -0.01806676  0.37245418  0.79153906  1
  Bi2+  Bi68  1  -0.01059843  0.59767676  0.29172660  1
  Bi2+  Bi69  1  0.05390631  0.59706352  0.80104861  1
  Bi2+  Bi70  1  0.07071442  0.86927914  0.32977711  1
  Bi2+  Bi71  1  0.02180281  0.87014772  0.79731593  1
  Bi2+  Bi72  1  0.24542147  0.10860840  0.29065368  1
  Bi2+  Bi73  1  0.31575390  0.14577865  0.78277230  1
  Bi2+  Bi74  1  0.25687625  0.38934094  0.26792278  1
  Bi2+  Bi75  1  0.28801171  0.38743595  0.78808478  1
  Bi2+  Bi76  1  0.24224074  0.66631427  0.29788713  1
  Bi2+  Bi77  1  0.25476466  0.65778845  0.77328818  1
  Bi2+  Bi78  1  0.26866498  0.85875381  0.33023005  1
  Bi2+  Bi79  1  0.28334026  0.88923558  0.79053411  1
  Bi2+  Bi80  1  0.51388179  0.09963188  0.28786983  1
  Bi2+  Bi81  1  0.49537853  0.15731903  0.82408219  1
  Bi2+  Bi82  1  0.59903922  0.37131825  0.28707899  1
  Bi2+  Bi83  1  0.46855583  0.43827404  0.81163176  1
  Bi2+  Bi84  1  0.55209102  0.65554976  0.28723139  1
  Bi2+  Bi85  1  0.45859292  0.63290718  0.79500459  1
  Bi2+  Bi86  1  0.42779147  0.87018749  0.26443849  1
  Bi2+  Bi87  1  0.50147132  0.87429080  0.78185978  1
  Bi2+  Bi88  1  0.72756932  0.13329964  0.28375276  1
  Bi2+  Bi89  1  0.70932222  0.09229844  0.80276385  1
  Bi2+  Bi90  1  0.78852118  0.39619822  0.29909920  1
  Bi2+  Bi91  1  0.69843737  0.37998488  0.78670107  1
  Bi2+  Bi92  1  0.75212505  0.61512789  0.28607831  1
  Bi2+  Bi93  1  0.65674708  0.63491665  0.78445056  1
  Bi2+  Bi94  1  0.87713627  0.86007043  0.29180478  1
  Bi2+  Bi95  1  0.74408186  0.87444223  0.79291538  1
  Bi2+  Bi96  1  0.08320501  -0.02069352  0.22762710  1
  Bi2+  Bi97  1  0.12436528  0.02760183  0.72160673  1
  Bi2+  Bi98  1  0.09551902  0.22030697  0.20162292  1
  Bi2+  Bi99  1  0.12575794  0.26783097  0.70429085  1
  Bi2+  Bi100  1  0.15224245  0.49626730  0.20094115  1
  Bi2+  Bi101  1  0.23672813  0.50104563  0.70161756  1
  Bi2+  Bi102  1  0.12868922  0.77958703  0.22981194  1
  Bi2+  Bi103  1  0.13809212  0.76714732  0.70006932  1
  Bi2+  Bi104  1  0.28269848  -0.02821831  0.21700021  1
  Bi2+  Bi105  1  0.38022852  -0.01361993  0.69923358  1
  Bi2+  Bi106  1  0.39223166  0.23076556  0.19318267  1
  Bi2+  Bi107  1  0.43437076  0.28267192  0.73644170  1
  Bi2+  Bi108  1  0.44730636  0.48647418  0.19251717  1
  Bi2+  Bi109  1  0.39629383  0.60781269  0.68008567  1
  Bi2+  Bi110  1  0.38657189  0.72644132  0.19196419  1
  Bi2+  Bi111  1  0.33334247  0.79389510  0.68138229  1
  Bi2+  Bi112  1  0.64096946  -0.01715958  0.21051656  1
  Bi2+  Bi113  1  0.55968781  0.04818370  0.73278772  1
  Bi2+  Bi114  1  0.63663974  0.21885143  0.19812521  1
  Bi2+  Bi115  1  0.65031916  0.27232305  0.69348147  1
  Bi2+  Bi116  1  0.69176793  0.48510765  0.20781589  1
  Bi2+  Bi117  1  0.56519262  0.50953435  0.70951008  1
  Bi2+  Bi118  1  0.71339507  0.79049715  0.23977406  1
  Bi2+  Bi119  1  0.60928914  0.76998488  0.70726073  1
  Bi2+  Bi120  1  0.88972749  0.00480862  0.20389227  1
  Bi2+  Bi121  1  0.93531346  0.01076338  0.70969567  1
  Bi2+  Bi122  1  0.82471181  0.25698699  0.21581181  1
  Bi2+  Bi123  1  0.81524133  0.16488815  0.71243306  1
  Bi2+  Bi124  1  0.89162319  0.49488591  0.20709075  1
  Bi2+  Bi125  1  0.85749908  0.50682664  0.71815645  1
  Bi2+  Bi126  1  0.93687896  0.73788556  0.20852739  1
  Bi2+  Bi127  1  0.87464261  0.73986077  0.72236751  1
  S2-  S128  1  -0.02524214  0.14412917  0.15299193  1
  S2-  S129  1  0.00881631  0.22090120  0.64741776  1
  S2-  S130  1  0.09935926  0.35744908  0.14162326  1
  S2-  S131  1  -0.02509173  0.41123781  0.68502966  1
  S2-  S132  1  0.09261863  0.60843380  0.14729153  1
  S2-  S133  1  -0.01246931  0.61078354  0.71006521  1
  S2-  S134  1  -0.10114079  0.86712154  0.14154277  1
  S2-  S135  1  -0.01873124  0.78457854  0.65164955  1
  S2-  S136  1  0.24563547  0.16018016  0.15657712  1
  S2-  S137  1  0.20893901  0.14086251  0.66340188  1
  S2-  S138  1  0.31850935  0.36673890  0.15664457  1
  S2-  S139  1  0.18377033  0.36899854  0.63571649  1
  S2-  S140  1  0.30692418  0.57607387  0.17089350  1
  S2-  S141  1  0.15190467  0.61927334  0.64095533  1
  S2-  S142  1  0.23455485  0.76573096  0.14715095  1
  S2-  S143  1  0.13781612  0.91147895  0.64625479  1
  S2-  S144  1  0.50064187  0.10515766  0.16105682  1
  S2-  S145  1  0.43231264  0.12754973  0.66007098  1
  S2-  S146  1  0.52074326  0.33797581  0.15373700  1
  S2-  S147  1  0.51300400  0.36902130  0.65327490  1
  S2-  S148  1  0.52411823  0.63427135  0.15569431  1
  S2-  S149  1  0.61193144  0.63373099  0.63875692  1
  S2-  S150  1  0.39352276  0.89213812  0.15248371  1
  S2-  S151  1  0.57285339  0.88384715  0.63787149  1
  S2-  S152  1  0.75079613  0.03127863  0.14288678  1
  S2-  S153  1  0.64415246  0.11647759  0.63966904  1
  S2-  S154  1  0.86668821  0.36605645  0.13519779  1
  S2-  S155  1  0.75157657  0.39546812  0.66302173  1
  S2-  S156  1  0.86003860  0.62627700  0.14176720  1
  S2-  S157  1  0.82522764  0.63493099  0.65056163  1
  S2-  S158  1  0.62959051  0.84961559  0.15036720  1
  S2-  S159  1  0.78549078  0.88144389  0.68943871  1
  S2-  S160  1  0.12466669  0.09789203  0.35894535  1
  S2-  S161  1  0.06818980  0.03323963  0.82097698  1
  S2-  S162  1  0.14406117  0.30859467  0.32592538  1
  S2-  S163  1  0.01200948  0.24175099  0.84665653  1
  S2-  S164  1  0.23791530  0.50928522  0.34100338  1
  S2-  S165  1  0.11395415  0.44569739  0.84300205  1
  S2-  S166  1  0.10280373  0.65611503  0.35714849  1
  S2-  S167  1  0.16081358  0.84222494  0.85448677  1
  S2-  S168  1  0.38406581  0.07231630  0.35453229  1
  S2-  S169  1  0.27923594  0.02654209  0.85267418  1
  S2-  S170  1  0.34040543  0.25179174  0.29570923  1
  S2-  S171  1  0.25678101  0.25413394  0.85665223  1
  S2-  S172  1  0.41860549  0.45236525  0.28464129  1
  S2-  S173  1  0.32943065  0.62952578  0.86682787  1
  S2-  S174  1  0.40385546  0.66924658  0.34399858  1
  S2-  S175  1  0.39444626  0.85030288  0.86382176  1
  S2-  S176  1  0.62793788  0.01097381  0.33307261  1
  S2-  S177  1  0.61380319  -0.10406154  0.86117051  1
  S2-  S178  1  0.53575734  0.24674288  0.34655140  1
  S2-  S179  1  0.64864877  0.24734433  0.84464906  1
  S2-  S180  1  0.57326792  0.51986644  0.35160825  1
  S2-  S181  1  0.68577604  0.50265494  0.85514271  1
  S2-  S182  1  0.63226337  0.76966628  0.33740765  1
  S2-  S183  1  0.74551769  0.73169400  0.85009269  1
  S2-  S184  1  0.86835301  0.00503443  0.35270687  1
  S2-  S185  1  0.87275948  -0.09931425  0.85306900  1
  S2-  S186  1  0.95105271  0.23821952  0.35824835  1
  S2-  S187  1  0.84204660  0.35658683  0.84542799  1
  S2-  S188  1  0.99649548  0.46792445  0.35740832  1
  S2-  S189  1  0.90375954  0.54649818  0.82236286  1
  S2-  S190  1  0.86638741  0.64198473  0.36139717  1
  S2-  S191  1  1.00177376  0.73053797  0.85513705  1
  S2-  S192  1  -0.00771262  0.11775672  0.46158872  1
  S2-  S193  1  0.00407926  0.11395642  0.94749857  1
  S2-  S194  1  -0.00205692  0.37345637  0.46463625  1
  S2-  S195  1  -0.00746565  0.37513319  0.95197493  1
  S2-  S196  1  -0.00361787  0.63128766  0.46741832  1
  S2-  S197  1  -0.00961191  0.61958380  0.95484209  1
  S2-  S198  1  -0.00354085  0.87746382  0.46177890  1
  S2-  S199  1  0.00291321  0.87934368  0.95396731  1
  S2-  S200  1  0.25062487  0.12647654  0.45481471  1
  S2-  S201  1  0.24605029  0.11941979  0.95613517  1
  S2-  S202  1  0.25690638  0.36520052  0.43579299  1
  S2-  S203  1  0.24727601  0.37887993  0.95728368  1
  S2-  S204  1  0.25251629  0.62548953  0.45205092  1
  S2-  S205  1  0.23891280  0.62460164  0.96871714  1
  S2-  S206  1  0.24570229  0.87859939  0.46002361  1
  S2-  S207  1  0.24777405  0.87005347  0.96452358  1
  S2-  S208  1  0.49863726  0.12679697  0.45773382  1
  S2-  S209  1  0.49465423  0.12103679  0.95434408  1
  S2-  S210  1  0.49010480  0.37766433  0.44531121  1
  S2-  S211  1  0.49142298  0.36966077  0.94978619  1
  S2-  S212  1  0.49674760  0.62513221  0.45556927  1
  S2-  S213  1  0.49917929  0.62407293  0.95168408  1
  S2-  S214  1  0.49828312  0.87538593  0.44156388  1
  S2-  S215  1  0.49765886  0.87039639  0.96616054  1
  S2-  S216  1  0.74544451  0.12818055  0.45102458  1
  S2-  S217  1  0.74357080  0.12345529  0.95026615  1
  S2-  S218  1  0.74879166  0.37843081  0.45163227  1
  S2-  S219  1  0.73930378  0.36648784  0.95576929  1
  S2-  S220  1  0.74223120  0.62620113  0.45809525  1
  S2-  S221  1  0.74397260  0.62038728  0.95595642  1
  S2-  S222  1  0.74115915  0.87225585  0.44445946  1
  S2-  S223  1  0.74585890  0.87859844  0.96273627  1
  S2-  S224  1  0.12271206  -0.00408330  0.06042681  1
  S2-  S225  1  0.12355107  0.00666846  0.54395795  1
  S2-  S226  1  0.12208152  0.24570314  0.03659827  1
  S2-  S227  1  0.12378382  0.24549084  0.53641268  1
  S2-  S228  1  0.11682128  0.49568101  0.04582476  1
  S2-  S229  1  0.12645256  0.49660472  0.53752957  1
  S2-  S230  1  0.11408190  0.75070374  0.04500035  1
  S2-  S231  1  0.12135478  0.75408952  0.54819597  1
  S2-  S232  1  0.37186284  0.00126549  0.04755972  1
  S2-  S233  1  0.37415123  -0.00026367  0.55047142  1
  S2-  S234  1  0.36850326  0.24657744  0.04289455  1
  S2-  S235  1  0.37564900  0.25020649  0.55214004  1
  S2-  S236  1  0.36906863  0.49905732  0.04501520  1
  S2-  S237  1  0.37098099  0.49944525  0.55349350  1
  S2-  S238  1  0.37364755  0.74179729  0.04753397  1
  S2-  S239  1  0.37161697  0.75030558  0.54244766  1
  S2-  S240  1  0.61877496  0.00306228  0.04678859  1
  S2-  S241  1  0.62639840  -0.00340702  0.53788276  1
  S2-  S242  1  0.62058411  0.24718628  0.04717807  1
  S2-  S243  1  0.62314797  0.25628306  0.54150353  1
  S2-  S244  1  0.61905851  0.49322353  0.05203635  1
  S2-  S245  1  0.62150043  0.49778398  0.54782810  1
  S2-  S246  1  0.62141922  0.74116903  0.04281193  1
  S2-  S247  1  0.62336318  0.75384809  0.53987114  1
  S2-  S248  1  0.87529235  0.00397271  0.04059189  1
  S2-  S249  1  0.86443789  0.00017086  0.56169113  1
  S2-  S250  1  0.87194851  0.24118111  0.03435911  1
  S2-  S251  1  0.87057373  0.25080393  0.55420813  1
  S2-  S252  1  0.86569891  0.49450797  0.03559122  1
  S2-  S253  1  0.87444876  0.50400030  0.55170872  1
  S2-  S254  1  0.86794311  0.75227468  0.03772291  1
  S2-  S255  1  0.85926927  0.76130038  0.54962003  1
