# generated using pymatgen
data_La9Ce10Pr6Nd4Sm3(BiS2)32
_symmetry_space_group_name_H-M   'P 1'
_cell_length_a   16.17600473
_cell_length_b   16.20071395
_cell_length_c   27.09185167
_cell_angle_alpha   89.82028087
_cell_angle_beta   90.00654320
_cell_angle_gamma   89.89800702
_symmetry_Int_Tables_number   1
_chemical_formula_structural   La9Ce10Pr6Nd4Sm3(BiS2)32
_chemical_formula_sum   'La18 Ce20 Pr12 Nd8 Sm6 Bi64 S128'
_cell_volume   7099.72097268
_cell_formula_units_Z   2
loop_
 _symmetry_equiv_pos_site_id
 _symmetry_equiv_pos_as_xyz
  1  'x, y, z'
loop_
 _atom_type_symbol
 _atom_type_oxidation_number
  La3+  3.0
  Ce3+  3.0
  Pr3+  3.0
  Nd3+  3.0
  Sm3+  3.0
  Bi2+  2.0
  S2-  -2.0
loop_
 _atom_site_type_symbol
 _atom_site_label
 _atom_site_symmetry_multiplicity
 _atom_site_fract_x
 _atom_site_fract_y
 _atom_site_fract_z
 _atom_site_occupancy
  La3+  La0  1  0.25492145  0.37982649  0.56634191  1
  La3+  La1  1  0.62186202  0.25301297  0.43562228  1
  La3+  La2  1  0.88253689  0.00209596  0.43208413  1
  La3+  La3  1  0.51375710  0.12570879  0.57235426  1
  La3+  La4  1  0.12463399  0.02019589  0.87749869  1
  La3+  La5  1  0.51137318  0.63155193  0.57074670  1
  La3+  La6  1  0.12284289  0.75115715  0.93588682  1
  La3+  La7  1  0.13902315  0.49457710  0.41035655  1
  La3+  La8  1  0.26532419  0.12175454  0.58338366  1
  La3+  La9  1  0.38881037  -0.00497052  0.90291757  1
  La3+  La10  1  0.62827689  0.49607789  0.92271432  1
  La3+  La11  1  0.25831920  0.86482574  0.57972667  1
  La3+  La12  1  0.38615158  0.75708221  0.41830095  1
  La3+  La13  1  0.87948053  0.50009199  0.42973121  1
  La3+  La14  1  0.76255186  0.12496015  0.57216272  1
  La3+  La15  1  0.00582822  0.87353121  0.56697636  1
  La3+  La16  1  0.00925330  0.37830252  0.56177431  1
  La3+  La17  1  0.50390963  0.38464694  0.60321100  1
  Ce3+  Ce18  1  0.13895552  0.00078290  0.44434537  1
  Ce3+  Ce19  1  0.62266951  0.50339895  0.43821804  1
  Ce3+  Ce20  1  0.25155465  0.61711090  0.06070817  1
  Ce3+  Ce21  1  0.87270664  0.49551409  0.93634437  1
  Ce3+  Ce22  1  0.62310737  0.24056669  0.93497726  1
  Ce3+  Ce23  1  0.87276514  0.74443908  0.95276739  1
  Ce3+  Ce24  1  0.00206389  0.36981233  0.06362422  1
  Ce3+  Ce25  1  0.01019586  0.62443899  0.54702025  1
  Ce3+  Ce26  1  0.87953670  -0.00609479  0.94128241  1
  Ce3+  Ce27  1  0.12285819  0.49371591  0.94175990  1
  Ce3+  Ce28  1  0.37951504  0.00100076  0.44249012  1
  Ce3+  Ce29  1  0.75291443  0.37651895  0.55851518  1
  Ce3+  Ce30  1  0.00031682  0.87299280  0.06568203  1
  Ce3+  Ce31  1  0.87928167  0.25185217  0.43994695  1
  Ce3+  Ce32  1  0.00140609  0.61730389  0.06473795  1
  Ce3+  Ce33  1  0.13746100  0.24896814  0.44213689  1
  Ce3+  Ce34  1  0.63311331  0.75102308  0.43615256  1
  Ce3+  Ce35  1  0.00752422  0.12524453  0.55429263  1
  Ce3+  Ce36  1  0.75032866  0.61584039  0.06321475  1
  Ce3+  Ce37  1  0.87386319  0.24257340  0.94444689  1
  Pr3+  Pr38  1  0.74492567  0.12295605  0.06981620  1
  Pr3+  Pr39  1  0.25827571  0.62781148  0.54999588  1
  Pr3+  Pr40  1  0.26081595  0.36776368  0.06761036  1
  Pr3+  Pr41  1  0.24762377  0.87098279  0.05418584  1
  Pr3+  Pr42  1  0.49551316  0.86947662  0.06781672  1
  Pr3+  Pr43  1  0.37421996  0.49454913  0.92381578  1
  Pr3+  Pr44  1  0.49983733  0.61770093  0.06064937  1
  Pr3+  Pr45  1  0.75571065  0.62319949  0.56170870  1
  Pr3+  Pr46  1  0.76007279  0.87430435  0.56822793  1
  Pr3+  Pr47  1  0.63302154  0.00134276  0.43674218  1
  Pr3+  Pr48  1  0.24917429  0.11886409  0.04755603  1
  Pr3+  Pr49  1  0.75103828  0.87157207  0.06768230  1
  Nd3+  Nd50  1  0.13305738  0.75998639  0.42884295  1
  Nd3+  Nd51  1  0.62433835  0.74799065  0.94777734  1
  Nd3+  Nd52  1  0.37263055  0.24660543  0.92629593  1
  Nd3+  Nd53  1  0.50102494  0.37012869  0.05285870  1
  Nd3+  Nd54  1  0.50933089  0.87726137  0.55766098  1
  Nd3+  Nd55  1  0.88211810  0.75037025  0.43783714  1
  Nd3+  Nd56  1  0.49418929  0.12121741  0.06189343  1
  Nd3+  Nd57  1  0.37327786  0.74716385  0.93774582  1
  Sm3+  Sm58  1  0.38672237  0.50183345  0.43918837  1
  Sm3+  Sm59  1  0.38488078  0.25165352  0.45097176  1
  Sm3+  Sm60  1  0.75081270  0.36997133  0.05659633  1
  Sm3+  Sm61  1  0.00136097  0.12046100  0.05559432  1
  Sm3+  Sm62  1  0.62431218  -0.00527274  0.94690905  1
  Sm3+  Sm63  1  0.12378773  0.25506505  0.93530268  1
  Bi2+  Bi64  1  0.04467132  0.09158472  0.28735492  1
  Bi2+  Bi65  1  -0.06762513  0.18704210  0.75774320  1
  Bi2+  Bi66  1  0.02067073  0.28149037  0.27460747  1
  Bi2+  Bi67  1  -0.01376994  0.48434192  0.81291661  1
  Bi2+  Bi68  1  -0.00117984  0.64681876  0.28682322  1
  Bi2+  Bi69  1  0.09405602  0.64349772  0.81463714  1
  Bi2+  Bi70  1  -0.00611094  0.89325144  0.29242194  1
  Bi2+  Bi71  1  -0.02339376  0.86277445  0.78851179  1
  Bi2+  Bi72  1  0.22023239  0.12471478  0.34072767  1
  Bi2+  Bi73  1  0.23141624  0.14764882  0.77226855  1
  Bi2+  Bi74  1  0.27248211  0.33843276  0.30013813  1
  Bi2+  Bi75  1  0.23137475  0.42576201  0.78648633  1
  Bi2+  Bi76  1  0.23970306  0.59723013  0.28102184  1
  Bi2+  Bi77  1  0.28911693  0.61486337  0.80890654  1
  Bi2+  Bi78  1  0.24437301  0.93548518  0.28822057  1
  Bi2+  Bi79  1  0.25779409  0.84470963  0.78467688  1
  Bi2+  Bi80  1  0.41184176  0.11819763  0.31720984  1
  Bi2+  Bi81  1  0.55900291  0.13614363  0.79785011  1
  Bi2+  Bi82  1  0.46316763  0.37460897  0.28523276  1
  Bi2+  Bi83  1  0.48923468  0.36440266  0.78950043  1
  Bi2+  Bi84  1  0.48939092  0.60973948  0.28621357  1
  Bi2+  Bi85  1  0.54759159  0.61562417  0.77755432  1
  Bi2+  Bi86  1  0.48753238  0.86554836  0.28004783  1
  Bi2+  Bi87  1  0.60402178  0.86642807  0.78996003  1
  Bi2+  Bi88  1  0.78219862  0.13846084  0.30191885  1
  Bi2+  Bi89  1  0.75341942  0.10401103  0.79546998  1
  Bi2+  Bi90  1  0.72298560  0.47083904  0.31326142  1
  Bi2+  Bi91  1  0.82441146  0.37995838  0.78721226  1
  Bi2+  Bi92  1  0.70645225  0.66831583  0.31427146  1
  Bi2+  Bi93  1  0.78443627  0.65361588  0.79662879  1
  Bi2+  Bi94  1  0.67720243  0.86312400  0.30975074  1
  Bi2+  Bi95  1  0.79284308  0.91659353  0.81069645  1
  Bi2+  Bi96  1  0.08871654  -0.00178497  0.18600213  1
  Bi2+  Bi97  1  0.09636610  0.02685187  0.67497669  1
  Bi2+  Bi98  1  0.18971708  0.20588338  0.23235595  1
  Bi2+  Bi99  1  0.06816356  0.30130139  0.71497580  1
  Bi2+  Bi100  1  0.08457350  0.47467375  0.20264018  1
  Bi2+  Bi101  1  0.09865691  0.51882089  0.71601094  1
  Bi2+  Bi102  1  0.14028636  0.81476047  0.21907678  1
  Bi2+  Bi103  1  0.15339405  0.72924803  0.70659380  1
  Bi2+  Bi104  1  0.35857736  0.02520974  0.21091540  1
  Bi2+  Bi105  1  0.39954106  -0.00866573  0.71517581  1
  Bi2+  Bi106  1  0.43052557  0.20757891  0.19899617  1
  Bi2+  Bi107  1  0.34677527  0.25667585  0.71137281  1
  Bi2+  Bi108  1  0.34170240  0.45674331  0.20308489  1
  Bi2+  Bi109  1  0.34025280  0.55561046  0.69967610  1
  Bi2+  Bi110  1  0.35810158  0.72399050  0.18616288  1
  Bi2+  Bi111  1  0.41637999  0.74883652  0.75632747  1
  Bi2+  Bi112  1  0.54966087  0.04478722  0.24561003  1
  Bi2+  Bi113  1  0.61949262  -0.04853988  0.68331811  1
  Bi2+  Bi114  1  0.64134298  0.32165615  0.24937485  1
  Bi2+  Bi115  1  0.76047707  0.21151679  0.69852635  1
  Bi2+  Bi116  1  0.61504622  0.51141808  0.21681046  1
  Bi2+  Bi117  1  0.65370047  0.51416966  0.70751785  1
  Bi2+  Bi118  1  0.60793369  0.71884817  0.21083794  1
  Bi2+  Bi119  1  0.71437249  0.77977267  0.70788023  1
  Bi2+  Bi120  1  0.88444826  0.00700822  0.19053014  1
  Bi2+  Bi121  1  0.81156196  -0.00651204  0.69423900  1
  Bi2+  Bi122  1  0.83965605  0.27269907  0.20959017  1
  Bi2+  Bi123  1  0.89115889  0.35530288  0.67463602  1
  Bi2+  Bi124  1  0.86430121  0.50981469  0.21828630  1
  Bi2+  Bi125  1  0.84870706  0.54343778  0.70057371  1
  Bi2+  Bi126  1  0.78963984  0.77284565  0.22860193  1
  Bi2+  Bi127  1  0.91232793  0.72748219  0.71136334  1
  S2-  S128  1  -0.00323412  0.13291723  0.15466752  1
  S2-  S129  1  -0.05883965  0.09569342  0.64426746  1
  S2-  S130  1  -0.04402096  0.37594197  0.15952987  1
  S2-  S131  1  0.12269253  0.40481222  0.63840771  1
  S2-  S132  1  -0.01629545  0.60488160  0.16424224  1
  S2-  S133  1  0.02681725  0.63916425  0.64499818  1
  S2-  S134  1  -0.00131458  0.84416799  0.16409362  1
  S2-  S135  1  0.11327651  0.85864701  0.64808817  1
  S2-  S136  1  0.28047734  0.14480343  0.14723517  1
  S2-  S137  1  0.18205304  0.18736881  0.66855975  1
  S2-  S138  1  0.19441146  0.38080578  0.16241250  1
  S2-  S139  1  0.33837187  0.39760497  0.65635049  1
  S2-  S140  1  0.22834851  0.63590474  0.15956646  1
  S2-  S141  1  0.27876704  0.70418315  0.64247242  1
  S2-  S142  1  0.27440817  0.86212456  0.15505435  1
  S2-  S143  1  0.26776267  0.98233661  0.65818085  1
  S2-  S144  1  0.56236328  0.13113243  0.15433487  1
  S2-  S145  1  0.40873409  0.12058030  0.65613918  1
  S2-  S146  1  0.40630380  0.35494115  0.13640934  1
  S2-  S147  1  0.50470418  0.30238893  0.70127846  1
  S2-  S148  1  0.43598174  0.58647577  0.15306764  1
  S2-  S149  1  0.48744093  0.53759144  0.65774345  1
  S2-  S150  1  0.49971392  0.83285550  0.16763005  1
  S2-  S151  1  0.46819077  0.86747724  0.65610200  1
  S2-  S152  1  0.77884319  0.12503149  0.17072462  1
  S2-  S153  1  0.63996952  0.12313546  0.64720106  1
  S2-  S154  1  0.71860059  0.33482138  0.15109420  1
  S2-  S155  1  0.66938512  0.38643803  0.64458858  1
  S2-  S156  1  0.75492524  0.56926014  0.15835652  1
  S2-  S157  1  0.65538600  0.65621952  0.64406195  1
  S2-  S158  1  0.75382638  0.90861803  0.16673411  1
  S2-  S159  1  0.88190146  0.86303195  0.64366439  1
  S2-  S160  1  0.12856982  -0.09805238  0.36310108  1
  S2-  S161  1  0.10356272  0.02777518  0.76689530  1
  S2-  S162  1  0.12428038  0.33192494  0.35581820  1
  S2-  S163  1  0.13386738  0.18789583  0.84455637  1
  S2-  S164  1  0.08936991  0.51195761  0.30571117  1
  S2-  S165  1  0.11488340  0.39264432  0.86192254  1
  S2-  S166  1  0.13234521  0.69504207  0.33332914  1
  S2-  S167  1  0.11838309  0.84380659  0.84860219  1
  S2-  S168  1  0.37503732  -0.09220907  0.35690333  1
  S2-  S169  1  0.27764017  0.00183666  0.82552139  1
  S2-  S170  1  0.47603463  0.25478459  0.36407246  1
  S2-  S171  1  0.41710779  0.16104401  0.83914015  1
  S2-  S172  1  0.28818501  0.48648965  0.35421125  1
  S2-  S173  1  0.34715576  0.36812789  0.85095201  1
  S2-  S174  1  0.34895889  0.69454050  0.31864021  1
  S2-  S175  1  0.39372653  0.82849348  0.85002045  1
  S2-  S176  1  0.65083845  0.03480329  0.33708347  1
  S2-  S177  1  0.55093089  -0.00743491  0.85582114  1
  S2-  S178  1  0.69196124  0.25197943  0.34120889  1
  S2-  S179  1  0.61777355  0.29368855  0.83972166  1
  S2-  S180  1  0.50797368  0.50069343  0.36249102  1
  S2-  S181  1  0.50531866  0.50948247  0.84954674  1
  S2-  S182  1  0.53699845  0.75453428  0.35416868  1
  S2-  S183  1  0.62826843  0.71781504  0.84954878  1
  S2-  S184  1  0.87646853  -0.00407856  0.33038667  1
  S2-  S185  1  0.95171276  -0.00508785  0.85175757  1
  S2-  S186  1  0.89696551  0.25180837  0.34105295  1
  S2-  S187  1  0.89732579  0.26151136  0.84692471  1
  S2-  S188  1  0.88923562  0.51998341  0.32766878  1
  S2-  S189  1  0.76535292  0.50567109  0.85579914  1
  S2-  S190  1  0.91440234  0.76854454  0.33925417  1
  S2-  S191  1  0.88604715  0.75070525  0.85412045  1
  S2-  S192  1  0.00917285  0.12676477  0.44738482  1
  S2-  S193  1  0.00471320  0.12331316  0.95065064  1
  S2-  S194  1  0.00420170  0.37709546  0.45208354  1
  S2-  S195  1  -0.00657408  0.36985913  0.95891256  1
  S2-  S196  1  0.00840556  0.62527943  0.44053353  1
  S2-  S197  1  -0.00223930  0.61910412  0.95604986  1
  S2-  S198  1  0.00244509  0.87593083  0.45719167  1
  S2-  S199  1  -0.00574776  0.86673677  0.96016627  1
  S2-  S200  1  0.26260840  0.12752734  0.46707815  1
  S2-  S201  1  0.25171971  0.12041056  0.94184561  1
  S2-  S202  1  0.26234613  0.37160763  0.45755933  1
  S2-  S203  1  0.24959722  0.37238931  0.95949734  1
  S2-  S204  1  0.26047596  0.63202439  0.44423404  1
  S2-  S205  1  0.24933060  0.62108296  0.95113398  1
  S2-  S206  1  0.25861593  0.87645916  0.46317500  1
  S2-  S207  1  0.25498663  0.87484068  0.94891654  1
  S2-  S208  1  0.50594574  0.12081675  0.46163825  1
  S2-  S209  1  0.50050111  0.11722455  0.95588402  1
  S2-  S210  1  0.50338556  0.37843716  0.46291983  1
  S2-  S211  1  0.50204913  0.36954355  0.94888821  1
  S2-  S212  1  0.50670814  0.63153799  0.45898540  1
  S2-  S213  1  0.50029163  0.62440508  0.95339270  1
  S2-  S214  1  0.51092780  0.88024255  0.45288123  1
  S2-  S215  1  0.50120783  0.87161162  0.96003146  1
  S2-  S216  1  0.75699067  0.12746428  0.45582206  1
  S2-  S217  1  0.74893563  0.11631005  0.95597628  1
  S2-  S218  1  0.75381698  0.37787305  0.45057077  1
  S2-  S219  1  0.74887580  0.36639318  0.95184902  1
  S2-  S220  1  0.75620584  0.62564538  0.45154242  1
  S2-  S221  1  0.74718856  0.62195722  0.95870168  1
  S2-  S222  1  0.75894287  0.87506605  0.45182822  1
  S2-  S223  1  0.74775276  0.87235530  0.95872249  1
  S2-  S224  1  0.12256462  -0.00308052  0.05175954  1
  S2-  S225  1  0.13302952  0.00294613  0.54912302  1
  S2-  S226  1  0.12477723  0.24558034  0.04522838  1
  S2-  S227  1  0.13174481  0.24741392  0.54735648  1
  S2-  S228  1  0.12629728  0.49369634  0.04963711  1
  S2-  S229  1  0.13411692  0.50509334  0.53035352  1
  S2-  S230  1  0.12373952  0.74360456  0.04716082  1
  S2-  S231  1  0.13044876  0.74926159  0.53696456  1
  S2-  S232  1  0.37558354  -0.00494152  0.05217148  1
  S2-  S233  1  0.38479225  -0.00265144  0.54825494  1
  S2-  S234  1  0.37677567  0.24255281  0.03428346  1
  S2-  S235  1  0.38844924  0.25644000  0.55583278  1
  S2-  S236  1  0.37685886  0.49604255  0.03554295  1
  S2-  S237  1  0.38444815  0.50523537  0.54487499  1
  S2-  S238  1  0.37464513  0.74368584  0.04535768  1
  S2-  S239  1  0.38850128  0.75323951  0.53978831  1
  S2-  S240  1  0.62263813  -0.00553399  0.05263222  1
  S2-  S241  1  0.63845210  -0.00299626  0.54426921  1
  S2-  S242  1  0.62386314  0.24552008  0.04325785  1
  S2-  S243  1  0.63396311  0.25151471  0.54565189  1
  S2-  S244  1  0.62556116  0.49217585  0.04414724  1
  S2-  S245  1  0.62978924  0.50311071  0.54351882  1
  S2-  S246  1  0.62536397  0.74513065  0.05535414  1
  S2-  S247  1  0.63637618  0.75708616  0.54192205  1
  S2-  S248  1  0.87423007  -0.00028083  0.04981779  1
  S2-  S249  1  0.88035749  -0.00047773  0.53987063  1
  S2-  S250  1  0.87328039  0.24357724  0.05095244  1
  S2-  S251  1  0.88211506  0.25177266  0.54625168  1
  S2-  S252  1  0.87379962  0.49240277  0.04604949  1
  S2-  S253  1  0.88105276  0.50211438  0.54182428  1
  S2-  S254  1  0.87372946  0.74356326  0.06017314  1
  S2-  S255  1  0.88006834  0.74472200  0.54334360  1
