# generated using pymatgen
data_La9Ce10Pr6Nd4Sm3(BiS2)32
_symmetry_space_group_name_H-M   'P 1'
_cell_length_a   16.13276157
_cell_length_b   16.16066930
_cell_length_c   27.22250624
_cell_angle_alpha   90.33907766
_cell_angle_beta   90.00329060
_cell_angle_gamma   89.90164545
_symmetry_Int_Tables_number   1
_chemical_formula_structural   La9Ce10Pr6Nd4Sm3(BiS2)32
_chemical_formula_sum   'La18 Ce20 Pr12 Nd8 Sm6 Bi64 S128'
_cell_volume   7097.21429926
_cell_formula_units_Z   2
loop_
 _symmetry_equiv_pos_site_id
 _symmetry_equiv_pos_as_xyz
  1  'x, y, z'
loop_
 _atom_type_symbol
 _atom_type_oxidation_number
  La3+  3.0
  Ce3+  3.0
  Pr3+  3.0
  Nd3+  3.0
  Sm3+  3.0
  Bi2+  2.0
  S2-  -2.0
loop_
 _atom_site_type_symbol
 _atom_site_label
 _atom_site_symmetry_multiplicity
 _atom_site_fract_x
 _atom_site_fract_y
 _atom_site_fract_z
 _atom_site_occupancy
  La3+  La0  1  0.51148699  0.63225422  0.57467062  1
  La3+  La1  1  0.50277604  0.10964923  0.06237234  1
  La3+  La2  1  0.11407333  -0.00541298  0.89885456  1
  La3+  La3  1  0.75666702  0.12447174  0.10907506  1
  La3+  La4  1  0.00639521  0.60911712  0.05980645  1
  La3+  La5  1  0.63367904  0.74752105  0.41009407  1
  La3+  La6  1  0.51779198  0.13971695  0.57519866  1
  La3+  La7  1  0.87974066  0.22877639  0.93322808  1
  La3+  La8  1  0.26266233  0.13913116  0.59959161  1
  La3+  La9  1  0.25042498  0.36613448  0.07328622  1
  La3+  La10  1  0.01137704  0.88303806  0.56586338  1
  La3+  La11  1  0.89482051  0.25138082  0.42140773  1
  La3+  La12  1  0.38149307  -0.02072984  0.91613955  1
  La3+  La13  1  0.89033708  0.51033954  0.42973282  1
  La3+  La14  1  0.50310006  0.61571516  0.07393969  1
  La3+  La15  1  0.89533416  0.75770174  0.42120265  1
  La3+  La16  1  0.63163133  -0.02448798  0.93542273  1
  La3+  La17  1  0.25681227  0.61842722  0.08027530  1
  Ce3+  Ce18  1  0.01223212  0.37752103  0.55385433  1
  Ce3+  Ce19  1  0.25672161  0.10600428  0.05269223  1
  Ce3+  Ce20  1  0.76130773  0.13171835  0.55764736  1
  Ce3+  Ce21  1  0.37535671  0.23387446  0.93735808  1
  Ce3+  Ce22  1  0.37594964  0.73495967  0.93967314  1
  Ce3+  Ce23  1  0.87615072  0.48593281  0.93703471  1
  Ce3+  Ce24  1  0.14575824  0.25513235  0.43343405  1
  Ce3+  Ce25  1  0.39220231  0.00975611  0.44927067  1
  Ce3+  Ce26  1  0.64075907  0.50721138  0.44468430  1
  Ce3+  Ce27  1  0.51384664  0.37760734  0.55063953  1
  Ce3+  Ce28  1  0.75426124  0.61175095  0.06218399  1
  Ce3+  Ce29  1  0.37859340  0.48873335  0.94288675  1
  Ce3+  Ce30  1  0.01050762  0.13655566  0.55993103  1
  Ce3+  Ce31  1  0.75744113  0.88096720  0.54447236  1
  Ce3+  Ce32  1  0.00876166  0.63304453  0.56743797  1
  Ce3+  Ce33  1  0.76239043  0.63497888  0.56394054  1
  Ce3+  Ce34  1  0.25769787  0.63141586  0.56970750  1
  Ce3+  Ce35  1  0.25274990  0.86308978  0.05513081  1
  Ce3+  Ce36  1  0.14070158  0.75607418  0.44382952  1
  Ce3+  Ce37  1  0.64842417  0.26183966  0.43443886  1
  Pr3+  Pr38  1  0.62757409  0.23145294  0.93674495  1
  Pr3+  Pr39  1  0.62630514  0.01722234  0.42163137  1
  Pr3+  Pr40  1  0.26769899  0.88495425  0.56654084  1
  Pr3+  Pr41  1  0.88648137  0.00390021  0.43223463  1
  Pr3+  Pr42  1  0.87780544  -0.01798424  0.95006217  1
  Pr3+  Pr43  1  0.39074245  0.75445165  0.43946942  1
  Pr3+  Pr44  1  0.75685423  0.85919003  0.08181740  1
  Pr3+  Pr45  1  0.62059006  0.48597137  0.93126805  1
  Pr3+  Pr46  1  0.38853539  0.25375608  0.43247278  1
  Pr3+  Pr47  1  0.13067875  0.73724933  0.93480468  1
  Pr3+  Pr48  1  0.26188709  0.37827008  0.56353280  1
  Pr3+  Pr49  1  0.51132839  0.86444857  0.06746470  1
  Nd3+  Nd50  1  0.14165976  0.00633946  0.44538442  1
  Nd3+  Nd51  1  0.39008012  0.50578834  0.43952865  1
  Nd3+  Nd52  1  0.13189240  0.48626507  0.93430334  1
  Nd3+  Nd53  1  -0.00103118  0.35573860  0.05675853  1
  Nd3+  Nd54  1  0.75256036  0.36119851  0.05738816  1
  Nd3+  Nd55  1  0.76920370  0.38063123  0.56610244  1
  Nd3+  Nd56  1  0.13030543  0.24237279  0.93795791  1
  Nd3+  Nd57  1  0.50512433  0.35888579  0.05796430  1
  Sm3+  Sm58  1  0.14120804  0.50684626  0.44472641  1
  Sm3+  Sm59  1  0.62824838  0.73494480  0.94322490  1
  Sm3+  Sm60  1  0.00398921  0.11073866  0.06389644  1
  Sm3+  Sm61  1  0.87923753  0.73565730  0.94407470  1
  Sm3+  Sm62  1  0.51678036  0.88270025  0.55656093  1
  Sm3+  Sm63  1  -0.00010613  0.86322898  0.06393269  1
  Bi2+  Bi64  1  0.01608927  0.12310650  0.28739552  1
  Bi2+  Bi65  1  -0.03603960  0.16868243  0.77617804  1
  Bi2+  Bi66  1  -0.11050394  0.40761647  0.30264903  1
  Bi2+  Bi67  1  0.01675260  0.45798168  0.77911798  1
  Bi2+  Bi68  1  0.07714840  0.61508013  0.29431331  1
  Bi2+  Bi69  1  0.09640272  0.63827127  0.79863950  1
  Bi2+  Bi70  1  0.02094184  0.87577852  0.28911163  1
  Bi2+  Bi71  1  -0.02537978  0.87115285  0.79765405  1
  Bi2+  Bi72  1  0.26058942  0.12639261  0.29522474  1
  Bi2+  Bi73  1  0.23543100  0.15250208  0.79693515  1
  Bi2+  Bi74  1  0.07491098  0.36141508  0.27746436  1
  Bi2+  Bi75  1  0.23792210  0.39774769  0.78786695  1
  Bi2+  Bi76  1  0.24022625  0.72160661  0.29524805  1
  Bi2+  Bi77  1  0.26369307  0.59952061  0.85222689  1
  Bi2+  Bi78  1  0.25633908  0.92080891  0.30196170  1
  Bi2+  Bi79  1  0.25126292  0.76391371  0.78925107  1
  Bi2+  Bi80  1  0.44922077  0.16732892  0.30920009  1
  Bi2+  Bi81  1  0.49034377  0.12828495  0.79512563  1
  Bi2+  Bi82  1  0.44983563  0.37037927  0.30235235  1
  Bi2+  Bi83  1  0.53819269  0.38315003  0.78109813  1
  Bi2+  Bi84  1  0.49311564  0.60104958  0.29387322  1
  Bi2+  Bi85  1  0.47342925  0.62140508  0.80502512  1
  Bi2+  Bi86  1  0.45448902  0.88476323  0.28655573  1
  Bi2+  Bi87  1  0.52305408  0.85465890  0.79765494  1
  Bi2+  Bi88  1  0.74646005  0.15376682  0.29633983  1
  Bi2+  Bi89  1  0.75285915  0.15289639  0.78445252  1
  Bi2+  Bi90  1  0.64451839  0.42484361  0.30948548  1
  Bi2+  Bi91  1  0.79742737  0.39841427  0.77398826  1
  Bi2+  Bi92  1  0.80877652  0.58624874  0.26821298  1
  Bi2+  Bi93  1  0.66976960  0.61972573  0.79539466  1
  Bi2+  Bi94  1  0.78081644  0.90143514  0.26944939  1
  Bi2+  Bi95  1  0.75506055  0.94533467  0.80676577  1
  Bi2+  Bi96  1  0.17297435  0.01388001  0.16336641  1
  Bi2+  Bi97  1  0.11583813  -0.00641138  0.70210216  1
  Bi2+  Bi98  1  0.14791133  0.19468643  0.21122989  1
  Bi2+  Bi99  1  0.10941436  0.29949883  0.69595205  1
  Bi2+  Bi100  1  -0.01202378  0.50321080  0.20378509  1
  Bi2+  Bi101  1  0.15250930  0.49607856  0.69761417  1
  Bi2+  Bi102  1  0.14067459  0.82576857  0.20643684  1
  Bi2+  Bi103  1  0.00069319  0.71214084  0.70431054  1
  Bi2+  Bi104  1  0.35961135  -0.02042608  0.20696963  1
  Bi2+  Bi105  1  0.36610930  -0.02294829  0.71236686  1
  Bi2+  Bi106  1  0.41920789  0.22205018  0.19919149  1
  Bi2+  Bi107  1  0.41614376  0.27312304  0.71213022  1
  Bi2+  Bi108  1  0.33698947  0.45334433  0.20359693  1
  Bi2+  Bi109  1  0.34033258  0.52652085  0.73074740  1
  Bi2+  Bi110  1  0.37882922  0.72778207  0.21357756  1
  Bi2+  Bi111  1  0.41433075  0.74140462  0.72088596  1
  Bi2+  Bi112  1  0.59963192  0.02471016  0.22303788  1
  Bi2+  Bi113  1  0.66505334  -0.00099864  0.71087979  1
  Bi2+  Bi114  1  0.59249929  0.30342562  0.22815038  1
  Bi2+  Bi115  1  0.69340619  0.27164496  0.69469443  1
  Bi2+  Bi116  1  0.62307628  0.54272315  0.21258872  1
  Bi2+  Bi117  1  0.59055689  0.52108505  0.70948846  1
  Bi2+  Bi118  1  0.63297284  0.75896275  0.21528861  1
  Bi2+  Bi119  1  0.62203079  0.78954679  0.69716782  1
  Bi2+  Bi120  1  0.98912358  -0.00345468  0.19749282  1
  Bi2+  Bi121  1  0.86810276  0.01980009  0.71720173  1
  Bi2+  Bi122  1  0.89356997  0.28919814  0.20713423  1
  Bi2+  Bi123  1  0.87451460  0.20078257  0.67314128  1
  Bi2+  Bi124  1  0.79364381  0.47419474  0.17195058  1
  Bi2+  Bi125  1  0.85762987  0.57461953  0.73439231  1
  Bi2+  Bi126  1  0.89682322  0.72642352  0.20528482  1
  Bi2+  Bi127  1  0.79476173  0.76049408  0.75926555  1
  S2-  S128  1  -0.07562309  0.14219419  0.14997964  1
  S2-  S129  1  0.08713047  0.14213079  0.64812562  1
  S2-  S130  1  0.02962204  0.35245888  0.15504786  1
  S2-  S131  1  -0.03436623  0.35040786  0.64783778  1
  S2-  S132  1  0.02582500  0.65685092  0.15687033  1
  S2-  S133  1  -0.11937539  0.63724002  0.63787369  1
  S2-  S134  1  -0.09938718  0.86516911  0.14776318  1
  S2-  S135  1  -0.00140875  0.86757474  0.66630395  1
  S2-  S136  1  0.36727152  0.10150742  0.13301179  1
  S2-  S137  1  0.25063774  0.09101180  0.70001181  1
  S2-  S138  1  0.27381106  0.29895762  0.16859961  1
  S2-  S139  1  0.27059382  0.29371184  0.65221839  1
  S2-  S140  1  0.21442290  0.49483846  0.14889244  1
  S2-  S141  1  0.12891571  0.64484780  0.64298448  1
  S2-  S142  1  0.25663922  0.76867052  0.14074900  1
  S2-  S143  1  0.24235501  0.88621892  0.66705010  1
  S2-  S144  1  0.58968948  0.12975878  0.15120951  1
  S2-  S145  1  0.42777832  0.11964946  0.66290848  1
  S2-  S146  1  0.48797562  0.37474910  0.15803454  1
  S2-  S147  1  0.51493783  0.31712321  0.64127314  1
  S2-  S148  1  0.38995964  0.58640775  0.15524707  1
  S2-  S149  1  0.37386737  0.63163864  0.64378279  1
  S2-  S150  1  0.50515077  0.74912081  0.14547532  1
  S2-  S151  1  0.48208720  0.87783772  0.65438223  1
  S2-  S152  1  0.76027364  0.05811607  0.20884410  1
  S2-  S153  1  0.65808264  0.12011438  0.63915120  1
  S2-  S154  1  0.75033691  0.29169714  0.15019757  1
  S2-  S155  1  0.73936304  0.42241186  0.66381825  1
  S2-  S156  1  0.75321176  0.70843692  0.14553179  1
  S2-  S157  1  0.64404928  0.64192597  0.64393213  1
  S2-  S158  1  0.63726942  0.89861697  0.15771857  1
  S2-  S159  1  0.73955252  0.87994223  0.64315411  1
  S2-  S160  1  0.10990354  0.00470760  0.34548829  1
  S2-  S161  1  0.15136277  0.00567013  0.79435652  1
  S2-  S162  1  0.03953709  0.25480029  0.35406500  1
  S2-  S163  1  0.08977498  0.16723994  0.85155245  1
  S2-  S164  1  0.13210294  0.48876948  0.34519679  1
  S2-  S165  1  0.11464575  0.38017162  0.85426578  1
  S2-  S166  1  0.05413863  0.75366261  0.35917503  1
  S2-  S167  1  0.11919607  0.83185201  0.84962675  1
  S2-  S168  1  0.46526210  0.00727307  0.36001802  1
  S2-  S169  1  0.34775387  0.03418841  0.81648370  1
  S2-  S170  1  0.26263331  0.25931513  0.35792497  1
  S2-  S171  1  0.37530184  0.24334720  0.83849067  1
  S2-  S172  1  0.37072804  0.51519485  0.33961131  1
  S2-  S173  1  0.47438082  0.47239694  0.86016003  1
  S2-  S174  1  0.47990987  0.74724076  0.35207996  1
  S2-  S175  1  0.37703093  0.82649678  0.85482689  1
  S2-  S176  1  0.68839631  -0.00424345  0.32429797  1
  S2-  S177  1  0.53191357  0.00253741  0.85142314  1
  S2-  S178  1  0.60759990  0.16994005  0.35532542  1
  S2-  S179  1  0.61494049  0.21904145  0.83524827  1
  S2-  S180  1  0.63123594  0.58541757  0.35835716  1
  S2-  S181  1  0.67706843  0.43860715  0.83616748  1
  S2-  S182  1  0.69639535  0.78227861  0.30984809  1
  S2-  S183  1  0.65047210  0.83070098  0.86183500  1
  S2-  S184  1  0.88258611  0.11218427  0.35140622  1
  S2-  S185  1  0.94689625  -0.00369076  0.85708252  1
  S2-  S186  1  0.77013657  0.29977233  0.35186868  1
  S2-  S187  1  0.87554678  0.27125538  0.83493201  1
  S2-  S188  1  0.88320953  0.62538312  0.35312956  1
  S2-  S189  1  0.88094894  0.51067963  0.83979222  1
  S2-  S190  1  0.88618881  0.88812710  0.34950705  1
  S2-  S191  1  0.89146417  0.75052669  0.84581398  1
  S2-  S192  1  0.01762572  0.12714945  0.45615747  1
  S2-  S193  1  0.00679531  0.10923725  0.96040482  1
  S2-  S194  1  0.01715607  0.38537987  0.44963507  1
  S2-  S195  1  -0.00128714  0.36103338  0.95176697  1
  S2-  S196  1  0.02075101  0.62887246  0.45944038  1
  S2-  S197  1  0.00412412  0.61021386  0.94930292  1
  S2-  S198  1  0.01695000  0.88457776  0.45800280  1
  S2-  S199  1  0.00228984  0.85866623  0.95965523  1
  S2-  S200  1  0.26620704  0.12661177  0.45397545  1
  S2-  S201  1  0.24897712  0.10656518  0.94527100  1
  S2-  S202  1  0.26526038  0.38497790  0.45640894  1
  S2-  S203  1  0.25674134  0.36331747  0.95581842  1
  S2-  S204  1  0.26512581  0.62974945  0.45697138  1
  S2-  S205  1  0.25105878  0.61137815  0.96689670  1
  S2-  S206  1  0.26793873  0.88161282  0.45532343  1
  S2-  S207  1  0.24800130  0.86707731  0.95053850  1
  S2-  S208  1  0.51194560  0.13814323  0.46355456  1
  S2-  S209  1  0.50030328  0.11057587  0.95381520  1
  S2-  S210  1  0.51457323  0.38067104  0.44487301  1
  S2-  S211  1  0.50361570  0.35607646  0.95374698  1
  S2-  S212  1  0.51122153  0.62760410  0.46213668  1
  S2-  S213  1  0.50455138  0.61527356  0.95982280  1
  S2-  S214  1  0.51627262  0.87882092  0.45302072  1
  S2-  S215  1  0.50452776  0.85564728  0.95930426  1
  S2-  S216  1  0.76099048  0.12906628  0.45285007  1
  S2-  S217  1  0.75292259  0.10618807  0.93761024  1
  S2-  S218  1  0.76808070  0.38802956  0.45816243  1
  S2-  S219  1  0.75134556  0.36079636  0.94998001  1
  S2-  S220  1  0.76131686  0.63414984  0.45670730  1
  S2-  S221  1  0.75203787  0.61170588  0.95162377  1
  S2-  S222  1  0.75357123  0.87999395  0.44083997  1
  S2-  S223  1  0.75882115  0.85424443  0.96621216  1
  S2-  S224  1  0.12385269  -0.01481977  0.05131990  1
  S2-  S225  1  0.14235789  0.00918792  0.55254506  1
  S2-  S226  1  0.12859509  0.23332987  0.04728826  1
  S2-  S227  1  0.13926652  0.25469052  0.54217965  1
  S2-  S228  1  0.12275009  0.48081658  0.04043899  1
  S2-  S229  1  0.13593405  0.50205955  0.54874615  1
  S2-  S230  1  0.12272100  0.74129927  0.04368540  1
  S2-  S231  1  0.14041121  0.76217364  0.54754825  1
  S2-  S232  1  0.37984208  -0.02050981  0.03575031  1
  S2-  S233  1  0.38985037  0.00929501  0.55416275  1
  S2-  S234  1  0.37566881  0.24161457  0.04276354  1
  S2-  S235  1  0.38419223  0.25420172  0.54232126  1
  S2-  S236  1  0.38173896  0.48474707  0.04721299  1
  S2-  S237  1  0.38762149  0.50095227  0.54691440  1
  S2-  S238  1  0.38072919  0.74086083  0.04292589  1
  S2-  S239  1  0.38935768  0.76044057  0.54606048  1
  S2-  S240  1  0.63542421  -0.01051460  0.04545286  1
  S2-  S241  1  0.63435448  0.00552335  0.53596635  1
  S2-  S242  1  0.63209015  0.23600602  0.04368127  1
  S2-  S243  1  0.64485817  0.26163542  0.54091603  1
  S2-  S244  1  0.62664245  0.48772098  0.04661967  1
  S2-  S245  1  0.63891151  0.50098139  0.54901096  1
  S2-  S246  1  0.63274512  0.73643968  0.04492121  1
  S2-  S247  1  0.63349290  0.75781980  0.53985950  1
  S2-  S248  1  0.87432104  -0.00589773  0.05454890  1
  S2-  S249  1  0.88559619  0.00706462  0.54590016  1
  S2-  S250  1  0.87369797  0.23362906  0.04197527  1
  S2-  S251  1  0.88729925  0.25540680  0.53590402  1
  S2-  S252  1  0.87900400  0.48537831  0.04456668  1
  S2-  S253  1  0.88936099  0.50366230  0.54084084  1
  S2-  S254  1  0.88173497  0.73393404  0.04651745  1
  S2-  S255  1  0.88830452  0.76202723  0.53639691  1
