# generated using pymatgen
data_La9Ce10Pr6Nd4Sm3(BiS2)32
_symmetry_space_group_name_H-M   'P 1'
_cell_length_a   16.11617043
_cell_length_b   16.14758405
_cell_length_c   27.32084239
_cell_angle_alpha   90.12588122
_cell_angle_beta   89.97547683
_cell_angle_gamma   89.88878868
_symmetry_Int_Tables_number   1
_chemical_formula_structural   La9Ce10Pr6Nd4Sm3(BiS2)32
_chemical_formula_sum   'La18 Ce20 Pr12 Nd8 Sm6 Bi64 S128'
_cell_volume   7109.86876016
_cell_formula_units_Z   2
loop_
 _symmetry_equiv_pos_site_id
 _symmetry_equiv_pos_as_xyz
  1  'x, y, z'
loop_
 _atom_type_symbol
 _atom_type_oxidation_number
  La3+  3.0
  Ce3+  3.0
  Pr3+  3.0
  Nd3+  3.0
  Sm3+  3.0
  Bi2+  2.0
  S2-  -2.0
loop_
 _atom_site_type_symbol
 _atom_site_label
 _atom_site_symmetry_multiplicity
 _atom_site_fract_x
 _atom_site_fract_y
 _atom_site_fract_z
 _atom_site_occupancy
  La3+  La0  1  0.24890815  0.62541416  0.56157054  1
  La3+  La1  1  0.25056576  0.89271897  0.07800540  1
  La3+  La2  1  0.36997540  0.27092153  0.91229355  1
  La3+  La3  1  0.37412033  0.00318931  0.91559886  1
  La3+  La4  1  0.87328492  0.76516063  0.92509484  1
  La3+  La5  1  0.87660550  0.49620728  0.44184446  1
  La3+  La6  1  0.87604980  0.75269834  0.42689247  1
  La3+  La7  1  0.38699950  0.23734042  0.43973017  1
  La3+  La8  1  0.49446438  0.37499426  0.07020450  1
  La3+  La9  1  0.59814543  0.01407262  0.41130208  1
  La3+  La10  1  0.50517445  0.86280660  0.58410179  1
  La3+  La11  1  0.74851223  0.14677184  0.06961129  1
  La3+  La12  1  0.62711999  0.75491224  0.42881525  1
  La3+  La13  1  0.13052393  0.25518808  0.42129551  1
  La3+  La14  1  0.87445556  0.50888259  0.90772900  1
  La3+  La15  1  0.37474806  0.49396341  0.43430025  1
  La3+  La16  1  0.74574491  0.12155461  0.56677687  1
  La3+  La17  1  -0.00724942  0.87332462  0.56953398  1
  Ce3+  Ce18  1  0.37545683  0.76171238  0.94608551  1
  Ce3+  Ce19  1  0.25217416  0.37125764  0.56336999  1
  Ce3+  Ce20  1  0.62510128  0.76134426  0.94655018  1
  Ce3+  Ce21  1  0.25685628  0.64024702  0.07749055  1
  Ce3+  Ce22  1  0.75402728  0.88959918  0.05965325  1
  Ce3+  Ce23  1  0.49195772  0.12840262  0.59217867  1
  Ce3+  Ce24  1  0.50074949  0.62574499  0.55042377  1
  Ce3+  Ce25  1  0.75536761  0.63628528  0.05924036  1
  Ce3+  Ce26  1  0.62659925  0.51079729  0.94201626  1
  Ce3+  Ce27  1  0.50014502  0.62883235  0.06478301  1
  Ce3+  Ce28  1  0.87407934  0.01417578  0.92925874  1
  Ce3+  Ce29  1  0.00114744  0.64137516  0.05062296  1
  Ce3+  Ce30  1  0.62514577  0.49474513  0.44742774  1
  Ce3+  Ce31  1  0.25486456  0.13524084  0.05057378  1
  Ce3+  Ce32  1  0.49625368  0.13726832  0.04047947  1
  Ce3+  Ce33  1  0.37554726  0.75407456  0.44153985  1
  Ce3+  Ce34  1  0.24792281  0.87212105  0.56725806  1
  Ce3+  Ce35  1  0.36945696  0.51572037  0.93479238  1
  Ce3+  Ce36  1  0.12122982  0.49650618  0.45107656  1
  Ce3+  Ce37  1  0.00215828  0.13555896  0.05544368  1
  Pr3+  Pr38  1  0.11996151  0.74743064  0.43726844  1
  Pr3+  Pr39  1  0.12850633  0.01325519  0.92856842  1
  Pr3+  Pr40  1  0.25060686  0.39301035  0.06488440  1
  Pr3+  Pr41  1  -0.00280312  0.37620646  0.57649546  1
  Pr3+  Pr42  1  0.87627326  0.26366922  0.93647309  1
  Pr3+  Pr43  1  0.62604151  0.01382889  0.93722723  1
  Pr3+  Pr44  1  0.49223666  0.37698251  0.58031695  1
  Pr3+  Pr45  1  0.00133932  0.39125791  0.06340271  1
  Pr3+  Pr46  1  -0.00157954  0.12682716  0.55289663  1
  Pr3+  Pr47  1  0.12332922  -0.00229934  0.44576248  1
  Pr3+  Pr48  1  0.50017596  0.89030957  0.06336826  1
  Pr3+  Pr49  1  0.86078146  0.00146167  0.42735437  1
  Nd3+  Nd50  1  0.75898756  0.39601545  0.06990991  1
  Nd3+  Nd51  1  0.87217736  0.24847027  0.44001752  1
  Nd3+  Nd52  1  0.37559294  -0.00197264  0.46294350  1
  Nd3+  Nd53  1  0.12840188  0.51645781  0.93514591  1
  Nd3+  Nd54  1  0.24755024  0.12532500  0.57150792  1
  Nd3+  Nd55  1  -0.01021508  0.62766203  0.57718463  1
  Nd3+  Nd56  1  0.75085518  0.37687285  0.57311538  1
  Nd3+  Nd57  1  0.74690811  0.63020976  0.56473479  1
  Sm3+  Sm58  1  0.13111427  0.76418155  0.94261968  1
  Sm3+  Sm59  1  0.12698563  0.26694364  0.94409296  1
  Sm3+  Sm60  1  0.62716870  0.26671254  0.93520899  1
  Sm3+  Sm61  1  -0.00061696  0.89034984  0.04816257  1
  Sm3+  Sm62  1  0.62178278  0.25290140  0.45596748  1
  Sm3+  Sm63  1  0.75239260  0.87826074  0.56123460  1
  Bi2+  Bi64  1  0.00321107  0.06632834  0.25578988  1
  Bi2+  Bi65  1  0.04028497  0.10291741  0.81799788  1
  Bi2+  Bi66  1  -0.02389794  0.36088230  0.30955470  1
  Bi2+  Bi67  1  0.04543329  0.33413428  0.80021913  1
  Bi2+  Bi68  1  0.01456016  0.57910063  0.24477785  1
  Bi2+  Bi69  1  0.00528569  0.59216211  0.77525686  1
  Bi2+  Bi70  1  0.04766523  0.84226450  0.31015241  1
  Bi2+  Bi71  1  0.02725428  0.92051654  0.77362409  1
  Bi2+  Bi72  1  0.22107294  0.07702492  0.27615346  1
  Bi2+  Bi73  1  0.22827437  0.16183588  0.78386875  1
  Bi2+  Bi74  1  0.23721826  0.38592800  0.29746381  1
  Bi2+  Bi75  1  0.26751141  0.42813400  0.79761545  1
  Bi2+  Bi76  1  0.20749166  0.57672765  0.25226793  1
  Bi2+  Bi77  1  0.30452926  0.62155786  0.76667009  1
  Bi2+  Bi78  1  0.21673628  0.74589886  0.31094797  1
  Bi2+  Bi79  1  0.23638402  0.87057419  0.79443017  1
  Bi2+  Bi80  1  0.53310011  0.12954373  0.28228190  1
  Bi2+  Bi81  1  0.55801625  0.13198175  0.79190644  1
  Bi2+  Bi82  1  0.42127702  0.31400596  0.31003399  1
  Bi2+  Bi83  1  0.53065311  0.42447911  0.78048557  1
  Bi2+  Bi84  1  0.45071354  0.68418101  0.24553967  1
  Bi2+  Bi85  1  0.50022108  0.61914011  0.78752577  1
  Bi2+  Bi86  1  0.44374342  0.90373679  0.30043789  1
  Bi2+  Bi87  1  0.51227058  0.85660170  0.79699104  1
  Bi2+  Bi88  1  0.78792809  0.11507303  0.26902243  1
  Bi2+  Bi89  1  0.85478122  0.15105273  0.81778798  1
  Bi2+  Bi90  1  0.74240583  0.36686133  0.30070408  1
  Bi2+  Bi91  1  0.75631029  0.39776038  0.78144290  1
  Bi2+  Bi92  1  0.63371550  0.63603443  0.28225798  1
  Bi2+  Bi93  1  0.74175306  0.64686654  0.79089949  1
  Bi2+  Bi94  1  0.74261335  0.86473684  0.30579841  1
  Bi2+  Bi95  1  0.74697269  0.89008409  0.78845666  1
  Bi2+  Bi96  1  0.13816458  -0.04154729  0.20113613  1
  Bi2+  Bi97  1  0.12055119  0.05409813  0.70826708  1
  Bi2+  Bi98  1  0.11666903  0.22175134  0.22042886  1
  Bi2+  Bi99  1  0.13513780  0.25320825  0.69087712  1
  Bi2+  Bi100  1  0.10692739  0.41818921  0.19907003  1
  Bi2+  Bi101  1  0.13227581  0.44347951  0.71700578  1
  Bi2+  Bi102  1  0.05237310  0.75852834  0.19717554  1
  Bi2+  Bi103  1  0.09778154  0.74682033  0.73827386  1
  Bi2+  Bi104  1  0.40830041  0.06698304  0.18114494  1
  Bi2+  Bi105  1  0.38300991  0.00415456  0.71577566  1
  Bi2+  Bi106  1  0.31702590  0.23037093  0.22103987  1
  Bi2+  Bi107  1  0.38578691  0.26668674  0.71837344  1
  Bi2+  Bi108  1  0.38172242  0.48333817  0.19289349  1
  Bi2+  Bi109  1  0.43679550  0.51053553  0.69468330  1
  Bi2+  Bi110  1  0.30947176  0.83109037  0.22346222  1
  Bi2+  Bi111  1  0.35554318  0.75858936  0.69222889  1
  Bi2+  Bi112  1  0.57127159  -0.02703688  0.21807781  1
  Bi2+  Bi113  1  0.66262591  -0.02996234  0.69362756  1
  Bi2+  Bi114  1  0.59353714  0.26272077  0.21292079  1
  Bi2+  Bi115  1  0.67122293  0.26639115  0.71386797  1
  Bi2+  Bi116  1  0.58642509  0.44921555  0.25127524  1
  Bi2+  Bi117  1  0.64404190  0.45515362  0.68175184  1
  Bi2+  Bi118  1  0.59568701  0.77995484  0.19612467  1
  Bi2+  Bi119  1  0.63167906  0.65212753  0.70142344  1
  Bi2+  Bi120  1  0.86040100  -0.05203649  0.21532005  1
  Bi2+  Bi121  1  0.84837809  0.02741978  0.72960812  1
  Bi2+  Bi122  1  0.85967128  0.23748512  0.19385931  1
  Bi2+  Bi123  1  0.92763572  0.25473168  0.72431271  1
  Bi2+  Bi124  1  0.84053412  0.49574649  0.21910507  1
  Bi2+  Bi125  1  0.88111223  0.49919757  0.71129128  1
  Bi2+  Bi126  1  0.76418558  0.67949554  0.19888862  1
  Bi2+  Bi127  1  0.86209956  0.78386048  0.69102803  1
  S2-  S128  1  0.00240128  0.15588707  0.15323242  1
  S2-  S129  1  -0.00075600  0.13987097  0.65352118  1
  S2-  S130  1  -0.09573837  0.38567818  0.14844478  1
  S2-  S131  1  0.02164891  0.50648322  0.64908774  1
  S2-  S132  1  -0.03171382  0.63941763  0.14650560  1
  S2-  S133  1  0.01833516  0.75712257  0.64707915  1
  S2-  S134  1  -0.01960694  0.89680371  0.14612002  1
  S2-  S135  1  -0.12586725  0.92418870  0.64151265  1
  S2-  S136  1  0.23695750  0.04755776  0.13498142  1
  S2-  S137  1  0.33975860  0.13327859  0.65702234  1
  S2-  S138  1  0.35539807  0.34193039  0.14173015  1
  S2-  S139  1  0.34353479  0.38956750  0.64699265  1
  S2-  S140  1  0.22437514  0.51442803  0.14497045  1
  S2-  S141  1  0.24838262  0.64123299  0.66211179  1
  S2-  S142  1  0.21286613  0.75922303  0.14799582  1
  S2-  S143  1  0.26015707  0.89467605  0.66505053  1
  S2-  S144  1  0.50698029  0.18873702  0.13388123  1
  S2-  S145  1  0.53300096  0.07151138  0.68972089  1
  S2-  S146  1  0.53061306  0.47579354  0.15261246  1
  S2-  S147  1  0.51745662  0.26540707  0.65966665  1
  S2-  S148  1  0.40297358  0.64061734  0.14618195  1
  S2-  S149  1  0.49820920  0.69782347  0.63847642  1
  S2-  S150  1  0.39472458  0.90249796  0.14370115  1
  S2-  S151  1  0.49001326  0.88162317  0.69059699  1
  S2-  S152  1  0.78358004  0.08177112  0.16227870  1
  S2-  S153  1  0.74448598  0.13138149  0.66848974  1
  S2-  S154  1  0.72027790  0.28309727  0.14338261  1
  S2-  S155  1  0.86754343  0.35582604  0.64948013  1
  S2-  S156  1  0.74533214  0.53392282  0.13954782  1
  S2-  S157  1  0.84737052  0.63042632  0.64685301  1
  S2-  S158  1  0.75516504  0.84696201  0.15545054  1
  S2-  S159  1  0.70192883  0.81282559  0.65016387  1
  S2-  S160  1  0.15333371  -0.02392732  0.34713850  1
  S2-  S161  1  0.23850334  0.00646378  0.84781793  1
  S2-  S162  1  0.03883500  0.22498426  0.33759564  1
  S2-  S163  1  0.20328010  0.28593070  0.85520982  1
  S2-  S164  1  0.10241348  0.42920920  0.36201270  1
  S2-  S165  1  0.24863835  0.55960903  0.86198817  1
  S2-  S166  1  0.01076661  0.70309056  0.36117684  1
  S2-  S167  1  0.11780898  0.78016021  0.84433589  1
  S2-  S168  1  0.42796383  0.02123268  0.36882345  1
  S2-  S169  1  0.45057574  -0.00006381  0.82033509  1
  S2-  S170  1  0.27913851  0.24403579  0.35928067  1
  S2-  S171  1  0.40229562  0.20628817  0.81360019  1
  S2-  S172  1  0.37505876  0.47511092  0.33387305  1
  S2-  S173  1  0.40800540  0.41526963  0.85491076  1
  S2-  S174  1  0.38770283  0.73916746  0.34376171  1
  S2-  S175  1  0.37693556  0.81280973  0.85157335  1
  S2-  S176  1  0.73823378  0.02704757  0.34915456  1
  S2-  S177  1  0.66164924  0.01995738  0.83824360  1
  S2-  S178  1  0.53659081  0.20562258  0.37511171  1
  S2-  S179  1  0.63062930  0.25973133  0.83606648  1
  S2-  S180  1  0.61217361  0.42518645  0.35921194  1
  S2-  S181  1  0.71042728  0.51661060  0.85458551  1
  S2-  S182  1  0.58885784  0.86787099  0.35138823  1
  S2-  S183  1  0.64601657  0.77265182  0.84868704  1
  S2-  S184  1  0.89512621  -0.11436013  0.35278104  1
  S2-  S185  1  0.87331747  -0.10289752  0.85519758  1
  S2-  S186  1  0.81858310  0.23882117  0.34459195  1
  S2-  S187  1  0.86609805  0.35780467  0.85157397  1
  S2-  S188  1  0.85494075  0.48379930  0.34191676  1
  S2-  S189  1  1.03309980  0.48797934  0.85177347  1
  S2-  S190  1  0.75112435  0.72256481  0.35355638  1
  S2-  S191  1  0.87977615  0.65459100  0.84463430  1
  S2-  S192  1  -0.00292974  0.12314156  0.44715508  1
  S2-  S193  1  0.00362273  0.13971545  0.95005501  1
  S2-  S194  1  -0.00153548  0.36681887  0.46449473  1
  S2-  S195  1  0.00325835  0.38579405  0.95697062  1
  S2-  S196  1  -0.00076015  0.61853892  0.46845411  1
  S2-  S197  1  0.00501790  0.64361647  0.94635411  1
  S2-  S198  1  -0.00058564  0.87607854  0.46034440  1
  S2-  S199  1  0.00565681  0.88880926  0.94652454  1
  S2-  S200  1  0.24729238  0.12191036  0.46400146  1
  S2-  S201  1  0.25082597  0.14056321  0.94639748  1
  S2-  S202  1  0.25151885  0.37346595  0.45904924  1
  S2-  S203  1  0.24783905  0.39086492  0.95781428  1
  S2-  S204  1  0.24802853  0.62272612  0.45032917  1
  S2-  S205  1  0.25101484  0.64471770  0.96699295  1
  S2-  S206  1  0.24885641  0.87314406  0.45895666  1
  S2-  S207  1  0.25047957  0.88610986  0.95628283  1
  S2-  S208  1  0.50428469  0.11711131  0.48127566  1
  S2-  S209  1  0.49975543  0.14062830  0.93546204  1
  S2-  S210  1  0.49811692  0.37500650  0.46766554  1
  S2-  S211  1  0.50457721  0.38660362  0.95555477  1
  S2-  S212  1  0.50087308  0.62339137  0.44425104  1
  S2-  S213  1  0.50071611  0.63586420  0.95279755  1
  S2-  S214  1  0.49787218  0.87537168  0.46672155  1
  S2-  S215  1  0.50281865  0.88798596  0.95488420  1
  S2-  S216  1  0.73940926  0.12874436  0.45880502  1
  S2-  S217  1  0.74904514  0.14043708  0.95407467  1
  S2-  S218  1  0.74882822  0.37123602  0.46417977  1
  S2-  S219  1  0.75027246  0.38661435  0.95804104  1
  S2-  S220  1  0.74900115  0.61840897  0.45810003  1
  S2-  S221  1  0.75058888  0.63897927  0.95525570  1
  S2-  S222  1  0.73838323  0.88514446  0.45676739  1
  S2-  S223  1  0.74755698  0.88972077  0.95504645  1
  S2-  S224  1  0.12251840  0.01205869  0.03571001  1
  S2-  S225  1  0.12349564  -0.00062705  0.55444249  1
  S2-  S226  1  0.12763710  0.26237475  0.04923543  1
  S2-  S227  1  0.12551151  0.25061902  0.54984185  1
  S2-  S228  1  0.12242712  0.51587448  0.04140462  1
  S2-  S229  1  0.12912735  0.49646756  0.55286500  1
  S2-  S230  1  0.12263378  0.76840500  0.04458744  1
  S2-  S231  1  0.12539430  0.74987014  0.54450011  1
  S2-  S232  1  0.37679872  0.01192048  0.03042666  1
  S2-  S233  1  0.37452346  -0.00681087  0.56586223  1
  S2-  S234  1  0.37143511  0.25877315  0.02851834  1
  S2-  S235  1  0.37260657  0.24713834  0.54913714  1
  S2-  S236  1  0.37840847  0.51013038  0.04184012  1
  S2-  S237  1  0.37516417  0.50313572  0.54304327  1
  S2-  S238  1  0.37898251  0.76398665  0.04779499  1
  S2-  S239  1  0.37243677  0.75092479  0.54608223  1
  S2-  S240  1  0.62640223  0.01451561  0.04782858  1
  S2-  S241  1  0.62243643  -0.00492956  0.57040525  1
  S2-  S242  1  0.62274703  0.26246755  0.03750654  1
  S2-  S243  1  0.62540154  0.25423459  0.55844123  1
  S2-  S244  1  0.62602483  0.50981142  0.04375364  1
  S2-  S245  1  0.62358646  0.50025677  0.55285694  1
  S2-  S246  1  0.62490366  0.76093411  0.05191190  1
  S2-  S247  1  0.62553530  0.74865813  0.53917036  1
  S2-  S248  1  0.87518989  0.01512175  0.03978971  1
  S2-  S249  1  0.87237839  0.00470260  0.53559469  1
  S2-  S250  1  0.87935919  0.26261374  0.04318615  1
  S2-  S251  1  0.87173218  0.24800826  0.54681759  1
  S2-  S252  1  0.88041547  0.51595964  0.03789997  1
  S2-  S253  1  0.87138551  0.49834095  0.54898579  1
  S2-  S254  1  0.87589389  0.76614735  0.03926113  1
  S2-  S255  1  0.86823952  0.75140061  0.53997731  1
