# generated using pymatgen
data_La9Ce10Pr6Nd4Sm3(BiS2)32
_symmetry_space_group_name_H-M   'P 1'
_cell_length_a   16.17149843
_cell_length_b   16.19070777
_cell_length_c   27.18792654
_cell_angle_alpha   90.31963042
_cell_angle_beta   90.05709675
_cell_angle_gamma   90.18473473
_symmetry_Int_Tables_number   1
_chemical_formula_structural   La9Ce10Pr6Nd4Sm3(BiS2)32
_chemical_formula_sum   'La18 Ce20 Pr12 Nd8 Sm6 Bi64 S128'
_cell_volume   7118.40914182
_cell_formula_units_Z   2
loop_
 _symmetry_equiv_pos_site_id
 _symmetry_equiv_pos_as_xyz
  1  'x, y, z'
loop_
 _atom_type_symbol
 _atom_type_oxidation_number
  La3+  3.0
  Ce3+  3.0
  Pr3+  3.0
  Nd3+  3.0
  Sm3+  3.0
  Bi2+  2.0
  S2-  -2.0
loop_
 _atom_site_type_symbol
 _atom_site_label
 _atom_site_symmetry_multiplicity
 _atom_site_fract_x
 _atom_site_fract_y
 _atom_site_fract_z
 _atom_site_occupancy
  La3+  La0  1  0.87467537  0.25100994  0.39219828  1
  La3+  La1  1  -0.00407332  0.62929189  0.59545792  1
  La3+  La2  1  0.47926395  0.89728985  0.08986473  1
  La3+  La3  1  0.00094605  0.12002186  0.55477383  1
  La3+  La4  1  0.50452989  0.86034018  0.57332495  1
  La3+  La5  1  0.13281186  0.24725320  0.40304138  1
  La3+  La6  1  0.12584463  -0.00741034  0.43208847  1
  La3+  La7  1  0.48872917  0.39604735  0.05836190  1
  La3+  La8  1  0.10979095  0.27168923  0.92491614  1
  La3+  La9  1  0.62150125  0.73878907  0.42631284  1
  La3+  La10  1  0.36140994  0.01521859  0.92738240  1
  La3+  La11  1  0.87502534  -0.00477245  0.43126650  1
  La3+  La12  1  0.37083859  0.51248418  0.91869345  1
  La3+  La13  1  0.50423358  0.11255109  0.58345169  1
  La3+  La14  1  0.24450825  0.37585600  0.58637331  1
  La3+  La15  1  -0.01739495  0.40096934  0.07124298  1
  La3+  La16  1  0.23779961  0.39655563  0.05596269  1
  La3+  La17  1  0.10842727  0.76150062  0.92231469  1
  Ce3+  Ce18  1  -0.01085874  0.64230496  0.06165486  1
  Ce3+  Ce19  1  0.24732158  0.86259987  0.55792093  1
  Ce3+  Ce20  1  0.35824025  0.26040761  0.93216787  1
  Ce3+  Ce21  1  -0.01042382  0.14737089  0.06812200  1
  Ce3+  Ce22  1  0.86990530  0.74406968  0.42587443  1
  Ce3+  Ce23  1  0.36583138  0.76508500  0.93495422  1
  Ce3+  Ce24  1  0.36929542  0.48737151  0.44831106  1
  Ce3+  Ce25  1  0.23832730  0.89168896  0.05321566  1
  Ce3+  Ce26  1  0.48618523  0.13706208  0.05725231  1
  Ce3+  Ce27  1  0.37947608  0.74067641  0.43632184  1
  Ce3+  Ce28  1  0.62745326  0.48924734  0.44553870  1
  Ce3+  Ce29  1  -0.01117959  0.88773389  0.06091847  1
  Ce3+  Ce30  1  0.61778920  0.51251879  0.92682551  1
  Ce3+  Ce31  1  0.75425493  0.36743593  0.55755796  1
  Ce3+  Ce32  1  0.73803421  0.13963707  0.05745107  1
  Ce3+  Ce33  1  0.87938382  0.49111375  0.44402179  1
  Ce3+  Ce34  1  0.73530146  0.88990476  0.05872030  1
  Ce3+  Ce35  1  0.10662520  0.51711915  0.92186217  1
  Ce3+  Ce36  1  0.49864899  0.61668107  0.55782575  1
  Ce3+  Ce37  1  0.00314547  0.36707828  0.55853730  1
  Pr3+  Pr38  1  0.75191533  0.61931396  0.56211932  1
  Pr3+  Pr39  1  0.86354742  0.51574268  0.93762662  1
  Pr3+  Pr40  1  0.75067356  0.11728651  0.56561258  1
  Pr3+  Pr41  1  0.62481552  0.24227195  0.43952912  1
  Pr3+  Pr42  1  0.61480025  0.76506571  0.92909823  1
  Pr3+  Pr43  1  0.50060102  0.36712736  0.56902721  1
  Pr3+  Pr44  1  0.86493212  0.26423821  0.93459841  1
  Pr3+  Pr45  1  0.37540965  -0.00412445  0.44785939  1
  Pr3+  Pr46  1  0.12574049  0.74167773  0.43101890  1
  Pr3+  Pr47  1  0.62192127  -0.00544268  0.44237696  1
  Pr3+  Pr48  1  0.37017319  0.24313055  0.45581742  1
  Pr3+  Pr49  1  0.23784106  0.14596799  0.06516399  1
  Nd3+  Nd50  1  0.73722336  0.39224778  0.05889485  1
  Nd3+  Nd51  1  0.12295871  0.49113438  0.44731476  1
  Nd3+  Nd52  1  0.24807639  0.10898505  0.57422267  1
  Nd3+  Nd53  1  0.72748528  0.64173089  0.06146105  1
  Nd3+  Nd54  1  0.86010038  0.76541938  0.93395956  1
  Nd3+  Nd55  1  0.11086846  0.01732145  0.94653268  1
  Nd3+  Nd56  1  0.86534365  0.01619034  0.94746237  1
  Nd3+  Nd57  1  -0.00194902  0.86806010  0.55842755  1
  Sm3+  Sm58  1  0.24804932  0.62029939  0.56479258  1
  Sm3+  Sm59  1  0.24062310  0.64346126  0.04764769  1
  Sm3+  Sm60  1  0.48976329  0.64853283  0.06018212  1
  Sm3+  Sm61  1  0.75070451  0.86434851  0.55625477  1
  Sm3+  Sm62  1  0.61267952  0.01461986  0.93940147  1
  Sm3+  Sm63  1  0.61134804  0.26269976  0.94293784  1
  Bi2+  Bi64  1  -0.00211574  0.11159806  0.28026027  1
  Bi2+  Bi65  1  -0.02195859  0.10630972  0.79360306  1
  Bi2+  Bi66  1  0.01217746  0.39216118  0.28802829  1
  Bi2+  Bi67  1  -0.06237442  0.37976077  0.78768323  1
  Bi2+  Bi68  1  0.03519752  0.65512867  0.30643166  1
  Bi2+  Bi69  1  -0.01070908  0.63933751  0.78822025  1
  Bi2+  Bi70  1  0.01684414  0.86341543  0.28193808  1
  Bi2+  Bi71  1  -0.01354750  0.83843545  0.76059863  1
  Bi2+  Bi72  1  0.28460502  0.10039694  0.30159908  1
  Bi2+  Bi73  1  0.22708612  0.09473196  0.79068107  1
  Bi2+  Bi74  1  0.27632891  0.37323091  0.29352800  1
  Bi2+  Bi75  1  0.26772130  0.35875286  0.80041481  1
  Bi2+  Bi76  1  0.23427301  0.65087234  0.31339476  1
  Bi2+  Bi77  1  0.25020371  0.65595314  0.77526367  1
  Bi2+  Bi78  1  0.24907814  0.83573489  0.27977899  1
  Bi2+  Bi79  1  0.21435265  0.85148259  0.78544250  1
  Bi2+  Bi80  1  0.48083032  0.11796411  0.31379289  1
  Bi2+  Bi81  1  0.52115781  0.12966937  0.80803380  1
  Bi2+  Bi82  1  0.51822498  0.31321543  0.32388725  1
  Bi2+  Bi83  1  0.59361018  0.37872190  0.78353413  1
  Bi2+  Bi84  1  0.43390743  0.58139550  0.27725473  1
  Bi2+  Bi85  1  0.57144144  0.63789043  0.81286914  1
  Bi2+  Bi86  1  0.51735655  0.87449074  0.29637388  1
  Bi2+  Bi87  1  0.56139548  0.82718736  0.78950810  1
  Bi2+  Bi88  1  0.67039159  0.11063203  0.28107411  1
  Bi2+  Bi89  1  0.77586102  0.14966152  0.79251533  1
  Bi2+  Bi90  1  0.69009404  0.38733686  0.29034265  1
  Bi2+  Bi91  1  0.76496143  0.43446938  0.82887946  1
  Bi2+  Bi92  1  0.76686198  0.58426715  0.29300306  1
  Bi2+  Bi93  1  0.77001154  0.63624390  0.80272833  1
  Bi2+  Bi94  1  0.76641291  0.85573278  0.28660482  1
  Bi2+  Bi95  1  0.80071007  0.92978770  0.75873144  1
  Bi2+  Bi96  1  0.16362335  -0.05922382  0.19526728  1
  Bi2+  Bi97  1  0.10813318  -0.03595868  0.71611308  1
  Bi2+  Bi98  1  0.14090642  0.22563265  0.19579482  1
  Bi2+  Bi99  1  0.10491433  0.22404966  0.69594235  1
  Bi2+  Bi100  1  0.14001557  0.56909091  0.21999128  1
  Bi2+  Bi101  1  0.13652670  0.46406750  0.71629136  1
  Bi2+  Bi102  1  0.08480527  0.75179181  0.18647934  1
  Bi2+  Bi103  1  0.23777713  0.76446802  0.67901394  1
  Bi2+  Bi104  1  0.36829623  -0.00297839  0.21511775  1
  Bi2+  Bi105  1  0.35606530  0.02454655  0.71674713  1
  Bi2+  Bi106  1  0.40738899  0.25352256  0.23579330  1
  Bi2+  Bi107  1  0.40716683  0.28174358  0.73362094  1
  Bi2+  Bi108  1  0.31447328  0.47458855  0.19702240  1
  Bi2+  Bi109  1  0.39550118  0.53036519  0.71389018  1
  Bi2+  Bi110  1  0.36468946  0.72260340  0.21609940  1
  Bi2+  Bi111  1  0.42007737  0.78442661  0.71408161  1
  Bi2+  Bi112  1  0.59091734  -0.04085561  0.20748454  1
  Bi2+  Bi113  1  0.61621268  -0.02938263  0.71689252  1
  Bi2+  Bi114  1  0.60265850  0.25963364  0.21582303  1
  Bi2+  Bi115  1  0.66165691  0.23809571  0.71239174  1
  Bi2+  Bi116  1  0.57071706  0.48362934  0.21937610  1
  Bi2+  Bi117  1  0.61236649  0.53757680  0.71299446  1
  Bi2+  Bi118  1  0.63595067  0.70906407  0.19566040  1
  Bi2+  Bi119  1  0.66167704  0.72461327  0.70327073  1
  Bi2+  Bi120  1  0.78667854  0.00511557  0.21307004  1
  Bi2+  Bi121  1  0.85800125  0.06206578  0.68449910  1
  Bi2+  Bi122  1  0.87984090  0.25142108  0.18713079  1
  Bi2+  Bi123  1  0.85954809  0.25541187  0.70916664  1
  Bi2+  Bi124  1  0.87605315  0.51727290  0.20905519  1
  Bi2+  Bi125  1  0.81512206  0.49585949  0.71976481  1
  Bi2+  Bi126  1  0.89758401  0.72219399  0.23165138  1
  Bi2+  Bi127  1  0.84703542  0.78792037  0.68189806  1
  S2-  S128  1  0.00024750  0.12554657  0.16799448  1
  S2-  S129  1  0.02594936  0.08095192  0.65420920  1
  S2-  S130  1  0.02447396  0.32689098  0.16059066  1
  S2-  S131  1  0.03475761  0.37173410  0.65573656  1
  S2-  S132  1  0.00235079  0.53963928  0.14090901  1
  S2-  S133  1  0.04848667  0.58818053  0.69270910  1
  S2-  S134  1  0.00310715  0.90084374  0.15855057  1
  S2-  S135  1  0.00870885  0.78735327  0.64623138  1
  S2-  S136  1  0.24311673  0.09625626  0.16249405  1
  S2-  S137  1  0.23242087  0.13437658  0.67472488  1
  S2-  S138  1  0.24154153  0.33246470  0.14961938  1
  S2-  S139  1  0.24204852  0.32845676  0.68791030  1
  S2-  S140  1  0.27073520  0.62617922  0.14544327  1
  S2-  S141  1  0.25604143  0.52786866  0.65030064  1
  S2-  S142  1  0.31699224  0.88956069  0.14050924  1
  S2-  S143  1  0.23578940  0.93648865  0.64632095  1
  S2-  S144  1  0.48497758  0.05481770  0.14376990  1
  S2-  S145  1  0.44510394  0.15735345  0.67758035  1
  S2-  S146  1  0.45947456  0.39862919  0.15780850  1
  S2-  S147  1  0.45911386  0.40274572  0.66598340  1
  S2-  S148  1  0.59517836  0.58733707  0.13469612  1
  S2-  S149  1  0.46088695  0.65819859  0.65152392  1
  S2-  S150  1  0.49113656  0.75256084  0.14611181  1
  S2-  S151  1  0.46652245  0.94171072  0.66213238  1
  S2-  S152  1  0.74469887  0.14633958  0.15498854  1
  S2-  S153  1  0.64650458  0.10327579  0.64889778  1
  S2-  S154  1  0.81138594  0.39748392  0.14936527  1
  S2-  S155  1  0.74129424  0.36855337  0.65551750  1
  S2-  S156  1  0.78424562  0.65054087  0.15767635  1
  S2-  S157  1  0.84417609  0.61730217  0.64846943  1
  S2-  S158  1  0.71730326  0.86456728  0.15562871  1
  S2-  S159  1  0.65361135  0.85821260  0.63937556  1
  S2-  S160  1  0.13370182  0.08408005  0.34555080  1
  S2-  S161  1  0.10214128  0.02354010  0.84658848  1
  S2-  S162  1  0.09572704  0.25381511  0.29725285  1
  S2-  S163  1  0.22817698  0.21842475  0.85429124  1
  S2-  S164  1  0.14165427  0.42066784  0.35628451  1
  S2-  S165  1  0.13441227  0.40212411  0.84703453  1
  S2-  S166  1  0.13025450  0.86501504  0.35616065  1
  S2-  S167  1  0.12768936  0.63725407  0.84678721  1
  S2-  S168  1  0.39058899  -0.02932524  0.34786482  1
  S2-  S169  1  0.38538604  0.02881880  0.82595121  1
  S2-  S170  1  0.29548033  0.24273647  0.36332422  1
  S2-  S171  1  0.42333592  0.27129747  0.83944164  1
  S2-  S172  1  0.38235399  0.47093334  0.35033192  1
  S2-  S173  1  0.32352391  0.52221515  0.81703288  1
  S2-  S174  1  0.48877451  0.74947387  0.35705506  1
  S2-  S175  1  0.34089212  0.77248638  0.83772183  1
  S2-  S176  1  0.65422026  -0.04763892  0.34547129  1
  S2-  S177  1  0.61317614  0.01205775  0.84028731  1
  S2-  S178  1  0.71285114  0.23775352  0.35153632  1
  S2-  S179  1  0.64470302  0.23577906  0.84719845  1
  S2-  S180  1  0.63491115  0.52924498  0.35015147  1
  S2-  S181  1  0.51280359  0.48698197  0.85107066  1
  S2-  S182  1  0.74254921  0.72643721  0.35169945  1
  S2-  S183  1  0.74350420  0.77429090  0.85728456  1
  S2-  S184  1  0.88615743  0.09007406  0.34587803  1
  S2-  S185  1  0.86332012  0.01671677  0.84772999  1
  S2-  S186  1  0.89937524  0.25873813  0.28332741  1
  S2-  S187  1  0.97358333  0.24670196  0.85463095  1
  S2-  S188  1  0.89098288  0.42366136  0.35402411  1
  S2-  S189  1  0.96363613  0.51543444  0.85303222  1
  S2-  S190  1  0.89061419  0.87079854  0.35575267  1
  S2-  S191  1  0.97193220  0.77680950  0.85553851  1
  S2-  S192  1  0.00244510  0.12965520  0.44837037  1
  S2-  S193  1  -0.01215359  0.13951386  0.96023099  1
  S2-  S194  1  0.00315426  0.35938403  0.45353605  1
  S2-  S195  1  -0.01584041  0.39114827  0.95917407  1
  S2-  S196  1  -0.00097800  0.61868988  0.44201380  1
  S2-  S197  1  -0.01630871  0.64341868  0.95670671  1
  S2-  S198  1  0.00086845  0.86518665  0.45550477  1
  S2-  S199  1  -0.01317324  0.89174257  0.95544252  1
  S2-  S200  1  0.24768469  0.11747592  0.46484239  1
  S2-  S201  1  0.23704027  0.13590830  0.95857007  1
  S2-  S202  1  0.24449191  0.36700256  0.46991707  1
  S2-  S203  1  0.24630878  0.39384031  0.94899739  1
  S2-  S204  1  0.24978831  0.61634294  0.45751498  1
  S2-  S205  1  0.24511148  0.63800788  0.94491719  1
  S2-  S206  1  0.25611979  0.86427836  0.45291631  1
  S2-  S207  1  0.23472603  0.88962459  0.94529594  1
  S2-  S208  1  0.49953886  0.12055035  0.46448052  1
  S2-  S209  1  0.49004173  0.13814431  0.95066138  1
  S2-  S210  1  0.49928855  0.36722618  0.46167300  1
  S2-  S211  1  0.48898453  0.38232057  0.95208187  1
  S2-  S212  1  0.49787338  0.60989466  0.45318987  1
  S2-  S213  1  0.49014801  0.64195287  0.95022799  1
  S2-  S214  1  0.49918149  0.86870120  0.46185092  1
  S2-  S215  1  0.49010146  0.89179501  0.93831602  1
  S2-  S216  1  0.74875774  0.11825718  0.45747807  1
  S2-  S217  1  0.73748238  0.13884232  0.95156517  1
  S2-  S218  1  0.75357555  0.36592849  0.45279894  1
  S2-  S219  1  0.73696743  0.38401768  0.95296032  1
  S2-  S220  1  0.75271926  0.61174492  0.45632472  1
  S2-  S221  1  0.73690612  0.63829242  0.95351909  1
  S2-  S222  1  0.74491051  0.86777960  0.45454621  1
  S2-  S223  1  0.73696069  0.89682883  0.95363779  1
  S2-  S224  1  0.11259122  0.01672815  0.05217619  1
  S2-  S225  1  0.12406270  -0.01102295  0.54248521  1
  S2-  S226  1  0.11247381  0.26813621  0.04156564  1
  S2-  S227  1  0.12884791  0.24186034  0.56177224  1
  S2-  S228  1  0.11700724  0.52153255  0.03764900  1
  S2-  S229  1  0.11706238  0.50434067  0.55322860  1
  S2-  S230  1  0.11594006  0.76530392  0.03952660  1
  S2-  S231  1  0.12340358  0.73749210  0.54125090  1
  S2-  S232  1  0.36230191  0.01548097  0.03800549  1
  S2-  S233  1  0.37667418  -0.00799798  0.55301191  1
  S2-  S234  1  0.36566188  0.26503999  0.04447159  1
  S2-  S235  1  0.37223163  0.24240113  0.56273852  1
  S2-  S236  1  0.36783699  0.52264615  0.03937534  1
  S2-  S237  1  0.37438888  0.49323012  0.55207852  1
  S2-  S238  1  0.36488426  0.76781715  0.03967282  1
  S2-  S239  1  0.37329318  0.74026783  0.54430063  1
  S2-  S240  1  0.61105244  0.01301415  0.04509903  1
  S2-  S241  1  0.62585507  -0.01032068  0.54691731  1
  S2-  S242  1  0.61278603  0.26476926  0.05025265  1
  S2-  S243  1  0.62511026  0.24462548  0.54948127  1
  S2-  S244  1  0.61364647  0.51236800  0.03171911  1
  S2-  S245  1  0.62596678  0.49285266  0.55400863  1
  S2-  S246  1  0.60861403  0.77201228  0.03890721  1
  S2-  S247  1  0.62558764  0.73653293  0.53921841  1
  S2-  S248  1  0.86462584  0.01525759  0.05444187  1
  S2-  S249  1  0.87270991  -0.01048205  0.54426803  1
  S2-  S250  1  0.86107601  0.26603294  0.04389193  1
  S2-  S251  1  0.87556241  0.24358966  0.55858138  1
  S2-  S252  1  0.85482291  0.52213512  0.04336257  1
  S2-  S253  1  0.88103537  0.49412207  0.54978470  1
  S2-  S254  1  0.86088285  0.76596648  0.04686792  1
  S2-  S255  1  0.87444343  0.74351289  0.53874214  1
