# generated using pymatgen
data_La9Ce10Pr6Nd4Sm3(BiS2)32
_symmetry_space_group_name_H-M   'P 1'
_cell_length_a   16.09282154
_cell_length_b   16.17343725
_cell_length_c   27.07171551
_cell_angle_alpha   89.88263437
_cell_angle_beta   90.27584242
_cell_angle_gamma   89.82527991
_symmetry_Int_Tables_number   1
_chemical_formula_structural   La9Ce10Pr6Nd4Sm3(BiS2)32
_chemical_formula_sum   'La18 Ce20 Pr12 Nd8 Sm6 Bi64 S128'
_cell_volume   7045.99489038
_cell_formula_units_Z   2
loop_
 _symmetry_equiv_pos_site_id
 _symmetry_equiv_pos_as_xyz
  1  'x, y, z'
loop_
 _atom_type_symbol
 _atom_type_oxidation_number
  La3+  3.0
  Ce3+  3.0
  Pr3+  3.0
  Nd3+  3.0
  Sm3+  3.0
  Bi2+  2.0
  S2-  -2.0
loop_
 _atom_site_type_symbol
 _atom_site_label
 _atom_site_symmetry_multiplicity
 _atom_site_fract_x
 _atom_site_fract_y
 _atom_site_fract_z
 _atom_site_occupancy
  La3+  La0  1  0.52950167  0.12564465  0.56756304  1
  La3+  La1  1  0.76136381  0.14043707  0.08319108  1
  La3+  La2  1  0.26672940  0.13232660  0.05383757  1
  La3+  La3  1  0.88991005  0.00020891  0.39844417  1
  La3+  La4  1  0.90272689  0.25708051  0.41844360  1
  La3+  La5  1  0.77386271  0.87733574  0.56615790  1
  La3+  La6  1  0.39914164  0.00627240  0.92172116  1
  La3+  La7  1  0.15242369  0.50000612  0.43414445  1
  La3+  La8  1  0.52561796  0.37652364  0.56815458  1
  La3+  La9  1  0.02450478  0.37411033  0.08263910  1
  La3+  La10  1  0.36910884  0.75170612  0.87899549  1
  La3+  La11  1  0.26760347  0.88099590  0.04989436  1
  La3+  La12  1  0.02155406  0.63071986  0.07838662  1
  La3+  La13  1  0.12431220  0.76218004  0.91757249  1
  La3+  La14  1  0.90455136  0.75023504  0.41982479  1
  La3+  La15  1  0.64328096  0.25557876  0.42505195  1
  La3+  La16  1  0.64930424  0.75495064  0.43305092  1
  La3+  La17  1  0.02422420  0.38155711  0.57360280  1
  Ce3+  Ce18  1  0.38694105  0.51421357  0.94554237  1
  Ce3+  Ce19  1  0.01001806  0.13348002  0.05778177  1
  Ce3+  Ce20  1  0.27776920  0.12781048  0.56919240  1
  Ce3+  Ce21  1  0.13848270  0.50931529  0.93996553  1
  Ce3+  Ce22  1  0.39572353  0.25551870  0.92536211  1
  Ce3+  Ce23  1  0.02384775  0.62652478  0.55757048  1
  Ce3+  Ce24  1  0.51341187  0.37992270  0.06440048  1
  Ce3+  Ce25  1  0.52142004  0.63151318  0.55324996  1
  Ce3+  Ce26  1  0.27686368  0.88390639  0.56944932  1
  Ce3+  Ce27  1  0.88745062  0.75849736  0.94977609  1
  Ce3+  Ce28  1  0.14656558  0.00547455  0.43861978  1
  Ce3+  Ce29  1  0.76725253  0.38423582  0.06398854  1
  Ce3+  Ce30  1  0.26138598  0.63290006  0.05524615  1
  Ce3+  Ce31  1  0.27391042  0.37565184  0.56969628  1
  Ce3+  Ce32  1  0.77344320  0.13027834  0.54782333  1
  Ce3+  Ce33  1  0.51399269  0.63576392  0.07427151  1
  Ce3+  Ce34  1  0.63687212  0.00842599  0.95396264  1
  Ce3+  Ce35  1  0.02304315  0.87984322  0.55465651  1
  Ce3+  Ce36  1  0.76669747  0.63071918  0.06344720  1
  Ce3+  Ce37  1  0.39651640  0.25270710  0.43828297  1
  Pr3+  Pr38  1  0.88537512  0.26349264  0.92949573  1
  Pr3+  Pr39  1  0.27317776  0.62967327  0.56803343  1
  Pr3+  Pr40  1  0.15280881  0.75630905  0.43558295  1
  Pr3+  Pr41  1  0.01692377  0.88427320  0.07276958  1
  Pr3+  Pr42  1  0.77518411  0.38101961  0.56671609  1
  Pr3+  Pr43  1  0.76720135  0.87301546  0.09572764  1
  Pr3+  Pr44  1  0.77702921  0.62706479  0.55946030  1
  Pr3+  Pr45  1  0.64015501  0.25771533  0.93923876  1
  Pr3+  Pr46  1  0.13503193  0.25924847  0.92948579  1
  Pr3+  Pr47  1  0.63155336  0.75858840  0.94584680  1
  Pr3+  Pr48  1  0.64104916  0.00238476  0.42748689  1
  Pr3+  Pr49  1  0.63598021  0.51009629  0.94565576  1
  Nd3+  Nd50  1  0.64835198  0.50332406  0.43936379  1
  Nd3+  Nd51  1  0.52475707  0.87825344  0.56219532  1
  Nd3+  Nd52  1  0.88269565  0.00721510  0.95050775  1
  Nd3+  Nd53  1  0.13598136  0.00337759  0.93564758  1
  Nd3+  Nd54  1  0.51291964  0.88185985  0.07154304  1
  Nd3+  Nd55  1  0.51342142  0.12994066  0.07603557  1
  Nd3+  Nd56  1  0.39621470  0.00562624  0.43314736  1
  Nd3+  Nd57  1  0.89742329  0.50744669  0.94046649  1
  Sm3+  Sm58  1  0.14645651  0.25100202  0.44345123  1
  Sm3+  Sm59  1  0.90398117  0.50047196  0.42615229  1
  Sm3+  Sm60  1  0.39424877  0.50199845  0.44235259  1
  Sm3+  Sm61  1  0.26527919  0.37973217  0.05147039  1
  Sm3+  Sm62  1  0.39310843  0.75623002  0.43692626  1
  Sm3+  Sm63  1  0.01969721  0.12849620  0.55637214  1
  Bi2+  Bi64  1  0.05740781  0.13231434  0.28785675  1
  Bi2+  Bi65  1  -0.08055233  0.12317448  0.80058972  1
  Bi2+  Bi66  1  0.00589627  0.38805533  0.28473983  1
  Bi2+  Bi67  1  0.00091673  0.37747330  0.79620140  1
  Bi2+  Bi68  1  0.00384907  0.63141050  0.28220116  1
  Bi2+  Bi69  1  -0.01300328  0.62494238  0.78495792  1
  Bi2+  Bi70  1  0.09520980  0.87218143  0.28150931  1
  Bi2+  Bi71  1  -0.04196144  0.87392965  0.79127580  1
  Bi2+  Bi72  1  0.26824923  0.14338671  0.34512393  1
  Bi2+  Bi73  1  0.18324142  0.11320061  0.76993412  1
  Bi2+  Bi74  1  0.24363514  0.33149603  0.30279877  1
  Bi2+  Bi75  1  0.22469306  0.30051734  0.80860104  1
  Bi2+  Bi76  1  0.24347374  0.62951993  0.29264577  1
  Bi2+  Bi77  1  0.24941948  0.49848407  0.81203175  1
  Bi2+  Bi78  1  0.27533506  0.94823679  0.32120920  1
  Bi2+  Bi79  1  0.20988954  0.86807547  0.77893502  1
  Bi2+  Bi80  1  0.44304504  0.14105701  0.28984031  1
  Bi2+  Bi81  1  0.50371638  0.13588282  0.79643879  1
  Bi2+  Bi82  1  0.42688962  0.41007465  0.31872571  1
  Bi2+  Bi83  1  0.42153751  0.38084320  0.80526316  1
  Bi2+  Bi84  1  0.50565631  0.58512771  0.28981877  1
  Bi2+  Bi85  1  0.52635715  0.55156666  0.77985141  1
  Bi2+  Bi86  1  0.45350287  0.87013024  0.30138382  1
  Bi2+  Bi87  1  0.50190792  0.88991359  0.78957771  1
  Bi2+  Bi88  1  0.77185072  0.13671447  0.27040105  1
  Bi2+  Bi89  1  0.73662758  0.09725797  0.75535650  1
  Bi2+  Bi90  1  0.74571327  0.39485669  0.27571507  1
  Bi2+  Bi91  1  0.73742641  0.35609362  0.79851551  1
  Bi2+  Bi92  1  0.73483760  0.62033100  0.29216782  1
  Bi2+  Bi93  1  0.78939376  0.64710197  0.78256124  1
  Bi2+  Bi94  1  0.72204533  0.87225075  0.28761873  1
  Bi2+  Bi95  1  0.69314156  0.81578843  0.80265120  1
  Bi2+  Bi96  1  0.11022922  0.00856417  0.19579805  1
  Bi2+  Bi97  1  0.02532304  0.02478612  0.72131070  1
  Bi2+  Bi98  1  0.17289103  0.23645246  0.20828289  1
  Bi2+  Bi99  1  0.08054166  0.23518400  0.70260905  1
  Bi2+  Bi100  1  0.18459616  0.49200840  0.21472376  1
  Bi2+  Bi101  1  0.13995139  0.49549342  0.71298343  1
  Bi2+  Bi102  1  0.18601590  0.75569503  0.20774936  1
  Bi2+  Bi103  1  0.00758317  0.75090887  0.70154227  1
  Bi2+  Bi104  1  0.32447803  0.00813479  0.21363267  1
  Bi2+  Bi105  1  0.32726246  0.01941462  0.69976036  1
  Bi2+  Bi106  1  0.38790069  0.29993409  0.22565509  1
  Bi2+  Bi107  1  0.34300276  0.28897501  0.71820654  1
  Bi2+  Bi108  1  0.37408859  0.52995504  0.20469321  1
  Bi2+  Bi109  1  0.34332865  0.51139753  0.71058068  1
  Bi2+  Bi110  1  0.38120483  0.73551877  0.22867372  1
  Bi2+  Bi111  1  0.35703304  0.75580682  0.68171298  1
  Bi2+  Bi112  1  0.57347129  0.02227195  0.21994571  1
  Bi2+  Bi113  1  0.58418939  0.01075702  0.69921945  1
  Bi2+  Bi114  1  0.61185881  0.29993051  0.20696989  1
  Bi2+  Bi115  1  0.59550968  0.21597431  0.70703043  1
  Bi2+  Bi116  1  0.56533183  0.49059470  0.17955914  1
  Bi2+  Bi117  1  0.65070033  0.46259989  0.71412638  1
  Bi2+  Bi118  1  0.61191821  0.68836438  0.21066082  1
  Bi2+  Bi119  1  0.62900455  0.69047609  0.71498831  1
  Bi2+  Bi120  1  0.92950211  -0.00588647  0.23256949  1
  Bi2+  Bi121  1  0.77985923  -0.08318582  0.71290069  1
  Bi2+  Bi122  1  0.91079528  0.26946466  0.20287495  1
  Bi2+  Bi123  1  0.85418914  0.25442401  0.72214045  1
  Bi2+  Bi124  1  0.75794456  0.52945485  0.18936324  1
  Bi2+  Bi125  1  0.88846694  0.49107107  0.70816230  1
  Bi2+  Bi126  1  0.87487995  0.75654755  0.22610962  1
  Bi2+  Bi127  1  0.81505081  0.73467835  0.67496820  1
  S2-  S128  1  0.03314490  0.21889571  0.14193066  1
  S2-  S129  1  -0.03680319  0.14200658  0.65230984  1
  S2-  S130  1  -0.03233602  0.41681571  0.17926751  1
  S2-  S131  1  -0.10537113  0.35460892  0.64432379  1
  S2-  S132  1  -0.02969800  0.65286143  0.18023284  1
  S2-  S133  1  0.01426174  0.53490040  0.64151195  1
  S2-  S134  1  -0.08356003  0.87449294  0.15688874  1
  S2-  S135  1  -0.01055116  0.89588270  0.65168293  1
  S2-  S136  1  0.28181266  0.14500859  0.15524110  1
  S2-  S137  1  0.19593090  0.11727764  0.65950400  1
  S2-  S138  1  0.18923660  0.37471394  0.14139455  1
  S2-  S139  1  0.15854173  0.36626207  0.64777836  1
  S2-  S140  1  0.17391099  0.62083854  0.14161285  1
  S2-  S141  1  0.22903508  0.63159414  0.66758807  1
  S2-  S142  1  0.23262981  0.89774821  0.15052490  1
  S2-  S143  1  0.22486934  0.87523035  0.66998900  1
  S2-  S144  1  0.63084538  0.13349973  0.15841688  1
  S2-  S145  1  0.40635632  0.12796328  0.64549698  1
  S2-  S146  1  0.48076153  0.27093428  0.14000133  1
  S2-  S147  1  0.40295913  0.38614788  0.64546591  1
  S2-  S148  1  0.50082952  0.75946125  0.14859113  1
  S2-  S149  1  0.49660804  0.65807351  0.64957738  1
  S2-  S150  1  0.46541651  0.99767133  0.14592172  1
  S2-  S151  1  0.41605977  0.89688722  0.64121847  1
  S2-  S152  1  0.85031707  0.10236586  0.17404637  1
  S2-  S153  1  0.67688930  0.12066112  0.63235998  1
  S2-  S154  1  0.76066066  0.29925081  0.14940596  1
  S2-  S155  1  0.64783471  0.34513706  0.64224371  1
  S2-  S156  1  0.76117184  0.71404300  0.15041786  1
  S2-  S157  1  0.76684812  0.52323739  0.64291271  1
  S2-  S158  1  0.68233008  0.91320537  0.18577230  1
  S2-  S159  1  0.64491510  0.88567913  0.64012850  1
  S2-  S160  1  0.05357725  -0.00216631  0.35277843  1
  S2-  S161  1  0.10641816  -0.08169806  0.84867629  1
  S2-  S162  1  0.06115974  0.27048041  0.35529085  1
  S2-  S163  1  0.01211809  0.24697962  0.85441647  1
  S2-  S164  1  0.04931161  0.50489768  0.34827530  1
  S2-  S165  1  0.04447778  0.51596220  0.85742375  1
  S2-  S166  1  0.04987999  0.74695964  0.35026517  1
  S2-  S167  1  0.21005776  0.73067887  0.82999456  1
  S2-  S168  1  0.50926629  0.01167325  0.35294614  1
  S2-  S169  1  0.35150106  -0.08211766  0.83431192  1
  S2-  S170  1  0.50033484  0.26239704  0.35731943  1
  S2-  S171  1  0.37254738  0.13793335  0.85126067  1
  S2-  S172  1  0.28750933  0.50340234  0.36255297  1
  S2-  S173  1  0.39758647  0.58004186  0.85440671  1
  S2-  S174  1  0.28210816  0.75080000  0.36113274  1
  S2-  S175  1  0.40459859  0.75472285  0.77139216  1
  S2-  S176  1  0.72930771  0.01253833  0.33742128  1
  S2-  S177  1  0.56733398  0.01117979  0.86189178  1
  S2-  S178  1  0.70909405  0.25025946  0.32778043  1
  S2-  S179  1  0.53047059  0.27347905  0.85707113  1
  S2-  S180  1  0.63770369  0.48982731  0.33881499  1
  S2-  S181  1  0.64519213  0.49330585  0.84430488  1
  S2-  S182  1  0.59245353  0.78812750  0.33832625  1
  S2-  S183  1  0.54888136  0.76151979  0.85615496  1
  S2-  S184  1  0.86134398  -0.14595716  0.33604399  1
  S2-  S185  1  0.86652450  -0.01683912  0.85012677  1
  S2-  S186  1  0.89696180  0.14301156  0.33482664  1
  S2-  S187  1  0.75450557  0.22786016  0.86051376  1
  S2-  S188  1  0.87512753  0.38956562  0.34691113  1
  S2-  S189  1  0.86895976  0.40892996  0.85727179  1
  S2-  S190  1  0.87107960  0.61796629  0.34924109  1
  S2-  S191  1  0.96614532  0.74806941  0.86196026  1
  S2-  S192  1  0.02187377  0.12712547  0.45270624  1
  S2-  S193  1  0.01116486  0.12737041  0.95263975  1
  S2-  S194  1  0.02626132  0.37851761  0.45969971  1
  S2-  S195  1  0.01655502  0.38329587  0.96145660  1
  S2-  S196  1  0.02764702  0.62722324  0.45405706  1
  S2-  S197  1  0.01434096  0.63306575  0.96501994  1
  S2-  S198  1  0.02099669  0.88060345  0.45094936  1
  S2-  S199  1  0.00923248  0.88497472  0.96424495  1
  S2-  S200  1  0.27204841  0.12818316  0.46075047  1
  S2-  S201  1  0.25583846  0.12937619  0.94607275  1
  S2-  S202  1  0.27349389  0.37146295  0.46141020  1
  S2-  S203  1  0.26531861  0.38286771  0.94643802  1
  S2-  S204  1  0.27527875  0.63011958  0.46151521  1
  S2-  S205  1  0.25874764  0.63824112  0.94977814  1
  S2-  S206  1  0.27425529  0.88301334  0.46023106  1
  S2-  S207  1  0.26152966  0.87762855  0.94397612  1
  S2-  S208  1  0.52001539  0.12884709  0.45703946  1
  S2-  S209  1  0.51679085  0.13512369  0.96457236  1
  S2-  S210  1  0.52022637  0.38506695  0.45786008  1
  S2-  S211  1  0.51046676  0.38901093  0.95827046  1
  S2-  S212  1  0.51667864  0.62883125  0.44464396  1
  S2-  S213  1  0.51279329  0.63154624  0.96562718  1
  S2-  S214  1  0.51700873  0.87457629  0.45455114  1
  S2-  S215  1  0.51460440  0.88458748  0.96442601  1
  S2-  S216  1  0.77314920  0.12723343  0.44377688  1
  S2-  S217  1  0.76292098  0.13025656  0.96853040  1
  S2-  S218  1  0.77062206  0.38163410  0.45213031  1
  S2-  S219  1  0.76294933  0.38792038  0.96007158  1
  S2-  S220  1  0.77094373  0.62761900  0.45207314  1
  S2-  S221  1  0.76549633  0.63165053  0.95346866  1
  S2-  S222  1  0.77320052  0.87820835  0.45173732  1
  S2-  S223  1  0.76105477  0.88043087  0.95703115  1
  S2-  S224  1  0.13655988  0.00895045  0.04356325  1
  S2-  S225  1  0.14642968  0.00523934  0.54818626  1
  S2-  S226  1  0.14159685  0.25566063  0.03628079  1
  S2-  S227  1  0.14685369  0.24731625  0.54719061  1
  S2-  S228  1  0.14005851  0.50257610  0.04339829  1
  S2-  S229  1  0.15379938  0.50457841  0.54476199  1
  S2-  S230  1  0.13670530  0.76014657  0.04538651  1
  S2-  S231  1  0.14849914  0.75548786  0.54854735  1
  S2-  S232  1  0.38853729  0.00827056  0.03630478  1
  S2-  S233  1  0.40012248  0.00481732  0.53894658  1
  S2-  S234  1  0.38566626  0.25923109  0.03522880  1
  S2-  S235  1  0.40028625  0.25224708  0.54425659  1
  S2-  S236  1  0.38569644  0.50616830  0.05409254  1
  S2-  S237  1  0.39780892  0.50757339  0.54570414  1
  S2-  S238  1  0.38506464  0.75351851  0.05229860  1
  S2-  S239  1  0.39620383  0.75467144  0.54182420  1
  S2-  S240  1  0.64498863  0.00014145  0.05860828  1
  S2-  S241  1  0.64915537  -0.00050821  0.53395553  1
  S2-  S242  1  0.63815763  0.26270362  0.04649385  1
  S2-  S243  1  0.64999882  0.25392770  0.53357090  1
  S2-  S244  1  0.63942520  0.50898205  0.05289806  1
  S2-  S245  1  0.64396620  0.50708791  0.54429544  1
  S2-  S246  1  0.64260939  0.75777893  0.05188841  1
  S2-  S247  1  0.64858554  0.74978962  0.54180475  1
  S2-  S248  1  0.88609164  0.00600199  0.05664049  1
  S2-  S249  1  0.89522714  0.00422053  0.54946322  1
  S2-  S250  1  0.89067531  0.26017889  0.04452103  1
  S2-  S251  1  0.89731273  0.25071235  0.53636550  1
  S2-  S252  1  0.89449628  0.50713428  0.05264951  1
  S2-  S253  1  0.89957566  0.50457908  0.53489857  1
  S2-  S254  1  0.89204377  0.75584234  0.05344617  1
  S2-  S255  1  0.90011583  0.75263211  0.54081521  1
