# generated using pymatgen
data_La9Ce10Pr6Nd4Sm3(BiS2)32
_symmetry_space_group_name_H-M   'P 1'
_cell_length_a   16.19616505
_cell_length_b   16.14408250
_cell_length_c   27.10853242
_cell_angle_alpha   90.15029187
_cell_angle_beta   89.82758951
_cell_angle_gamma   90.17871154
_symmetry_Int_Tables_number   1
_chemical_formula_structural   La9Ce10Pr6Nd4Sm3(BiS2)32
_chemical_formula_sum   'La18 Ce20 Pr12 Nd8 Sm6 Bi64 S128'
_cell_volume   7088.03749726
_cell_formula_units_Z   2
loop_
 _symmetry_equiv_pos_site_id
 _symmetry_equiv_pos_as_xyz
  1  'x, y, z'
loop_
 _atom_type_symbol
 _atom_type_oxidation_number
  La3+  3.0
  Ce3+  3.0
  Pr3+  3.0
  Nd3+  3.0
  Sm3+  3.0
  Bi2+  2.0
  S2-  -2.0
loop_
 _atom_site_type_symbol
 _atom_site_label
 _atom_site_symmetry_multiplicity
 _atom_site_fract_x
 _atom_site_fract_y
 _atom_site_fract_z
 _atom_site_occupancy
  La3+  La0  1  0.88252298  0.25690379  0.43333751  1
  La3+  La1  1  0.36620246  0.49881680  0.93623721  1
  La3+  La2  1  0.48960417  0.86755009  0.06787852  1
  La3+  La3  1  -0.00490521  0.86857125  0.06260343  1
  La3+  La4  1  0.63223069  0.00836698  0.42918414  1
  La3+  La5  1  0.38744330  -0.00248519  0.41648885  1
  La3+  La6  1  0.11431218  0.49248488  0.93038653  1
  La3+  La7  1  0.85597948  0.48438544  0.91812884  1
  La3+  La8  1  0.50748287  0.62357989  0.57558773  1
  La3+  La9  1  0.13043825  0.25329937  0.43930791  1
  La3+  La10  1  0.88409420  0.75170949  0.43528447  1
  La3+  La11  1  0.23926749  0.86900594  0.06431719  1
  La3+  La12  1  0.89196698  0.50610276  0.39398178  1
  La3+  La13  1  0.63014525  0.26554203  0.42756120  1
  La3+  La14  1  0.13601402  0.74876150  0.88078259  1
  La3+  La15  1  0.24586623  0.12887594  0.11275289  1
  La3+  La16  1  -0.00057001  0.63591691  0.58256397  1
  La3+  La17  1  0.51061641  0.12145243  0.57753869  1
  Ce3+  Ce18  1  0.48930374  0.36882962  0.06643246  1
  Ce3+  Ce19  1  0.61776254  0.74521300  0.93475457  1
  Ce3+  Ce20  1  0.88039533  0.00357969  0.43993659  1
  Ce3+  Ce21  1  0.24075077  0.37002882  0.05700584  1
  Ce3+  Ce22  1  0.85753090  0.24605460  0.94276811  1
  Ce3+  Ce23  1  0.74073643  0.12743891  0.07192282  1
  Ce3+  Ce24  1  0.37851987  0.75066448  0.44306468  1
  Ce3+  Ce25  1  -0.00921756  0.37271051  0.06150181  1
  Ce3+  Ce26  1  0.13091229  0.51142299  0.44771978  1
  Ce3+  Ce27  1  0.37192802  0.24317974  0.94215207  1
  Ce3+  Ce28  1  0.38310359  0.26311807  0.43201204  1
  Ce3+  Ce29  1  0.48726207  0.62569897  0.05994716  1
  Ce3+  Ce30  1  0.75895490  0.62781066  0.55657761  1
  Ce3+  Ce31  1  0.13371284  0.75084871  0.45236289  1
  Ce3+  Ce32  1  0.62020199  0.49525897  0.94824699  1
  Ce3+  Ce33  1  0.87643732  0.74570358  0.93116571  1
  Ce3+  Ce34  1  0.37576184  0.75138668  0.92564696  1
  Ce3+  Ce35  1  0.37762699  0.50553512  0.44547272  1
  Ce3+  Ce36  1  0.00747002  0.88224643  0.56842052  1
  Ce3+  Ce37  1  0.23901851  0.62681080  0.05160776  1
  Pr3+  Pr38  1  0.61730275  -0.00203577  0.94352588  1
  Pr3+  Pr39  1  0.12117041  -0.01295772  0.41889145  1
  Pr3+  Pr40  1  0.73567066  0.37975227  0.08231056  1
  Pr3+  Pr41  1  0.00727187  0.38328327  0.56390017  1
  Pr3+  Pr42  1  0.74538350  0.62426878  0.06359806  1
  Pr3+  Pr43  1  0.49565760  0.11562430  0.07942903  1
  Pr3+  Pr44  1  0.00238208  0.12779054  0.56200281  1
  Pr3+  Pr45  1  0.74351487  0.86781178  0.06066693  1
  Pr3+  Pr46  1  0.11775858  -0.00287910  0.93564314  1
  Pr3+  Pr47  1  0.25656816  0.12392492  0.54850751  1
  Pr3+  Pr48  1  0.75713780  0.37899696  0.56060923  1
  Pr3+  Pr49  1  -0.00468509  0.12431652  0.06169659  1
  Nd3+  Nd50  1  0.36598700  -0.00158565  0.94652028  1
  Nd3+  Nd51  1  0.26367676  0.64436558  0.58867155  1
  Nd3+  Nd52  1  0.86751864  -0.00249972  0.94935404  1
  Nd3+  Nd53  1  0.61539375  0.24762661  0.94124891  1
  Nd3+  Nd54  1  0.26120452  0.88994759  0.56370755  1
  Nd3+  Nd55  1  0.75841235  0.12894466  0.56387427  1
  Nd3+  Nd56  1  0.50458295  0.37137641  0.56817283  1
  Nd3+  Nd57  1  0.25528942  0.38045819  0.56232362  1
  Sm3+  Sm58  1  0.63112244  0.74852248  0.44695178  1
  Sm3+  Sm59  1  -0.00907324  0.61798296  0.04971668  1
  Sm3+  Sm60  1  0.11635588  0.24817027  0.93709672  1
  Sm3+  Sm61  1  0.50971112  0.88178649  0.55500745  1
  Sm3+  Sm62  1  0.63067432  0.50430423  0.44349889  1
  Sm3+  Sm63  1  0.75533410  0.87915133  0.55194314  1
  Bi2+  Bi64  1  -0.06927078  0.10692815  0.28947310  1
  Bi2+  Bi65  1  0.06263030  0.13516195  0.82210060  1
  Bi2+  Bi66  1  0.02878440  0.37718346  0.28627974  1
  Bi2+  Bi67  1  -0.01555106  0.39839910  0.78953554  1
  Bi2+  Bi68  1  0.14301309  0.60109187  0.26506384  1
  Bi2+  Bi69  1  0.00018250  0.64359100  0.77347676  1
  Bi2+  Bi70  1  -0.03559361  0.81230590  0.30578030  1
  Bi2+  Bi71  1  -0.00519982  0.95600721  0.78647477  1
  Bi2+  Bi72  1  0.25677930  0.17355318  0.31320521  1
  Bi2+  Bi73  1  0.26633912  0.17450575  0.82687535  1
  Bi2+  Bi74  1  0.25620686  0.43977058  0.28996267  1
  Bi2+  Bi75  1  0.24294889  0.35453586  0.79197294  1
  Bi2+  Bi76  1  0.26607063  0.62153057  0.35516546  1
  Bi2+  Bi77  1  0.25178132  0.60057355  0.78362150  1
  Bi2+  Bi78  1  0.23221810  0.79541093  0.29009369  1
  Bi2+  Bi79  1  0.26354684  0.98870342  0.78899644  1
  Bi2+  Bi80  1  0.50561969  0.11044452  0.28851349  1
  Bi2+  Bi81  1  0.50658545  0.09278892  0.80675699  1
  Bi2+  Bi82  1  0.50994810  0.42501166  0.28670592  1
  Bi2+  Bi83  1  0.51053866  0.35437269  0.78772417  1
  Bi2+  Bi84  1  0.44257949  0.62596786  0.29628131  1
  Bi2+  Bi85  1  0.54032880  0.61895791  0.79149619  1
  Bi2+  Bi86  1  0.49518736  0.82315652  0.29303166  1
  Bi2+  Bi87  1  0.53101507  0.83293976  0.75957764  1
  Bi2+  Bi88  1  0.75110681  0.05950009  0.31648895  1
  Bi2+  Bi89  1  0.76649202  0.09407017  0.79375450  1
  Bi2+  Bi90  1  0.74940155  0.36015101  0.28769344  1
  Bi2+  Bi91  1  0.73968963  0.34238956  0.79704506  1
  Bi2+  Bi92  1  0.71100728  0.64948659  0.28009696  1
  Bi2+  Bi93  1  0.73390531  0.63192273  0.78852875  1
  Bi2+  Bi94  1  0.75773358  0.86467568  0.29870574  1
  Bi2+  Bi95  1  0.72458829  0.82599586  0.78607290  1
  Bi2+  Bi96  1  0.12282118  0.00166145  0.22839406  1
  Bi2+  Bi97  1  0.10173534  0.03254519  0.66405941  1
  Bi2+  Bi98  1  0.08785538  0.26071674  0.20455153  1
  Bi2+  Bi99  1  0.11992085  0.20259227  0.72063007  1
  Bi2+  Bi100  1  0.19718042  0.47159280  0.18143208  1
  Bi2+  Bi101  1  0.12269524  0.43045986  0.69865798  1
  Bi2+  Bi102  1  0.08864610  0.74165200  0.19377634  1
  Bi2+  Bi103  1  0.12225162  0.85608638  0.70501847  1
  Bi2+  Bi104  1  0.37511449  0.00056799  0.21306945  1
  Bi2+  Bi105  1  0.38966443  0.03546200  0.70999012  1
  Bi2+  Bi106  1  0.44128969  0.31925465  0.19938519  1
  Bi2+  Bi107  1  0.38599127  0.22953091  0.73156900  1
  Bi2+  Bi108  1  0.39112519  0.50954406  0.19253050  1
  Bi2+  Bi109  1  0.37588429  0.49116768  0.69810200  1
  Bi2+  Bi110  1  0.35472291  0.73532280  0.21119313  1
  Bi2+  Bi111  1  0.36231542  0.76068186  0.72899136  1
  Bi2+  Bi112  1  0.65447073  -0.01628426  0.21609103  1
  Bi2+  Bi113  1  0.64218567  -0.01663574  0.70490876  1
  Bi2+  Bi114  1  0.66311744  0.24638358  0.21522505  1
  Bi2+  Bi115  1  0.60034123  0.22444317  0.72182319  1
  Bi2+  Bi116  1  0.58369369  0.56488680  0.21348253  1
  Bi2+  Bi117  1  0.62874300  0.47871077  0.72527178  1
  Bi2+  Bi118  1  0.61292086  0.79249434  0.20174940  1
  Bi2+  Bi119  1  0.62919921  0.70118958  0.69525107  1
  Bi2+  Bi120  1  0.85082202  -0.02314098  0.20815185  1
  Bi2+  Bi121  1  0.90853719  -0.00036806  0.69010599  1
  Bi2+  Bi122  1  0.85264916  0.17213667  0.19198930  1
  Bi2+  Bi123  1  0.92127999  0.18289315  0.74349609  1
  Bi2+  Bi124  1  0.88013267  0.50177101  0.19433716  1
  Bi2+  Bi125  1  0.86827681  0.47274015  0.69240228  1
  Bi2+  Bi126  1  0.84935005  0.75049308  0.22006776  1
  Bi2+  Bi127  1  0.84187961  0.76852085  0.70546177  1
  S2-  S128  1  0.07324004  0.11779126  0.15172427  1
  S2-  S129  1  -0.12050173  0.14306740  0.63989849  1
  S2-  S130  1  0.02092587  0.40678841  0.15901645  1
  S2-  S131  1  -0.02619907  0.35519654  0.66305222  1
  S2-  S132  1  -0.03655341  0.63584875  0.14916602  1
  S2-  S133  1  0.01753614  0.56222669  0.67660300  1
  S2-  S134  1  0.03310459  0.88496577  0.16246862  1
  S2-  S135  1  -0.00839908  0.78212682  0.65047974  1
  S2-  S136  1  0.22878848  0.13721382  0.22216811  1
  S2-  S137  1  0.27532976  0.02595602  0.63178286  1
  S2-  S138  1  0.22850102  0.30311817  0.14770892  1
  S2-  S139  1  0.27699146  0.36354433  0.66131435  1
  S2-  S140  1  0.23761727  0.72733838  0.13511887  1
  S2-  S141  1  0.22285836  0.56720083  0.67884165  1
  S2-  S142  1  0.24410696  0.96219788  0.15404448  1
  S2-  S143  1  0.25962531  0.79674862  0.65139544  1
  S2-  S144  1  0.40423899  0.15601536  0.16365900  1
  S2-  S145  1  0.48763814  0.25424978  0.64458953  1
  S2-  S146  1  0.58922517  0.35725968  0.14778060  1
  S2-  S147  1  0.51527243  0.48258027  0.64675482  1
  S2-  S148  1  0.48158142  0.73320726  0.13827984  1
  S2-  S149  1  0.40419864  0.65039402  0.65810623  1
  S2-  S150  1  0.49361363  0.96287448  0.15446645  1
  S2-  S151  1  0.50190604  0.96858932  0.64054593  1
  S2-  S152  1  0.63491435  0.12514994  0.15082735  1
  S2-  S153  1  0.65406903  0.12025390  0.64601214  1
  S2-  S154  1  0.81812406  0.33833479  0.17332585  1
  S2-  S155  1  0.74192970  0.37535850  0.66370650  1
  S2-  S156  1  0.74301989  0.52622817  0.14984972  1
  S2-  S157  1  0.82060430  0.62782872  0.64885609  1
  S2-  S158  1  0.74442951  0.75413348  0.13842051  1
  S2-  S159  1  0.75714281  0.90353257  0.65078102  1
  S2-  S160  1  0.14789222  0.04175023  0.32050789  1
  S2-  S161  1  0.13497880  -0.08273554  0.84520282  1
  S2-  S162  1  0.10497751  0.26015165  0.33861373  1
  S2-  S163  1  0.11058806  0.35964398  0.85722092  1
  S2-  S164  1  0.05617808  0.49591660  0.35719406  1
  S2-  S165  1  0.11709728  0.57963308  0.84026079  1
  S2-  S166  1  0.11711662  0.82464455  0.36227838  1
  S2-  S167  1  0.13965786  0.73545703  0.76944951  1
  S2-  S168  1  0.35334514  0.03788206  0.31693223  1
  S2-  S169  1  0.40495672  -0.02370755  0.84854498  1
  S2-  S170  1  0.42686432  0.22402644  0.33742505  1
  S2-  S171  1  0.49023635  0.24378022  0.86597134  1
  S2-  S172  1  0.37722780  0.41280079  0.36110911  1
  S2-  S173  1  0.34560599  0.47513075  0.83561998  1
  S2-  S174  1  0.36540870  0.83926634  0.35765890  1
  S2-  S175  1  0.30125312  0.74155199  0.83625846  1
  S2-  S176  1  0.53869167  -0.01770265  0.34537493  1
  S2-  S177  1  0.63372150  0.00958962  0.84179401  1
  S2-  S178  1  0.67302640  0.20825634  0.33122215  1
  S2-  S179  1  0.72796137  0.21532475  0.86404448  1
  S2-  S180  1  0.62770926  0.41138537  0.35953163  1
  S2-  S181  1  0.68955877  0.45243271  0.86289714  1
  S2-  S182  1  0.62909375  0.74655901  0.34855131  1
  S2-  S183  1  0.51145151  0.75242390  0.85741787  1
  S2-  S184  1  0.96168285  -0.02392355  0.35584183  1
  S2-  S185  1  0.86128238  -0.00776575  0.84930062  1
  S2-  S186  1  0.88680829  0.33975489  0.34441858  1
  S2-  S187  1  0.88221715  0.33545538  0.85729444  1
  S2-  S188  1  0.82143582  0.50852602  0.29498328  1
  S2-  S189  1  0.88919356  0.53522650  0.81792982  1
  S2-  S190  1  0.91742756  0.67155062  0.34795312  1
  S2-  S191  1  0.96513579  0.75137084  0.84595192  1
  S2-  S192  1  0.00531330  0.12767918  0.45126519  1
  S2-  S193  1  -0.00987376  0.12548355  0.95396324  1
  S2-  S194  1  0.00716152  0.38214461  0.45690352  1
  S2-  S195  1  -0.01210077  0.36884434  0.95815189  1
  S2-  S196  1  0.00675716  0.62892520  0.46486707  1
  S2-  S197  1  -0.01792776  0.60902306  0.94621211  1
  S2-  S198  1  0.00296634  0.87457414  0.46338118  1
  S2-  S199  1  -0.00905555  0.87593378  0.95370371  1
  S2-  S200  1  0.25639274  0.12569040  0.44161822  1
  S2-  S201  1  0.24114121  0.12491222  0.94576636  1
  S2-  S202  1  0.24979919  0.38204502  0.45626750  1
  S2-  S203  1  0.24691058  0.36705664  0.95184129  1
  S2-  S204  1  0.25781156  0.63085659  0.47534706  1
  S2-  S205  1  0.24122836  0.62487154  0.94548783  1
  S2-  S206  1  0.25504036  0.87810926  0.45753319  1
  S2-  S207  1  0.24419514  0.87067284  0.95162756  1
  S2-  S208  1  0.50921428  0.13550757  0.44593575  1
  S2-  S209  1  0.49323941  0.11741658  0.96579512  1
  S2-  S210  1  0.50440609  0.38447758  0.46214033  1
  S2-  S211  1  0.49258335  0.37675127  0.95966750  1
  S2-  S212  1  0.50713110  0.62664976  0.45878559  1
  S2-  S213  1  0.49513717  0.61921040  0.95334075  1
  S2-  S214  1  0.51202787  0.87140301  0.45274775  1
  S2-  S215  1  0.49444408  0.87572059  0.95880248  1
  S2-  S216  1  0.75863324  0.13262316  0.45341887  1
  S2-  S217  1  0.74156280  0.11749536  0.96680819  1
  S2-  S218  1  0.76313815  0.38916585  0.45251650  1
  S2-  S219  1  0.73875528  0.36952655  0.96947408  1
  S2-  S220  1  0.75628838  0.62367913  0.44773739  1
  S2-  S221  1  0.74424471  0.62315378  0.94997093  1
  S2-  S222  1  0.75361012  0.87543392  0.44634145  1
  S2-  S223  1  0.74433246  0.87028775  0.95169631  1
  S2-  S224  1  0.11706560  -0.00142971  0.04294268  1
  S2-  S225  1  0.12708000  0.00396547  0.53261206  1
  S2-  S226  1  0.11626983  0.24891572  0.04174270  1
  S2-  S227  1  0.13077757  0.25098021  0.55036693  1
  S2-  S228  1  0.11770883  0.49771885  0.04108183  1
  S2-  S229  1  0.13327922  0.50839024  0.55699850  1
  S2-  S230  1  0.11026145  0.74205922  0.04042787  1
  S2-  S231  1  0.13331612  0.75769506  0.55596765  1
  S2-  S232  1  0.36312418  0.00088503  0.05157684  1
  S2-  S233  1  0.39135057  0.00545474  0.53025095  1
  S2-  S234  1  0.36589779  0.24632204  0.04795472  1
  S2-  S235  1  0.37584679  0.25153945  0.54065748  1
  S2-  S236  1  0.36432535  0.49867282  0.04672968  1
  S2-  S237  1  0.37704378  0.50344612  0.55239409  1
  S2-  S238  1  0.36607763  0.74490486  0.03342367  1
  S2-  S239  1  0.38892420  0.76048789  0.54932959  1
  S2-  S240  1  0.62243069  -0.00798627  0.05056198  1
  S2-  S241  1  0.63549976  0.00211933  0.53755139  1
  S2-  S242  1  0.61476410  0.24590444  0.04710364  1
  S2-  S243  1  0.63379204  0.25394715  0.54110707  1
  S2-  S244  1  0.60998525  0.50291288  0.05161897  1
  S2-  S245  1  0.63463261  0.50346275  0.54752816  1
  S2-  S246  1  0.61722753  0.74500839  0.03913758  1
  S2-  S247  1  0.63160060  0.75426688  0.55211512  1
  S2-  S248  1  0.86723342  -0.00309978  0.05681607  1
  S2-  S249  1  0.87901148  0.00026038  0.54411354  1
  S2-  S250  1  0.86673594  0.24850070  0.05195264  1
  S2-  S251  1  0.88300776  0.25771489  0.54113861  1
  S2-  S252  1  0.86687320  0.49508305  0.04474681  1
  S2-  S253  1  0.88220921  0.50403571  0.55378691  1
  S2-  S254  1  0.87167554  0.74509270  0.03840874  1
  S2-  S255  1  0.87616801  0.75748198  0.54401040  1
