# generated using pymatgen
data_La9Ce10Pr6Nd4Sm3(BiS2)32
_symmetry_space_group_name_H-M   'P 1'
_cell_length_a   16.19942831
_cell_length_b   16.18448981
_cell_length_c   27.14276383
_cell_angle_alpha   90.16912961
_cell_angle_beta   90.27746858
_cell_angle_gamma   90.01701267
_symmetry_Int_Tables_number   1
_chemical_formula_structural   La9Ce10Pr6Nd4Sm3(BiS2)32
_chemical_formula_sum   'La18 Ce20 Pr12 Nd8 Sm6 Bi64 S128'
_cell_volume   7116.16097729
_cell_formula_units_Z   2
loop_
 _symmetry_equiv_pos_site_id
 _symmetry_equiv_pos_as_xyz
  1  'x, y, z'
loop_
 _atom_type_symbol
 _atom_type_oxidation_number
  La3+  3.0
  Ce3+  3.0
  Pr3+  3.0
  Nd3+  3.0
  Sm3+  3.0
  Bi2+  2.0
  S2-  -2.0
loop_
 _atom_site_type_symbol
 _atom_site_label
 _atom_site_symmetry_multiplicity
 _atom_site_fract_x
 _atom_site_fract_y
 _atom_site_fract_z
 _atom_site_occupancy
  La3+  La0  1  0.12830686  0.76589912  0.93624503  1
  La3+  La1  1  0.51010887  0.14568733  0.07491091  1
  La3+  La2  1  0.62864630  0.72683792  0.42777237  1
  La3+  La3  1  0.62261889  0.25932080  0.91575646  1
  La3+  La4  1  0.87840095  0.01812307  0.89900834  1
  La3+  La5  1  0.49750274  0.35422726  0.58258173  1
  La3+  La6  1  0.11125551  -0.00863283  0.41375091  1
  La3+  La7  1  0.00474984  0.14393360  0.05348554  1
  La3+  La8  1  0.62418895  0.77065719  0.93354171  1
  La3+  La9  1  0.51466498  0.89243573  0.09718218  1
  La3+  La10  1  0.87495841  0.48102035  0.44916306  1
  La3+  La11  1  0.62516313  0.22959580  0.43733168  1
  La3+  La12  1  0.11565271  0.72628976  0.41813889  1
  La3+  La13  1  0.51008203  0.64098184  0.07804266  1
  La3+  La14  1  0.01160067  0.64620796  0.08094143  1
  La3+  La15  1  0.74451328  0.85769302  0.60314349  1
  La3+  La16  1  0.24717358  0.90301341  0.08387170  1
  La3+  La17  1  0.13677332  0.01312880  0.91171229  1
  Ce3+  Ce18  1  0.24506730  0.85847670  0.54270489  1
  Ce3+  Ce19  1  0.00749880  0.89904924  0.05429228  1
  Ce3+  Ce20  1  0.50242349  0.10852216  0.56318754  1
  Ce3+  Ce21  1  0.50833755  0.39308005  0.06556756  1
  Ce3+  Ce22  1  0.75358836  0.61030222  0.56834016  1
  Ce3+  Ce23  1  0.00307067  0.61390186  0.56912629  1
  Ce3+  Ce24  1  0.25346178  0.38739120  0.05788960  1
  Ce3+  Ce25  1  0.37493704  -0.01780974  0.43881653  1
  Ce3+  Ce26  1  0.00945036  0.10225395  0.58399079  1
  Ce3+  Ce27  1  0.62485826  0.48182211  0.44875138  1
  Ce3+  Ce28  1  0.00957881  0.85653102  0.56827747  1
  Ce3+  Ce29  1  0.38071701  0.51787030  0.94856239  1
  Ce3+  Ce30  1  0.12533001  0.48197629  0.43964167  1
  Ce3+  Ce31  1  0.62841465  -0.01867021  0.44453659  1
  Ce3+  Ce32  1  0.00705278  0.35994515  0.57138361  1
  Ce3+  Ce33  1  0.75300660  0.39241641  0.04807423  1
  Ce3+  Ce34  1  0.75267553  0.11193621  0.57383243  1
  Ce3+  Ce35  1  0.87840406  0.52045223  0.94430640  1
  Ce3+  Ce36  1  0.38086129  0.26722341  0.93931913  1
  Ce3+  Ce37  1  0.37722688  0.77115254  0.95365970  1
  Pr3+  Pr38  1  0.75280089  0.14470322  0.05305247  1
  Pr3+  Pr39  1  0.12811225  0.26745875  0.92730031  1
  Pr3+  Pr40  1  0.74556875  0.35638559  0.57958923  1
  Pr3+  Pr41  1  0.87478013  0.73488713  0.44806393  1
  Pr3+  Pr42  1  0.87999395  0.26793511  0.92568103  1
  Pr3+  Pr43  1  0.87752165  0.23124243  0.45403080  1
  Pr3+  Pr44  1  0.25773091  0.64754775  0.06544040  1
  Pr3+  Pr45  1  0.62501576  0.01801626  0.93639674  1
  Pr3+  Pr46  1  0.62686857  0.51786348  0.93450773  1
  Pr3+  Pr47  1  0.50484795  0.61447088  0.56154401  1
  Pr3+  Pr48  1  0.37422773  0.73131530  0.43278665  1
  Pr3+  Pr49  1  0.12934074  0.52033145  0.93889399  1
  Nd3+  Nd50  1  0.37456392  0.23334315  0.44646748  1
  Nd3+  Nd51  1  0.50280212  0.85907528  0.55536281  1
  Nd3+  Nd52  1  0.24924449  0.36146028  0.56859313  1
  Nd3+  Nd53  1  0.12498709  0.23526471  0.44079744  1
  Nd3+  Nd54  1  0.88098592  0.76929299  0.94332648  1
  Nd3+  Nd55  1  0.75560406  0.64675660  0.05436170  1
  Nd3+  Nd56  1  0.24689712  0.10410553  0.55626447  1
  Nd3+  Nd57  1  0.37615209  0.48062907  0.44274350  1
  Sm3+  Sm58  1  0.87797910  -0.01741372  0.45443786  1
  Sm3+  Sm59  1  0.00332048  0.39275710  0.05247987  1
  Sm3+  Sm60  1  0.37417143  0.01698496  0.95191131  1
  Sm3+  Sm61  1  0.75265309  0.89518068  0.05328631  1
  Sm3+  Sm62  1  0.25445885  0.14766973  0.06298999  1
  Sm3+  Sm63  1  0.25102289  0.61196581  0.55300671  1
  Bi2+  Bi64  1  -0.02593227  0.12534132  0.29820236  1
  Bi2+  Bi65  1  0.01606267  0.15001862  0.77763226  1
  Bi2+  Bi66  1  0.01367058  0.37629874  0.25683379  1
  Bi2+  Bi67  1  0.00770585  0.33604358  0.81678481  1
  Bi2+  Bi68  1  -0.02425170  0.60919358  0.28792577  1
  Bi2+  Bi69  1  0.00911427  0.59287485  0.78138641  1
  Bi2+  Bi70  1  -0.04918509  0.90676020  0.27102795  1
  Bi2+  Bi71  1  0.01155735  0.85325804  0.78361747  1
  Bi2+  Bi72  1  0.23602994  0.19382561  0.28741784  1
  Bi2+  Bi73  1  0.27794983  0.12478868  0.78787202  1
  Bi2+  Bi74  1  0.16498547  0.35896420  0.32947499  1
  Bi2+  Bi75  1  0.19165995  0.38995192  0.80617391  1
  Bi2+  Bi76  1  0.23173578  0.61685862  0.29213622  1
  Bi2+  Bi77  1  0.22512983  0.61531686  0.78772172  1
  Bi2+  Bi78  1  0.28058732  0.86764676  0.28387860  1
  Bi2+  Bi79  1  0.27493271  0.87774428  0.79233442  1
  Bi2+  Bi80  1  0.52283681  0.13854884  0.29989434  1
  Bi2+  Bi81  1  0.48850718  0.08568277  0.79395876  1
  Bi2+  Bi82  1  0.43363686  0.38742593  0.30334110  1
  Bi2+  Bi83  1  0.39295579  0.36812311  0.79334114  1
  Bi2+  Bi84  1  0.49496387  0.63225002  0.31026408  1
  Bi2+  Bi85  1  0.42309338  0.65236033  0.78952207  1
  Bi2+  Bi86  1  0.50816940  0.94284242  0.28057000  1
  Bi2+  Bi87  1  0.51983501  0.89279722  0.79521262  1
  Bi2+  Bi88  1  0.77521615  0.14480453  0.29373769  1
  Bi2+  Bi89  1  0.74357230  0.15414544  0.77912618  1
  Bi2+  Bi90  1  0.80031820  0.38005797  0.29927064  1
  Bi2+  Bi91  1  0.82342557  0.39628553  0.79768893  1
  Bi2+  Bi92  1  0.75609801  0.65531758  0.30877158  1
  Bi2+  Bi93  1  0.73302308  0.58427169  0.78431756  1
  Bi2+  Bi94  1  0.76502017  0.88397047  0.23617934  1
  Bi2+  Bi95  1  0.77274468  0.82007185  0.78038523  1
  Bi2+  Bi96  1  0.12754904  0.00623838  0.21028718  1
  Bi2+  Bi97  1  0.15501358  -0.01562690  0.70310806  1
  Bi2+  Bi98  1  0.10618996  0.24551235  0.19450441  1
  Bi2+  Bi99  1  0.17816579  0.25029836  0.71773790  1
  Bi2+  Bi100  1  0.19430539  0.45752165  0.23141288  1
  Bi2+  Bi101  1  0.02969543  0.49119301  0.68520935  1
  Bi2+  Bi102  1  0.09613527  0.75191917  0.21178652  1
  Bi2+  Bi103  1  0.15589354  0.73037790  0.70353399  1
  Bi2+  Bi104  1  0.36508306  0.08348621  0.22569356  1
  Bi2+  Bi105  1  0.37926295  0.00706818  0.70060947  1
  Bi2+  Bi106  1  0.36600832  0.28093468  0.21394413  1
  Bi2+  Bi107  1  0.37384620  0.22866102  0.70812505  1
  Bi2+  Bi108  1  0.38498983  0.50298485  0.20430117  1
  Bi2+  Bi109  1  0.29433412  0.48181998  0.71587892  1
  Bi2+  Bi110  1  0.34564933  0.69082919  0.19442841  1
  Bi2+  Bi111  1  0.39505263  0.80796793  0.71389791  1
  Bi2+  Bi112  1  0.63215666  0.02743278  0.20920524  1
  Bi2+  Bi113  1  0.58264460  0.00192519  0.70695851  1
  Bi2+  Bi114  1  0.63442629  0.28157550  0.20290458  1
  Bi2+  Bi115  1  0.62452742  0.26244315  0.71916154  1
  Bi2+  Bi116  1  0.61021564  0.44320815  0.26735704  1
  Bi2+  Bi117  1  0.54004125  0.50777171  0.73372703  1
  Bi2+  Bi118  1  0.60773193  0.66993441  0.22453698  1
  Bi2+  Bi119  1  0.58588402  0.72106299  0.70885095  1
  Bi2+  Bi120  1  0.86820054  0.05031492  0.20394425  1
  Bi2+  Bi121  1  0.88081333  0.00508918  0.71188357  1
  Bi2+  Bi122  1  0.83454044  0.26142574  0.20678220  1
  Bi2+  Bi123  1  0.92098143  0.33238240  0.70207571  1
  Bi2+  Bi124  1  0.77063071  0.52340414  0.21920357  1
  Bi2+  Bi125  1  0.77578295  0.47396061  0.69106111  1
  Bi2+  Bi126  1  0.90141432  0.76095207  0.19720410  1
  Bi2+  Bi127  1  0.89345867  0.62879407  0.69170383  1
  S2-  S128  1  0.01873020  0.11178674  0.15441505  1
  S2-  S129  1  -0.04800842  0.16151310  0.67629585  1
  S2-  S130  1  0.00703715  0.36285122  0.14875454  1
  S2-  S131  1  0.13018336  0.35726167  0.64362587  1
  S2-  S132  1  -0.03115053  0.60893329  0.17868999  1
  S2-  S133  1  0.01914707  0.73057933  0.64164133  1
  S2-  S134  1  0.08791211  0.88806207  0.14326244  1
  S2-  S135  1  0.01251715  0.96232840  0.64871336  1
  S2-  S136  1  0.24412008  0.05156600  0.14900179  1
  S2-  S137  1  0.16303420  0.11424530  0.64410159  1
  S2-  S138  1  0.24694487  0.27742099  0.13423890  1
  S2-  S139  1  0.36124412  0.37607593  0.64755711  1
  S2-  S140  1  0.16743085  0.65119837  0.15156187  1
  S2-  S141  1  0.23127725  0.60956813  0.65108695  1
  S2-  S142  1  0.30408519  0.84600621  0.18060879  1
  S2-  S143  1  0.20228954  0.85813020  0.63674706  1
  S2-  S144  1  0.48222176  0.03235613  0.15659724  1
  S2-  S145  1  0.51207733  0.20184015  0.64646119  1
  S2-  S146  1  0.49875891  0.28221940  0.14299567  1
  S2-  S147  1  0.60589246  0.40192296  0.66039005  1
  S2-  S148  1  0.51831695  0.50589905  0.14388641  1
  S2-  S149  1  0.47816889  0.60393152  0.66174901  1
  S2-  S150  1  0.50329395  0.75170177  0.16001721  1
  S2-  S151  1  0.57906389  0.85680947  0.64614939  1
  S2-  S152  1  0.66270040  0.14904981  0.13983732  1
  S2-  S153  1  0.73824557  0.01496187  0.65664236  1
  S2-  S154  1  0.75120272  0.38219994  0.14668590  1
  S2-  S155  1  0.73824062  0.23034158  0.65224177  1
  S2-  S156  1  0.71928261  0.64506739  0.15161769  1
  S2-  S157  1  0.71359644  0.69273890  0.65099570  1
  S2-  S158  1  0.67837088  0.89290439  0.14289025  1
  S2-  S159  1  0.84479445  0.85038289  0.69188748  1
  S2-  S160  1  0.16341536  -0.03784803  0.31182696  1
  S2-  S161  1  0.00972409  0.00220571  0.83090889  1
  S2-  S162  1  0.10740870  0.14485661  0.35548279  1
  S2-  S163  1  0.14181780  0.15714360  0.84853852  1
  S2-  S164  1  0.10277596  0.57585563  0.35729080  1
  S2-  S165  1  0.11080472  0.63612303  0.86328866  1
  S2-  S166  1  0.15778418  0.75852542  0.31760051  1
  S2-  S167  1  0.13883515  0.85981219  0.85064727  1
  S2-  S168  1  0.37742334  -0.01628841  0.34023525  1
  S2-  S169  1  0.29826880  0.00340567  0.86141812  1
  S2-  S170  1  0.40317481  0.22949321  0.34815652  1
  S2-  S171  1  0.47075717  0.26401218  0.85590423  1
  S2-  S172  1  0.36629479  0.53280456  0.34693308  1
  S2-  S173  1  0.38080401  0.51987942  0.85099007  1
  S2-  S174  1  0.39561280  0.75325373  0.33246331  1
  S2-  S175  1  0.35304818  0.76114635  0.85619218  1
  S2-  S176  1  0.62124048  0.00862886  0.34738644  1
  S2-  S177  1  0.63151348  0.11203670  0.85187791  1
  S2-  S178  1  0.64489592  0.24074350  0.33715210  1
  S2-  S179  1  0.68240341  0.30289314  0.81867508  1
  S2-  S180  1  0.63837971  0.55276785  0.35963691  1
  S2-  S181  1  0.60804973  0.52123782  0.83369797  1
  S2-  S182  1  0.63438633  0.76339111  0.32747270  1
  S2-  S183  1  0.62564096  0.77213583  0.83220092  1
  S2-  S184  1  0.94623408  -0.01372579  0.36223230  1
  S2-  S185  1  0.79194461  -0.02914193  0.80854735  1
  S2-  S186  1  0.88524599  0.24741618  0.35305867  1
  S2-  S187  1  0.87017000  0.16909585  0.83966728  1
  S2-  S188  1  0.89259557  0.49326767  0.34837591  1
  S2-  S189  1  0.87645918  0.54997832  0.84761515  1
  S2-  S190  1  0.91723907  0.72048851  0.34840670  1
  S2-  S191  1  0.90554590  0.77988451  0.84335652  1
  S2-  S192  1  -0.00062655  0.10893999  0.46643833  1
  S2-  S193  1  0.00126399  0.14103147  0.94559222  1
  S2-  S194  1  0.00279203  0.35807298  0.46003929  1
  S2-  S195  1  0.00313108  0.39616063  0.94718862  1
  S2-  S196  1  -0.00299028  0.60716388  0.46230631  1
  S2-  S197  1  -0.00041090  0.64265959  0.96684227  1
  S2-  S198  1  0.00222618  0.85699082  0.45556744  1
  S2-  S199  1  -0.00147392  0.89869309  0.94991851  1
  S2-  S200  1  0.25103539  0.10735335  0.44940158  1
  S2-  S201  1  0.25628976  0.14712722  0.95729759  1
  S2-  S202  1  0.25240438  0.35831725  0.45959193  1
  S2-  S203  1  0.25349471  0.39302794  0.95044540  1
  S2-  S204  1  0.25097114  0.60718253  0.44903167  1
  S2-  S205  1  0.25611485  0.64098303  0.95969329  1
  S2-  S206  1  0.24617813  0.85785074  0.43720870  1
  S2-  S207  1  0.25334361  0.89183973  0.96626044  1
  S2-  S208  1  0.49815006  0.10668409  0.45558811  1
  S2-  S209  1  0.49870194  0.13769972  0.95919095  1
  S2-  S210  1  0.50000385  0.35754775  0.45728530  1
  S2-  S211  1  0.50481494  0.39467639  0.95479863  1
  S2-  S212  1  0.49833140  0.60780013  0.45478305  1
  S2-  S213  1  0.50339960  0.64358320  0.95765232  1
  S2-  S214  1  0.50142889  0.85651104  0.44792286  1
  S2-  S215  1  0.49894039  0.89626425  0.94492096  1
  S2-  S216  1  0.75363603  0.10595539  0.45920531  1
  S2-  S217  1  0.75945956  0.13874041  0.94804783  1
  S2-  S218  1  0.74883648  0.35679179  0.46111119  1
  S2-  S219  1  0.75334991  0.39260896  0.94142332  1
  S2-  S220  1  0.75243258  0.60719339  0.46142315  1
  S2-  S221  1  0.75271631  0.64633007  0.94758648  1
  S2-  S222  1  0.75392145  0.86128926  0.43977127  1
  S2-  S223  1  0.75608702  0.89564936  0.94649937  1
  S2-  S224  1  0.13020110  0.02379364  0.03975831  1
  S2-  S225  1  0.12553178  -0.01739743  0.53475313  1
  S2-  S226  1  0.12474964  0.27080055  0.03478345  1
  S2-  S227  1  0.12705835  0.23292536  0.54468816  1
  S2-  S228  1  0.12884550  0.51493799  0.04845182  1
  S2-  S229  1  0.12834430  0.48984744  0.54500134  1
  S2-  S230  1  0.12839581  0.76859214  0.04508311  1
  S2-  S231  1  0.12889232  0.73012265  0.53243792  1
  S2-  S232  1  0.37979921  0.01874293  0.05311311  1
  S2-  S233  1  0.37548829  -0.01807324  0.54733873  1
  S2-  S234  1  0.38042671  0.26847903  0.04204921  1
  S2-  S235  1  0.37040147  0.22955000  0.55077704  1
  S2-  S236  1  0.37522884  0.51620372  0.05279054  1
  S2-  S237  1  0.37722957  0.48998166  0.54796749  1
  S2-  S238  1  0.38285584  0.77427004  0.05744914  1
  S2-  S239  1  0.37547702  0.73586781  0.54353157  1
  S2-  S240  1  0.62743556  0.01339582  0.04167311  1
  S2-  S241  1  0.62682310  -0.01519219  0.54831377  1
  S2-  S242  1  0.63160093  0.27007569  0.03250229  1
  S2-  S243  1  0.62467486  0.23410906  0.54497147  1
  S2-  S244  1  0.63469617  0.52026345  0.04122371  1
  S2-  S245  1  0.62609668  0.48626348  0.55218474  1
  S2-  S246  1  0.62914315  0.76982758  0.04214049  1
  S2-  S247  1  0.62739328  0.73799313  0.53840612  1
  S2-  S248  1  0.87526984  0.01668745  0.05213994  1
  S2-  S249  1  0.87179799  -0.02091567  0.55615384  1
  S2-  S250  1  0.87906428  0.27020284  0.03779596  1
  S2-  S251  1  0.88047750  0.23773897  0.55832570  1
  S2-  S252  1  0.88096914  0.51945856  0.05244281  1
  S2-  S253  1  0.87717900  0.48174115  0.55798116  1
  S2-  S254  1  0.87988258  0.77273956  0.05076376  1
  S2-  S255  1  0.86993213  0.74073698  0.55321081  1
