# generated using pymatgen
data_La9Ce10Pr6Nd4Sm3(BiS2)32
_symmetry_space_group_name_H-M   'P 1'
_cell_length_a   16.13145799
_cell_length_b   16.17303895
_cell_length_c   27.27171368
_cell_angle_alpha   89.88423013
_cell_angle_beta   90.25505889
_cell_angle_gamma   89.99582105
_symmetry_Int_Tables_number   1
_chemical_formula_structural   La9Ce10Pr6Nd4Sm3(BiS2)32
_chemical_formula_sum   'La18 Ce20 Pr12 Nd8 Sm6 Bi64 S128'
_cell_volume   7114.96046954
_cell_formula_units_Z   2
loop_
 _symmetry_equiv_pos_site_id
 _symmetry_equiv_pos_as_xyz
  1  'x, y, z'
loop_
 _atom_type_symbol
 _atom_type_oxidation_number
  La3+  3.0
  Ce3+  3.0
  Pr3+  3.0
  Nd3+  3.0
  Sm3+  3.0
  Bi2+  2.0
  S2-  -2.0
loop_
 _atom_site_type_symbol
 _atom_site_label
 _atom_site_symmetry_multiplicity
 _atom_site_fract_x
 _atom_site_fract_y
 _atom_site_fract_z
 _atom_site_occupancy
  La3+  La0  1  0.47412001  0.88851377  0.56088317  1
  La3+  La1  1  0.14602593  0.23434687  0.88223530  1
  La3+  La2  1  0.22360161  0.64189560  0.57319946  1
  La3+  La3  1  0.25496897  0.37315810  0.05267355  1
  La3+  La4  1  0.84006935  0.76854707  0.43853309  1
  La3+  La5  1  0.33920494  0.02081105  0.42366096  1
  La3+  La6  1  0.13085348  0.50967158  0.89860322  1
  La3+  La7  1  0.75225236  0.87617768  0.07418103  1
  La3+  La8  1  0.88238494  -0.00711942  0.93099608  1
  La3+  La9  1  0.00718660  0.87689211  0.07623771  1
  La3+  La10  1  0.08865928  0.27436544  0.42203971  1
  La3+  La11  1  0.75817954  0.37650554  0.05995089  1
  La3+  La12  1  0.87900926  0.50275387  0.92546864  1
  La3+  La13  1  0.22331024  0.89224887  0.57423760  1
  La3+  La14  1  0.72018455  0.13425817  0.59168347  1
  La3+  La15  1  0.34008531  0.76797361  0.43177918  1
  La3+  La16  1  -0.03329223  0.39925391  0.57691362  1
  La3+  La17  1  0.21737732  0.39281125  0.57770087  1
  Ce3+  Ce18  1  0.25692950  0.62615397  0.05441649  1
  Ce3+  Ce19  1  0.88577037  0.24918629  0.92879645  1
  Ce3+  Ce20  1  -0.02856259  0.89170250  0.55514093  1
  Ce3+  Ce21  1  0.71714335  0.64261041  0.56077961  1
  Ce3+  Ce22  1  0.88120025  0.75254734  0.94675311  1
  Ce3+  Ce23  1  0.60273335  0.26907699  0.44386093  1
  Ce3+  Ce24  1  0.13126443  0.75182510  0.94500093  1
  Ce3+  Ce25  1  0.10018383  0.76728259  0.43927256  1
  Ce3+  Ce26  1  0.58690216  0.77726777  0.41881511  1
  Ce3+  Ce27  1  0.50387291  0.38058372  0.06568881  1
  Ce3+  Ce28  1  0.84540141  0.51429817  0.44274593  1
  Ce3+  Ce29  1  0.47336604  0.39092661  0.55336492  1
  Ce3+  Ce30  1  0.51303061  0.13664373  0.07318397  1
  Ce3+  Ce31  1  0.34591531  0.27195386  0.43825631  1
  Ce3+  Ce32  1  0.84195723  0.01932581  0.45139720  1
  Ce3+  Ce33  1  0.34227182  0.51318425  0.44173721  1
  Ce3+  Ce34  1  0.26520797  0.87423259  0.07515414  1
  Ce3+  Ce35  1  0.50519018  0.61814404  0.05330817  1
  Ce3+  Ce36  1  0.62871869  -0.00172537  0.93947848  1
  Ce3+  Ce37  1  0.63142189  0.50123407  0.92933806  1
  Pr3+  Pr38  1  0.50617057  0.87675368  0.06653233  1
  Pr3+  Pr39  1  0.46941127  0.14120155  0.56537667  1
  Pr3+  Pr40  1  0.75824274  0.12554278  0.05562493  1
  Pr3+  Pr41  1  0.01133022  0.37360936  0.04855460  1
  Pr3+  Pr42  1  0.38177764  0.25150223  0.93987027  1
  Pr3+  Pr43  1  0.09456212  0.51479605  0.44155510  1
  Pr3+  Pr44  1  0.71974704  0.39856277  0.57445212  1
  Pr3+  Pr45  1  0.37962677  0.49779457  0.92815650  1
  Pr3+  Pr46  1  0.71757222  0.88859081  0.56998889  1
  Pr3+  Pr47  1  0.22588633  0.14281966  0.55540550  1
  Pr3+  Pr48  1  0.00834978  0.12732591  0.06151301  1
  Pr3+  Pr49  1  0.63486205  0.24941215  0.93148123  1
  Nd3+  Nd50  1  -0.02549281  0.14695587  0.56304864  1
  Nd3+  Nd51  1  0.37725483  0.75585508  0.93376168  1
  Nd3+  Nd52  1  0.09593736  0.01893513  0.44100673  1
  Nd3+  Nd53  1  0.75791138  0.62453782  0.05593013  1
  Nd3+  Nd54  1  0.47104676  0.64158465  0.54840393  1
  Nd3+  Nd55  1  0.00718203  0.62261031  0.05975229  1
  Nd3+  Nd56  1  0.84053283  0.26782635  0.44412135  1
  Nd3+  Nd57  1  0.26526417  0.12226317  0.09588468  1
  Sm3+  Sm58  1  0.59589799  0.01679141  0.44224917  1
  Sm3+  Sm59  1  0.60022865  0.52526917  0.43527307  1
  Sm3+  Sm60  1  0.37711152  0.00564389  0.94973338  1
  Sm3+  Sm61  1  0.13430666  0.00460539  0.95138123  1
  Sm3+  Sm62  1  -0.02879220  0.64292579  0.55976266  1
  Sm3+  Sm63  1  0.62824399  0.75374272  0.94253361  1
  Bi2+  Bi64  1  -0.01090774  0.03033575  0.29023918  1
  Bi2+  Bi65  1  0.01030506  0.09384672  0.78389640  1
  Bi2+  Bi66  1  -0.02879390  0.39402872  0.29184607  1
  Bi2+  Bi67  1  -0.03540357  0.38274289  0.79199515  1
  Bi2+  Bi68  1  0.07578841  0.62288831  0.25846382  1
  Bi2+  Bi69  1  0.00596559  0.66812603  0.77526985  1
  Bi2+  Bi70  1  0.02875919  0.83379888  0.28741497  1
  Bi2+  Bi71  1  0.06033607  0.86386106  0.77240772  1
  Bi2+  Bi72  1  0.24481386  0.11236330  0.29099697  1
  Bi2+  Bi73  1  0.26424218  0.07772088  0.79022950  1
  Bi2+  Bi74  1  0.23614638  0.35137561  0.30360953  1
  Bi2+  Bi75  1  0.35479286  0.39280835  0.78886896  1
  Bi2+  Bi76  1  0.25460712  0.61111674  0.30459179  1
  Bi2+  Bi77  1  0.25468792  0.65503606  0.78154941  1
  Bi2+  Bi78  1  0.30315510  0.87398210  0.30246306  1
  Bi2+  Bi79  1  0.25703792  0.84477908  0.79501966  1
  Bi2+  Bi80  1  0.54893421  0.14591363  0.28610742  1
  Bi2+  Bi81  1  0.46414054  0.14801006  0.79757085  1
  Bi2+  Bi82  1  0.52119791  0.34115522  0.28497929  1
  Bi2+  Bi83  1  0.51638376  0.37712310  0.84883657  1
  Bi2+  Bi84  1  0.51426991  0.63506991  0.23387537  1
  Bi2+  Bi85  1  0.54485540  0.56059100  0.80066163  1
  Bi2+  Bi86  1  0.56281624  0.80982453  0.28107544  1
  Bi2+  Bi87  1  0.47363582  0.95252248  0.77769633  1
  Bi2+  Bi88  1  0.73948703  0.12691186  0.30188077  1
  Bi2+  Bi89  1  0.75787900  0.12956823  0.77942965  1
  Bi2+  Bi90  1  0.77248437  0.39112756  0.30854813  1
  Bi2+  Bi91  1  0.76439392  0.38324763  0.78678276  1
  Bi2+  Bi92  1  0.77813565  0.64516748  0.29182915  1
  Bi2+  Bi93  1  0.81657355  0.66526776  0.80972740  1
  Bi2+  Bi94  1  0.76101118  0.87628525  0.30649948  1
  Bi2+  Bi95  1  0.73419946  0.89268138  0.80771957  1
  Bi2+  Bi96  1  0.08094104  -0.03939994  0.20099542  1
  Bi2+  Bi97  1  0.19125262  -0.03865869  0.70353242  1
  Bi2+  Bi98  1  0.07658956  0.26024634  0.20139257  1
  Bi2+  Bi99  1  0.15093466  0.19434132  0.67755198  1
  Bi2+  Bi100  1  0.20138695  0.48630976  0.21659972  1
  Bi2+  Bi101  1  0.17272608  0.43596527  0.72412499  1
  Bi2+  Bi102  1  0.14782718  0.77986351  0.19851602  1
  Bi2+  Bi103  1  0.08831456  0.73673179  0.68416996  1
  Bi2+  Bi104  1  0.38097462  -0.03462542  0.21469279  1
  Bi2+  Bi105  1  0.37916054  -0.03745742  0.67338977  1
  Bi2+  Bi106  1  0.38985177  0.24980645  0.20244614  1
  Bi2+  Bi107  1  0.40919380  0.24237887  0.70442060  1
  Bi2+  Bi108  1  0.41885952  0.46480579  0.21513448  1
  Bi2+  Bi109  1  0.41904968  0.52250649  0.71261658  1
  Bi2+  Bi110  1  0.33926627  0.72115043  0.21758052  1
  Bi2+  Bi111  1  0.45714657  0.79358231  0.69957320  1
  Bi2+  Bi112  1  0.61913202  0.00254871  0.21729629  1
  Bi2+  Bi113  1  0.60323501  -0.00605494  0.69845357  1
  Bi2+  Bi114  1  0.66318900  0.25129464  0.20873481  1
  Bi2+  Bi115  1  0.59894228  0.27462325  0.75896755  1
  Bi2+  Bi116  1  0.64361483  0.48599625  0.24648612  1
  Bi2+  Bi117  1  0.61503223  0.45464684  0.71122935  1
  Bi2+  Bi118  1  0.70232472  0.74317171  0.20042489  1
  Bi2+  Bi119  1  0.64732445  0.71458347  0.75678314  1
  Bi2+  Bi120  1  0.81574561  -0.00567126  0.22062178  1
  Bi2+  Bi121  1  0.87122286  -0.09255041  0.72151222  1
  Bi2+  Bi122  1  0.91579270  0.20795600  0.25754247  1
  Bi2+  Bi123  1  0.92357261  0.26635456  0.70489362  1
  Bi2+  Bi124  1  0.87934070  0.48742226  0.18517621  1
  Bi2+  Bi125  1  0.85098625  0.52818026  0.70321452  1
  Bi2+  Bi126  1  0.90781661  0.74890803  0.20925794  1
  Bi2+  Bi127  1  0.82086889  0.72753427  0.69732035  1
  S2-  S128  1  -0.02993581  0.15028554  0.15986362  1
  S2-  S129  1  -0.00145733  0.12237734  0.66257602  1
  S2-  S130  1  0.00099442  0.39807741  0.14980594  1
  S2-  S131  1  0.07127426  0.35344876  0.65613948  1
  S2-  S132  1  -0.01380977  0.62376261  0.15962999  1
  S2-  S133  1  -0.02247387  0.55957179  0.64618350  1
  S2-  S134  1  -0.12062723  0.88892016  0.14889869  1
  S2-  S135  1  -0.00457151  0.88069694  0.65085029  1
  S2-  S136  1  0.21997488  0.18400350  0.19022235  1
  S2-  S137  1  0.33748236  0.13244264  0.63841203  1
  S2-  S138  1  0.30077947  0.38178910  0.15154699  1
  S2-  S139  1  0.26749798  0.32518042  0.66906662  1
  S2-  S140  1  0.26944258  0.60969028  0.15163173  1
  S2-  S141  1  0.22397204  0.52863022  0.65479356  1
  S2-  S142  1  0.23850278  0.97960105  0.15632237  1
  S2-  S143  1  0.23703387  0.76569430  0.64701059  1
  S2-  S144  1  0.41607533  0.10369960  0.15463332  1
  S2-  S145  1  0.57273121  0.13367019  0.64943279  1
  S2-  S146  1  0.52668087  0.27632382  0.14312601  1
  S2-  S147  1  0.47859287  0.38557207  0.65144634  1
  S2-  S148  1  0.50937467  0.51205997  0.13235141  1
  S2-  S149  1  0.46450999  0.64802958  0.64862980  1
  S2-  S150  1  0.39581135  0.84696506  0.14481743  1
  S2-  S151  1  0.58857803  0.84757654  0.63837858  1
  S2-  S152  1  0.69790904  0.11902323  0.15046335  1
  S2-  S153  1  0.78117340  0.18206751  0.68954136  1
  S2-  S154  1  0.77809705  0.36390362  0.16009949  1
  S2-  S155  1  0.83977746  0.37818345  0.64976201  1
  S2-  S156  1  0.75048278  0.59578980  0.15365857  1
  S2-  S157  1  0.70418621  0.54328306  0.64144073  1
  S2-  S158  1  0.62454329  0.87699516  0.14526850  1
  S2-  S159  1  0.75533960  0.98357419  0.65429526  1
  S2-  S160  1  0.19388037  -0.00003395  0.35865947  1
  S2-  S161  1  0.12957707  0.05262370  0.85590178  1
  S2-  S162  1  0.13795060  0.21290981  0.32568844  1
  S2-  S163  1  0.15023446  0.20342382  0.77189158  1
  S2-  S164  1  0.10324753  0.42052672  0.35647187  1
  S2-  S165  1  0.12993985  0.38590765  0.82506574  1
  S2-  S166  1  0.20572542  0.75884835  0.36074196  1
  S2-  S167  1  0.13020591  0.68209764  0.85465171  1
  S2-  S168  1  0.39479196  0.00949335  0.32360434  1
  S2-  S169  1  0.35535313  -0.04052630  0.85477260  1
  S2-  S170  1  0.34155789  0.23120156  0.34223254  1
  S2-  S171  1  0.31788838  0.21597294  0.84727878  1
  S2-  S172  1  0.34090284  0.47672496  0.34582376  1
  S2-  S173  1  0.28617182  0.52360883  0.84163619  1
  S2-  S174  1  0.44266952  0.78011570  0.34732205  1
  S2-  S175  1  0.37645403  0.73234631  0.83372026  1
  S2-  S176  1  0.61721978  -0.08058003  0.35942430  1
  S2-  S177  1  0.65476731  0.02908810  0.84355049  1
  S2-  S178  1  0.71688988  0.26194308  0.36869852  1
  S2-  S179  1  0.75740250  0.24698078  0.85492706  1
  S2-  S180  1  0.61500924  0.45430019  0.34659923  1
  S2-  S181  1  0.74566323  0.51020666  0.85274730  1
  S2-  S182  1  0.64778946  0.67209977  0.34845582  1
  S2-  S183  1  0.61383897  0.79919593  0.84783320  1
  S2-  S184  1  0.84631180  0.01210442  0.35421615  1
  S2-  S185  1  0.88349466  0.03796035  0.83237889  1
  S2-  S186  1  0.93982082  0.27143930  0.35922465  1
  S2-  S187  1  0.97898728  0.22848374  0.84501468  1
  S2-  S188  1  0.87610703  0.52094823  0.34542450  1
  S2-  S189  1  0.97782768  0.53021177  0.84170865  1
  S2-  S190  1  0.88427578  0.76462818  0.34113151  1
  S2-  S191  1  0.87399967  0.81670034  0.85745489  1
  S2-  S192  1  -0.02945594  0.14068285  0.45606560  1
  S2-  S193  1  0.00608268  0.12046539  0.95546626  1
  S2-  S194  1  -0.03308705  0.39355383  0.46431667  1
  S2-  S195  1  0.00786784  0.37941588  0.94334991  1
  S2-  S196  1  -0.02800537  0.64365299  0.45277960  1
  S2-  S197  1  0.00635425  0.62924933  0.95429158  1
  S2-  S198  1  -0.02731762  0.89293518  0.44896219  1
  S2-  S199  1  0.01105134  0.87726934  0.96188663  1
  S2-  S200  1  0.21744561  0.14840794  0.45112073  1
  S2-  S201  1  0.25420571  0.12587848  0.95537900  1
  S2-  S202  1  0.22070551  0.39037477  0.46041727  1
  S2-  S203  1  0.25128766  0.37381924  0.94354256  1
  S2-  S204  1  0.21980232  0.63626019  0.46104108  1
  S2-  S205  1  0.25622803  0.62744465  0.95072681  1
  S2-  S206  1  0.21733072  0.89217807  0.46368318  1
  S2-  S207  1  0.25562123  0.87740391  0.96236768  1
  S2-  S208  1  0.47434223  0.14346582  0.45126167  1
  S2-  S209  1  0.50636427  0.12520938  0.95268106  1
  S2-  S210  1  0.47580509  0.39398495  0.44740226  1
  S2-  S211  1  0.50741031  0.37581041  0.95983858  1
  S2-  S212  1  0.46886448  0.63737828  0.44291616  1
  S2-  S213  1  0.50372187  0.62869243  0.94518754  1
  S2-  S214  1  0.46557371  0.90033146  0.45252629  1
  S2-  S215  1  0.50205390  0.87677439  0.95619008  1
  S2-  S216  1  0.71725565  0.13728098  0.46560744  1
  S2-  S217  1  0.75821345  0.12009862  0.95109737  1
  S2-  S218  1  0.71958668  0.39780521  0.46499293  1
  S2-  S219  1  0.75692057  0.37546495  0.95219192  1
  S2-  S220  1  0.72433252  0.63930286  0.45639255  1
  S2-  S221  1  0.75297142  0.63339994  0.95138035  1
  S2-  S222  1  0.72061040  0.89422752  0.46274155  1
  S2-  S223  1  0.75201278  0.87444373  0.96195442  1
  S2-  S224  1  0.13330964  0.00191847  0.05452121  1
  S2-  S225  1  0.09789433  0.01763625  0.54762719  1
  S2-  S226  1  0.13660958  0.24481624  0.06175505  1
  S2-  S227  1  0.09750944  0.26630553  0.54311157  1
  S2-  S228  1  0.13186453  0.50243623  0.04952046  1
  S2-  S229  1  0.09534668  0.51912780  0.54653335  1
  S2-  S230  1  0.13083202  0.75195875  0.05308350  1
  S2-  S231  1  0.09417549  0.76574350  0.54431524  1
  S2-  S232  1  0.38254380  0.00529762  0.05066361  1
  S2-  S233  1  0.34649064  0.01422302  0.53626522  1
  S2-  S234  1  0.38026082  0.24669293  0.04660378  1
  S2-  S235  1  0.34783472  0.27075482  0.54308992  1
  S2-  S236  1  0.37703098  0.50143094  0.03464635  1
  S2-  S237  1  0.34825956  0.51418690  0.54727236  1
  S2-  S238  1  0.38391459  0.74556124  0.04074206  1
  S2-  S239  1  0.34817545  0.76659663  0.54130020  1
  S2-  S240  1  0.62772692  0.00530132  0.04491576  1
  S2-  S241  1  0.59640226  0.01615053  0.54547911  1
  S2-  S242  1  0.63516542  0.25308367  0.03855754  1
  S2-  S243  1  0.60058651  0.26814559  0.55048077  1
  S2-  S244  1  0.63571192  0.50113221  0.03599729  1
  S2-  S245  1  0.59331822  0.51749359  0.54019753  1
  S2-  S246  1  0.62793324  0.74393950  0.04700744  1
  S2-  S247  1  0.59562147  0.76122708  0.53022920  1
  S2-  S248  1  0.88191626  0.00031677  0.04446819  1
  S2-  S249  1  0.85125910  0.01874531  0.55415473  1
  S2-  S250  1  0.88273834  0.25073912  0.04099164  1
  S2-  S251  1  0.84215601  0.26113938  0.55121146  1
  S2-  S252  1  0.88325354  0.50172363  0.03861132  1
  S2-  S253  1  0.84439790  0.52375409  0.54584965  1
  S2-  S254  1  0.88212186  0.74971471  0.05170998  1
  S2-  S255  1  0.84576575  0.76545719  0.54922223  1
