# generated using pymatgen
data_La9Ce10Pr6Nd4Sm3(BiS2)32
_symmetry_space_group_name_H-M   'P 1'
_cell_length_a   16.17617523
_cell_length_b   16.21638320
_cell_length_c   27.07687459
_cell_angle_alpha   89.96196725
_cell_angle_beta   90.20841391
_cell_angle_gamma   90.04340144
_symmetry_Int_Tables_number   1
_chemical_formula_structural   La9Ce10Pr6Nd4Sm3(BiS2)32
_chemical_formula_sum   'La18 Ce20 Pr12 Nd8 Sm6 Bi64 S128'
_cell_volume   7102.72960897
_cell_formula_units_Z   2
loop_
 _symmetry_equiv_pos_site_id
 _symmetry_equiv_pos_as_xyz
  1  'x, y, z'
loop_
 _atom_type_symbol
 _atom_type_oxidation_number
  La3+  3.0
  Ce3+  3.0
  Pr3+  3.0
  Nd3+  3.0
  Sm3+  3.0
  Bi2+  2.0
  S2-  -2.0
loop_
 _atom_site_type_symbol
 _atom_site_label
 _atom_site_symmetry_multiplicity
 _atom_site_fract_x
 _atom_site_fract_y
 _atom_site_fract_z
 _atom_site_occupancy
  La3+  La0  1  0.35205266  0.01223512  0.41900649  1
  La3+  La1  1  0.73584528  0.37338991  0.57578567  1
  La3+  La2  1  0.35312319  0.75217301  0.41511562  1
  La3+  La3  1  0.24746613  0.87194891  0.59127863  1
  La3+  La4  1  0.22960989  0.13435173  0.57857002  1
  La3+  La5  1  -0.01511449  0.87200991  0.57321884  1
  La3+  La6  1  0.86886779  0.50433105  0.89209096  1
  La3+  La7  1  0.48019440  0.12625304  0.56635701  1
  La3+  La8  1  -0.01901056  0.38240931  0.56699854  1
  La3+  La9  1  0.25086201  0.62118978  0.09852504  1
  La3+  La10  1  0.72904193  0.63207086  0.58281498  1
  La3+  La11  1  0.60718005  0.01134324  0.40492649  1
  La3+  La12  1  -0.01949369  0.12672647  0.57589579  1
  La3+  La13  1  0.10807931  0.00299449  0.44302364  1
  La3+  La14  1  0.49494126  0.13714484  0.08578788  1
  La3+  La15  1  0.85495043  0.50212643  0.43020585  1
  La3+  La16  1  0.00062683  0.12969193  0.05961575  1
  La3+  La17  1  0.87101923  0.75958894  0.92851042  1
  Ce3+  Ce18  1  0.62573264  0.50557791  0.93703041  1
  Ce3+  Ce19  1  0.12092382  0.25419259  0.93575560  1
  Ce3+  Ce20  1  0.24737846  0.87965032  0.06255478  1
  Ce3+  Ce21  1  -0.00361851  0.38361153  0.04754241  1
  Ce3+  Ce22  1  0.61255371  0.50286896  0.43844000  1
  Ce3+  Ce23  1  0.24566105  0.38318547  0.05528743  1
  Ce3+  Ce24  1  0.23761503  0.62730533  0.55741394  1
  Ce3+  Ce25  1  0.86263611  0.00078389  0.44248304  1
  Ce3+  Ce26  1  -0.00544233  0.62788477  0.05398687  1
  Ce3+  Ce27  1  0.37512705  0.24965424  0.93913584  1
  Ce3+  Ce28  1  0.13160383  0.00456066  0.92563065  1
  Ce3+  Ce29  1  0.12382080  0.75047806  0.94586239  1
  Ce3+  Ce30  1  0.24953390  0.12970733  0.05825207  1
  Ce3+  Ce31  1  0.60690354  0.25328966  0.43811475  1
  Ce3+  Ce32  1  0.73117647  0.12608802  0.55288708  1
  Ce3+  Ce33  1  0.75027868  0.62815387  0.05290913  1
  Ce3+  Ce34  1  0.49681755  0.62783286  0.06407226  1
  Ce3+  Ce35  1  0.22981490  0.38475031  0.56932326  1
  Ce3+  Ce36  1  0.00001374  0.87727613  0.05334426  1
  Ce3+  Ce37  1  0.12157237  0.50509228  0.93497768  1
  Pr3+  Pr38  1  0.48562404  0.38214469  0.56369971  1
  Pr3+  Pr39  1  0.48062137  0.62743405  0.55700119  1
  Pr3+  Pr40  1  0.47829941  0.87966615  0.54552894  1
  Pr3+  Pr41  1  0.86155463  0.25296895  0.92552722  1
  Pr3+  Pr42  1  0.86095151  0.24938402  0.43763378  1
  Pr3+  Pr43  1  0.37762358  -0.00465477  0.93328619  1
  Pr3+  Pr44  1  0.34945283  0.50166589  0.42485917  1
  Pr3+  Pr45  1  0.72976543  0.87787999  0.56100504  1
  Pr3+  Pr46  1  0.87270017  0.00373921  0.93195418  1
  Pr3+  Pr47  1  0.11075067  0.75707657  0.44025715  1
  Pr3+  Pr48  1  0.61488542  0.24964500  0.93640406  1
  Pr3+  Pr49  1  0.10228595  0.50126467  0.43153386  1
  Nd3+  Nd50  1  0.37228799  0.75079926  0.94525513  1
  Nd3+  Nd51  1  -0.01585554  0.62697801  0.55560743  1
  Nd3+  Nd52  1  0.60799163  0.75360288  0.43633870  1
  Nd3+  Nd53  1  0.37241807  0.50373598  0.94059159  1
  Nd3+  Nd54  1  0.85529477  0.75609016  0.44318161  1
  Nd3+  Nd55  1  0.74973996  0.37896069  0.05789390  1
  Nd3+  Nd56  1  0.35697679  0.25399849  0.44333564  1
  Nd3+  Nd57  1  0.75384327  0.12848188  0.06023849  1
  Sm3+  Sm58  1  0.10817947  0.25215539  0.44982193  1
  Sm3+  Sm59  1  0.74659824  0.87978478  0.06207833  1
  Sm3+  Sm60  1  0.49865766  0.37894393  0.05747846  1
  Sm3+  Sm61  1  0.48653275  0.87901781  0.07988037  1
  Sm3+  Sm62  1  0.61223484  0.00242369  0.95312007  1
  Sm3+  Sm63  1  0.61936236  0.75511738  0.95303715  1
  Bi2+  Bi64  1  -0.03518515  0.16089110  0.31150070  1
  Bi2+  Bi65  1  -0.11014491  0.12533343  0.80409078  1
  Bi2+  Bi66  1  -0.02330215  0.35826829  0.28821186  1
  Bi2+  Bi67  1  0.04673623  0.35781728  0.80550763  1
  Bi2+  Bi68  1  0.00896213  0.62255142  0.27970171  1
  Bi2+  Bi69  1  0.01748792  0.64758515  0.80732044  1
  Bi2+  Bi70  1  -0.01600855  0.85135690  0.31675408  1
  Bi2+  Bi71  1  -0.00947434  0.87744914  0.78265092  1
  Bi2+  Bi72  1  0.21463319  0.14969788  0.29288748  1
  Bi2+  Bi73  1  0.29710889  0.15159447  0.79359625  1
  Bi2+  Bi74  1  0.27199351  0.38375386  0.29766625  1
  Bi2+  Bi75  1  0.27940881  0.34475849  0.78535346  1
  Bi2+  Bi76  1  0.25315845  0.63306677  0.28550113  1
  Bi2+  Bi77  1  0.32636601  0.64356424  0.76255512  1
  Bi2+  Bi78  1  0.24586297  0.88660162  0.29240278  1
  Bi2+  Bi79  1  0.24320193  0.86918185  0.79751976  1
  Bi2+  Bi80  1  0.47592131  0.13315841  0.28776232  1
  Bi2+  Bi81  1  0.49044997  0.12963616  0.77781070  1
  Bi2+  Bi82  1  0.46243590  0.34741347  0.30372991  1
  Bi2+  Bi83  1  0.47406534  0.37783454  0.80007982  1
  Bi2+  Bi84  1  0.51124283  0.53951622  0.29223388  1
  Bi2+  Bi85  1  0.51953019  0.61938898  0.80457082  1
  Bi2+  Bi86  1  0.54795308  0.86096307  0.28505169  1
  Bi2+  Bi87  1  0.50686367  0.88543256  0.79993429  1
  Bi2+  Bi88  1  0.78626026  0.10358790  0.28211127  1
  Bi2+  Bi89  1  0.69403039  0.11424389  0.79273600  1
  Bi2+  Bi90  1  0.65431352  0.37445041  0.30312799  1
  Bi2+  Bi91  1  0.66661855  0.36709051  0.78041607  1
  Bi2+  Bi92  1  0.81978170  0.58440247  0.28704715  1
  Bi2+  Bi93  1  0.76698545  0.59048916  0.76253465  1
  Bi2+  Bi94  1  0.81034515  0.85166873  0.26451124  1
  Bi2+  Bi95  1  0.72398037  0.92029839  0.79787341  1
  Bi2+  Bi96  1  0.12053148  0.00639768  0.21498996  1
  Bi2+  Bi97  1  0.15385483  0.05137898  0.73749129  1
  Bi2+  Bi98  1  0.12393856  0.18702193  0.17634161  1
  Bi2+  Bi99  1  0.11710515  0.28518902  0.70927020  1
  Bi2+  Bi100  1  0.12858358  0.37584279  0.21174956  1
  Bi2+  Bi101  1  0.19193783  0.50493645  0.73141077  1
  Bi2+  Bi102  1  0.08819761  0.78654785  0.22657196  1
  Bi2+  Bi103  1  0.13235020  0.68854422  0.71646893  1
  Bi2+  Bi104  1  0.31720240  0.00596844  0.21803552  1
  Bi2+  Bi105  1  0.38990124  -0.01822888  0.70686470  1
  Bi2+  Bi106  1  0.29985581  0.26251363  0.20391939  1
  Bi2+  Bi107  1  0.39848469  0.34134662  0.69056746  1
  Bi2+  Bi108  1  0.38459508  0.46807866  0.21148492  1
  Bi2+  Bi109  1  0.35467402  0.52351420  0.65771387  1
  Bi2+  Bi110  1  0.40146761  0.75930734  0.20675879  1
  Bi2+  Bi111  1  0.46039585  0.71879541  0.69540983  1
  Bi2+  Bi112  1  0.65319480  -0.01150504  0.20265340  1
  Bi2+  Bi113  1  0.65848183  -0.07714957  0.68785791  1
  Bi2+  Bi114  1  0.61587430  0.23900273  0.20517857  1
  Bi2+  Bi115  1  0.60544067  0.23482149  0.70382776  1
  Bi2+  Bi116  1  0.63900354  0.46721203  0.20387039  1
  Bi2+  Bi117  1  0.54405704  0.50038647  0.71129097  1
  Bi2+  Bi118  1  0.65104189  0.64861316  0.24412415  1
  Bi2+  Bi119  1  0.64466142  0.75294711  0.74830399  1
  Bi2+  Bi120  1  0.91266588  -0.00217683  0.21398031  1
  Bi2+  Bi121  1  0.82881715  0.01693479  0.71186257  1
  Bi2+  Bi122  1  0.86416524  0.24656920  0.21680127  1
  Bi2+  Bi123  1  0.87999002  0.21489225  0.70606727  1
  Bi2+  Bi124  1  0.89913680  0.49385220  0.18092085  1
  Bi2+  Bi125  1  0.94887784  0.49399478  0.69032840  1
  Bi2+  Bi126  1  0.91672045  0.70758255  0.18890274  1
  Bi2+  Bi127  1  0.89035384  0.78105183  0.70706353  1
  S2-  S128  1  -0.08977721  0.13232338  0.14642568  1
  S2-  S129  1  0.06029580  0.13264060  0.66659784  1
  S2-  S130  1  -0.01307412  0.36927554  0.14575100  1
  S2-  S131  1  0.09357429  0.42040663  0.64640678  1
  S2-  S132  1  0.03222623  0.59118269  0.14791089  1
  S2-  S133  1  -0.01398374  0.65522816  0.65588238  1
  S2-  S134  1  0.02092097  0.90006597  0.14994675  1
  S2-  S135  1  -0.00437289  0.89586059  0.67381017  1
  S2-  S136  1  0.33986610  0.12556511  0.14247107  1
  S2-  S137  1  0.28185822  0.08952682  0.67362355  1
  S2-  S138  1  0.24195898  0.46435167  0.14467194  1
  S2-  S139  1  0.24754498  0.27824049  0.64732034  1
  S2-  S140  1  0.23525321  0.70801281  0.18757769  1
  S2-  S141  1  0.23537715  0.71611359  0.64267716  1
  S2-  S142  1  0.34616689  0.88661437  0.14471312  1
  S2-  S143  1  0.21816524  0.90894619  0.69753939  1
  S2-  S144  1  0.52557299  0.08819164  0.18858246  1
  S2-  S145  1  0.49995862  0.10066631  0.66727626  1
  S2-  S146  1  0.50802309  0.29361234  0.14344503  1
  S2-  S147  1  0.60386676  0.37941867  0.64263505  1
  S2-  S148  1  0.41913313  0.61732226  0.15193835  1
  S2-  S149  1  0.57968785  0.63030731  0.64244869  1
  S2-  S150  1  0.54476435  0.84892867  0.17486713  1
  S2-  S151  1  0.41271888  0.86028072  0.63974052  1
  S2-  S152  1  0.70661670  0.12048872  0.15580285  1
  S2-  S153  1  0.74139230  0.18368998  0.64620306  1
  S2-  S154  1  0.75657682  0.35833219  0.15927978  1
  S2-  S155  1  0.87032367  0.35988990  0.64921611  1
  S2-  S156  1  0.78272627  0.62001835  0.14878079  1
  S2-  S157  1  0.78528516  0.54722903  0.67035596  1
  S2-  S158  1  0.77824583  0.88416398  0.15862900  1
  S2-  S159  1  0.74993035  0.78093041  0.64586751  1
  S2-  S160  1  0.20493319  0.00901848  0.35612418  1
  S2-  S161  1  0.06592350  -0.00427748  0.82962806  1
  S2-  S162  1  0.10308599  0.25133423  0.34983069  1
  S2-  S163  1  0.11894164  0.21871788  0.83955150  1
  S2-  S164  1  0.20405473  0.51457481  0.34873889  1
  S2-  S165  1  0.12669461  0.51381737  0.83621699  1
  S2-  S166  1  0.20062009  0.75304109  0.35212418  1
  S2-  S167  1  0.14031578  0.76546206  0.84686872  1
  S2-  S168  1  0.47117973  -0.00501046  0.33821611  1
  S2-  S169  1  0.26710217  0.01308504  0.85240428  1
  S2-  S170  1  0.34877219  0.16520333  0.35677945  1
  S2-  S171  1  0.48403593  0.23485873  0.86279058  1
  S2-  S172  1  0.37725433  0.61328195  0.34773466  1
  S2-  S173  1  0.38273906  0.54143824  0.84281397  1
  S2-  S174  1  0.40288915  0.80054995  0.31119043  1
  S2-  S175  1  0.37853129  0.83357013  0.85682693  1
  S2-  S176  1  0.71301059  -0.03327322  0.32519532  1
  S2-  S177  1  0.51836507  0.00307724  0.86841341  1
  S2-  S178  1  0.60122622  0.17021170  0.35118398  1
  S2-  S179  1  0.71515733  0.25187585  0.85351914  1
  S2-  S180  1  0.72342806  0.50690442  0.35983702  1
  S2-  S181  1  0.70626226  0.50034388  0.84744061  1
  S2-  S182  1  0.61594030  0.73917433  0.33523492  1
  S2-  S183  1  0.60317574  0.75755741  0.85480985  1
  S2-  S184  1  0.97399679  0.00720520  0.36620232  1
  S2-  S185  1  0.86685718  -0.11335940  0.85553932  1
  S2-  S186  1  0.84534695  0.30701968  0.34208312  1
  S2-  S187  1  0.89679715  0.34872521  0.84362503  1
  S2-  S188  1  0.97834721  0.50115779  0.35429719  1
  S2-  S189  1  0.92260079  0.51380423  0.78653997  1
  S2-  S190  1  0.85306203  0.73876482  0.34330754  1
  S2-  S191  1  0.85876818  0.66782693  0.84195382  1
  S2-  S192  1  -0.01499178  0.12959869  0.46659412  1
  S2-  S193  1  -0.00318043  0.12850414  0.94885998  1
  S2-  S194  1  -0.01715792  0.37385999  0.45748156  1
  S2-  S195  1  -0.00284072  0.38140589  0.94451683  1
  S2-  S196  1  -0.01810226  0.63457168  0.45026898  1
  S2-  S197  1  -0.00601804  0.62615250  0.94581461  1
  S2-  S198  1  -0.01751801  0.87479674  0.46413907  1
  S2-  S199  1  0.00499455  0.88182612  0.94955722  1
  S2-  S200  1  0.23050550  0.13292323  0.46535874  1
  S2-  S201  1  0.24929997  0.13194421  0.95305831  1
  S2-  S202  1  0.23068685  0.37472932  0.45565019  1
  S2-  S203  1  0.24886321  0.37877034  0.94547438  1
  S2-  S204  1  0.23072863  0.62684224  0.45314465  1
  S2-  S205  1  0.24927925  0.62744656  0.94674577  1
  S2-  S206  1  0.23654192  0.88047127  0.45423829  1
  S2-  S207  1  0.24667929  0.87498796  0.95820368  1
  S2-  S208  1  0.48278091  0.12698987  0.45677533  1
  S2-  S209  1  0.49449268  0.12764744  0.97138327  1
  S2-  S210  1  0.48310332  0.37928239  0.45000856  1
  S2-  S211  1  0.49839420  0.38301978  0.95366689  1
  S2-  S212  1  0.48724768  0.62676621  0.44919800  1
  S2-  S213  1  0.49815233  0.62834776  0.95702467  1
  S2-  S214  1  0.48379017  0.87993795  0.44027183  1
  S2-  S215  1  0.49725447  0.87230963  0.97154079  1
  S2-  S216  1  0.73596094  0.12338655  0.44714366  1
  S2-  S217  1  0.74135396  0.11919415  0.95284321  1
  S2-  S218  1  0.73389910  0.37165168  0.46018631  1
  S2-  S219  1  0.74687446  0.38215162  0.95224300  1
  S2-  S220  1  0.73239397  0.63402678  0.45817380  1
  S2-  S221  1  0.74433878  0.63341848  0.94894186  1
  S2-  S222  1  0.73107504  0.88188222  0.45153905  1
  S2-  S223  1  0.73737443  0.88167118  0.95654455  1
  S2-  S224  1  0.12533873  0.00460682  0.04289182  1
  S2-  S225  1  0.11168446  -0.00306777  0.55848756  1
  S2-  S226  1  0.12379436  0.25830492  0.04289636  1
  S2-  S227  1  0.10295877  0.25535375  0.55308418  1
  S2-  S228  1  0.12353912  0.50776721  0.04067519  1
  S2-  S229  1  0.10943772  0.50865503  0.53890585  1
  S2-  S230  1  0.12641059  0.74840841  0.05387679  1
  S2-  S231  1  0.11024901  0.75301923  0.54739564  1
  S2-  S232  1  0.37073658  0.00202604  0.04283462  1
  S2-  S233  1  0.35286008  0.00522016  0.54926696  1
  S2-  S234  1  0.36962482  0.26155099  0.04434268  1
  S2-  S235  1  0.36176034  0.25718723  0.54824059  1
  S2-  S236  1  0.37468884  0.50286711  0.04609963  1
  S2-  S237  1  0.35870027  0.49981054  0.53518759  1
  S2-  S238  1  0.36773408  0.74662567  0.05116518  1
  S2-  S239  1  0.35778632  0.74991628  0.53386883  1
  S2-  S240  1  0.61833005  -0.00020821  0.05748147  1
  S2-  S241  1  0.60646276  0.00275489  0.54836060  1
  S2-  S242  1  0.62683976  0.25413319  0.04453696  1
  S2-  S243  1  0.60601924  0.25000351  0.54351632  1
  S2-  S244  1  0.62211060  0.50254683  0.04757246  1
  S2-  S245  1  0.61161447  0.50457946  0.54260632  1
  S2-  S246  1  0.62263295  0.75456556  0.05878564  1
  S2-  S247  1  0.60397488  0.75658220  0.54236943  1
  S2-  S248  1  0.87162336  -0.00023731  0.04146106  1
  S2-  S249  1  0.85786313  0.00004521  0.55347320  1
  S2-  S250  1  0.87171558  0.25474702  0.03729158  1
  S2-  S251  1  0.85793375  0.24756740  0.54456425  1
  S2-  S252  1  0.87127265  0.50415810  0.04205883  1
  S2-  S253  1  0.85576561  0.50801204  0.54413119  1
  S2-  S254  1  0.87049050  0.75829023  0.04055081  1
  S2-  S255  1  0.85928925  0.75072898  0.54789766  1
