# generated using pymatgen
data_La9Ce10Pr6Nd4Sm3(BiS2)32
_symmetry_space_group_name_H-M   'P 1'
_cell_length_a   16.18075611
_cell_length_b   16.17423142
_cell_length_c   27.25294811
_cell_angle_alpha   89.94667749
_cell_angle_beta   89.93458780
_cell_angle_gamma   89.93958440
_symmetry_Int_Tables_number   1
_chemical_formula_structural   La9Ce10Pr6Nd4Sm3(BiS2)32
_chemical_formula_sum   'La18 Ce20 Pr12 Nd8 Sm6 Bi64 S128'
_cell_volume   7132.39261901
_cell_formula_units_Z   2
loop_
 _symmetry_equiv_pos_site_id
 _symmetry_equiv_pos_as_xyz
  1  'x, y, z'
loop_
 _atom_type_symbol
 _atom_type_oxidation_number
  La3+  3.0
  Ce3+  3.0
  Pr3+  3.0
  Nd3+  3.0
  Sm3+  3.0
  Bi2+  2.0
  S2-  -2.0
loop_
 _atom_site_type_symbol
 _atom_site_label
 _atom_site_symmetry_multiplicity
 _atom_site_fract_x
 _atom_site_fract_y
 _atom_site_fract_z
 _atom_site_occupancy
  La3+  La0  1  0.11203315  0.49428323  0.43108714  1
  La3+  La1  1  0.48108232  0.13338075  0.06837935  1
  La3+  La2  1  0.35581554  0.50539042  0.90725094  1
  La3+  La3  1  0.73068533  0.36815104  0.06230437  1
  La3+  La4  1  0.23337646  0.36854789  0.57388008  1
  La3+  La5  1  0.62509021  0.50112695  0.89171576  1
  La3+  La6  1  0.85355181  0.74956886  0.42950156  1
  La3+  La7  1  0.36645097  0.73713279  0.40712715  1
  La3+  La8  1  0.73993371  0.36810587  0.57538277  1
  La3+  La9  1  0.10993160  0.74717754  0.41089654  1
  La3+  La10  1  0.73307729  0.62134132  0.07386796  1
  La3+  La11  1  0.86027522  0.25427129  0.43173264  1
  La3+  La12  1  0.23612212  0.62264903  0.55550789  1
  La3+  La13  1  0.48227496  0.62026291  0.05969275  1
  La3+  La14  1  0.35197608  0.24222562  0.91675198  1
  La3+  La15  1  0.22914935  0.61685120  0.08152271  1
  La3+  La16  1  -0.00481065  0.87501579  0.61474425  1
  La3+  La17  1  0.73193614  0.87518174  0.06268924  1
  Ce3+  Ce18  1  -0.01950855  0.12343266  0.06164518  1
  Ce3+  Ce19  1  0.11324559  0.50212086  0.93808272  1
  Ce3+  Ce20  1  -0.01702284  0.87466786  0.06383842  1
  Ce3+  Ce21  1  0.11341396  0.24892263  0.43882084  1
  Ce3+  Ce22  1  0.48240114  0.37275524  0.03948217  1
  Ce3+  Ce23  1  0.73880871  0.62218325  0.56260920  1
  Ce3+  Ce24  1  0.36150677  0.24868091  0.44330055  1
  Ce3+  Ce25  1  0.48247984  0.87493020  0.05946081  1
  Ce3+  Ce26  1  0.85893673  0.49534855  0.45258374  1
  Ce3+  Ce27  1  0.23250284  0.86736679  0.54895043  1
  Ce3+  Ce28  1  0.11213554  0.24906342  0.94553998  1
  Ce3+  Ce29  1  0.85690707  0.25049228  0.93929078  1
  Ce3+  Ce30  1  -0.00883753  0.37131501  0.56799808  1
  Ce3+  Ce31  1  -0.01297695  0.63223544  0.55238719  1
  Ce3+  Ce32  1  0.48863445  0.86717399  0.56057304  1
  Ce3+  Ce33  1  0.10979648  0.74410445  0.94904442  1
  Ce3+  Ce34  1  0.36314170  -0.00449098  0.44423767  1
  Ce3+  Ce35  1  0.60907422  0.49174379  0.45277529  1
  Ce3+  Ce36  1  0.23289181  0.11514169  0.55541829  1
  Ce3+  Ce37  1  0.36459125  0.48813726  0.43871059  1
  Pr3+  Pr38  1  0.61132062  -0.00101214  0.93176961  1
  Pr3+  Pr39  1  0.11209463  -0.00490717  0.43069456  1
  Pr3+  Pr40  1  0.48483001  0.11873411  0.57040210  1
  Pr3+  Pr41  1  0.23481358  0.12109411  0.06501952  1
  Pr3+  Pr42  1  0.73902340  0.11836064  0.55917047  1
  Pr3+  Pr43  1  0.10283635  -0.00340668  0.93569381  1
  Pr3+  Pr44  1  0.60769350  0.24902076  0.92845725  1
  Pr3+  Pr45  1  -0.01400671  0.11727716  0.55777980  1
  Pr3+  Pr46  1  0.86264169  -0.00672169  0.44199413  1
  Pr3+  Pr47  1  0.61093063  -0.00365223  0.43941709  1
  Pr3+  Pr48  1  0.73349603  0.86595877  0.57109861  1
  Pr3+  Pr49  1  0.35530651  -0.00416653  0.93572411  1
  Nd3+  Nd50  1  0.23653752  0.37417895  0.05875290  1
  Nd3+  Nd51  1  0.85797054  -0.00348378  0.93387653  1
  Nd3+  Nd52  1  0.60907138  0.74470620  0.94127501  1
  Nd3+  Nd53  1  0.36101615  0.74437751  0.94163120  1
  Nd3+  Nd54  1  0.23306824  0.87138936  0.06061862  1
  Nd3+  Nd55  1  0.85749167  0.74351628  0.94043517  1
  Nd3+  Nd56  1  -0.01528067  0.37235147  0.05461259  1
  Nd3+  Nd57  1  0.85856053  0.49888463  0.94073974  1
  Sm3+  Sm58  1  0.48525171  0.61726994  0.56063025  1
  Sm3+  Sm59  1  0.72621051  0.12033175  0.06157567  1
  Sm3+  Sm60  1  0.61041392  0.74398918  0.44096306  1
  Sm3+  Sm61  1  0.47703718  0.36209146  0.58187291  1
  Sm3+  Sm62  1  -0.02046254  0.62231713  0.06840145  1
  Sm3+  Sm63  1  0.61096658  0.24639011  0.45108742  1
  Bi2+  Bi64  1  0.10588264  0.13180801  0.31045393  1
  Bi2+  Bi65  1  -0.02891231  0.13108880  0.78456604  1
  Bi2+  Bi66  1  -0.01108170  0.37674866  0.28792416  1
  Bi2+  Bi67  1  -0.00232521  0.40812539  0.79680112  1
  Bi2+  Bi68  1  0.03205630  0.61800759  0.25327735  1
  Bi2+  Bi69  1  -0.00537760  0.60635226  0.79815822  1
  Bi2+  Bi70  1  0.02930425  0.86397956  0.26767717  1
  Bi2+  Bi71  1  0.02345203  0.85881242  0.81648928  1
  Bi2+  Bi72  1  0.29563239  0.18057471  0.30709579  1
  Bi2+  Bi73  1  0.22290550  0.10050084  0.79624864  1
  Bi2+  Bi74  1  0.24924309  0.39095230  0.29811794  1
  Bi2+  Bi75  1  0.26645700  0.36807678  0.79346321  1
  Bi2+  Bi76  1  0.23894610  0.60238432  0.28645570  1
  Bi2+  Bi77  1  0.23741346  0.63948600  0.79116966  1
  Bi2+  Bi78  1  0.29014250  0.89748203  0.29878176  1
  Bi2+  Bi79  1  0.24466405  0.85345132  0.76980298  1
  Bi2+  Bi80  1  0.53350488  0.07607781  0.24203863  1
  Bi2+  Bi81  1  0.51959164  0.05782392  0.80487161  1
  Bi2+  Bi82  1  0.52891004  0.33808556  0.26964433  1
  Bi2+  Bi83  1  0.52220621  0.36217374  0.76788210  1
  Bi2+  Bi84  1  0.49979133  0.53665079  0.28791690  1
  Bi2+  Bi85  1  0.50338614  0.71595049  0.79220930  1
  Bi2+  Bi86  1  0.55058932  0.88128145  0.25872716  1
  Bi2+  Bi87  1  0.41531911  0.88252985  0.82574489  1
  Bi2+  Bi88  1  0.69861795  0.11235073  0.30226698  1
  Bi2+  Bi89  1  0.70613249  0.10167877  0.77909912  1
  Bi2+  Bi90  1  0.73589765  0.35410374  0.31223378  1
  Bi2+  Bi91  1  0.78887389  0.35660416  0.79109059  1
  Bi2+  Bi92  1  0.70555541  0.61794883  0.29207660  1
  Bi2+  Bi93  1  0.80338741  0.66492386  0.80225754  1
  Bi2+  Bi94  1  0.80141632  0.85289859  0.29607793  1
  Bi2+  Bi95  1  0.61452250  0.87478560  0.82266496  1
  Bi2+  Bi96  1  0.15398280  0.04881507  0.20401042  1
  Bi2+  Bi97  1  0.16521370  0.01820547  0.69677316  1
  Bi2+  Bi98  1  0.17903434  0.24403917  0.21532006  1
  Bi2+  Bi99  1  0.10401187  0.25920934  0.74900635  1
  Bi2+  Bi100  1  0.09453940  0.45351496  0.20059438  1
  Bi2+  Bi101  1  0.09084599  0.50665186  0.71198789  1
  Bi2+  Bi102  1  0.14891347  0.76973438  0.19653725  1
  Bi2+  Bi103  1  0.14727005  0.71707961  0.70213622  1
  Bi2+  Bi104  1  0.34966952  0.00828171  0.21573522  1
  Bi2+  Bi105  1  0.38516613  0.00631447  0.70991976  1
  Bi2+  Bi106  1  0.38167057  0.26419899  0.20343520  1
  Bi2+  Bi107  1  0.36278442  0.21279435  0.70577247  1
  Bi2+  Bi108  1  0.36553191  0.46242126  0.21568032  1
  Bi2+  Bi109  1  0.38324646  0.51711683  0.69924429  1
  Bi2+  Bi110  1  0.42852719  0.73735922  0.21805507  1
  Bi2+  Bi111  1  0.40750399  0.81054229  0.71088028  1
  Bi2+  Bi112  1  0.73456523  0.03637499  0.20097933  1
  Bi2+  Bi113  1  0.58352655  0.02472661  0.69494657  1
  Bi2+  Bi114  1  0.64720018  0.25823172  0.18507139  1
  Bi2+  Bi115  1  0.69697515  0.25638446  0.71015632  1
  Bi2+  Bi116  1  0.63460307  0.48056666  0.21150184  1
  Bi2+  Bi117  1  0.62504543  0.56181268  0.70015156  1
  Bi2+  Bi118  1  0.66971767  0.71810645  0.19721401  1
  Bi2+  Bi119  1  0.69585352  0.86702497  0.72248162  1
  Bi2+  Bi120  1  0.94524649  0.04259185  0.25923517  1
  Bi2+  Bi121  1  0.87092590  -0.00800006  0.72876176  1
  Bi2+  Bi122  1  0.96392859  0.22461185  0.21865247  1
  Bi2+  Bi123  1  0.94803513  0.21777952  0.68166382  1
  Bi2+  Bi124  1  0.86314223  0.51636517  0.26094053  1
  Bi2+  Bi125  1  0.89941764  0.40838409  0.69032864  1
  Bi2+  Bi126  1  0.86350346  0.74536310  0.20353741  1
  Bi2+  Bi127  1  0.88170661  0.61145613  0.70205162  1
  S2-  S128  1  -0.00274370  0.08259747  0.15681375  1
  S2-  S129  1  0.01130616  0.04367365  0.64889382  1
  S2-  S130  1  -0.02458729  0.36381555  0.15373680  1
  S2-  S131  1  0.10370874  0.38466848  0.64319811  1
  S2-  S132  1  0.08476645  0.62265192  0.14918775  1
  S2-  S133  1  -0.00005739  0.70224662  0.64185180  1
  S2-  S134  1  -0.00590460  0.84444935  0.16059446  1
  S2-  S135  1  -0.00969003  0.86869158  0.72561669  1
  S2-  S136  1  0.35210118  0.12335461  0.14004943  1
  S2-  S137  1  0.22274962  0.15785234  0.64993981  1
  S2-  S138  1  0.24135661  0.46707906  0.14396902  1
  S2-  S139  1  0.33438931  0.36708529  0.65742890  1
  S2-  S140  1  0.29715263  0.68945784  0.17010242  1
  S2-  S141  1  0.24453202  0.60034039  0.65655873  1
  S2-  S142  1  0.23076176  0.90678416  0.15845123  1
  S2-  S143  1  0.16912712  0.86426025  0.64049994  1
  S2-  S144  1  0.59658362  0.09154965  0.14281704  1
  S2-  S145  1  0.49548502  0.22104854  0.65349160  1
  S2-  S146  1  0.49869045  0.29955584  0.12852923  1
  S2-  S147  1  0.51861370  0.43747179  0.66902646  1
  S2-  S148  1  0.53364274  0.63926428  0.15701692  1
  S2-  S149  1  0.48427108  0.64167565  0.65850110  1
  S2-  S150  1  0.48432840  0.87109000  0.15763453  1
  S2-  S151  1  0.59289397  0.86969931  0.63983308  1
  S2-  S152  1  0.78714526  0.17235105  0.14972613  1
  S2-  S153  1  0.78766937  0.15323475  0.65392954  1
  S2-  S154  1  0.74707686  0.38872755  0.16313658  1
  S2-  S155  1  0.72489091  0.42386571  0.67081358  1
  S2-  S156  1  0.85922296  0.61419412  0.14396903  1
  S2-  S157  1  0.73811376  0.67753244  0.65451914  1
  S2-  S158  1  0.74933316  0.87204154  0.16293866  1
  S2-  S159  1  0.83014951  0.89185631  0.65420720  1
  S2-  S160  1  0.13283717  -0.08092010  0.33949269  1
  S2-  S161  1  0.18967531  -0.03661451  0.84833786  1
  S2-  S162  1  0.10938358  0.35934750  0.36149151  1
  S2-  S163  1  0.19183735  0.24697943  0.85895134  1
  S2-  S164  1  0.10115703  0.60046352  0.34783200  1
  S2-  S165  1  0.20066116  0.49910829  0.85251569  1
  S2-  S166  1  0.23904952  0.74868603  0.33614429  1
  S2-  S167  1  0.11160209  0.71651038  0.85196271  1
  S2-  S168  1  0.35921865  0.03116048  0.34830222  1
  S2-  S169  1  0.36040094  0.09502099  0.85334444  1
  S2-  S170  1  0.37140670  0.36197159  0.36932109  1
  S2-  S171  1  0.40639672  0.27658836  0.81697314  1
  S2-  S172  1  0.36975338  0.58182600  0.35153698  1
  S2-  S173  1  0.39272124  0.46940936  0.80266833  1
  S2-  S174  1  0.46189211  0.79000221  0.32051129  1
  S2-  S175  1  0.36249380  0.66154458  0.85285851  1
  S2-  S176  1  0.59494111  -0.00445650  0.33891726  1
  S2-  S177  1  0.73891836  -0.00021268  0.85843833  1
  S2-  S178  1  0.61018733  0.25211529  0.35240271  1
  S2-  S179  1  0.63106019  0.33673659  0.84244366  1
  S2-  S180  1  0.63443883  0.48983254  0.35603101  1
  S2-  S181  1  0.58753871  0.51447607  0.78780145  1
  S2-  S182  1  0.70749531  0.75679401  0.36035750  1
  S2-  S183  1  0.64030856  0.67347330  0.85246047  1
  S2-  S184  1  0.83679691  -0.00129766  0.34148009  1
  S2-  S185  1  0.97701779  0.00386481  0.85960830  1
  S2-  S186  1  0.83063625  0.22732517  0.33281598  1
  S2-  S187  1  0.85668967  0.22803723  0.84251128  1
  S2-  S188  1  0.86933859  0.43961264  0.36053160  1
  S2-  S189  1  0.78916516  0.50561358  0.84907709  1
  S2-  S190  1  0.93114558  0.77013031  0.33661079  1
  S2-  S191  1  0.86667801  0.80149630  0.84559317  1
  S2-  S192  1  -0.01494908  0.12262932  0.44739530  1
  S2-  S193  1  -0.01717356  0.12883036  0.95586449  1
  S2-  S194  1  -0.01470356  0.37154361  0.46216645  1
  S2-  S195  1  -0.01417072  0.37484562  0.94760106  1
  S2-  S196  1  -0.02089116  0.62185845  0.44737399  1
  S2-  S197  1  -0.01764603  0.62108037  0.95889630  1
  S2-  S198  1  -0.01298874  0.87221084  0.43975745  1
  S2-  S199  1  -0.01808367  0.86777079  0.95836851  1
  S2-  S200  1  0.23699502  0.12098942  0.45007694  1
  S2-  S201  1  0.22847343  0.11805233  0.95878730  1
  S2-  S202  1  0.23562431  0.36745664  0.46530077  1
  S2-  S203  1  0.23566866  0.37809281  0.95410260  1
  S2-  S204  1  0.24194696  0.61908394  0.44904631  1
  S2-  S205  1  0.23658299  0.62265632  0.96225741  1
  S2-  S206  1  0.24450842  0.86717433  0.44582066  1
  S2-  S207  1  0.23504841  0.86677550  0.95501042  1
  S2-  S208  1  0.48774640  0.12317308  0.45858550  1
  S2-  S209  1  0.48639835  0.12359349  0.95172353  1
  S2-  S210  1  0.49086914  0.36548583  0.47108934  1
  S2-  S211  1  0.48177236  0.37919771  0.93500788  1
  S2-  S212  1  0.48884638  0.62128035  0.45394188  1
  S2-  S213  1  0.48938820  0.61559339  0.95062028  1
  S2-  S214  1  0.48725102  0.86711851  0.45170811  1
  S2-  S215  1  0.48539200  0.87119008  0.95310902  1
  S2-  S216  1  0.73648462  0.12320427  0.45238658  1
  S2-  S217  1  0.73439381  0.12676889  0.95489691  1
  S2-  S218  1  0.73399845  0.36913781  0.46527568  1
  S2-  S219  1  0.73197562  0.37681976  0.95266916  1
  S2-  S220  1  0.73294623  0.61756803  0.45660307  1
  S2-  S221  1  0.73441932  0.61981059  0.96241279  1
  S2-  S222  1  0.73155917  0.87399128  0.46070316  1
  S2-  S223  1  0.73505482  0.86850039  0.95596585  1
  S2-  S224  1  0.10826602  -0.00249075  0.04603568  1
  S2-  S225  1  0.10963486  -0.00804594  0.53765984  1
  S2-  S226  1  0.11094109  0.24819414  0.05318670  1
  S2-  S227  1  0.10983428  0.24098317  0.54452688  1
  S2-  S228  1  0.10461612  0.49713333  0.04383485  1
  S2-  S229  1  0.10769907  0.50221416  0.54109490  1
  S2-  S230  1  0.10709817  0.74878855  0.05230421  1
  S2-  S231  1  0.11400943  0.74597210  0.53059935  1
  S2-  S232  1  0.35810960  -0.00508840  0.04312685  1
  S2-  S233  1  0.36181200  -0.00732431  0.55171395  1
  S2-  S234  1  0.35361172  0.25002998  0.03190926  1
  S2-  S235  1  0.35972410  0.23983369  0.54830381  1
  S2-  S236  1  0.36090398  0.49613838  0.04482095  1
  S2-  S237  1  0.36556631  0.49279377  0.54767566  1
  S2-  S238  1  0.35798804  0.74855950  0.04854248  1
  S2-  S239  1  0.36507259  0.74589496  0.55231402  1
  S2-  S240  1  0.60668251  -0.00320144  0.03869698  1
  S2-  S241  1  0.61084966  -0.00068639  0.54545021  1
  S2-  S242  1  0.61149029  0.24497182  0.03404494  1
  S2-  S243  1  0.61345110  0.24528299  0.55516530  1
  S2-  S244  1  0.60767656  0.49444441  0.05603654  1
  S2-  S245  1  0.61148057  0.49538708  0.55693513  1
  S2-  S246  1  0.60883120  0.74874515  0.04818745  1
  S2-  S247  1  0.60887706  0.73920379  0.54363801  1
  S2-  S248  1  0.85659687  0.00057909  0.04646892  1
  S2-  S249  1  0.86247011  -0.00665439  0.54733730  1
  S2-  S250  1  0.86005471  0.24771304  0.04406650  1
  S2-  S251  1  0.86382077  0.24672263  0.54377611  1
  S2-  S252  1  0.86024646  0.49334610  0.04614351  1
  S2-  S253  1  0.86544015  0.49823292  0.55747512  1
  S2-  S254  1  0.85987870  0.74927841  0.04790967  1
  S2-  S255  1  0.85828964  0.74813525  0.54166116  1
