# generated using pymatgen
data_La9Ce10Pr6Nd4Sm3(BiS2)32
_symmetry_space_group_name_H-M   'P 1'
_cell_length_a   16.16207882
_cell_length_b   16.19283816
_cell_length_c   27.22732354
_cell_angle_alpha   89.93048309
_cell_angle_beta   90.37017531
_cell_angle_gamma   90.05140360
_symmetry_Int_Tables_number   1
_chemical_formula_structural   La9Ce10Pr6Nd4Sm3(BiS2)32
_chemical_formula_sum   'La18 Ce20 Pr12 Nd8 Sm6 Bi64 S128'
_cell_volume   7125.50406543
_cell_formula_units_Z   2
loop_
 _symmetry_equiv_pos_site_id
 _symmetry_equiv_pos_as_xyz
  1  'x, y, z'
loop_
 _atom_type_symbol
 _atom_type_oxidation_number
  La3+  3.0
  Ce3+  3.0
  Pr3+  3.0
  Nd3+  3.0
  Sm3+  3.0
  Bi2+  2.0
  S2-  -2.0
loop_
 _atom_site_type_symbol
 _atom_site_label
 _atom_site_symmetry_multiplicity
 _atom_site_fract_x
 _atom_site_fract_y
 _atom_site_fract_z
 _atom_site_occupancy
  La3+  La0  1  0.25140832  0.37620060  0.05777501  1
  La3+  La1  1  0.00854206  0.11827207  0.56559336  1
  La3+  La2  1  0.00172773  0.12876486  0.09031213  1
  La3+  La3  1  0.51431027  0.61847306  0.57031489  1
  La3+  La4  1  0.62192819  0.00048213  0.92755878  1
  La3+  La5  1  0.36711652  0.48848886  0.38686969  1
  La3+  La6  1  0.25606672  0.11834163  0.56156118  1
  La3+  La7  1  0.85850562  0.50481574  0.88436891  1
  La3+  La8  1  0.61809521  0.25303027  0.92876297  1
  La3+  La9  1  0.49453299  0.62949268  0.11662425  1
  La3+  La10  1  0.51907078  0.37054123  0.57445488  1
  La3+  La11  1  0.38488183  0.24770020  0.44539271  1
  La3+  La12  1  0.51083369  0.86744865  0.58751638  1
  La3+  La13  1  0.62723097  0.74364484  0.44146280  1
  La3+  La14  1  0.75349003  0.12279254  0.06132984  1
  La3+  La15  1  0.74458000  0.62361816  0.05902288  1
  La3+  La16  1  0.00007268  0.87553672  0.06432038  1
  La3+  La17  1  0.75013613  0.37513527  0.05497458  1
  Ce3+  Ce18  1  0.87450326  0.74553028  0.93910084  1
  Ce3+  Ce19  1  0.88274229  0.74441678  0.44456017  1
  Ce3+  Ce20  1  0.13073227  0.49274101  0.44399130  1
  Ce3+  Ce21  1  0.63291709  0.24398280  0.44352332  1
  Ce3+  Ce22  1  0.12463737  -0.00727707  0.43260885  1
  Ce3+  Ce23  1  0.87645241  0.49334302  0.43825869  1
  Ce3+  Ce24  1  0.00543878  0.87106182  0.56974291  1
  Ce3+  Ce25  1  0.00249093  0.62831115  0.06341101  1
  Ce3+  Ce26  1  0.25068276  0.12296408  0.06888111  1
  Ce3+  Ce27  1  0.63300239  -0.00960041  0.43773923  1
  Ce3+  Ce28  1  0.37196004  -0.01207696  0.43370881  1
  Ce3+  Ce29  1  0.37565859  0.00350871  0.93056079  1
  Ce3+  Ce30  1  0.75727839  0.86988936  0.56336400  1
  Ce3+  Ce31  1  0.86986006  0.00391626  0.92867148  1
  Ce3+  Ce32  1  0.13029089  0.24753462  0.44006479  1
  Ce3+  Ce33  1  0.00048661  0.37450492  0.05677357  1
  Ce3+  Ce34  1  0.76747929  0.36935870  0.56643340  1
  Ce3+  Ce35  1  0.37305744  0.50224477  0.93614103  1
  Ce3+  Ce36  1  0.75906247  0.61927845  0.56436544  1
  Ce3+  Ce37  1  0.49947316  0.37415765  0.06369213  1
  Pr3+  Pr38  1  0.87800349  -0.00981431  0.42981383  1
  Pr3+  Pr39  1  0.02387447  0.37094233  0.60574345  1
  Pr3+  Pr40  1  0.51004273  0.11639810  0.55692334  1
  Pr3+  Pr41  1  0.13082081  0.74232245  0.44656562  1
  Pr3+  Pr42  1  0.00712807  0.61582492  0.56713109  1
  Pr3+  Pr43  1  0.38288124  0.74161244  0.43676082  1
  Pr3+  Pr44  1  0.25702952  0.86872305  0.56439930  1
  Pr3+  Pr45  1  0.26249386  0.61793373  0.56102032  1
  Pr3+  Pr46  1  0.12187481  0.75285300  0.93348513  1
  Pr3+  Pr47  1  0.88175278  0.24395802  0.43830793  1
  Pr3+  Pr48  1  0.49841646  0.87738164  0.06249621  1
  Pr3+  Pr49  1  0.87861420  0.24816383  0.93097323  1
  Nd3+  Nd50  1  0.61459312  0.50089450  0.93427719  1
  Nd3+  Nd51  1  0.12293818  0.24750912  0.94017801  1
  Nd3+  Nd52  1  0.11786285  0.50198090  0.93420523  1
  Nd3+  Nd53  1  0.26116460  0.37172516  0.56355142  1
  Nd3+  Nd54  1  0.62001070  0.74710091  0.94033062  1
  Nd3+  Nd55  1  0.63235892  0.49187100  0.43600670  1
  Nd3+  Nd56  1  0.76016979  0.11853925  0.56283024  1
  Nd3+  Nd57  1  0.12175431  0.00408402  0.93883593  1
  Sm3+  Sm58  1  0.50627232  0.12805831  0.06495914  1
  Sm3+  Sm59  1  0.37357986  0.75161678  0.94136979  1
  Sm3+  Sm60  1  0.25350961  0.62667880  0.05753852  1
  Sm3+  Sm61  1  0.74727004  0.87523725  0.05067063  1
  Sm3+  Sm62  1  0.37168969  0.24929264  0.94012494  1
  Sm3+  Sm63  1  0.25179039  0.87619301  0.05161353  1
  Bi2+  Bi64  1  0.01793960  0.12955467  0.28400238  1
  Bi2+  Bi65  1  0.05607402  0.12066006  0.80120472  1
  Bi2+  Bi66  1  0.00143042  0.40626940  0.27012564  1
  Bi2+  Bi67  1  -0.00732030  0.37980782  0.78379507  1
  Bi2+  Bi68  1  -0.02579424  0.59518930  0.30205958  1
  Bi2+  Bi69  1  0.01856232  0.67282623  0.78995632  1
  Bi2+  Bi70  1  -0.01552139  0.86784121  0.29076092  1
  Bi2+  Bi71  1  -0.02433733  0.87359458  0.79276552  1
  Bi2+  Bi72  1  0.29433521  0.07426214  0.26388348  1
  Bi2+  Bi73  1  0.24994000  0.13662005  0.85182266  1
  Bi2+  Bi74  1  0.23124237  0.34688315  0.29370618  1
  Bi2+  Bi75  1  0.25240933  0.36781436  0.80121009  1
  Bi2+  Bi76  1  0.16786257  0.63373192  0.29332115  1
  Bi2+  Bi77  1  0.26465970  0.55536961  0.81817736  1
  Bi2+  Bi78  1  0.24028602  0.87219083  0.29867283  1
  Bi2+  Bi79  1  0.25144306  0.84729867  0.78695656  1
  Bi2+  Bi80  1  0.49629726  0.09943726  0.29500566  1
  Bi2+  Bi81  1  0.53837327  0.13732329  0.79339508  1
  Bi2+  Bi82  1  0.49759809  0.35556890  0.28994245  1
  Bi2+  Bi83  1  0.46439037  0.37490001  0.78667534  1
  Bi2+  Bi84  1  0.53726543  0.64739323  0.31453333  1
  Bi2+  Bi85  1  0.54990759  0.61336964  0.79503187  1
  Bi2+  Bi86  1  0.50579653  0.90118177  0.29639957  1
  Bi2+  Bi87  1  0.50129985  0.86272918  0.78430471  1
  Bi2+  Bi88  1  0.72080105  0.14667943  0.29856697  1
  Bi2+  Bi89  1  0.78059115  0.11590162  0.78722979  1
  Bi2+  Bi90  1  0.81800079  0.36549814  0.29946936  1
  Bi2+  Bi91  1  0.72820825  0.38089711  0.78353737  1
  Bi2+  Bi92  1  0.77923931  0.58639358  0.27084543  1
  Bi2+  Bi93  1  0.77164438  0.69376875  0.76166991  1
  Bi2+  Bi94  1  0.75777126  0.88107552  0.28542548  1
  Bi2+  Bi95  1  0.78041111  0.88966427  0.76832485  1
  Bi2+  Bi96  1  0.11528737  0.00028863  0.22223722  1
  Bi2+  Bi97  1  0.15411312  -0.03632224  0.70339524  1
  Bi2+  Bi98  1  0.11724800  0.25390017  0.21545771  1
  Bi2+  Bi99  1  0.15187417  0.22291784  0.71433787  1
  Bi2+  Bi100  1  0.11442819  0.53118871  0.19756424  1
  Bi2+  Bi101  1  0.15981624  0.49462568  0.72395681  1
  Bi2+  Bi102  1  0.14597261  0.72710873  0.19646779  1
  Bi2+  Bi103  1  0.04438096  0.77951974  0.69586490  1
  Bi2+  Bi104  1  0.38951278  0.03430349  0.16227046  1
  Bi2+  Bi105  1  0.35071119  0.01681800  0.78511861  1
  Bi2+  Bi106  1  0.39415307  0.21879288  0.21369675  1
  Bi2+  Bi107  1  0.33677244  0.20816611  0.75368578  1
  Bi2+  Bi108  1  0.33060575  0.47480057  0.18382936  1
  Bi2+  Bi109  1  0.37083042  0.51702496  0.72255854  1
  Bi2+  Bi110  1  0.36635092  0.85929195  0.21152180  1
  Bi2+  Bi111  1  0.33744439  0.71287059  0.71947403  1
  Bi2+  Bi112  1  0.58303289  -0.00193025  0.20756744  1
  Bi2+  Bi113  1  0.60086715  0.00574858  0.70661930  1
  Bi2+  Bi114  1  0.61331402  0.21984304  0.21455259  1
  Bi2+  Bi115  1  0.59433658  0.24603290  0.69705413  1
  Bi2+  Bi116  1  0.63515878  0.49817375  0.20962607  1
  Bi2+  Bi117  1  0.56965804  0.49508654  0.70439193  1
  Bi2+  Bi118  1  0.65931070  0.79006290  0.20133972  1
  Bi2+  Bi119  1  0.60383488  0.73992668  0.70659291  1
  Bi2+  Bi120  1  0.85902073  -0.00344656  0.21253436  1
  Bi2+  Bi121  1  0.90880479  0.01546720  0.72131342  1
  Bi2+  Bi122  1  0.84902502  0.27818591  0.20161593  1
  Bi2+  Bi123  1  0.87462491  0.23359279  0.70814808  1
  Bi2+  Bi124  1  0.91909307  0.53625453  0.18681797  1
  Bi2+  Bi125  1  0.86506812  0.58018411  0.68438695  1
  Bi2+  Bi126  1  0.89869270  0.72494106  0.22145732  1
  Bi2+  Bi127  1  0.85933155  0.76869314  0.66379756  1
  S2-  S128  1  -0.14832934  0.12793257  0.14870362  1
  S2-  S129  1  0.01802738  0.21433967  0.65300644  1
  S2-  S130  1  -0.00516864  0.29088950  0.14377418  1
  S2-  S131  1  -0.13300067  0.36676923  0.65037459  1
  S2-  S132  1  0.00396297  0.74605623  0.13828229  1
  S2-  S133  1  0.02348428  0.52739873  0.65499662  1
  S2-  S134  1  -0.00957024  0.97443103  0.14953657  1
  S2-  S135  1  0.01084563  0.99254427  0.64127664  1
  S2-  S136  1  0.15023083  0.12127789  0.14961653  1
  S2-  S137  1  0.23548256  0.09488421  0.66040554  1
  S2-  S138  1  0.24849836  0.32817462  0.15587390  1
  S2-  S139  1  0.18586081  0.36396284  0.65373058  1
  S2-  S140  1  0.32290459  0.62868772  0.14836754  1
  S2-  S141  1  0.24041215  0.61801618  0.66162005  1
  S2-  S142  1  0.22105204  0.85899680  0.14924131  1
  S2-  S143  1  0.25681176  0.85463451  0.66582088  1
  S2-  S144  1  0.49880473  0.25244824  0.13863860  1
  S2-  S145  1  0.50505332  0.12490276  0.65806070  1
  S2-  S146  1  0.49807088  0.46064685  0.15002053  1
  S2-  S147  1  0.45975051  0.33670195  0.67039569  1
  S2-  S148  1  0.50899053  0.61434985  0.22539638  1
  S2-  S149  1  0.46783832  0.72366742  0.64973780  1
  S2-  S150  1  0.50242050  0.79596956  0.15277988  1
  S2-  S151  1  0.46654294  0.92531052  0.68555240  1
  S2-  S152  1  0.63533465  0.10345457  0.13807780  1
  S2-  S153  1  0.74381176  0.14503735  0.66236704  1
  S2-  S154  1  0.73177806  0.37350226  0.15703799  1
  S2-  S155  1  0.65810252  0.38161259  0.64515766  1
  S2-  S156  1  0.66939990  0.63305307  0.15019439  1
  S2-  S157  1  0.65196242  0.60748141  0.64372422  1
  S2-  S158  1  0.76512649  0.88061451  0.14997118  1
  S2-  S159  1  0.66433245  0.87999904  0.64727959  1
  S2-  S160  1  0.23646956  0.00835279  0.35786919  1
  S2-  S161  1  0.09850301  -0.03531239  0.84078271  1
  S2-  S162  1  0.12179095  0.22642157  0.34138175  1
  S2-  S163  1  0.06550608  0.27546818  0.84456398  1
  S2-  S164  1  0.19447142  0.48442642  0.35258920  1
  S2-  S165  1  0.02776578  0.50970585  0.84799775  1
  S2-  S166  1  0.11269785  0.77902545  0.34797000  1
  S2-  S167  1  0.15572492  0.72062056  0.83568516  1
  S2-  S168  1  0.38129741  -0.13330642  0.36160007  1
  S2-  S169  1  0.49397794  0.00126165  0.85487629  1
  S2-  S170  1  0.36763753  0.30950929  0.35184480  1
  S2-  S171  1  0.47591663  0.25178436  0.86036812  1
  S2-  S172  1  0.36056288  0.46122606  0.27842044  1
  S2-  S173  1  0.48226352  0.49596224  0.85840391  1
  S2-  S174  1  0.38414173  0.65075744  0.34843637  1
  S2-  S175  1  0.38183863  0.78966461  0.84289811  1
  S2-  S176  1  0.74154659  0.00168763  0.35806894  1
  S2-  S177  1  0.73911798  -0.01178066  0.85081151  1
  S2-  S178  1  0.62283053  0.27021886  0.34684835  1
  S2-  S179  1  0.67662395  0.23190399  0.83093586  1
  S2-  S180  1  0.53476265  0.48469598  0.35098303  1
  S2-  S181  1  0.69383451  0.50377298  0.84250823  1
  S2-  S182  1  0.62649577  0.79506405  0.34398407  1
  S2-  S183  1  0.60691753  0.75579481  0.83948850  1
  S2-  S184  1  1.00087296  -0.00593237  0.35643421  1
  S2-  S185  1  0.90575378  0.11956137  0.85632739  1
  S2-  S186  1  0.86720475  0.20470020  0.33864183  1
  S2-  S187  1  0.86324657  0.34073518  0.84378962  1
  S2-  S188  1  0.76229194  0.49576041  0.36108701  1
  S2-  S189  1  0.85905479  0.48885955  0.76727411  1
  S2-  S190  1  0.86583844  0.79560977  0.35161715  1
  S2-  S191  1  0.86898564  0.67338362  0.84966221  1
  S2-  S192  1  0.00650952  0.12228892  0.45567402  1
  S2-  S193  1  0.00306448  0.12354888  0.95948143  1
  S2-  S194  1  0.00422246  0.37167452  0.43714212  1
  S2-  S195  1  0.00131408  0.37569455  0.95330251  1
  S2-  S196  1  0.00513868  0.61744144  0.45494090  1
  S2-  S197  1  0.00172098  0.62787992  0.95651918  1
  S2-  S198  1  0.00499687  0.86605153  0.46204679  1
  S2-  S199  1  -0.00307599  0.87553231  0.95078234  1
  S2-  S200  1  0.25707459  0.12386891  0.45498080  1
  S2-  S201  1  0.24943164  0.12405399  0.96280328  1
  S2-  S202  1  0.25864856  0.37228217  0.45781379  1
  S2-  S203  1  0.24766448  0.37588633  0.94840492  1
  S2-  S204  1  0.25686711  0.61645402  0.45463782  1
  S2-  S205  1  0.24782765  0.62789122  0.95163033  1
  S2-  S206  1  0.25121989  0.86716040  0.45887202  1
  S2-  S207  1  0.24990751  0.87810355  0.94634168  1
  S2-  S208  1  0.50545052  0.11434031  0.44937736  1
  S2-  S209  1  0.49482134  0.12569223  0.95919962  1
  S2-  S210  1  0.51112343  0.36769682  0.46221756  1
  S2-  S211  1  0.49167647  0.37490830  0.95881378  1
  S2-  S212  1  0.50823482  0.61622433  0.45959191  1
  S2-  S213  1  0.49304569  0.63121938  0.94847024  1
  S2-  S214  1  0.50777310  0.87251078  0.46106481  1
  S2-  S215  1  0.49677463  0.87209310  0.95437158  1
  S2-  S216  1  0.75671303  0.11975893  0.45654481  1
  S2-  S217  1  0.74609355  0.12836870  0.95143872  1
  S2-  S218  1  0.75800782  0.36529684  0.45868258  1
  S2-  S219  1  0.74775932  0.37995447  0.94722157  1
  S2-  S220  1  0.75785992  0.62400548  0.45731890  1
  S2-  S221  1  0.74658304  0.62270168  0.95090249  1
  S2-  S222  1  0.75667359  0.86698341  0.45858487  1
  S2-  S223  1  0.74912067  0.86830160  0.94753940  1
  S2-  S224  1  0.12879286  -0.00193997  0.04516008  1
  S2-  S225  1  0.13375881  -0.00812909  0.54149245  1
  S2-  S226  1  0.12643411  0.24995292  0.04514833  1
  S2-  S227  1  0.13253535  0.24983256  0.54605613  1
  S2-  S228  1  0.12653552  0.50375924  0.04495413  1
  S2-  S229  1  0.13401823  0.49301017  0.54859280  1
  S2-  S230  1  0.13198404  0.75098680  0.03965810  1
  S2-  S231  1  0.13160781  0.74245132  0.55393605  1
  S2-  S232  1  0.37469411  -0.00014642  0.03985108  1
  S2-  S233  1  0.38345564  -0.00797762  0.55040247  1
  S2-  S234  1  0.37160161  0.24605749  0.04347794  1
  S2-  S235  1  0.38370311  0.24396787  0.55349625  1
  S2-  S236  1  0.37341306  0.50404929  0.04257313  1
  S2-  S237  1  0.38631009  0.49288465  0.56651280  1
  S2-  S238  1  0.37289765  0.75192349  0.04531924  1
  S2-  S239  1  0.38168691  0.74670814  0.54509338  1
  S2-  S240  1  0.62369531  -0.00409110  0.03676475  1
  S2-  S241  1  0.63476059  -0.00444463  0.54515585  1
  S2-  S242  1  0.62632272  0.24981646  0.03798960  1
  S2-  S243  1  0.63608670  0.24006640  0.54846761  1
  S2-  S244  1  0.62111725  0.49915962  0.04230060  1
  S2-  S245  1  0.64172773  0.49491524  0.54125018  1
  S2-  S246  1  0.62263250  0.75284511  0.04488679  1
  S2-  S247  1  0.63542118  0.74697116  0.54805598  1
  S2-  S248  1  0.87128906  -0.00504229  0.03808879  1
  S2-  S249  1  0.87841897  -0.00742052  0.54300381  1
  S2-  S250  1  0.87684057  0.25171368  0.03980856  1
  S2-  S251  1  0.88496561  0.24123869  0.54512448  1
  S2-  S252  1  0.87731068  0.50235450  0.05546137  1
  S2-  S253  1  0.88537247  0.49568647  0.54349920  1
  S2-  S254  1  0.86900192  0.75015781  0.04401901  1
  S2-  S255  1  0.88448014  0.74400452  0.54856492  1
