# generated using pymatgen
data_La9Ce10Pr6Nd4Sm3(BiS2)32
_symmetry_space_group_name_H-M   'P 1'
_cell_length_a   16.21317152
_cell_length_b   16.21306158
_cell_length_c   27.20181636
_cell_angle_alpha   89.95473082
_cell_angle_beta   90.01544242
_cell_angle_gamma   89.94405654
_symmetry_Int_Tables_number   1
_chemical_formula_structural   La9Ce10Pr6Nd4Sm3(BiS2)32
_chemical_formula_sum   'La18 Ce20 Pr12 Nd8 Sm6 Bi64 S128'
_cell_volume   7150.40358874
_cell_formula_units_Z   2
loop_
 _symmetry_equiv_pos_site_id
 _symmetry_equiv_pos_as_xyz
  1  'x, y, z'
loop_
 _atom_type_symbol
 _atom_type_oxidation_number
  La3+  3.0
  Ce3+  3.0
  Pr3+  3.0
  Nd3+  3.0
  Sm3+  3.0
  Bi2+  2.0
  S2-  -2.0
loop_
 _atom_site_type_symbol
 _atom_site_label
 _atom_site_symmetry_multiplicity
 _atom_site_fract_x
 _atom_site_fract_y
 _atom_site_fract_z
 _atom_site_occupancy
  La3+  La0  1  0.24875921  0.87776395  0.57478153  1
  La3+  La1  1  0.36256330  0.25877971  0.93306102  1
  La3+  La2  1  0.60163036  0.00156728  0.90969114  1
  La3+  La3  1  0.63763134  0.00793229  0.40444271  1
  La3+  La4  1  0.13260977  0.48860136  0.89084996  1
  La3+  La5  1  0.73691334  0.63172129  0.06498601  1
  La3+  La6  1  0.50187026  0.63058412  0.55884629  1
  La3+  La7  1  0.62119588  0.25328492  0.42663901  1
  La3+  La8  1  0.86852724  0.00705444  0.93396532  1
  La3+  La9  1  0.87242938  0.50037943  0.39282742  1
  La3+  La10  1  0.23531766  0.88512438  0.10905379  1
  La3+  La11  1  0.24511000  0.38824677  0.59377721  1
  La3+  La12  1  -0.00573563  0.62920132  0.06291073  1
  La3+  La13  1  0.11851722  0.75503555  0.93437375  1
  La3+  La14  1  0.50634096  0.13331380  0.56670876  1
  La3+  La15  1  0.62984348  0.50471149  0.44090984  1
  La3+  La16  1  0.37185142  0.50749674  0.43568261  1
  La3+  La17  1  0.12761718  0.76005608  0.42822261  1
  Ce3+  Ce18  1  0.12002340  0.00118112  0.93709215  1
  Ce3+  Ce19  1  0.00569908  0.87829297  0.56137037  1
  Ce3+  Ce20  1  0.12789319  0.00395684  0.44172048  1
  Ce3+  Ce21  1  0.36373936  0.50778427  0.94950074  1
  Ce3+  Ce22  1  0.73727150  0.88447269  0.04815400  1
  Ce3+  Ce23  1  0.36780611  0.00201119  0.94883480  1
  Ce3+  Ce24  1  0.49100127  0.63266881  0.06029992  1
  Ce3+  Ce25  1  0.87368479  0.50781271  0.93218428  1
  Ce3+  Ce26  1  0.86663098  0.75465023  0.94641071  1
  Ce3+  Ce27  1  0.49527226  0.12885966  0.05966397  1
  Ce3+  Ce28  1  0.11853931  0.25598535  0.94535164  1
  Ce3+  Ce29  1  0.49166477  0.37790166  0.05718216  1
  Ce3+  Ce30  1  0.24057401  0.62862666  0.06882343  1
  Ce3+  Ce31  1  0.37686997  0.25401802  0.44508541  1
  Ce3+  Ce32  1  0.50252114  0.37944185  0.55748980  1
  Ce3+  Ce33  1  0.24432692  0.12645345  0.05827503  1
  Ce3+  Ce34  1  -0.00491702  0.88174011  0.06045699  1
  Ce3+  Ce35  1  0.87790604  0.00722936  0.44383643  1
  Ce3+  Ce36  1  0.00374706  0.13122367  0.56130065  1
  Ce3+  Ce37  1  -0.00625563  0.12808800  0.05910514  1
  Pr3+  Pr38  1  0.37831648  0.00382500  0.44478847  1
  Pr3+  Pr39  1  0.24057473  0.38149534  0.07001719  1
  Pr3+  Pr40  1  0.50700573  0.88116148  0.55809629  1
  Pr3+  Pr41  1  0.61631161  0.25658229  0.93795611  1
  Pr3+  Pr42  1  0.50119164  0.88132416  0.07165910  1
  Pr3+  Pr43  1  0.25058596  0.63468619  0.56395715  1
  Pr3+  Pr44  1  0.75300223  0.88099535  0.56586224  1
  Pr3+  Pr45  1  -0.00172279  0.38077427  0.56607228  1
  Pr3+  Pr46  1  0.61542746  0.75325341  0.92986029  1
  Pr3+  Pr47  1  0.63023183  0.75540530  0.43956819  1
  Pr3+  Pr48  1  0.86722043  0.25580001  0.94227192  1
  Pr3+  Pr49  1  0.75818645  0.62554503  0.55935448  1
  Nd3+  Nd50  1  0.36595793  0.75687134  0.95186103  1
  Nd3+  Nd51  1  0.75337896  0.13210998  0.55930370  1
  Nd3+  Nd52  1  0.25362545  0.13153385  0.56102770  1
  Nd3+  Nd53  1  -0.00877852  0.38087463  0.05763187  1
  Nd3+  Nd54  1  0.87727856  0.75524335  0.44349807  1
  Nd3+  Nd55  1  0.00418588  0.62530684  0.55074385  1
  Nd3+  Nd56  1  0.88205491  0.25408806  0.43501155  1
  Nd3+  Nd57  1  0.61808031  0.50761431  0.94056557  1
  Sm3+  Sm58  1  0.13118598  0.50264785  0.43366735  1
  Sm3+  Sm59  1  0.12938277  0.25795413  0.44773644  1
  Sm3+  Sm60  1  0.74275120  0.38050608  0.05387801  1
  Sm3+  Sm61  1  0.73994654  0.12877978  0.05222971  1
  Sm3+  Sm62  1  0.75773494  0.37843252  0.55530013  1
  Sm3+  Sm63  1  0.37840030  0.76575725  0.43495098  1
  Bi2+  Bi64  1  -0.04070914  0.12457615  0.32822006  1
  Bi2+  Bi65  1  0.02814882  0.07524548  0.82048419  1
  Bi2+  Bi66  1  0.00973526  0.33809306  0.30026505  1
  Bi2+  Bi67  1  -0.03758883  0.36376848  0.77654195  1
  Bi2+  Bi68  1  -0.00070168  0.62976791  0.29521176  1
  Bi2+  Bi69  1  -0.08429713  0.62668178  0.78410424  1
  Bi2+  Bi70  1  -0.00933284  0.92906109  0.29103625  1
  Bi2+  Bi71  1  0.04104753  0.79871777  0.78654500  1
  Bi2+  Bi72  1  0.25675704  0.15539819  0.29895863  1
  Bi2+  Bi73  1  0.21981339  0.09980265  0.79609625  1
  Bi2+  Bi74  1  0.26353530  0.37439572  0.28484732  1
  Bi2+  Bi75  1  0.26998323  0.36067061  0.78835160  1
  Bi2+  Bi76  1  0.26549739  0.59863249  0.27762893  1
  Bi2+  Bi77  1  0.27206242  0.62983610  0.80325883  1
  Bi2+  Bi78  1  0.25838367  0.82877448  0.31023941  1
  Bi2+  Bi79  1  0.24181964  0.89519628  0.78256093  1
  Bi2+  Bi80  1  0.43245522  0.20665554  0.25729735  1
  Bi2+  Bi81  1  0.50063567  0.13845782  0.79608202  1
  Bi2+  Bi82  1  0.47174259  0.39342867  0.31301582  1
  Bi2+  Bi83  1  0.55174600  0.38712333  0.75156020  1
  Bi2+  Bi84  1  0.53021448  0.55718788  0.26575454  1
  Bi2+  Bi85  1  0.55409556  0.63682776  0.81612267  1
  Bi2+  Bi86  1  0.48666269  0.82950013  0.29480748  1
  Bi2+  Bi87  1  0.44676840  0.87799803  0.79260547  1
  Bi2+  Bi88  1  0.77994071  0.09851907  0.27981984  1
  Bi2+  Bi89  1  0.75709686  0.14724939  0.80173537  1
  Bi2+  Bi90  1  0.65230463  0.31758861  0.29798133  1
  Bi2+  Bi91  1  0.76860920  0.37110687  0.78119944  1
  Bi2+  Bi92  1  0.73723128  0.63729101  0.29571143  1
  Bi2+  Bi93  1  0.73964810  0.56031635  0.82269437  1
  Bi2+  Bi94  1  0.72480586  0.88316429  0.28195046  1
  Bi2+  Bi95  1  0.70712133  0.75719006  0.79276335  1
  Bi2+  Bi96  1  0.10007656  0.07581650  0.25396974  1
  Bi2+  Bi97  1  0.11300431  0.00525356  0.70855504  1
  Bi2+  Bi98  1  0.08365693  0.24952254  0.19826631  1
  Bi2+  Bi99  1  0.07636509  0.21494699  0.74412298  1
  Bi2+  Bi100  1  0.12653917  0.50152661  0.21865486  1
  Bi2+  Bi101  1  0.09968618  0.51540086  0.69525960  1
  Bi2+  Bi102  1  0.11211033  0.75728121  0.20905637  1
  Bi2+  Bi103  1  0.14691218  0.73857808  0.70121761  1
  Bi2+  Bi104  1  0.35231695  0.01737373  0.21737391  1
  Bi2+  Bi105  1  0.31275156  0.01805117  0.70413010  1
  Bi2+  Bi106  1  0.28055145  0.27121040  0.18655554  1
  Bi2+  Bi107  1  0.39972611  0.23089962  0.69464692  1
  Bi2+  Bi108  1  0.38826387  0.44874531  0.19322760  1
  Bi2+  Bi109  1  0.43310830  0.54219585  0.74380624  1
  Bi2+  Bi110  1  0.40111031  0.64638435  0.19833576  1
  Bi2+  Bi111  1  0.40459067  0.73369007  0.71998740  1
  Bi2+  Bi112  1  0.58542808  -0.00273894  0.19510869  1
  Bi2+  Bi113  1  0.63554256  -0.01033110  0.70336988  1
  Bi2+  Bi114  1  0.62204978  0.23253518  0.20013885  1
  Bi2+  Bi115  1  0.65774184  0.23563897  0.69603058  1
  Bi2+  Bi116  1  0.65713479  0.44182416  0.20890562  1
  Bi2+  Bi117  1  0.69265758  0.50341816  0.70697834  1
  Bi2+  Bi118  1  0.67444480  0.74727117  0.20336013  1
  Bi2+  Bi119  1  0.59672931  0.74390306  0.69845565  1
  Bi2+  Bi120  1  0.85732477  -0.03630087  0.20602182  1
  Bi2+  Bi121  1  0.92447329  -0.01506548  0.73895958  1
  Bi2+  Bi122  1  0.89299483  0.23236576  0.23211126  1
  Bi2+  Bi123  1  0.85651839  0.24631274  0.69931634  1
  Bi2+  Bi124  1  0.89230323  0.50857317  0.18631026  1
  Bi2+  Bi125  1  0.87686171  0.54528121  0.68209166  1
  Bi2+  Bi126  1  0.88609337  0.78380521  0.23831081  1
  Bi2+  Bi127  1  0.86836328  0.80258226  0.72653637  1
  S2-  S128  1  -0.02926340  0.13207383  0.15609115  1
  S2-  S129  1  -0.00591818  0.16297488  0.65746691  1
  S2-  S130  1  0.02207888  0.40186352  0.15578274  1
  S2-  S131  1  0.09741807  0.37388094  0.65034893  1
  S2-  S132  1  0.01923273  0.62830900  0.16458483  1
  S2-  S133  1  0.01361602  0.65385515  0.65044272  1
  S2-  S134  1  0.06904118  0.87963062  0.14880782  1
  S2-  S135  1  0.10527808  0.87121509  0.64186680  1
  S2-  S136  1  0.23868222  0.05248176  0.14641973  1
  S2-  S137  1  0.26122505  0.16932269  0.65830871  1
  S2-  S138  1  0.23285088  0.50254501  0.14556301  1
  S2-  S139  1  0.32161539  0.36854025  0.68770320  1
  S2-  S140  1  0.24219737  0.72051579  0.15356576  1
  S2-  S141  1  0.23753653  0.54227755  0.64924389  1
  S2-  S142  1  0.25247264  0.88857772  0.21919137  1
  S2-  S143  1  0.28539442  0.75325520  0.64317056  1
  S2-  S144  1  0.47831097  0.12000870  0.15828776  1
  S2-  S145  1  0.52386863  0.11060144  0.66710406  1
  S2-  S146  1  0.52575831  0.36345961  0.15297298  1
  S2-  S147  1  0.53512171  0.34139033  0.65044093  1
  S2-  S148  1  0.55898576  0.66029560  0.14750554  1
  S2-  S149  1  0.49768280  0.60970806  0.65823410  1
  S2-  S150  1  0.45618165  0.90142185  0.17247044  1
  S2-  S151  1  0.52254142  0.88401384  0.65912314  1
  S2-  S152  1  0.70115700  0.11358663  0.14856865  1
  S2-  S153  1  0.74736991  0.10612214  0.65981122  1
  S2-  S154  1  0.78268746  0.38443231  0.14963180  1
  S2-  S155  1  0.86058698  0.38695348  0.63648124  1
  S2-  S156  1  0.78563271  0.62427199  0.16154444  1
  S2-  S157  1  0.73953243  0.65351132  0.65811756  1
  S2-  S158  1  0.65511020  0.87992557  0.13452070  1
  S2-  S159  1  0.74792418  0.89102360  0.66713412  1
  S2-  S160  1  0.13005011  -0.09036831  0.35973289  1
  S2-  S161  1  0.12368664  -0.11110756  0.85985404  1
  S2-  S162  1  0.15517621  0.26907075  0.34897897  1
  S2-  S163  1  0.15079290  0.31679419  0.85666116  1
  S2-  S164  1  0.03496089  0.49384168  0.35080988  1
  S2-  S165  1  0.16776180  0.48903336  0.78383665  1
  S2-  S166  1  0.14048585  0.69757617  0.33200226  1
  S2-  S167  1  0.13428073  0.65385924  0.85182952  1
  S2-  S168  1  0.37316766  -0.07736918  0.35504920  1
  S2-  S169  1  0.43801499  0.01080633  0.85814821  1
  S2-  S170  1  0.45670967  0.23333373  0.35929899  1
  S2-  S171  1  0.39113292  0.24827597  0.83257865  1
  S2-  S172  1  0.25747979  0.49828470  0.35905045  1
  S2-  S173  1  0.32291961  0.47993508  0.85688061  1
  S2-  S174  1  0.37741541  0.70764445  0.34168984  1
  S2-  S175  1  0.35610467  0.76063785  0.85121681  1
  S2-  S176  1  0.57057266  -0.03603736  0.30926045  1
  S2-  S177  1  0.64551264  0.03250608  0.80737788  1
  S2-  S178  1  0.65801653  0.15570732  0.34546165  1
  S2-  S179  1  0.61620753  0.22917362  0.83870610  1
  S2-  S180  1  0.70672235  0.51123124  0.35179069  1
  S2-  S181  1  0.57825267  0.46850414  0.84622085  1
  S2-  S182  1  0.61198092  0.74775290  0.33931308  1
  S2-  S183  1  0.58720754  0.85293271  0.84845329  1
  S2-  S184  1  0.79347415  -0.02770106  0.35954241  1
  S2-  S185  1  0.85433988  0.01082403  0.83331875  1
  S2-  S186  1  0.86825766  0.33765934  0.34849897  1
  S2-  S187  1  0.87928933  0.25816303  0.84250759  1
  S2-  S188  1  0.86522628  0.52473502  0.28318700  1
  S2-  S189  1  0.96852640  0.49436620  0.84915581  1
  S2-  S190  1  0.87229987  0.72280839  0.34530744  1
  S2-  S191  1  0.90761362  0.76615729  0.85240424  1
  S2-  S192  1  0.00723708  0.13060377  0.45546279  1
  S2-  S193  1  -0.00540722  0.13147625  0.95252751  1
  S2-  S194  1  0.00660094  0.37586996  0.45602891  1
  S2-  S195  1  -0.00603487  0.37784261  0.95234936  1
  S2-  S196  1  0.00151730  0.63033250  0.44594946  1
  S2-  S197  1  -0.01140077  0.63235114  0.95532066  1
  S2-  S198  1  -0.00214322  0.88146422  0.45567712  1
  S2-  S199  1  -0.01043153  0.88211949  0.95611046  1
  S2-  S200  1  0.25247067  0.12936468  0.45374570  1
  S2-  S201  1  0.24222471  0.12812486  0.95021865  1
  S2-  S202  1  0.25257447  0.37624312  0.45818126  1
  S2-  S203  1  0.24099797  0.38241411  0.96243225  1
  S2-  S204  1  0.25439307  0.63772025  0.45475217  1
  S2-  S205  1  0.24483856  0.63010617  0.96100745  1
  S2-  S206  1  0.25349073  0.88119481  0.46391260  1
  S2-  S207  1  0.24622493  0.88188789  0.95765380  1
  S2-  S208  1  0.50762798  0.12145634  0.45763329  1
  S2-  S209  1  0.49081580  0.13477647  0.95291845  1
  S2-  S210  1  0.50009161  0.38262538  0.45290210  1
  S2-  S211  1  0.49088554  0.38122398  0.95119653  1
  S2-  S212  1  0.50161628  0.63153232  0.44983054  1
  S2-  S213  1  0.49112002  0.62935735  0.95347889  1
  S2-  S214  1  0.51073634  0.88361465  0.45092921  1
  S2-  S215  1  0.49143530  0.87887493  0.96102046  1
  S2-  S216  1  0.75515603  0.13027812  0.45361893  1
  S2-  S217  1  0.73908034  0.12904564  0.94629519  1
  S2-  S218  1  0.75206815  0.37571057  0.45209521  1
  S2-  S219  1  0.74316285  0.38267163  0.94761794  1
  S2-  S220  1  0.75586205  0.62993696  0.45267666  1
  S2-  S221  1  0.74276320  0.63103489  0.95457212  1
  S2-  S222  1  0.75093171  0.87924761  0.45892603  1
  S2-  S223  1  0.74032750  0.88266060  0.94263951  1
  S2-  S224  1  0.11703874  0.00562685  0.04404009  1
  S2-  S225  1  0.12878910  0.00921537  0.54802920  1
  S2-  S226  1  0.11783905  0.25387500  0.05182601  1
  S2-  S227  1  0.12983987  0.25421705  0.55089813  1
  S2-  S228  1  0.11326571  0.50276790  0.04711961  1
  S2-  S229  1  0.12749661  0.50485885  0.54012472  1
  S2-  S230  1  0.11721493  0.75724597  0.04626358  1
  S2-  S231  1  0.12361854  0.75369066  0.53822417  1
  S2-  S232  1  0.37102949  0.00302454  0.05262359  1
  S2-  S233  1  0.37831384  0.00453199  0.55326685  1
  S2-  S234  1  0.36696264  0.25400068  0.04558669  1
  S2-  S235  1  0.37629580  0.25741512  0.55111495  1
  S2-  S236  1  0.37144944  0.50489928  0.05285212  1
  S2-  S237  1  0.37750300  0.50387362  0.54726220  1
  S2-  S238  1  0.37063891  0.75988731  0.05727239  1
  S2-  S239  1  0.38338627  0.75803557  0.54020508  1
  S2-  S240  1  0.61697095  0.00982164  0.03485034  1
  S2-  S241  1  0.63085998  0.00673305  0.55253176  1
  S2-  S242  1  0.62094724  0.25559520  0.04479816  1
  S2-  S243  1  0.63184306  0.25758320  0.54099469  1
  S2-  S244  1  0.61718522  0.50241411  0.04801936  1
  S2-  S245  1  0.63130827  0.50169509  0.54985728  1
  S2-  S246  1  0.61740119  0.75506954  0.03635133  1
  S2-  S247  1  0.63108081  0.75313597  0.54733528  1
  S2-  S248  1  0.86490129  0.00693985  0.04485445  1
  S2-  S249  1  0.87914190  0.00528309  0.55273040  1
  S2-  S250  1  0.86442758  0.25287369  0.04907156  1
  S2-  S251  1  0.87791242  0.25144437  0.54200069  1
  S2-  S252  1  0.86531783  0.50434024  0.04227996  1
  S2-  S253  1  0.87787128  0.50452450  0.53870763  1
  S2-  S254  1  0.86514283  0.75975006  0.05413074  1
  S2-  S255  1  0.87945058  0.75539468  0.55110390  1
