# generated using pymatgen
data_La9Ce10Pr6Nd4Sm3(BiS2)32
_symmetry_space_group_name_H-M   'P 1'
_cell_length_a   16.27590865
_cell_length_b   16.28934210
_cell_length_c   27.08332369
_cell_angle_alpha   89.97432417
_cell_angle_beta   90.00820356
_cell_angle_gamma   90.00906716
_symmetry_Int_Tables_number   1
_chemical_formula_structural   La9Ce10Pr6Nd4Sm3(BiS2)32
_chemical_formula_sum   'La18 Ce20 Pr12 Nd8 Sm6 Bi64 S128'
_cell_volume   7180.43399635
_cell_formula_units_Z   2
loop_
 _symmetry_equiv_pos_site_id
 _symmetry_equiv_pos_as_xyz
  1  'x, y, z'
loop_
 _atom_type_symbol
 _atom_type_oxidation_number
  La3+  3.0
  Ce3+  3.0
  Pr3+  3.0
  Nd3+  3.0
  Sm3+  3.0
  Bi2+  2.0
  S2-  -2.0
loop_
 _atom_site_type_symbol
 _atom_site_label
 _atom_site_symmetry_multiplicity
 _atom_site_fract_x
 _atom_site_fract_y
 _atom_site_fract_z
 _atom_site_occupancy
  La3+  La0  1  0.00170424  0.61593667  0.56275465  1
  La3+  La1  1  0.63129604  0.74373439  0.43509808  1
  La3+  La2  1  0.87677548  -0.00360452  0.42500393  1
  La3+  La3  1  -0.00111236  0.87764225  0.07508092  1
  La3+  La4  1  0.12098461  -0.00033050  0.94250521  1
  La3+  La5  1  0.37379494  0.00042486  0.94025117  1
  La3+  La6  1  0.51089809  0.63246318  0.59193759  1
  La3+  La7  1  0.89256901  0.73517063  0.41387041  1
  La3+  La8  1  0.25241041  0.62323026  0.57040407  1
  La3+  La9  1  0.37070465  0.49967454  0.92767226  1
  La3+  La10  1  0.62662904  0.25455884  0.93732643  1
  La3+  La11  1  0.87467934  0.51545892  0.93079374  1
  La3+  La12  1  0.76665918  0.86274183  0.56041594  1
  La3+  La13  1  0.74278877  0.61960677  0.09061322  1
  La3+  La14  1  0.75589945  0.11520729  0.56558987  1
  La3+  La15  1  0.62831654  0.24588510  0.43789582  1
  La3+  La16  1  0.88630190  0.48730558  0.42092768  1
  La3+  La17  1  0.14041182  0.49434788  0.43147463  1
  Ce3+  Ce18  1  0.63063832  -0.00722590  0.43884757  1
  Ce3+  Ce19  1  0.50417319  0.11782239  0.55547418  1
  Ce3+  Ce20  1  0.12709455  0.74572993  0.44421922  1
  Ce3+  Ce21  1  0.49922828  0.12930154  0.05630697  1
  Ce3+  Ce22  1  0.50618598  0.37215856  0.56003948  1
  Ce3+  Ce23  1  0.87957301  0.24968303  0.44007709  1
  Ce3+  Ce24  1  0.75490459  0.37145063  0.56113788  1
  Ce3+  Ce25  1  0.12570620  0.74961204  0.95367653  1
  Ce3+  Ce26  1  0.12907068  -0.00563296  0.43384551  1
  Ce3+  Ce27  1  0.49894852  0.87680439  0.05852740  1
  Ce3+  Ce28  1  0.00766612  0.62034175  0.07262376  1
  Ce3+  Ce29  1  0.62754609  0.00106871  0.94458935  1
  Ce3+  Ce30  1  0.74957693  0.38248931  0.05536189  1
  Ce3+  Ce31  1  0.49771820  0.62762236  0.06139765  1
  Ce3+  Ce32  1  -0.00174713  0.12868442  0.06186426  1
  Ce3+  Ce33  1  0.37219603  0.75020318  0.94232991  1
  Ce3+  Ce34  1  0.87323867  0.74811829  0.95397573  1
  Ce3+  Ce35  1  0.74882380  0.12829276  0.06435252  1
  Ce3+  Ce36  1  0.62478940  0.75053948  0.94786373  1
  Ce3+  Ce37  1  0.00675580  0.11918734  0.54809423  1
  Pr3+  Pr38  1  0.37934594  0.24435660  0.44196709  1
  Pr3+  Pr39  1  0.87211325  0.00087879  0.94423504  1
  Pr3+  Pr40  1  -0.00220273  0.38089348  0.05761460  1
  Pr3+  Pr41  1  0.62965809  0.49705113  0.44529821  1
  Pr3+  Pr42  1  0.37150658  0.24858752  0.93427800  1
  Pr3+  Pr43  1  0.38132696  -0.00993997  0.42986020  1
  Pr3+  Pr44  1  0.74571897  0.88017797  0.07107688  1
  Pr3+  Pr45  1  0.12233697  0.25400079  0.94730695  1
  Pr3+  Pr46  1  0.38026618  0.74484088  0.44691153  1
  Pr3+  Pr47  1  0.49786375  0.37816717  0.05457753  1
  Pr3+  Pr48  1  0.62542588  0.51010514  0.93540588  1
  Pr3+  Pr49  1  0.25932837  0.37252982  0.56762325  1
  Nd3+  Nd50  1  0.00667035  0.36913504  0.55803574  1
  Nd3+  Nd51  1  0.24920465  0.12760599  0.06191888  1
  Nd3+  Nd52  1  0.25164031  0.37742492  0.05775123  1
  Nd3+  Nd53  1  0.25207554  0.87721306  0.06560843  1
  Nd3+  Nd54  1  0.75974970  0.61801132  0.55160548  1
  Nd3+  Nd55  1  0.50442613  0.88046843  0.56666396  1
  Nd3+  Nd56  1  0.13420967  0.24454873  0.44479970  1
  Nd3+  Nd57  1  0.87374225  0.25459872  0.94394028  1
  Sm3+  Sm58  1  0.25452623  0.87257816  0.55399341  1
  Sm3+  Sm59  1  0.00424704  0.87664349  0.55541577  1
  Sm3+  Sm60  1  0.37896037  0.49723364  0.44658077  1
  Sm3+  Sm61  1  0.25249321  0.62708250  0.06568923  1
  Sm3+  Sm62  1  0.12554085  0.50426729  0.94431084  1
  Sm3+  Sm63  1  0.25515746  0.11821002  0.55251591  1
  Bi2+  Bi64  1  -0.01826898  0.15491577  0.26045876  1
  Bi2+  Bi65  1  0.00473312  0.09582820  0.78340287  1
  Bi2+  Bi66  1  -0.00038291  0.34355974  0.28371326  1
  Bi2+  Bi67  1  0.00952466  0.38532888  0.75613606  1
  Bi2+  Bi68  1  0.04094789  0.61279680  0.28971181  1
  Bi2+  Bi69  1  -0.02468261  0.65214256  0.76892481  1
  Bi2+  Bi70  1  0.02249432  0.89109018  0.29290290  1
  Bi2+  Bi71  1  -0.03490466  0.89154354  0.76911212  1
  Bi2+  Bi72  1  0.26380376  0.13087557  0.26750253  1
  Bi2+  Bi73  1  0.25222996  0.17200889  0.79364555  1
  Bi2+  Bi74  1  0.26743674  0.35102474  0.30188046  1
  Bi2+  Bi75  1  0.19819830  0.36863711  0.78721399  1
  Bi2+  Bi76  1  0.28746101  0.63454783  0.30337879  1
  Bi2+  Bi77  1  0.24754025  0.63982560  0.81234555  1
  Bi2+  Bi78  1  0.27678379  0.84381397  0.29087859  1
  Bi2+  Bi79  1  0.24247233  0.92667500  0.79493795  1
  Bi2+  Bi80  1  0.47253318  0.13137642  0.26138385  1
  Bi2+  Bi81  1  0.49043171  0.08232921  0.78124035  1
  Bi2+  Bi82  1  0.45955094  0.39761679  0.28034631  1
  Bi2+  Bi83  1  0.49824240  0.35046497  0.78489365  1
  Bi2+  Bi84  1  0.48117193  0.59212831  0.27842382  1
  Bi2+  Bi85  1  0.50906052  0.62878038  0.80014417  1
  Bi2+  Bi86  1  0.46421939  0.91251528  0.29618750  1
  Bi2+  Bi87  1  0.51127789  0.87272574  0.74892947  1
  Bi2+  Bi88  1  0.77075009  0.15184280  0.29539459  1
  Bi2+  Bi89  1  0.76563478  0.10118401  0.81416318  1
  Bi2+  Bi90  1  0.74130046  0.38910897  0.29141273  1
  Bi2+  Bi91  1  0.75781734  0.33293489  0.78767001  1
  Bi2+  Bi92  1  0.73535557  0.63368644  0.29757216  1
  Bi2+  Bi93  1  0.75038489  0.59421889  0.81116658  1
  Bi2+  Bi94  1  0.71821562  0.88574388  0.29770191  1
  Bi2+  Bi95  1  0.69963249  0.87724510  0.76806621  1
  Bi2+  Bi96  1  0.13071554  0.01525478  0.21738682  1
  Bi2+  Bi97  1  0.12638945  0.02142668  0.70334716  1
  Bi2+  Bi98  1  0.13326575  0.25412101  0.21670554  1
  Bi2+  Bi99  1  0.10423857  0.22367135  0.71593553  1
  Bi2+  Bi100  1  0.14964639  0.47279942  0.21315016  1
  Bi2+  Bi101  1  0.12876990  0.52152777  0.69978263  1
  Bi2+  Bi102  1  0.17040406  0.72194747  0.22763582  1
  Bi2+  Bi103  1  0.12046451  0.78436922  0.75113910  1
  Bi2+  Bi104  1  0.37256111  -0.09964040  0.19248028  1
  Bi2+  Bi105  1  0.35276905  -0.00947465  0.69754526  1
  Bi2+  Bi106  1  0.39031089  0.25315526  0.18483451  1
  Bi2+  Bi107  1  0.39508994  0.22001553  0.72133567  1
  Bi2+  Bi108  1  0.34921689  0.50760212  0.20565093  1
  Bi2+  Bi109  1  0.36532648  0.49169217  0.70906510  1
  Bi2+  Bi110  1  0.35887461  0.69982559  0.17788900  1
  Bi2+  Bi111  1  0.33955492  0.78550080  0.74119804  1
  Bi2+  Bi112  1  0.61780429  0.01155217  0.24174595  1
  Bi2+  Bi113  1  0.62558409  0.05012430  0.70082158  1
  Bi2+  Bi114  1  0.65045024  0.25002500  0.22771602  1
  Bi2+  Bi115  1  0.58823302  0.23990140  0.70252863  1
  Bi2+  Bi116  1  0.60941991  0.48091522  0.20814088  1
  Bi2+  Bi117  1  0.63511874  0.42730508  0.71020117  1
  Bi2+  Bi118  1  0.53727216  0.74806681  0.21512451  1
  Bi2+  Bi119  1  0.62741777  0.70599935  0.71150871  1
  Bi2+  Bi120  1  0.85913506  -0.00739343  0.19704431  1
  Bi2+  Bi121  1  0.86126256  -0.00668829  0.68570899  1
  Bi2+  Bi122  1  0.84308665  0.26643267  0.20896956  1
  Bi2+  Bi123  1  0.89378832  0.23340005  0.72723667  1
  Bi2+  Bi124  1  0.88470867  0.50610945  0.20184174  1
  Bi2+  Bi125  1  0.88018396  0.53315311  0.69379432  1
  Bi2+  Bi126  1  0.88583552  0.75827635  0.21762972  1
  Bi2+  Bi127  1  0.83657901  0.76499905  0.72222425  1
  S2-  S128  1  -0.00347924  0.08680880  0.15656990  1
  S2-  S129  1  0.00048421  0.06005701  0.63940890  1
  S2-  S130  1  0.00451571  0.43230332  0.15407143  1
  S2-  S131  1  0.00031415  0.42815803  0.65149661  1
  S2-  S132  1  -0.03605051  0.64245403  0.16669344  1
  S2-  S133  1  0.01584559  0.64027409  0.66268452  1
  S2-  S134  1  -0.01038124  0.87363106  0.17672963  1
  S2-  S135  1  -0.09283538  0.84979617  0.63396793  1
  S2-  S136  1  0.24240647  0.14099016  0.16107781  1
  S2-  S137  1  0.25497544  0.10689898  0.65034828  1
  S2-  S138  1  0.26287955  0.37325041  0.15701102  1
  S2-  S139  1  0.24054246  0.39718521  0.66655332  1
  S2-  S140  1  0.16103257  0.60494469  0.14804430  1
  S2-  S141  1  0.26337492  0.61529263  0.67114504  1
  S2-  S142  1  0.20177693  0.90980771  0.15959417  1
  S2-  S143  1  0.27253148  0.86339201  0.65165075  1
  S2-  S144  1  0.48161882  0.12537587  0.15324241  1
  S2-  S145  1  0.49356248  0.01578209  0.63401672  1
  S2-  S146  1  0.51316622  0.36848255  0.15466563  1
  S2-  S147  1  0.47789317  0.40690224  0.65387878  1
  S2-  S148  1  0.58339194  0.61702835  0.14631534  1
  S2-  S149  1  0.48526424  0.60116517  0.69252000  1
  S2-  S150  1  0.54300837  0.88111863  0.15294699  1
  S2-  S151  1  0.52391578  0.78591858  0.64914492  1
  S2-  S152  1  0.73510822  0.06744306  0.15566334  1
  S2-  S153  1  0.78954698  0.15023999  0.66334687  1
  S2-  S154  1  0.74771328  0.45845074  0.14280918  1
  S2-  S155  1  0.77912195  0.40548304  0.65655159  1
  S2-  S156  1  0.77171338  0.64592390  0.19475034  1
  S2-  S157  1  0.76488403  0.64614636  0.65042019  1
  S2-  S158  1  0.77240379  0.86029874  0.17106664  1
  S2-  S159  1  0.71619865  0.93598516  0.64774112  1
  S2-  S160  1  0.12397547  -0.00239392  0.33528166  1
  S2-  S161  1  0.11885219  0.00820307  0.84257365  1
  S2-  S162  1  0.16243449  0.25412404  0.34711223  1
  S2-  S163  1  0.13182771  0.24937399  0.84713515  1
  S2-  S164  1  0.05695526  0.47931236  0.34245666  1
  S2-  S165  1  0.16606031  0.51069908  0.84831411  1
  S2-  S166  1  0.04955286  0.74891482  0.35567976  1
  S2-  S167  1  0.13680729  0.74675604  0.85645913  1
  S2-  S168  1  0.36840927  0.04779887  0.33478688  1
  S2-  S169  1  0.35934979  0.05096413  0.84403218  1
  S2-  S170  1  0.40981588  0.27750356  0.34512579  1
  S2-  S171  1  0.37353695  0.32490470  0.84453943  1
  S2-  S172  1  0.28286037  0.49592783  0.36405108  1
  S2-  S173  1  0.38559797  0.53577109  0.82817585  1
  S2-  S174  1  0.39794078  0.76877788  0.34697780  1
  S2-  S175  1  0.38598443  0.74923941  0.84423802  1
  S2-  S176  1  0.66100725  0.03395896  0.34507603  1
  S2-  S177  1  0.65867848  -0.01041830  0.84799410  1
  S2-  S178  1  0.64895027  0.25975893  0.33761998  1
  S2-  S179  1  0.65024803  0.23060697  0.83809175  1
  S2-  S180  1  0.65567474  0.50368508  0.34513588  1
  S2-  S181  1  0.60918668  0.49865051  0.83426129  1
  S2-  S182  1  0.62820925  0.75627783  0.33406982  1
  S2-  S183  1  0.63856537  0.71362050  0.85246359  1
  S2-  S184  1  0.89866199  -0.02386789  0.32480616  1
  S2-  S185  1  0.88097563  -0.00881777  0.84339578  1
  S2-  S186  1  0.87623595  0.34607517  0.35790683  1
  S2-  S187  1  0.87072443  0.23619948  0.84516702  1
  S2-  S188  1  0.88053074  0.59292629  0.34039222  1
  S2-  S189  1  0.84073080  0.46495748  0.83436156  1
  S2-  S190  1  0.82977137  0.77690284  0.31972284  1
  S2-  S191  1  0.87877494  0.67152381  0.86472341  1
  S2-  S192  1  0.00512849  0.12372529  0.44046217  1
  S2-  S193  1  -0.00354502  0.12853552  0.95368783  1
  S2-  S194  1  0.01243653  0.36635102  0.45343669  1
  S2-  S195  1  -0.00117809  0.38212495  0.94843808  1
  S2-  S196  1  0.01223044  0.61326873  0.45391605  1
  S2-  S197  1  0.00582671  0.62643893  0.96361135  1
  S2-  S198  1  0.00373101  0.87471900  0.45052935  1
  S2-  S199  1  -0.00331056  0.87394803  0.96113153  1
  S2-  S200  1  0.25635452  0.11745020  0.44694111  1
  S2-  S201  1  0.24605123  0.12759518  0.95460903  1
  S2-  S202  1  0.25967956  0.36800971  0.46111490  1
  S2-  S203  1  0.24731676  0.37755750  0.95192382  1
  S2-  S204  1  0.25547544  0.62554670  0.46160602  1
  S2-  S205  1  0.25016265  0.62483865  0.95960598  1
  S2-  S206  1  0.25323279  0.86906491  0.44771553  1
  S2-  S207  1  0.24922391  0.87612742  0.95716527  1
  S2-  S208  1  0.50420493  0.11824487  0.44730210  1
  S2-  S209  1  0.50087258  0.12764332  0.94774137  1
  S2-  S210  1  0.50220384  0.37450353  0.45259648  1
  S2-  S211  1  0.49968328  0.37886265  0.94725075  1
  S2-  S212  1  0.50206334  0.61911408  0.45047822  1
  S2-  S213  1  0.49563249  0.62653450  0.95353087  1
  S2-  S214  1  0.50604543  0.87039071  0.45554715  1
  S2-  S215  1  0.50026430  0.87653281  0.94962840  1
  S2-  S216  1  0.75659352  0.12381295  0.45343927  1
  S2-  S217  1  0.75140292  0.12856991  0.95685079  1
  S2-  S218  1  0.75105230  0.37074174  0.45580878  1
  S2-  S219  1  0.75056403  0.38128321  0.94900765  1
  S2-  S220  1  0.75796814  0.61879383  0.44603219  1
  S2-  S221  1  0.74647551  0.62888488  0.96532161  1
  S2-  S222  1  0.75817733  0.86838990  0.44649612  1
  S2-  S223  1  0.75021735  0.87477091  0.96041353  1
  S2-  S224  1  0.12415691  0.00351678  0.05060907  1
  S2-  S225  1  0.13243062  -0.00544464  0.54144137  1
  S2-  S226  1  0.12407748  0.25394320  0.05452005  1
  S2-  S227  1  0.13310394  0.24445284  0.55234301  1
  S2-  S228  1  0.12953144  0.49846011  0.04697912  1
  S2-  S229  1  0.13255663  0.49371395  0.54628236  1
  S2-  S230  1  0.12753384  0.75390932  0.05956573  1
  S2-  S231  1  0.12667222  0.75143899  0.55253220  1
  S2-  S232  1  0.37314306  0.00369857  0.04909380  1
  S2-  S233  1  0.37314136  -0.00519310  0.53727428  1
  S2-  S234  1  0.37274228  0.25115051  0.04244072  1
  S2-  S235  1  0.37937632  0.24266184  0.55113587  1
  S2-  S236  1  0.37232603  0.50318350  0.04483797  1
  S2-  S237  1  0.38380178  0.50400597  0.55174409  1
  S2-  S238  1  0.37359933  0.75298926  0.04919985  1
  S2-  S239  1  0.38003628  0.74756409  0.55339222  1
  S2-  S240  1  0.62240903  0.00428778  0.04943051  1
  S2-  S241  1  0.63272333  -0.00562778  0.54070748  1
  S2-  S242  1  0.62575769  0.25388512  0.04743306  1
  S2-  S243  1  0.62948647  0.24469806  0.54883495  1
  S2-  S244  1  0.62101019  0.50097006  0.04220189  1
  S2-  S245  1  0.62718756  0.50248630  0.55364287  1
  S2-  S246  1  0.62470148  0.75318232  0.05289244  1
  S2-  S247  1  0.63416588  0.74320282  0.54400484  1
  S2-  S248  1  0.87405076  0.00211256  0.05146722  1
  S2-  S249  1  0.88141235  -0.00251653  0.53444990  1
  S2-  S250  1  0.87375613  0.25452432  0.05158451  1
  S2-  S251  1  0.88198768  0.24553307  0.54859821  1
  S2-  S252  1  0.87515887  0.50529959  0.04364022  1
  S2-  S253  1  0.88053134  0.49079825  0.53808216  1
  S2-  S254  1  0.87193023  0.74954059  0.05979633  1
  S2-  S255  1  0.88635788  0.73942639  0.53088071  1
