# generated using pymatgen
data_La9Ce10Pr6Nd4Sm3(BiS2)32
_symmetry_space_group_name_H-M   'P 1'
_cell_length_a   16.17318807
_cell_length_b   16.11280999
_cell_length_c   27.16508578
_cell_angle_alpha   90.20736152
_cell_angle_beta   90.20437278
_cell_angle_gamma   90.14440891
_symmetry_Int_Tables_number   1
_chemical_formula_structural   La9Ce10Pr6Nd4Sm3(BiS2)32
_chemical_formula_sum   'La18 Ce20 Pr12 Nd8 Sm6 Bi64 S128'
_cell_volume   7078.98517515
_cell_formula_units_Z   2
loop_
 _symmetry_equiv_pos_site_id
 _symmetry_equiv_pos_as_xyz
  1  'x, y, z'
loop_
 _atom_type_symbol
 _atom_type_oxidation_number
  La3+  3.0
  Ce3+  3.0
  Pr3+  3.0
  Nd3+  3.0
  Sm3+  3.0
  Bi2+  2.0
  S2-  -2.0
loop_
 _atom_site_type_symbol
 _atom_site_label
 _atom_site_symmetry_multiplicity
 _atom_site_fract_x
 _atom_site_fract_y
 _atom_site_fract_z
 _atom_site_occupancy
  La3+  La0  1  0.60361709  0.24825158  0.42105626  1
  La3+  La1  1  0.00456366  0.87971393  0.08562590  1
  La3+  La2  1  0.73579661  0.10721860  0.56057453  1
  La3+  La3  1  0.23465766  0.35654164  0.58535692  1
  La3+  La4  1  0.25319888  0.89179553  0.07501117  1
  La3+  La5  1  0.11421971  0.48387590  0.43747568  1
  La3+  La6  1  0.74524896  0.38128111  0.06227871  1
  La3+  La7  1  0.37224585  0.75899460  0.93664640  1
  La3+  La8  1  -0.00354272  0.13667757  0.08047314  1
  La3+  La9  1  0.63278825  0.24895584  0.90349420  1
  La3+  La10  1  0.85432461  -0.01751854  0.41971833  1
  La3+  La11  1  0.87706150  0.76703437  0.92900621  1
  La3+  La12  1  0.73305093  0.35531604  0.58269021  1
  La3+  La13  1  0.12475906  0.72902486  0.41110916  1
  La3+  La14  1  0.48641565  0.35198942  0.58779514  1
  La3+  La15  1  0.22443100  0.62311378  0.58674981  1
  La3+  La16  1  -0.01343132  0.36407604  0.57477593  1
  La3+  La17  1  0.74517128  0.87173526  0.07854118  1
  Ce3+  Ce18  1  0.36188972  0.73158860  0.44569244  1
  Ce3+  Ce19  1  0.62657063  0.00940356  0.94281186  1
  Ce3+  Ce20  1  0.23558261  0.11109496  0.55856606  1
  Ce3+  Ce21  1  0.87184332  0.25480549  0.94516962  1
  Ce3+  Ce22  1  0.23554743  0.86209982  0.55745398  1
  Ce3+  Ce23  1  0.85819955  0.48585238  0.44959805  1
  Ce3+  Ce24  1  0.11709654  0.24800539  0.93484070  1
  Ce3+  Ce25  1  0.62982919  0.75886620  0.93142077  1
  Ce3+  Ce26  1  0.11256993  0.24032784  0.44026567  1
  Ce3+  Ce27  1  0.74689433  0.13194736  0.06833917  1
  Ce3+  Ce28  1  0.61010462  0.48292330  0.45672755  1
  Ce3+  Ce29  1  -0.01094771  0.62021800  0.55365409  1
  Ce3+  Ce30  1  0.48547749  0.86245792  0.55547551  1
  Ce3+  Ce31  1  -0.01377918  0.10705107  0.55098921  1
  Ce3+  Ce32  1  0.60733289  -0.01474823  0.42906073  1
  Ce3+  Ce33  1  0.49552694  0.38559285  0.05320376  1
  Ce3+  Ce34  1  0.50243036  0.88135719  0.06070129  1
  Ce3+  Ce35  1  0.00615138  0.38598866  0.06858196  1
  Ce3+  Ce36  1  0.87655287  0.50477119  0.94445409  1
  Ce3+  Ce37  1  0.49695041  0.62538171  0.05061477  1
  Pr3+  Pr38  1  0.36050555  0.24132942  0.44274950  1
  Pr3+  Pr39  1  0.11143027  0.49698280  0.92054686  1
  Pr3+  Pr40  1  0.62227966  0.50452233  0.92460561  1
  Pr3+  Pr41  1  0.50618099  0.14201264  0.07105044  1
  Pr3+  Pr42  1  0.74022434  0.86203685  0.56300630  1
  Pr3+  Pr43  1  0.48556960  0.61311731  0.57209464  1
  Pr3+  Pr44  1  0.48653139  0.10929295  0.56211434  1
  Pr3+  Pr45  1  0.12228766  0.00560776  0.93886689  1
  Pr3+  Pr46  1  0.24797542  0.62950304  0.04931937  1
  Pr3+  Pr47  1  0.00134845  0.63426216  0.06579766  1
  Pr3+  Pr48  1  0.36270927  -0.01325889  0.43000770  1
  Pr3+  Pr49  1  0.85094514  0.72340240  0.41668236  1
  Nd3+  Nd50  1  0.74803585  0.63443482  0.05318375  1
  Nd3+  Nd51  1  0.35969750  0.50148891  0.91373170  1
  Nd3+  Nd52  1  0.85855586  0.23720564  0.44329625  1
  Nd3+  Nd53  1  0.11223917  -0.01420092  0.43218718  1
  Nd3+  Nd54  1  0.37821954  0.01001416  0.94216701  1
  Nd3+  Nd55  1  0.35967903  0.48570821  0.46014622  1
  Nd3+  Nd56  1  0.37919667  0.25750887  0.92546338  1
  Nd3+  Nd57  1  0.73941016  0.61885743  0.57216955  1
  Sm3+  Sm58  1  0.87408388  0.00422514  0.95565874  1
  Sm3+  Sm59  1  0.25177734  0.13414283  0.05575057  1
  Sm3+  Sm60  1  0.11794317  0.76319536  0.93851019  1
  Sm3+  Sm61  1  0.25029003  0.38176709  0.04714758  1
  Sm3+  Sm62  1  0.61180278  0.73244544  0.44301047  1
  Sm3+  Sm63  1  -0.01401053  0.85912481  0.53844390  1
  Bi2+  Bi64  1  0.09565440  0.14702889  0.28367471  1
  Bi2+  Bi65  1  -0.04379204  0.10272679  0.79240768  1
  Bi2+  Bi66  1  -0.00887466  0.31962476  0.29075564  1
  Bi2+  Bi67  1  -0.00098725  0.33017799  0.77143620  1
  Bi2+  Bi68  1  -0.01784501  0.63816193  0.30504990  1
  Bi2+  Bi69  1  -0.03295406  0.63039857  0.78279303  1
  Bi2+  Bi70  1  0.02522762  0.90116676  0.29648464  1
  Bi2+  Bi71  1  0.01307749  0.89939377  0.80836757  1
  Bi2+  Bi72  1  0.27896682  0.18559954  0.32152932  1
  Bi2+  Bi73  1  0.23038157  0.12607392  0.79340707  1
  Bi2+  Bi74  1  0.23953253  0.36836266  0.29152478  1
  Bi2+  Bi75  1  0.21377005  0.39504067  0.78021479  1
  Bi2+  Bi76  1  0.29258728  0.60203996  0.29825444  1
  Bi2+  Bi77  1  0.26965222  0.63833822  0.77002071  1
  Bi2+  Bi78  1  0.34258532  0.93189707  0.29743060  1
  Bi2+  Bi79  1  0.27731126  0.88246691  0.79154564  1
  Bi2+  Bi80  1  0.40227313  0.09975466  0.24492555  1
  Bi2+  Bi81  1  0.46990848  -0.00062588  0.76328841  1
  Bi2+  Bi82  1  0.46904032  0.38287725  0.30353654  1
  Bi2+  Bi83  1  0.49262960  0.37565153  0.79922513  1
  Bi2+  Bi84  1  0.48653982  0.65409486  0.32079368  1
  Bi2+  Bi85  1  0.54730329  0.65654522  0.78676826  1
  Bi2+  Bi86  1  0.52863553  0.84592881  0.29880561  1
  Bi2+  Bi87  1  0.56295500  0.84973253  0.81393536  1
  Bi2+  Bi88  1  0.78249704  0.11916468  0.29608970  1
  Bi2+  Bi89  1  0.74220439  0.13408028  0.78401951  1
  Bi2+  Bi90  1  0.71655078  0.34978824  0.29459127  1
  Bi2+  Bi91  1  0.82264692  0.41737844  0.81055634  1
  Bi2+  Bi92  1  0.67525591  0.62484167  0.27943365  1
  Bi2+  Bi93  1  0.73786437  0.59881292  0.80377873  1
  Bi2+  Bi94  1  0.71287853  0.89890844  0.26099948  1
  Bi2+  Bi95  1  0.75381338  0.88542188  0.78713953  1
  Bi2+  Bi96  1  0.16488387  -0.00184110  0.21572270  1
  Bi2+  Bi97  1  0.15028718  -0.01796782  0.72126431  1
  Bi2+  Bi98  1  0.17311457  0.25716628  0.20051750  1
  Bi2+  Bi99  1  0.09485786  0.17964602  0.71713191  1
  Bi2+  Bi100  1  0.02702768  0.48892241  0.23529401  1
  Bi2+  Bi101  1  0.06765712  0.49793925  0.71879651  1
  Bi2+  Bi102  1  0.12345991  0.71217388  0.20270456  1
  Bi2+  Bi103  1  0.09163371  0.76856510  0.70207695  1
  Bi2+  Bi104  1  0.39436740  -0.07567920  0.18122936  1
  Bi2+  Bi105  1  0.32576738  0.03574329  0.67470995  1
  Bi2+  Bi106  1  0.36644933  0.28361644  0.20807406  1
  Bi2+  Bi107  1  0.35554593  0.22098116  0.71669530  1
  Bi2+  Bi108  1  0.34147969  0.51837660  0.19464939  1
  Bi2+  Bi109  1  0.41443025  0.51325968  0.71066630  1
  Bi2+  Bi110  1  0.40392248  0.74121132  0.22228069  1
  Bi2+  Bi111  1  0.38273443  0.85178625  0.69237406  1
  Bi2+  Bi112  1  0.56936604  0.00316082  0.21312925  1
  Bi2+  Bi113  1  0.64368257  -0.00081436  0.71230798  1
  Bi2+  Bi114  1  0.61578594  0.26216578  0.20778544  1
  Bi2+  Bi115  1  0.61293063  0.24611192  0.71874963  1
  Bi2+  Bi116  1  0.53663743  0.51345646  0.22909211  1
  Bi2+  Bi117  1  0.64932047  0.55210247  0.70149295  1
  Bi2+  Bi118  1  0.58465617  0.70914423  0.18247924  1
  Bi2+  Bi119  1  0.64066152  0.77573993  0.71058783  1
  Bi2+  Bi120  1  0.90788126  0.04582933  0.22485728  1
  Bi2+  Bi121  1  0.89792730  -0.01343291  0.70183266  1
  Bi2+  Bi122  1  0.87368368  0.29692096  0.19923874  1
  Bi2+  Bi123  1  0.86039815  0.23781184  0.70893647  1
  Bi2+  Bi124  1  0.83104850  0.50230589  0.25861085  1
  Bi2+  Bi125  1  0.84156719  0.52782969  0.70953840  1
  Bi2+  Bi126  1  0.85170109  0.76586517  0.21962370  1
  Bi2+  Bi127  1  0.89370959  0.77172796  0.71340102  1
  S2-  S128  1  0.02365367  0.01618906  0.15529381  1
  S2-  S129  1  -0.03312801  0.12257505  0.64872222  1
  S2-  S130  1  0.01944532  0.27720814  0.14771007  1
  S2-  S131  1  0.10216973  0.38020753  0.65293534  1
  S2-  S132  1  0.02411172  0.51174098  0.13931861  1
  S2-  S133  1  0.06252232  0.62910868  0.64349127  1
  S2-  S134  1  -0.02068322  0.73876533  0.15163044  1
  S2-  S135  1  -0.01774420  0.86510067  0.63868171  1
  S2-  S136  1  0.25890523  0.04695891  0.14303660  1
  S2-  S137  1  0.22814326  0.19737901  0.64475517  1
  S2-  S138  1  0.24930430  0.39763464  0.14706579  1
  S2-  S139  1  0.36103721  0.36374403  0.66286775  1
  S2-  S140  1  0.24050048  0.63716420  0.15114085  1
  S2-  S141  1  0.26142111  0.55933032  0.68416174  1
  S2-  S142  1  0.15463383  0.85205629  0.15731355  1
  S2-  S143  1  0.23088212  0.77944093  0.64595596  1
  S2-  S144  1  0.63292989  0.12758898  0.14759164  1
  S2-  S145  1  0.49411945  0.19516428  0.65291464  1
  S2-  S146  1  0.49362211  0.28572093  0.13741812  1
  S2-  S147  1  0.61058210  0.38442843  0.66410506  1
  S2-  S148  1  0.48095831  0.51266527  0.12652319  1
  S2-  S149  1  0.45701412  0.65223711  0.66977268  1
  S2-  S150  1  0.60183377  0.86934943  0.14186125  1
  S2-  S151  1  0.53708752  0.88620936  0.64855155  1
  S2-  S152  1  0.84813643  0.14710939  0.15198439  1
  S2-  S153  1  0.72678147  0.20713864  0.64691820  1
  S2-  S154  1  0.72232528  0.37274813  0.16318402  1
  S2-  S155  1  0.86525625  0.37482286  0.65156867  1
  S2-  S156  1  0.74631967  0.69305235  0.14791133  1
  S2-  S157  1  0.76560276  0.74570878  0.64183060  1
  S2-  S158  1  0.82200291  0.90506709  0.17254064  1
  S2-  S159  1  0.76133178  0.98585497  0.63781967  1
  S2-  S160  1  0.17754585  -0.03892195  0.33990108  1
  S2-  S161  1  0.09483121  0.12197745  0.86029376  1
  S2-  S162  1  0.11643096  0.35244656  0.36465422  1
  S2-  S163  1  0.10652758  0.34699853  0.85203719  1
  S2-  S164  1  0.11869446  0.57821428  0.35094339  1
  S2-  S165  1  0.21341424  0.54027015  0.83883890  1
  S2-  S166  1  0.10585234  0.76412802  0.30493811  1
  S2-  S167  1  0.15372359  0.88371734  0.86536197  1
  S2-  S168  1  0.48336274  -0.00846169  0.35504405  1
  S2-  S169  1  0.35396693  0.02439422  0.84238846  1
  S2-  S170  1  0.45464749  0.24805752  0.35736749  1
  S2-  S171  1  0.33474953  0.36391611  0.84273632  1
  S2-  S172  1  0.34074050  0.46407752  0.35998239  1
  S2-  S173  1  0.44797929  0.54058174  0.82756680  1
  S2-  S174  1  0.28869207  0.73172831  0.35745753  1
  S2-  S175  1  0.34917841  0.75326990  0.83567973  1
  S2-  S176  1  0.71907311  -0.02325907  0.35038481  1
  S2-  S177  1  0.63826362  0.08502405  0.85525738  1
  S2-  S178  1  0.64647333  0.19501677  0.32124852  1
  S2-  S179  1  0.48685844  0.23514615  0.84493787  1
  S2-  S180  1  0.61131430  0.41400050  0.36610701  1
  S2-  S181  1  0.63754604  0.40048746  0.84088250  1
  S2-  S182  1  0.70041007  0.72365641  0.35888035  1
  S2-  S183  1  0.74753113  0.75543057  0.85631330  1
  S2-  S184  1  0.92929349  0.03611681  0.33250961  1
  S2-  S185  1  0.87888135  -0.06857006  0.86403774  1
  S2-  S186  1  0.85180129  0.26431831  0.34407069  1
  S2-  S187  1  0.80032002  0.25861058  0.85464923  1
  S2-  S188  1  0.85193003  0.55377544  0.35942648  1
  S2-  S189  1  0.95959218  0.50592639  0.85865643  1
  S2-  S190  1  0.89466122  0.79852328  0.32328789  1
  S2-  S191  1  1.00530569  0.74735714  0.85812197  1
  S2-  S192  1  -0.01151646  0.11382251  0.44515287  1
  S2-  S193  1  -0.00888139  0.12949220  0.96669690  1
  S2-  S194  1  -0.01888770  0.36243051  0.46175601  1
  S2-  S195  1  -0.00516730  0.37533869  0.96077302  1
  S2-  S196  1  -0.01445868  0.61365267  0.45032882  1
  S2-  S197  1  -0.00084732  0.63228475  0.95898397  1
  S2-  S198  1  -0.00971053  0.85688106  0.43452542  1
  S2-  S199  1  0.00075645  0.88557089  0.96906377  1
  S2-  S200  1  0.23559278  0.11044885  0.45135519  1
  S2-  S201  1  0.25336635  0.13211815  0.95215853  1
  S2-  S202  1  0.23731253  0.35987633  0.46987015  1
  S2-  S203  1  0.24217593  0.37514741  0.94628974  1
  S2-  S204  1  0.23853844  0.61088822  0.46366871  1
  S2-  S205  1  0.24234783  0.63794699  0.94359620  1
  S2-  S206  1  0.23848746  0.86312505  0.45231626  1
  S2-  S207  1  0.25676101  0.88585725  0.96557635  1
  S2-  S208  1  0.48608888  0.11400989  0.45580162  1
  S2-  S209  1  0.50147972  0.13309165  0.95741620  1
  S2-  S210  1  0.48373233  0.36373892  0.47253558  1
  S2-  S211  1  0.49661375  0.38519304  0.94549442  1
  S2-  S212  1  0.48761245  0.60921015  0.46288255  1
  S2-  S213  1  0.50053696  0.63351255  0.94306078  1
  S2-  S214  1  0.48621729  0.85478048  0.45035806  1
  S2-  S215  1  0.50079140  0.88317021  0.95179975  1
  S2-  S216  1  0.73121779  0.11656714  0.44929550  1
  S2-  S217  1  0.75261241  0.12941147  0.96063134  1
  S2-  S218  1  0.73747323  0.36078273  0.46509541  1
  S2-  S219  1  0.74841911  0.38255101  0.95365175  1
  S2-  S220  1  0.73145318  0.60808291  0.46548733  1
  S2-  S221  1  0.75087600  0.62641713  0.94911267  1
  S2-  S222  1  0.73317254  0.85677186  0.45477510  1
  S2-  S223  1  0.74498344  0.88396342  0.96333523  1
  S2-  S224  1  0.12715044  0.01228446  0.04593396  1
  S2-  S225  1  0.11090173  -0.01562073  0.54094115  1
  S2-  S226  1  0.13047799  0.25502262  0.04269106  1
  S2-  S227  1  0.10723749  0.23328178  0.54498930  1
  S2-  S228  1  0.12876562  0.50362769  0.03276767  1
  S2-  S229  1  0.11123978  0.49230725  0.54709988  1
  S2-  S230  1  0.12787519  0.75848254  0.04379643  1
  S2-  S231  1  0.11168004  0.74244824  0.53389194  1
  S2-  S232  1  0.38445009  0.01432248  0.04717882  1
  S2-  S233  1  0.36119191  -0.01471411  0.53952188  1
  S2-  S234  1  0.37109460  0.25746579  0.03689940  1
  S2-  S235  1  0.36069281  0.23223237  0.54887624  1
  S2-  S236  1  0.36793443  0.50600774  0.02356585  1
  S2-  S237  1  0.35640392  0.49243696  0.56408099  1
  S2-  S238  1  0.37637099  0.75542547  0.04823352  1
  S2-  S239  1  0.36178434  0.73679188  0.55060316  1
  S2-  S240  1  0.62361943  0.00623277  0.04674140  1
  S2-  S241  1  0.60931617  -0.01536628  0.53825404  1
  S2-  S242  1  0.62575042  0.26014808  0.04022441  1
  S2-  S243  1  0.60891945  0.23574032  0.54380167  1
  S2-  S244  1  0.62604090  0.50859438  0.03499017  1
  S2-  S245  1  0.61412347  0.49197996  0.56011359  1
  S2-  S246  1  0.61887102  0.75109336  0.03667736  1
  S2-  S247  1  0.60992956  0.73645864  0.54860493  1
  S2-  S248  1  0.87064709  0.00124777  0.05740784  1
  S2-  S249  1  0.86544352  -0.01613114  0.52927746  1
  S2-  S250  1  0.87318508  0.26172914  0.04909814  1
  S2-  S251  1  0.86402150  0.23377182  0.54767256  1
  S2-  S252  1  0.87043709  0.50884629  0.05108243  1
  S2-  S253  1  0.86180620  0.49623455  0.55380529  1
  S2-  S254  1  0.87205031  0.75769285  0.04265540  1
  S2-  S255  1  0.86359183  0.73789460  0.53279432  1
