# generated using pymatgen
data_La9Ce10Pr6Nd4Sm3(BiS2)32
_symmetry_space_group_name_H-M   'P 1'
_cell_length_a   16.16582321
_cell_length_b   16.20015345
_cell_length_c   27.08924311
_cell_angle_alpha   90.13841535
_cell_angle_beta   89.79629292
_cell_angle_gamma   90.00806777
_symmetry_Int_Tables_number   1
_chemical_formula_structural   La9Ce10Pr6Nd4Sm3(BiS2)32
_chemical_formula_sum   'La18 Ce20 Pr12 Nd8 Sm6 Bi64 S128'
_cell_volume   7094.30421716
_cell_formula_units_Z   2
loop_
 _symmetry_equiv_pos_site_id
 _symmetry_equiv_pos_as_xyz
  1  'x, y, z'
loop_
 _atom_type_symbol
 _atom_type_oxidation_number
  La3+  3.0
  Ce3+  3.0
  Pr3+  3.0
  Nd3+  3.0
  Sm3+  3.0
  Bi2+  2.0
  S2-  -2.0
loop_
 _atom_site_type_symbol
 _atom_site_label
 _atom_site_symmetry_multiplicity
 _atom_site_fract_x
 _atom_site_fract_y
 _atom_site_fract_z
 _atom_site_occupancy
  La3+  La0  1  0.63231732  0.74318923  0.93149874  1
  La3+  La1  1  0.12524212  0.26659848  0.41339958  1
  La3+  La2  1  0.50288859  0.87582396  0.06128333  1
  La3+  La3  1  0.23181780  0.63966928  0.58789934  1
  La3+  La4  1  0.75264255  0.13857488  0.59157725  1
  La3+  La5  1  0.74682868  0.88070606  0.57031977  1
  La3+  La6  1  0.50524718  0.12645513  0.05577959  1
  La3+  La7  1  0.49750157  0.62342760  0.07839780  1
  La3+  La8  1  0.63682977  0.00345649  0.91927073  1
  La3+  La9  1  0.48754523  0.37760125  0.57410285  1
  La3+  La10  1  0.38128553  -0.00230743  0.92563210  1
  La3+  La11  1  0.23770248  0.37850789  0.57111512  1
  La3+  La12  1  0.10959576  0.00249821  0.41762740  1
  La3+  La13  1  0.61026088  0.51758551  0.40106211  1
  La3+  La14  1  -0.00996637  0.88493664  0.56421862  1
  La3+  La15  1  0.49578951  0.63293350  0.57067465  1
  La3+  La16  1  0.38485235  0.74668385  0.92497439  1
  La3+  La17  1  0.48456360  0.13060850  0.58874502  1
  Ce3+  Ce18  1  0.00433972  0.62951665  0.05558641  1
  Ce3+  Ce19  1  0.75271493  0.38388145  0.07499708  1
  Ce3+  Ce20  1  0.87690023  0.50204152  0.94484066  1
  Ce3+  Ce21  1  0.36910737  0.50681190  0.44856323  1
  Ce3+  Ce22  1  0.12611326  -0.00044678  0.93817187  1
  Ce3+  Ce23  1  0.61896716  0.00914657  0.45623103  1
  Ce3+  Ce24  1  0.86393891  0.75185714  0.43804972  1
  Ce3+  Ce25  1  0.25875624  0.87729629  0.05906347  1
  Ce3+  Ce26  1  0.25390602  0.12578583  0.05038513  1
  Ce3+  Ce27  1  0.63114603  0.50151993  0.95006385  1
  Ce3+  Ce28  1  0.38320462  0.49998891  0.93619072  1
  Ce3+  Ce29  1  0.87018531  0.25764210  0.43624855  1
  Ce3+  Ce30  1  0.38104566  0.25272419  0.93591690  1
  Ce3+  Ce31  1  0.61640129  0.25624339  0.44625058  1
  Ce3+  Ce32  1  0.12788191  0.25050147  0.93916419  1
  Ce3+  Ce33  1  0.12856945  0.50235109  0.93494506  1
  Ce3+  Ce34  1  0.86901593  0.50341001  0.43812694  1
  Ce3+  Ce35  1  0.36826058  0.75275363  0.44937944  1
  Ce3+  Ce36  1  0.87753421  0.00052316  0.93579245  1
  Ce3+  Ce37  1  0.25669600  0.62688501  0.05361625  1
  Pr3+  Pr38  1  0.75338058  0.12789336  0.05755907  1
  Pr3+  Pr39  1  0.86260838  -0.00147154  0.43126317  1
  Pr3+  Pr40  1  0.87968076  0.25341301  0.94465770  1
  Pr3+  Pr41  1  0.00474129  0.38031181  0.06299513  1
  Pr3+  Pr42  1  0.11956628  0.75368054  0.43496199  1
  Pr3+  Pr43  1  0.37766478  0.25538489  0.43711377  1
  Pr3+  Pr44  1  0.74222520  0.38010230  0.55777416  1
  Pr3+  Pr45  1  0.00468056  0.12186773  0.06346956  1
  Pr3+  Pr46  1  0.74743275  0.88219399  0.07433304  1
  Pr3+  Pr47  1  0.50602850  0.37505601  0.06975530  1
  Pr3+  Pr48  1  0.50020703  0.88217045  0.57992501  1
  Pr3+  Pr49  1  -0.00756046  0.37778996  0.56839621  1
  Nd3+  Nd50  1  -0.00947959  0.63108107  0.55802447  1
  Nd3+  Nd51  1  0.13117296  0.75174937  0.93778739  1
  Nd3+  Nd52  1  0.63075259  0.25416967  0.93001242  1
  Nd3+  Nd53  1  0.23900170  0.12869675  0.55464214  1
  Nd3+  Nd54  1  0.73983861  0.62694514  0.55506150  1
  Nd3+  Nd55  1  0.37189915  0.00444642  0.44449439  1
  Nd3+  Nd56  1  0.75025179  0.63428232  0.08062116  1
  Nd3+  Nd57  1  0.87341078  0.74962363  0.93446269  1
  Sm3+  Sm58  1  0.24039449  0.88189530  0.55934862  1
  Sm3+  Sm59  1  0.12231928  0.50759740  0.44552561  1
  Sm3+  Sm60  1  0.60991147  0.76311812  0.43675603  1
  Sm3+  Sm61  1  -0.00566315  0.13065345  0.55154226  1
  Sm3+  Sm62  1  0.00236114  0.87527218  0.05477752  1
  Sm3+  Sm63  1  0.25331965  0.37597559  0.05278256  1
  Bi2+  Bi64  1  0.02917209  0.14136141  0.28406268  1
  Bi2+  Bi65  1  0.02353644  0.14517191  0.78606987  1
  Bi2+  Bi66  1  -0.03098019  0.40118935  0.29640436  1
  Bi2+  Bi67  1  -0.08711473  0.40338408  0.78489218  1
  Bi2+  Bi68  1  0.07572926  0.65357392  0.30914876  1
  Bi2+  Bi69  1  -0.04653592  0.69785571  0.78450385  1
  Bi2+  Bi70  1  -0.01565867  0.88623684  0.29166216  1
  Bi2+  Bi71  1  0.00236204  0.95823400  0.82277638  1
  Bi2+  Bi72  1  0.29431953  0.17065802  0.28890424  1
  Bi2+  Bi73  1  0.22247026  0.14458942  0.77857040  1
  Bi2+  Bi74  1  0.23798296  0.44994832  0.29780591  1
  Bi2+  Bi75  1  0.21668670  0.33660665  0.76344920  1
  Bi2+  Bi76  1  0.25321957  0.62415775  0.35793214  1
  Bi2+  Bi77  1  0.20921983  0.62624152  0.80020177  1
  Bi2+  Bi78  1  0.26107275  0.85131375  0.28952173  1
  Bi2+  Bi79  1  0.15243843  0.87593695  0.76032390  1
  Bi2+  Bi80  1  0.54520467  0.09856593  0.31817059  1
  Bi2+  Bi81  1  0.49335521  0.11883152  0.78848425  1
  Bi2+  Bi82  1  0.46554536  0.35381174  0.29048709  1
  Bi2+  Bi83  1  0.52161171  0.37922660  0.79846855  1
  Bi2+  Bi84  1  0.41071921  0.61731466  0.28824709  1
  Bi2+  Bi85  1  0.50149635  0.61200495  0.79944688  1
  Bi2+  Bi86  1  0.55269585  0.83678734  0.30489165  1
  Bi2+  Bi87  1  0.43052652  0.87125860  0.79457852  1
  Bi2+  Bi88  1  0.73960884  0.12695764  0.29476156  1
  Bi2+  Bi89  1  0.77797926  0.12687989  0.79042607  1
  Bi2+  Bi90  1  0.74445514  0.32195734  0.30551499  1
  Bi2+  Bi91  1  0.71717745  0.35535919  0.81740172  1
  Bi2+  Bi92  1  0.88621681  0.68744152  0.29552733  1
  Bi2+  Bi93  1  0.75007962  0.61694784  0.78988938  1
  Bi2+  Bi94  1  0.78339719  0.86625720  0.23247869  1
  Bi2+  Bi95  1  0.84268584  0.85981740  0.78871214  1
  Bi2+  Bi96  1  0.20236025  0.00379177  0.22691770  1
  Bi2+  Bi97  1  0.10982836  0.01963468  0.64344571  1
  Bi2+  Bi98  1  0.16217496  0.24529875  0.17198399  1
  Bi2+  Bi99  1  0.13701052  0.22605883  0.67757576  1
  Bi2+  Bi100  1  0.12125428  0.53877905  0.21475262  1
  Bi2+  Bi101  1  0.01374350  0.52799992  0.71568383  1
  Bi2+  Bi102  1  0.17581849  0.72617772  0.21603420  1
  Bi2+  Bi103  1  0.01547725  0.79837734  0.69027959  1
  Bi2+  Bi104  1  0.38940125  -0.04303885  0.22935767  1
  Bi2+  Bi105  1  0.26787899  0.00036705  0.70431300  1
  Bi2+  Bi106  1  0.41461524  0.23587944  0.20512735  1
  Bi2+  Bi107  1  0.37504970  0.25646003  0.71221402  1
  Bi2+  Bi108  1  0.33691649  0.50318668  0.20524479  1
  Bi2+  Bi109  1  0.37009157  0.48882624  0.73017015  1
  Bi2+  Bi110  1  0.39483779  0.76063827  0.21184494  1
  Bi2+  Bi111  1  0.33877092  0.73083752  0.70978565  1
  Bi2+  Bi112  1  0.62206470  0.00401597  0.20525347  1
  Bi2+  Bi113  1  0.62607902  -0.02946753  0.72924071  1
  Bi2+  Bi114  1  0.60780131  0.24958441  0.23150707  1
  Bi2+  Bi115  1  0.64519941  0.26793381  0.72243671  1
  Bi2+  Bi116  1  0.62274147  0.48857572  0.20222978  1
  Bi2+  Bi117  1  0.65118871  0.47547176  0.73238662  1
  Bi2+  Bi118  1  0.65968445  0.71871803  0.24632172  1
  Bi2+  Bi119  1  0.58032868  0.73204399  0.70591072  1
  Bi2+  Bi120  1  0.90767911  0.00595787  0.19339663  1
  Bi2+  Bi121  1  0.94296134  -0.00484883  0.70977163  1
  Bi2+  Bi122  1  0.85958568  0.21786978  0.22031521  1
  Bi2+  Bi123  1  0.94767285  0.26720291  0.70230674  1
  Bi2+  Bi124  1  0.89080484  0.40009436  0.19459981  1
  Bi2+  Bi125  1  0.85076064  0.43942633  0.67365037  1
  Bi2+  Bi126  1  0.96134701  0.75698094  0.19305638  1
  Bi2+  Bi127  1  0.85858595  0.64053891  0.68425839  1
  S2-  S128  1  0.01139863  0.14920455  0.16384783  1
  S2-  S129  1  -0.08693277  0.13364832  0.64173337  1
  S2-  S130  1  0.06269230  0.38393251  0.15860648  1
  S2-  S131  1  0.11107171  0.38347869  0.64593791  1
  S2-  S132  1  -0.00652053  0.60503735  0.15286126  1
  S2-  S133  1  0.07120859  0.64291511  0.64677326  1
  S2-  S134  1  0.02496890  0.91188389  0.15128977  1
  S2-  S135  1  -0.12548313  0.87960479  0.64506343  1
  S2-  S136  1  0.25175093  0.09791440  0.14804489  1
  S2-  S137  1  0.32554395  0.13430410  0.64479485  1
  S2-  S138  1  0.29031346  0.35445074  0.14912820  1
  S2-  S139  1  0.35576066  0.38828649  0.64936851  1
  S2-  S140  1  0.34456363  0.63968101  0.13812962  1
  S2-  S141  1  0.25376435  0.57714405  0.68962759  1
  S2-  S142  1  0.36963968  0.88219340  0.13596613  1
  S2-  S143  1  0.23805884  0.79121510  0.64498148  1
  S2-  S144  1  0.50202415  0.10885112  0.15688349  1
  S2-  S145  1  0.51120995  0.05903522  0.68874158  1
  S2-  S146  1  0.48584194  0.48458462  0.15030282  1
  S2-  S147  1  0.51678801  0.26643428  0.65398875  1
  S2-  S148  1  0.61396832  0.64653899  0.15928998  1
  S2-  S149  1  0.46971348  0.61219938  0.67217573  1
  S2-  S150  1  0.60797785  0.88447410  0.14298259  1
  S2-  S151  1  0.44539950  0.84286578  0.68009549  1
  S2-  S152  1  0.75448183  0.04330171  0.14536684  1
  S2-  S153  1  0.72580202  0.07555727  0.69088994  1
  S2-  S154  1  0.63384145  0.34167267  0.14493508  1
  S2-  S155  1  0.74861733  0.29232887  0.64726883  1
  S2-  S156  1  0.77241673  0.50532653  0.15149392  1
  S2-  S157  1  0.68895019  0.65707636  0.65084648  1
  S2-  S158  1  0.79876705  0.76686953  0.14753433  1
  S2-  S159  1  0.63599134  0.86676278  0.64853219  1
  S2-  S160  1  0.16547038  0.07854400  0.32966235  1
  S2-  S161  1  0.17333825  -0.03354968  0.84582619  1
  S2-  S162  1  0.14474797  0.25795373  0.26612975  1
  S2-  S163  1  0.12512636  0.26350518  0.84108680  1
  S2-  S164  1  0.10385619  0.42154919  0.35922257  1
  S2-  S165  1  0.12278194  0.50566752  0.83678416  1
  S2-  S166  1  0.11530723  0.85986167  0.35276776  1
  S2-  S167  1  0.09917136  0.72938936  0.83948200  1
  S2-  S168  1  0.39622783  0.05998340  0.34973025  1
  S2-  S169  1  0.37397159  0.02708200  0.82487514  1
  S2-  S170  1  0.27955160  0.29351595  0.35612807  1
  S2-  S171  1  0.42068395  0.25704047  0.83926434  1
  S2-  S172  1  0.45215170  0.49287732  0.35755791  1
  S2-  S173  1  0.35632273  0.53346785  0.83913619  1
  S2-  S174  1  0.42212218  0.80637150  0.36302036  1
  S2-  S175  1  0.30890068  0.76547441  0.83151536  1
  S2-  S176  1  0.62668519  -0.04319971  0.36101702  1
  S2-  S177  1  0.56137536  -0.04767519  0.82998904  1
  S2-  S178  1  0.51554592  0.25763839  0.36481448  1
  S2-  S179  1  0.63465446  0.15064079  0.84764415  1
  S2-  S180  1  0.65990523  0.46385318  0.30669310  1
  S2-  S181  1  0.62932520  0.57773512  0.86199309  1
  S2-  S182  1  0.62201697  0.67952796  0.34887136  1
  S2-  S183  1  0.51555706  0.74993010  0.85042370  1
  S2-  S184  1  0.96140127  0.02107285  0.34721552  1
  S2-  S185  1  0.78321967  -0.00961454  0.85226018  1
  S2-  S186  1  0.97126338  0.25687321  0.35397914  1
  S2-  S187  1  0.88597530  0.19698809  0.84779921  1
  S2-  S188  1  0.87759334  0.52411897  0.33954394  1
  S2-  S189  1  0.87079545  0.53536012  0.84766030  1
  S2-  S190  1  0.84731850  0.83374361  0.35246631  1
  S2-  S191  1  0.75971247  0.75646256  0.85654485  1
  S2-  S192  1  -0.00775157  0.13151988  0.44979715  1
  S2-  S193  1  0.00457600  0.12563110  0.95466415  1
  S2-  S194  1  -0.00802787  0.38385955  0.46027904  1
  S2-  S195  1  0.00489032  0.37780882  0.95238710  1
  S2-  S196  1  -0.00639446  0.62857878  0.45039309  1
  S2-  S197  1  0.00374104  0.62834619  0.94888307  1
  S2-  S198  1  -0.01390316  0.87520952  0.45518877  1
  S2-  S199  1  0.00246422  0.87173864  0.94915386  1
  S2-  S200  1  0.24535211  0.13035332  0.44915164  1
  S2-  S201  1  0.25392332  0.12691184  0.94284578  1
  S2-  S202  1  0.24399393  0.38664098  0.46188036  1
  S2-  S203  1  0.25384708  0.37595673  0.94588587  1
  S2-  S204  1  0.24165966  0.63172828  0.47098470  1
  S2-  S205  1  0.25341857  0.62496152  0.94791097  1
  S2-  S206  1  0.24661742  0.88055642  0.45379753  1
  S2-  S207  1  0.25418676  0.87488351  0.95195879  1
  S2-  S208  1  0.49400133  0.12759297  0.46952186  1
  S2-  S209  1  0.50376472  0.12850887  0.94697010  1
  S2-  S210  1  0.49804866  0.38806166  0.46461838  1
  S2-  S211  1  0.50636282  0.37549601  0.95423793  1
  S2-  S212  1  0.49687642  0.63196775  0.45938777  1
  S2-  S213  1  0.50184303  0.61961351  0.96227476  1
  S2-  S214  1  0.49571988  0.88403020  0.46984268  1
  S2-  S215  1  0.50680639  0.87787614  0.95136671  1
  S2-  S216  1  0.74392837  0.13312770  0.44441333  1
  S2-  S217  1  0.75636304  0.13084617  0.95314790  1
  S2-  S218  1  0.73726783  0.38650263  0.44862139  1
  S2-  S219  1  0.75493677  0.37630720  0.96047281  1
  S2-  S220  1  0.73806145  0.62642109  0.44894347  1
  S2-  S221  1  0.75793675  0.62383352  0.96541471  1
  S2-  S222  1  0.73924422  0.87649798  0.46106588  1
  S2-  S223  1  0.75720410  0.87658677  0.96047382  1
  S2-  S224  1  0.12927932  -0.00178398  0.04508744  1
  S2-  S225  1  0.11749283  0.00359054  0.52988126  1
  S2-  S226  1  0.12841929  0.25136356  0.04543593  1
  S2-  S227  1  0.11551733  0.25165886  0.53849240  1
  S2-  S228  1  0.13178389  0.50201312  0.04426096  1
  S2-  S229  1  0.11503674  0.50814297  0.54835674  1
  S2-  S230  1  0.13069623  0.75422639  0.04720063  1
  S2-  S231  1  0.11299556  0.76136674  0.54189578  1
  S2-  S232  1  0.37820154  0.00541392  0.03530472  1
  S2-  S233  1  0.36715695  -0.00167545  0.55302623  1
  S2-  S234  1  0.37800934  0.25261434  0.04306289  1
  S2-  S235  1  0.36373568  0.25375553  0.54442510  1
  S2-  S236  1  0.37495942  0.49514814  0.04136358  1
  S2-  S237  1  0.36302157  0.51473242  0.55456642  1
  S2-  S238  1  0.37648373  0.75133280  0.03475079  1
  S2-  S239  1  0.37028827  0.76000885  0.55405559  1
  S2-  S240  1  0.62955683  0.00588177  0.03539316  1
  S2-  S241  1  0.62347446  0.01644381  0.56107327  1
  S2-  S242  1  0.62989246  0.25062244  0.03829974  1
  S2-  S243  1  0.62171124  0.24993977  0.54923269  1
  S2-  S244  1  0.62891876  0.50327325  0.05201667  1
  S2-  S245  1  0.61686678  0.50155420  0.56301165  1
  S2-  S246  1  0.62744220  0.74778130  0.04346052  1
  S2-  S247  1  0.61852512  0.75377932  0.54237116  1
  S2-  S248  1  0.88150975  -0.00088720  0.04395038  1
  S2-  S249  1  0.86439141  0.01235192  0.53978556  1
  S2-  S250  1  0.88044635  0.25280582  0.05373979  1
  S2-  S251  1  0.86990461  0.25577961  0.54077407  1
  S2-  S252  1  0.88185656  0.50446929  0.04864257  1
  S2-  S253  1  0.86837266  0.50561622  0.54513501  1
  S2-  S254  1  0.88374896  0.75319814  0.04083590  1
  S2-  S255  1  0.86551178  0.75003009  0.54429509  1
