# generated using pymatgen
data_La9Ce10Pr6Nd4Sm3(BiS2)32
_symmetry_space_group_name_H-M   'P 1'
_cell_length_a   16.13869846
_cell_length_b   16.15069157
_cell_length_c   27.42461539
_cell_angle_alpha   90.51717515
_cell_angle_beta   89.89536750
_cell_angle_gamma   90.04393906
_symmetry_Int_Tables_number   1
_chemical_formula_structural   La9Ce10Pr6Nd4Sm3(BiS2)32
_chemical_formula_sum   'La18 Ce20 Pr12 Nd8 Sm6 Bi64 S128'
_cell_volume   7147.95216220
_cell_formula_units_Z   2
loop_
 _symmetry_equiv_pos_site_id
 _symmetry_equiv_pos_as_xyz
  1  'x, y, z'
loop_
 _atom_type_symbol
 _atom_type_oxidation_number
  La3+  3.0
  Ce3+  3.0
  Pr3+  3.0
  Nd3+  3.0
  Sm3+  3.0
  Bi2+  2.0
  S2-  -2.0
loop_
 _atom_site_type_symbol
 _atom_site_label
 _atom_site_symmetry_multiplicity
 _atom_site_fract_x
 _atom_site_fract_y
 _atom_site_fract_z
 _atom_site_occupancy
  La3+  La0  1  0.10892103  0.24205237  0.91330122  1
  La3+  La1  1  0.75320519  0.37652798  0.57111926  1
  La3+  La2  1  0.48663209  0.11863468  0.07012953  1
  La3+  La3  1  0.12259651  0.24033305  0.42947450  1
  La3+  La4  1  0.86517248  0.24246769  0.42686274  1
  La3+  La5  1  0.62674621  0.00179398  0.44777552  1
  La3+  La6  1  0.85679659  0.49740935  0.93793183  1
  La3+  La7  1  0.62224194  0.25342362  0.45166918  1
  La3+  La8  1  0.75289498  0.12124143  0.59241943  1
  La3+  La9  1  0.48611813  0.36474875  0.07506587  1
  La3+  La10  1  0.48215090  0.61316389  0.08137145  1
  La3+  La11  1  0.62833410  0.74978684  0.44300281  1
  La3+  La12  1  0.75041852  0.36662852  0.10736446  1
  La3+  La13  1  0.38399990  -0.00236508  0.42634716  1
  La3+  La14  1  0.37572821  0.49834751  0.42849783  1
  La3+  La15  1  0.36492596  0.49409076  0.94243883  1
  La3+  La16  1  0.11243551  0.74409559  0.93251677  1
  La3+  La17  1  0.60417928  0.73828948  0.93211071  1
  Ce3+  Ce18  1  0.61511373  0.49649906  0.95902122  1
  Ce3+  Ce19  1  0.24879213  0.88010758  0.55635879  1
  Ce3+  Ce20  1  0.36804770  0.24249825  0.93609034  1
  Ce3+  Ce21  1  0.74810765  0.87122502  0.57395938  1
  Ce3+  Ce22  1  0.23554187  0.61813721  0.06614820  1
  Ce3+  Ce23  1  0.85953033  0.24351180  0.92768657  1
  Ce3+  Ce24  1  0.13681646  -0.00242904  0.41946410  1
  Ce3+  Ce25  1  -0.00871542  0.87268881  0.06258370  1
  Ce3+  Ce26  1  0.60807157  0.24598532  0.94104255  1
  Ce3+  Ce27  1  0.25647528  0.12524091  0.56163615  1
  Ce3+  Ce28  1  0.24944045  0.62778179  0.54665790  1
  Ce3+  Ce29  1  0.36345316  0.74687938  0.95085166  1
  Ce3+  Ce30  1  0.11340113  -0.00644918  0.93234187  1
  Ce3+  Ce31  1  0.23018179  0.36469629  0.05244465  1
  Ce3+  Ce32  1  0.25099214  0.37787429  0.55563203  1
  Ce3+  Ce33  1  -0.01732609  0.36851307  0.05255190  1
  Ce3+  Ce34  1  0.49072465  0.87909587  0.57247809  1
  Ce3+  Ce35  1  0.12287798  0.49916366  0.43890365  1
  Ce3+  Ce36  1  0.73689727  0.12282328  0.04737671  1
  Ce3+  Ce37  1  0.73158296  0.62661785  0.07970139  1
  Pr3+  Pr38  1  0.48115711  0.87379177  0.07590292  1
  Pr3+  Pr39  1  0.22330341  0.12860973  0.07068764  1
  Pr3+  Pr40  1  0.59727212  -0.00985667  0.91150458  1
  Pr3+  Pr41  1  0.87346821  0.00236789  0.43947606  1
  Pr3+  Pr42  1  0.49945563  0.12915997  0.57299167  1
  Pr3+  Pr43  1  0.85756583  -0.00947091  0.93727629  1
  Pr3+  Pr44  1  -0.01495472  0.61678949  0.06037923  1
  Pr3+  Pr45  1  0.38007856  0.74964541  0.43405065  1
  Pr3+  Pr46  1  0.48894675  0.39272440  0.59239873  1
  Pr3+  Pr47  1  0.12609515  0.75328568  0.42698111  1
  Pr3+  Pr48  1  0.36015527  -0.00267401  0.94751679  1
  Pr3+  Pr49  1  0.00384650  0.12398473  0.56297472  1
  Nd3+  Nd50  1  0.73251298  0.86909833  0.06019061  1
  Nd3+  Nd51  1  -0.00128249  0.37368934  0.55102627  1
  Nd3+  Nd52  1  0.23107578  0.87375010  0.07078196  1
  Nd3+  Nd53  1  0.00104009  0.62865311  0.55174796  1
  Nd3+  Nd54  1  0.87610081  0.49547954  0.43041480  1
  Nd3+  Nd55  1  0.37348508  0.25009028  0.44273470  1
  Nd3+  Nd56  1  -0.01808903  0.12443669  0.05075268  1
  Nd3+  Nd57  1  0.75175954  0.62528312  0.56609620  1
  Sm3+  Sm58  1  0.00279818  0.87994853  0.54775821  1
  Sm3+  Sm59  1  0.85892930  0.74548411  0.94690294  1
  Sm3+  Sm60  1  0.62934185  0.49729252  0.44163042  1
  Sm3+  Sm61  1  0.87482635  0.75112781  0.44351114  1
  Sm3+  Sm62  1  0.49705387  0.62501208  0.55410981  1
  Sm3+  Sm63  1  0.11204529  0.49513136  0.93327959  1
  Bi2+  Bi64  1  -0.05591781  0.04994669  0.29006425  1
  Bi2+  Bi65  1  -0.00421021  0.03185301  0.78182060  1
  Bi2+  Bi66  1  0.02294592  0.40880888  0.27536726  1
  Bi2+  Bi67  1  0.02330680  0.38296781  0.78205044  1
  Bi2+  Bi68  1  0.03186900  0.61797031  0.29603222  1
  Bi2+  Bi69  1  -0.00506929  0.63460820  0.80131439  1
  Bi2+  Bi70  1  0.00626801  0.81988665  0.28951519  1
  Bi2+  Bi71  1  0.06052056  0.83648535  0.76506119  1
  Bi2+  Bi72  1  0.19469767  0.11838244  0.28478085  1
  Bi2+  Bi73  1  0.22531758  0.09588290  0.77462376  1
  Bi2+  Bi74  1  0.29379378  0.35877103  0.28201200  1
  Bi2+  Bi75  1  0.28653326  0.36812211  0.79660940  1
  Bi2+  Bi76  1  0.22758614  0.64282253  0.29162029  1
  Bi2+  Bi77  1  0.22351201  0.74305222  0.80936147  1
  Bi2+  Bi78  1  0.19351131  0.82291834  0.25047988  1
  Bi2+  Bi79  1  0.25121756  0.91312832  0.72859937  1
  Bi2+  Bi80  1  0.43153526  0.10218880  0.29390877  1
  Bi2+  Bi81  1  0.46327530  0.13168457  0.80689016  1
  Bi2+  Bi82  1  0.54108108  0.36278446  0.31639222  1
  Bi2+  Bi83  1  0.53719241  0.38027625  0.78219193  1
  Bi2+  Bi84  1  0.41820904  0.65918619  0.30617240  1
  Bi2+  Bi85  1  0.48838697  0.60402193  0.80271295  1
  Bi2+  Bi86  1  0.53169289  0.86135097  0.30960004  1
  Bi2+  Bi87  1  0.49462971  0.85386578  0.79486921  1
  Bi2+  Bi88  1  0.75350950  0.16086991  0.24040389  1
  Bi2+  Bi89  1  0.84007890  0.15002582  0.79885969  1
  Bi2+  Bi90  1  0.76787107  0.38743231  0.30683399  1
  Bi2+  Bi91  1  0.73618335  0.39192306  0.78478406  1
  Bi2+  Bi92  1  0.74143878  0.74458106  0.26954902  1
  Bi2+  Bi93  1  0.76103070  0.57755583  0.81401377  1
  Bi2+  Bi94  1  0.79900782  0.91583813  0.31827875  1
  Bi2+  Bi95  1  0.78039234  0.83706480  0.78988154  1
  Bi2+  Bi96  1  0.09211132  -0.01805271  0.21984646  1
  Bi2+  Bi97  1  0.14131379  0.04691636  0.66932334  1
  Bi2+  Bi98  1  0.10148842  0.26473346  0.20993949  1
  Bi2+  Bi99  1  0.12411556  0.22947195  0.70716352  1
  Bi2+  Bi100  1  0.15032551  0.45487248  0.18763190  1
  Bi2+  Bi101  1  0.16954283  0.48712754  0.73278604  1
  Bi2+  Bi102  1  0.13486085  0.65411080  0.18843856  1
  Bi2+  Bi103  1  0.12049665  0.66970627  0.70659604  1
  Bi2+  Bi104  1  0.38963348  -0.02501453  0.21360493  1
  Bi2+  Bi105  1  0.42516440  -0.00807286  0.69856150  1
  Bi2+  Bi106  1  0.34171749  0.21737575  0.20582880  1
  Bi2+  Bi107  1  0.31823910  0.25142673  0.70881434  1
  Bi2+  Bi108  1  0.34476109  0.48756327  0.20761383  1
  Bi2+  Bi109  1  0.35213284  0.53443106  0.70259084  1
  Bi2+  Bi110  1  0.43554153  0.73499737  0.20543928  1
  Bi2+  Bi111  1  0.37583993  0.72963252  0.74119508  1
  Bi2+  Bi112  1  0.66121553  -0.00947504  0.24808539  1
  Bi2+  Bi113  1  0.64190274  0.00778331  0.72369180  1
  Bi2+  Bi114  1  0.57174490  0.23578322  0.23424796  1
  Bi2+  Bi115  1  0.66352729  0.23571572  0.72957437  1
  Bi2+  Bi116  1  0.62193951  0.52458363  0.21857264  1
  Bi2+  Bi117  1  0.62656073  0.50151438  0.70856539  1
  Bi2+  Bi118  1  0.60881155  0.82457839  0.19443437  1
  Bi2+  Bi119  1  0.65451828  0.69464669  0.74727120  1
  Bi2+  Bi120  1  0.84144917  -0.01282215  0.19375765  1
  Bi2+  Bi121  1  0.92686145  -0.05108202  0.69031069  1
  Bi2+  Bi122  1  0.91950919  0.20090672  0.18291565  1
  Bi2+  Bi123  1  0.91045528  0.24156093  0.70804627  1
  Bi2+  Bi124  1  0.88906744  0.54473688  0.23077747  1
  Bi2+  Bi125  1  0.89642256  0.49240713  0.70171589  1
  Bi2+  Bi126  1  0.89640013  0.80240448  0.19558686  1
  Bi2+  Bi127  1  0.85010407  0.70370179  0.71429939  1
  S2-  S128  1  0.06639785  0.13187745  0.13809162  1
  S2-  S129  1  -0.09162094  0.11360695  0.64784993  1
  S2-  S130  1  -0.08317698  0.35614771  0.14380746  1
  S2-  S131  1  -0.02432461  0.38080167  0.65011470  1
  S2-  S132  1  -0.03659155  0.64444421  0.15985355  1
  S2-  S133  1  -0.02454693  0.62436114  0.64962122  1
  S2-  S134  1  0.09830413  0.88098023  0.13983913  1
  S2-  S135  1  0.05574325  0.88172801  0.64061646  1
  S2-  S136  1  0.28391211  0.07312573  0.16439241  1
  S2-  S137  1  0.36428794  0.12736792  0.64125681  1
  S2-  S138  1  0.23293517  0.27785454  0.13596104  1
  S2-  S139  1  0.32953304  0.38878776  0.64261767  1
  S2-  S140  1  0.33963346  0.62609619  0.14732774  1
  S2-  S141  1  0.25804856  0.64478050  0.64290536  1
  S2-  S142  1  0.34578653  0.85284315  0.14820318  1
  S2-  S143  1  0.34696035  0.87665317  0.63675120  1
  S2-  S144  1  0.48943025  0.23749118  0.14705820  1
  S2-  S145  1  0.60510992  0.12371001  0.65828352  1
  S2-  S146  1  0.48831023  0.46811676  0.15991103  1
  S2-  S147  1  0.53837143  0.33654430  0.68524408  1
  S2-  S148  1  0.59322406  0.64471000  0.15794025  1
  S2-  S149  1  0.49255407  0.55242314  0.64267443  1
  S2-  S150  1  0.50770167  1.00318353  0.14794976  1
  S2-  S151  1  0.55512645  0.89258850  0.66565226  1
  S2-  S152  1  0.75034663  0.18841939  0.13822392  1
  S2-  S153  1  0.75868166  -0.02720719  0.65578607  1
  S2-  S154  1  0.67662547  0.36530880  0.20510880  1
  S2-  S155  1  0.76596646  0.27074961  0.65354360  1
  S2-  S156  1  0.76613173  0.52816052  0.16011431  1
  S2-  S157  1  0.75925046  0.50758978  0.64080110  1
  S2-  S158  1  0.75293545  0.77018432  0.14239854  1
  S2-  S159  1  0.74852690  0.74082392  0.64153672  1
  S2-  S160  1  0.07148716  0.11141081  0.35523552  1
  S2-  S161  1  0.11029405  0.09617241  0.85203234  1
  S2-  S162  1  0.20755665  0.26723519  0.34063898  1
  S2-  S163  1  0.13351416  0.38619240  0.85349376  1
  S2-  S164  1  0.13239199  0.49335034  0.34214108  1
  S2-  S165  1  0.12830263  0.61478454  0.85917522  1
  S2-  S166  1  0.13750298  0.86419255  0.35014856  1
  S2-  S167  1  0.12847404  0.86927222  0.85982075  1
  S2-  S168  1  0.27723914  0.02922314  0.34797472  1
  S2-  S169  1  0.43585303  -0.01842785  0.85552239  1
  S2-  S170  1  0.42721649  0.23855228  0.34842140  1
  S2-  S171  1  0.31063737  0.20597708  0.84442624  1
  S2-  S172  1  0.40034081  0.48324561  0.32955079  1
  S2-  S173  1  0.36452919  0.49785262  0.84191673  1
  S2-  S174  1  0.38411468  0.82903219  0.34542853  1
  S2-  S175  1  0.45332774  0.73563178  0.86833871  1
  S2-  S176  1  0.53181615  0.01518237  0.36336779  1
  S2-  S177  1  0.61425811  0.08006082  0.82128724  1
  S2-  S178  1  0.66752437  0.26280448  0.35427913  1
  S2-  S179  1  0.50540730  0.26458204  0.86255383  1
  S2-  S180  1  0.63050020  0.49246566  0.34226729  1
  S2-  S181  1  0.61664253  0.57952564  0.87237753  1
  S2-  S182  1  0.62457735  0.72870898  0.34303834  1
  S2-  S183  1  0.63284888  0.85019672  0.85211347  1
  S2-  S184  1  0.83343936  0.10182068  0.36039881  1
  S2-  S185  1  0.84498678  -0.01738254  0.83654093  1
  S2-  S186  1  0.90505094  0.32172788  0.33805879  1
  S2-  S187  1  0.95381274  0.25565648  0.84587061  1
  S2-  S188  1  0.84238346  0.52638858  0.33410309  1
  S2-  S189  1  0.92047460  0.50084872  0.84229531  1
  S2-  S190  1  0.85947813  0.75592729  0.34671196  1
  S2-  S191  1  0.88684250  0.75496908  0.84942480  1
  S2-  S192  1  -0.00608199  0.12632584  0.45934263  1
  S2-  S193  1  -0.02009049  0.11713384  0.94706864  1
  S2-  S194  1  0.00114591  0.37219606  0.44666440  1
  S2-  S195  1  -0.01503686  0.37340748  0.94911669  1
  S2-  S196  1  -0.00125225  0.62746329  0.44543735  1
  S2-  S197  1  -0.01613592  0.62059741  0.95518345  1
  S2-  S198  1  -0.00244498  0.87647190  0.44460507  1
  S2-  S199  1  -0.01699592  0.86908493  0.95623796  1
  S2-  S200  1  0.25331064  0.12693213  0.45597914  1
  S2-  S201  1  0.23521957  0.12117896  0.95613282  1
  S2-  S202  1  0.24817670  0.37545719  0.45022987  1
  S2-  S203  1  0.23982191  0.36734342  0.95020534  1
  S2-  S204  1  0.24906801  0.62638481  0.44070146  1
  S2-  S205  1  0.24047398  0.61833787  0.95964807  1
  S2-  S206  1  0.25531102  0.87225412  0.45272732  1
  S2-  S207  1  0.23989570  0.86927015  0.96296844  1
  S2-  S208  1  0.49822502  0.12925361  0.46477273  1
  S2-  S209  1  0.49107122  0.11671311  0.95957205  1
  S2-  S210  1  0.50045198  0.38040184  0.45008564  1
  S2-  S211  1  0.48968719  0.37347649  0.96510524  1
  S2-  S212  1  0.50394052  0.62108811  0.44964160  1
  S2-  S213  1  0.48498490  0.61565488  0.97254307  1
  S2-  S214  1  0.50233350  0.87198479  0.46206524  1
  S2-  S215  1  0.48626509  0.87387189  0.96537310  1
  S2-  S216  1  0.74457542  0.12647348  0.47002980  1
  S2-  S217  1  0.73059870  0.11538527  0.94192012  1
  S2-  S218  1  0.75328850  0.37901740  0.45866381  1
  S2-  S219  1  0.73255413  0.36935321  0.93390081  1
  S2-  S220  1  0.75399339  0.62367864  0.45500263  1
  S2-  S221  1  0.73819825  0.62555659  0.96798961  1
  S2-  S222  1  0.75235650  0.87359875  0.45981193  1
  S2-  S223  1  0.73439330  0.86680666  0.95607646  1
  S2-  S224  1  0.10796540  -0.00015216  0.03778660  1
  S2-  S225  1  0.12792576  0.00206708  0.53334207  1
  S2-  S226  1  0.10340388  0.24730017  0.03068274  1
  S2-  S227  1  0.12763365  0.25088343  0.54572184  1
  S2-  S228  1  0.10972581  0.49347216  0.04144825  1
  S2-  S229  1  0.12352668  0.50184208  0.54594484  1
  S2-  S230  1  0.11088747  0.74158898  0.04398029  1
  S2-  S231  1  0.12467035  0.75311872  0.53560295  1
  S2-  S232  1  0.35273273  -0.00032299  0.05086304  1
  S2-  S233  1  0.37424569  0.00197436  0.53823378  1
  S2-  S234  1  0.35934828  0.24200019  0.04143614  1
  S2-  S235  1  0.37803257  0.25921263  0.54637237  1
  S2-  S236  1  0.35445615  0.48735162  0.05022446  1
  S2-  S237  1  0.37311445  0.50358631  0.53655626  1
  S2-  S238  1  0.35717165  0.74510663  0.05028259  1
  S2-  S239  1  0.37561109  0.74770599  0.54028272  1
  S2-  S240  1  0.61728349  -0.00415302  0.04686745  1
  S2-  S241  1  0.62200157  -0.00242986  0.55289196  1
  S2-  S242  1  0.61898671  0.25015022  0.04506741  1
  S2-  S243  1  0.61254849  0.26612319  0.55781451  1
  S2-  S244  1  0.62240516  0.48510181  0.06037031  1
  S2-  S245  1  0.62074458  0.50243621  0.54484291  1
  S2-  S246  1  0.60417019  0.74943751  0.04786746  1
  S2-  S247  1  0.61777798  0.74769852  0.54964087  1
  S2-  S248  1  0.86076451  -0.00581299  0.04569291  1
  S2-  S249  1  0.87650671  -0.00471534  0.54513277  1
  S2-  S250  1  0.85752725  0.24898552  0.03261132  1
  S2-  S251  1  0.87787412  0.25063280  0.54253525  1
  S2-  S252  1  0.85808831  0.49272020  0.04593178  1
  S2-  S253  1  0.88067473  0.50294270  0.53775182  1
  S2-  S254  1  0.86746565  0.74800265  0.04780976  1
  S2-  S255  1  0.88036257  0.75416540  0.54592775  1
