# generated using pymatgen
data_La9Ce10Pr6Nd4Sm3(BiS2)32
_symmetry_space_group_name_H-M   'P 1'
_cell_length_a   16.10000860
_cell_length_b   16.13014495
_cell_length_c   27.29230382
_cell_angle_alpha   90.19102241
_cell_angle_beta   90.28884499
_cell_angle_gamma   89.92062509
_symmetry_Int_Tables_number   1
_chemical_formula_structural   La9Ce10Pr6Nd4Sm3(BiS2)32
_chemical_formula_sum   'La18 Ce20 Pr12 Nd8 Sm6 Bi64 S128'
_cell_volume   7087.55164137
_cell_formula_units_Z   2
loop_
 _symmetry_equiv_pos_site_id
 _symmetry_equiv_pos_as_xyz
  1  'x, y, z'
loop_
 _atom_type_symbol
 _atom_type_oxidation_number
  La3+  3.0
  Ce3+  3.0
  Pr3+  3.0
  Nd3+  3.0
  Sm3+  3.0
  Bi2+  2.0
  S2-  -2.0
loop_
 _atom_site_type_symbol
 _atom_site_label
 _atom_site_symmetry_multiplicity
 _atom_site_fract_x
 _atom_site_fract_y
 _atom_site_fract_z
 _atom_site_occupancy
  La3+  La0  1  0.75477482  0.89209721  0.58331907  1
  La3+  La1  1  0.39479315  0.76904766  0.40857096  1
  La3+  La2  1  0.87851847  0.76037439  0.44408775  1
  La3+  La3  1  0.50962958  0.37227764  0.06106949  1
  La3+  La4  1  0.01472692  0.39341131  0.57936164  1
  La3+  La5  1  0.75900769  0.86984637  0.11219690  1
  La3+  La6  1  0.25824691  0.87147415  0.08197474  1
  La3+  La7  1  0.77018083  0.12718817  0.06766505  1
  La3+  La8  1  0.76114691  0.38423589  0.58719635  1
  La3+  La9  1  0.01523344  0.12717678  0.58960618  1
  La3+  La10  1  0.50749380  0.13829892  0.56483217  1
  La3+  La11  1  0.12621569  0.00859305  0.42019007  1
  La3+  La12  1  0.13220475  0.51284754  0.42169659  1
  La3+  La13  1  0.26405719  0.62074195  0.07755430  1
  La3+  La14  1  0.25715297  0.63986736  0.55982640  1
  La3+  La15  1  0.64452373  0.26235265  0.39832255  1
  La3+  La16  1  0.87161162  -0.00702573  0.91119065  1
  La3+  La17  1  0.51011474  0.87293792  0.07547378  1
  Ce3+  Ce18  1  0.62754819  0.49681556  0.93529987  1
  Ce3+  Ce19  1  0.13240340  0.75970492  0.43207440  1
  Ce3+  Ce20  1  0.38016451  0.24640565  0.94368912  1
  Ce3+  Ce21  1  0.63323525  0.50387715  0.44495041  1
  Ce3+  Ce22  1  0.63307882  0.76473024  0.44715626  1
  Ce3+  Ce23  1  0.00914244  0.63528459  0.55858358  1
  Ce3+  Ce24  1  0.13758335  0.74526735  0.95042383  1
  Ce3+  Ce25  1  0.88159298  0.26226997  0.45549172  1
  Ce3+  Ce26  1  0.76442229  0.62386188  0.05574806  1
  Ce3+  Ce27  1  0.38494025  -0.00782373  0.94536416  1
  Ce3+  Ce28  1  0.63561543  0.01286306  0.43923022  1
  Ce3+  Ce29  1  0.51326790  0.12218067  0.06084860  1
  Ce3+  Ce30  1  0.00538469  0.12221171  0.04471140  1
  Ce3+  Ce31  1  0.25694895  0.88969058  0.54689848  1
  Ce3+  Ce32  1  0.88895035  0.24790222  0.92360403  1
  Ce3+  Ce33  1  0.63766761  -0.00296909  0.95080810  1
  Ce3+  Ce34  1  0.25110365  0.38463967  0.55389171  1
  Ce3+  Ce35  1  -0.00302234  0.87576143  0.05085710  1
  Ce3+  Ce36  1  0.50458276  0.63697561  0.55289778  1
  Ce3+  Ce37  1  0.50809822  0.89163449  0.56919675  1
  Pr3+  Pr38  1  0.89108526  0.49561891  0.92412500  1
  Pr3+  Pr39  1  0.50566135  0.38334919  0.56971142  1
  Pr3+  Pr40  1  0.25399033  0.12173561  0.06651224  1
  Pr3+  Pr41  1  0.13921626  0.24438853  0.92579037  1
  Pr3+  Pr42  1  0.87937211  0.74732617  0.92746035  1
  Pr3+  Pr43  1  0.75677791  0.63354010  0.56816072  1
  Pr3+  Pr44  1  0.13633228  -0.01099461  0.93515507  1
  Pr3+  Pr45  1  0.25008783  0.37217811  0.06890891  1
  Pr3+  Pr46  1  0.76280454  0.37266414  0.05692963  1
  Pr3+  Pr47  1  0.38240709  0.51072930  0.43573404  1
  Pr3+  Pr48  1  0.51152813  0.62212181  0.06483136  1
  Pr3+  Pr49  1  0.87693579  0.01575427  0.43644922  1
  Nd3+  Nd50  1  0.63460561  0.74858931  0.94694536  1
  Nd3+  Nd51  1  0.75693014  0.14051841  0.56840959  1
  Nd3+  Nd52  1  0.39518813  0.01543181  0.42898540  1
  Nd3+  Nd53  1  0.12748881  0.26322517  0.43277473  1
  Nd3+  Nd54  1  0.38814834  0.26224583  0.43686197  1
  Nd3+  Nd55  1  0.38268711  0.75430087  0.94134059  1
  Nd3+  Nd56  1  0.00544852  0.62380222  0.05606226  1
  Nd3+  Nd57  1  0.64214380  0.24667903  0.92950734  1
  Sm3+  Sm58  1  0.38252668  0.50712574  0.92844787  1
  Sm3+  Sm59  1  0.13842720  0.49708353  0.93598599  1
  Sm3+  Sm60  1  0.87859496  0.50555970  0.44683104  1
  Sm3+  Sm61  1  0.25092338  0.13475411  0.54783062  1
  Sm3+  Sm62  1  0.00626743  0.88917125  0.55568672  1
  Sm3+  Sm63  1  0.01060274  0.37292549  0.05380968  1
  Bi2+  Bi64  1  0.00243696  0.16167893  0.28249298  1
  Bi2+  Bi65  1  0.03354069  0.13863985  0.78137885  1
  Bi2+  Bi66  1  -0.01805207  0.37480265  0.28213742  1
  Bi2+  Bi67  1  0.06051102  0.39066885  0.78246830  1
  Bi2+  Bi68  1  -0.00236105  0.57651270  0.28109255  1
  Bi2+  Bi69  1  0.04618166  0.65931250  0.78094389  1
  Bi2+  Bi70  1  -0.01184598  0.88651536  0.29684978  1
  Bi2+  Bi71  1  0.09015553  0.87567265  0.78083290  1
  Bi2+  Bi72  1  0.19091968  0.14710641  0.32241807  1
  Bi2+  Bi73  1  0.28522788  0.10967420  0.79427274  1
  Bi2+  Bi74  1  0.22302576  0.33046832  0.28218111  1
  Bi2+  Bi75  1  0.28345018  0.37589117  0.78649946  1
  Bi2+  Bi76  1  0.22294071  0.60771603  0.28123170  1
  Bi2+  Bi77  1  0.23626298  0.63547322  0.80602934  1
  Bi2+  Bi78  1  0.23234030  0.96027542  0.28615616  1
  Bi2+  Bi79  1  0.29443915  0.82925433  0.77745845  1
  Bi2+  Bi80  1  0.38000750  0.17235857  0.28719514  1
  Bi2+  Bi81  1  0.47795945  0.06063354  0.79443106  1
  Bi2+  Bi82  1  0.40261833  0.40521676  0.30868089  1
  Bi2+  Bi83  1  0.51442996  0.32930781  0.78844046  1
  Bi2+  Bi84  1  0.49768095  0.57794311  0.29541413  1
  Bi2+  Bi85  1  0.45827786  0.59849556  0.77614764  1
  Bi2+  Bi86  1  0.50658627  0.91474291  0.29412702  1
  Bi2+  Bi87  1  0.51479165  0.86753684  0.80052635  1
  Bi2+  Bi88  1  0.80623218  0.14235135  0.29580854  1
  Bi2+  Bi89  1  0.72966395  0.13050324  0.79820934  1
  Bi2+  Bi90  1  0.76124399  0.40305835  0.28891698  1
  Bi2+  Bi91  1  0.66413807  0.45637047  0.80091069  1
  Bi2+  Bi92  1  0.74453443  0.59930521  0.28090479  1
  Bi2+  Bi93  1  0.77621869  0.67196692  0.80704047  1
  Bi2+  Bi94  1  0.72902245  0.85205790  0.31771326  1
  Bi2+  Bi95  1  0.73137765  0.85860297  0.79684066  1
  Bi2+  Bi96  1  0.09104954  -0.00242426  0.20838508  1
  Bi2+  Bi97  1  0.14437988  0.00920168  0.70243959  1
  Bi2+  Bi98  1  0.08355527  0.19475113  0.17703461  1
  Bi2+  Bi99  1  0.16689066  0.26404111  0.71648341  1
  Bi2+  Bi100  1  0.12867786  0.47356330  0.21366139  1
  Bi2+  Bi101  1  0.14524071  0.51912019  0.70623576  1
  Bi2+  Bi102  1  0.12269633  0.79842389  0.22543881  1
  Bi2+  Bi103  1  0.15881396  0.75623346  0.69760408  1
  Bi2+  Bi104  1  0.36649303  0.03323287  0.20632034  1
  Bi2+  Bi105  1  0.35496171  -0.02125526  0.71166205  1
  Bi2+  Bi106  1  0.27918360  0.22229982  0.18849758  1
  Bi2+  Bi107  1  0.36193212  0.23362158  0.71227758  1
  Bi2+  Bi108  1  0.40279315  0.48953214  0.20502673  1
  Bi2+  Bi109  1  0.41379578  0.44475080  0.70679205  1
  Bi2+  Bi110  1  0.36659486  0.75695292  0.21643686  1
  Bi2+  Bi111  1  0.46897492  0.76315314  0.70831673  1
  Bi2+  Bi112  1  0.62240659  -0.02015976  0.21748998  1
  Bi2+  Bi113  1  0.61133506  -0.00764729  0.70430551  1
  Bi2+  Bi114  1  0.62320064  0.22466681  0.20118334  1
  Bi2+  Bi115  1  0.59925888  0.20062693  0.71426931  1
  Bi2+  Bi116  1  0.61190269  0.49065488  0.20015104  1
  Bi2+  Bi117  1  0.61122118  0.43450016  0.69171635  1
  Bi2+  Bi118  1  0.60012920  0.68613469  0.22252562  1
  Bi2+  Bi119  1  0.63784202  0.62671493  0.72605501  1
  Bi2+  Bi120  1  0.88642097  0.01260221  0.20481049  1
  Bi2+  Bi121  1  0.87958457  -0.00646036  0.71254214  1
  Bi2+  Bi122  1  0.87629468  0.35235867  0.18825408  1
  Bi2+  Bi123  1  0.84323796  0.26663069  0.73154069  1
  Bi2+  Bi124  1  0.80310688  0.52685264  0.17501557  1
  Bi2+  Bi125  1  0.87976014  0.50561201  0.72218042  1
  Bi2+  Bi126  1  0.95335370  0.71202584  0.19821534  1
  Bi2+  Bi127  1  0.89638379  0.70191600  0.71384202  1
  S2-  S128  1  -0.06887876  0.13325380  0.13251052  1
  S2-  S129  1  -0.05711005  0.16380942  0.68646038  1
  S2-  S130  1  0.10483959  0.35370929  0.13629729  1
  S2-  S131  1  -0.09773894  0.37874993  0.66186505  1
  S2-  S132  1  0.02902019  0.58662551  0.15292159  1
  S2-  S133  1  0.01979190  0.55347103  0.64393081  1
  S2-  S134  1  -0.07000470  0.87804135  0.14104882  1
  S2-  S135  1  0.00759570  0.96938029  0.64407883  1
  S2-  S136  1  0.23152751  0.01032225  0.14538639  1
  S2-  S137  1  0.17585463  0.13588287  0.63778728  1
  S2-  S138  1  0.26584275  0.48852768  0.14620967  1
  S2-  S139  1  0.16429651  0.38481661  0.63859882  1
  S2-  S140  1  0.23158182  0.73952170  0.15535978  1
  S2-  S141  1  0.25605402  0.62720215  0.66127852  1
  S2-  S142  1  0.39394871  0.87605961  0.15562007  1
  S2-  S143  1  0.23889318  0.89133457  0.64434441  1
  S2-  S144  1  0.51712649  0.10334172  0.15959774  1
  S2-  S145  1  0.47942643  0.01745579  0.64054859  1
  S2-  S146  1  0.52217144  0.34713023  0.16154841  1
  S2-  S147  1  0.48659376  0.25560066  0.64382092  1
  S2-  S148  1  0.41944772  0.63563156  0.15043563  1
  S2-  S149  1  0.50831747  0.63088791  0.64999364  1
  S2-  S150  1  0.60430647  0.83724163  0.16136657  1
  S2-  S151  1  0.61444144  0.85754408  0.64861335  1
  S2-  S152  1  0.74087732  0.03887124  0.15538031  1
  S2-  S153  1  0.76320913  0.03331373  0.65090760  1
  S2-  S154  1  0.74590842  0.26649247  0.13852598  1
  S2-  S155  1  0.73863310  0.24671165  0.65687040  1
  S2-  S156  1  0.79566348  0.69755169  0.14388986  1
  S2-  S157  1  0.75658320  0.53331253  0.65243975  1
  S2-  S158  1  0.77093898  0.88497106  0.22702658  1
  S2-  S159  1  0.83171569  0.84082189  0.67655537  1
  S2-  S160  1  -0.01754705  0.02153506  0.35167968  1
  S2-  S161  1  0.14380889  0.02972339  0.83672454  1
  S2-  S162  1  0.09978184  0.37606077  0.35540596  1
  S2-  S163  1  0.01684116  0.25597042  0.84916755  1
  S2-  S164  1  0.10799753  0.64817018  0.35294014  1
  S2-  S165  1  0.03066831  0.49463662  0.85394780  1
  S2-  S166  1  0.13170218  0.86702385  0.35319023  1
  S2-  S167  1  0.16272078  0.79185277  0.85793401  1
  S2-  S168  1  0.36473114  -0.09006702  0.34717999  1
  S2-  S169  1  0.37620226  -0.11484392  0.86762519  1
  S2-  S170  1  0.48034935  0.26521758  0.35261634  1
  S2-  S171  1  0.28041641  0.24664334  0.86196012  1
  S2-  S172  1  0.27393284  0.51054176  0.35365058  1
  S2-  S173  1  0.25360676  0.49024145  0.86021208  1
  S2-  S174  1  0.36883071  0.69367920  0.31647411  1
  S2-  S175  1  0.37944396  0.65213478  0.86028544  1
  S2-  S176  1  0.53045623  0.03207685  0.36071112  1
  S2-  S177  1  0.69687184  -0.00647509  0.85748491  1
  S2-  S178  1  0.65361772  0.19877586  0.29598449  1
  S2-  S179  1  0.56336178  0.19504907  0.84395581  1
  S2-  S180  1  0.64482139  0.42481512  0.35694225  1
  S2-  S181  1  0.51700318  0.49532980  0.85819528  1
  S2-  S182  1  0.57450233  0.78616857  0.35555114  1
  S2-  S183  1  0.61818893  0.74401820  0.84680945  1
  S2-  S184  1  0.75400286  0.00650241  0.36050684  1
  S2-  S185  1  0.89741799  0.06269033  0.81324775  1
  S2-  S186  1  0.82065727  0.27018602  0.36242063  1
  S2-  S187  1  0.77733776  0.26227847  0.84634949  1
  S2-  S188  1  0.86967973  0.53094487  0.34827810  1
  S2-  S189  1  0.82495600  0.50390091  0.82639510  1
  S2-  S190  1  0.87022344  0.77566596  0.34368068  1
  S2-  S191  1  0.87624739  0.84970617  0.84460465  1
  S2-  S192  1  0.00687199  0.14089517  0.44993226  1
  S2-  S193  1  0.00816135  0.11306547  0.94063279  1
  S2-  S194  1  0.00330381  0.38898701  0.46219760  1
  S2-  S195  1  0.01455898  0.37201575  0.95210765  1
  S2-  S196  1  0.00105636  0.63256317  0.45469165  1
  S2-  S197  1  0.00874022  0.62580683  0.94914943  1
  S2-  S198  1  0.00294958  0.88465518  0.45366278  1
  S2-  S199  1  0.00760814  0.87040747  0.94611848  1
  S2-  S200  1  0.25944146  0.13662954  0.44393886  1
  S2-  S201  1  0.25968644  0.11487079  0.95838114  1
  S2-  S202  1  0.25814986  0.38251587  0.45076054  1
  S2-  S203  1  0.26104895  0.37412783  0.96170882  1
  S2-  S204  1  0.26858806  0.64830049  0.45145319  1
  S2-  S205  1  0.25923022  0.62291871  0.96479175  1
  S2-  S206  1  0.26234050  0.88608825  0.44666850  1
  S2-  S207  1  0.25800160  0.87229044  0.97019236  1
  S2-  S208  1  0.51456604  0.14582813  0.45826622  1
  S2-  S209  1  0.50769078  0.11971564  0.95553788  1
  S2-  S210  1  0.50554802  0.38761563  0.46098940  1
  S2-  S211  1  0.50748652  0.36617988  0.95265744  1
  S2-  S212  1  0.50769287  0.63591658  0.44750718  1
  S2-  S213  1  0.50927767  0.62453115  0.95962485  1
  S2-  S214  1  0.50760874  0.88591648  0.46111830  1
  S2-  S215  1  0.51351378  0.87345986  0.96429642  1
  S2-  S216  1  0.75177376  0.14399975  0.46048172  1
  S2-  S217  1  0.76207534  0.12425117  0.95281688  1
  S2-  S218  1  0.75732024  0.38594873  0.46688584  1
  S2-  S219  1  0.75927685  0.37806555  0.94939565  1
  S2-  S220  1  0.75486220  0.63199406  0.45855311  1
  S2-  S221  1  0.75759717  0.61812555  0.94785801  1
  S2-  S222  1  0.75637027  0.88487097  0.46654802  1
  S2-  S223  1  0.75689893  0.86970282  0.95186314  1
  S2-  S224  1  0.12627085  -0.00402342  0.04253620  1
  S2-  S225  1  0.12887135  0.01080894  0.53298002  1
  S2-  S226  1  0.13321312  0.24372655  0.03387789  1
  S2-  S227  1  0.12831168  0.25780449  0.53843638  1
  S2-  S228  1  0.12996493  0.50064625  0.04067571  1
  S2-  S229  1  0.13566036  0.51594282  0.53451228  1
  S2-  S230  1  0.12545182  0.75049099  0.05340828  1
  S2-  S231  1  0.12837756  0.76421683  0.54218303  1
  S2-  S232  1  0.38570102  0.00189937  0.04953372  1
  S2-  S233  1  0.37639583  0.01606888  0.53566808  1
  S2-  S234  1  0.38182429  0.24591186  0.05137228  1
  S2-  S235  1  0.37285141  0.26013717  0.54283168  1
  S2-  S236  1  0.38787843  0.49586153  0.04188360  1
  S2-  S237  1  0.38001856  0.50829226  0.54629334  1
  S2-  S238  1  0.38619987  0.74816358  0.04729265  1
  S2-  S239  1  0.38380212  0.76538621  0.55307202  1
  S2-  S240  1  0.63853764  -0.00491662  0.05393027  1
  S2-  S241  1  0.63323386  0.01389044  0.54659629  1
  S2-  S242  1  0.63374521  0.24673073  0.03704274  1
  S2-  S243  1  0.63381058  0.26620720  0.55410530  1
  S2-  S244  1  0.63643754  0.49762914  0.04484497  1
  S2-  S245  1  0.62913977  0.50997725  0.55012648  1
  S2-  S246  1  0.63899226  0.74580986  0.05180142  1
  S2-  S247  1  0.63307391  0.75579336  0.54984011  1
  S2-  S248  1  0.88120242  -0.00150617  0.03381966  1
  S2-  S249  1  0.88542384  0.01512830  0.54453969  1
  S2-  S250  1  0.88905180  0.25484944  0.03138840  1
  S2-  S251  1  0.89314279  0.25604681  0.55867937  1
  S2-  S252  1  0.88767479  0.49528095  0.03736169  1
  S2-  S253  1  0.88274100  0.51157340  0.54950127  1
  S2-  S254  1  0.88295334  0.74607757  0.03447752  1
  S2-  S255  1  0.88308925  0.76089959  0.55370103  1
