# generated using pymatgen
data_La9Ce10Pr6Nd4Sm3(BiS2)32
_symmetry_space_group_name_H-M   'P 1'
_cell_length_a   16.23072831
_cell_length_b   16.19833200
_cell_length_c   27.15572891
_cell_angle_alpha   89.82117550
_cell_angle_beta   90.04938480
_cell_angle_gamma   90.13313340
_symmetry_Int_Tables_number   1
_chemical_formula_structural   La9Ce10Pr6Nd4Sm3(BiS2)32
_chemical_formula_sum   'La18 Ce20 Pr12 Nd8 Sm6 Bi64 S128'
_cell_volume   7139.47574220
_cell_formula_units_Z   2
loop_
 _symmetry_equiv_pos_site_id
 _symmetry_equiv_pos_as_xyz
  1  'x, y, z'
loop_
 _atom_type_symbol
 _atom_type_oxidation_number
  La3+  3.0
  Ce3+  3.0
  Pr3+  3.0
  Nd3+  3.0
  Sm3+  3.0
  Bi2+  2.0
  S2-  -2.0
loop_
 _atom_site_type_symbol
 _atom_site_label
 _atom_site_symmetry_multiplicity
 _atom_site_fract_x
 _atom_site_fract_y
 _atom_site_fract_z
 _atom_site_occupancy
  La3+  La0  1  0.26485536  0.11053538  0.58572138  1
  La3+  La1  1  0.74259239  0.36544717  0.58935356  1
  La3+  La2  1  0.62663003  0.50207378  0.44673422  1
  La3+  La3  1  0.73966554  0.13183375  0.07977786  1
  La3+  La4  1  0.49485089  0.87186113  0.07145700  1
  La3+  La5  1  0.12104578  0.00305725  0.42832366  1
  La3+  La6  1  0.62480795  0.00301605  0.42466882  1
  La3+  La7  1  0.11435455  0.00495769  0.93300216  1
  La3+  La8  1  0.73847060  0.63306588  0.58889672  1
  La3+  La9  1  0.37260039  0.75404888  0.37839030  1
  La3+  La10  1  0.74694032  0.87283227  0.06612636  1
  La3+  La11  1  0.00102430  0.37605131  0.09328083  1
  La3+  La12  1  0.86403622  0.25254277  0.90312019  1
  La3+  La13  1  0.49380045  0.37224110  0.56777942  1
  La3+  La14  1  0.00311971  0.11847564  0.56901883  1
  La3+  La15  1  0.24129317  0.12770152  0.06881886  1
  La3+  La16  1  0.74704916  0.12325361  0.55738851  1
  La3+  La17  1  0.11461089  0.50164159  0.92972788  1
  Ce3+  Ce18  1  0.86090925  0.74898182  0.92534008  1
  Ce3+  Ce19  1  0.61782447  0.00443482  0.94647973  1
  Ce3+  Ce20  1  0.62057006  0.49893783  0.94392628  1
  Ce3+  Ce21  1  0.23895757  0.37656617  0.05759438  1
  Ce3+  Ce22  1  0.62373681  0.25295379  0.93947398  1
  Ce3+  Ce23  1  0.86367020  0.00676699  0.94779390  1
  Ce3+  Ce24  1  0.24671359  0.62489459  0.55525767  1
  Ce3+  Ce25  1  0.25093154  0.87438268  0.54626067  1
  Ce3+  Ce26  1  0.87173163  0.49531902  0.45848237  1
  Ce3+  Ce27  1  0.11354291  0.75149965  0.94652888  1
  Ce3+  Ce28  1  0.86674814  0.74613091  0.43773033  1
  Ce3+  Ce29  1  0.61618463  0.75280805  0.93580838  1
  Ce3+  Ce30  1  0.74430190  0.87169032  0.55525564  1
  Ce3+  Ce31  1  0.37109726  0.00070874  0.42185703  1
  Ce3+  Ce32  1  -0.00573430  0.88139658  0.05725209  1
  Ce3+  Ce33  1  -0.01613602  0.62746093  0.06538902  1
  Ce3+  Ce34  1  -0.00091287  0.87749575  0.55709512  1
  Ce3+  Ce35  1  0.49250052  0.62372950  0.05866318  1
  Ce3+  Ce36  1  0.36993118  0.25301037  0.43391605  1
  Ce3+  Ce37  1  0.24269506  0.87394143  0.05480410  1
  Pr3+  Pr38  1  0.37209433  0.50000746  0.43280415  1
  Pr3+  Pr39  1  0.74469807  0.62416482  0.06082618  1
  Pr3+  Pr40  1  0.12166049  0.74715792  0.43807136  1
  Pr3+  Pr41  1  0.36725956  0.00464816  0.94824975  1
  Pr3+  Pr42  1  0.62363305  0.25561186  0.43727183  1
  Pr3+  Pr43  1  0.62451823  0.74773100  0.42893144  1
  Pr3+  Pr44  1  0.49530272  0.62698550  0.55914326  1
  Pr3+  Pr45  1  0.11759161  0.49624186  0.44208840  1
  Pr3+  Pr46  1  0.23678494  0.62357876  0.06195070  1
  Pr3+  Pr47  1  0.37135127  0.75087425  0.93080983  1
  Pr3+  Pr48  1  0.00876218  0.36611280  0.58887825  1
  Pr3+  Pr49  1  0.49501724  0.13029071  0.06334650  1
  Nd3+  Nd50  1  -0.00439141  0.62230125  0.56361202  1
  Nd3+  Nd51  1  0.86604912  0.50377689  0.93417384  1
  Nd3+  Nd52  1  -0.00827664  0.12550202  0.06935533  1
  Nd3+  Nd53  1  0.87389903  0.00344679  0.43769637  1
  Nd3+  Nd54  1  0.87663407  0.25897741  0.43960769  1
  Nd3+  Nd55  1  0.75337436  0.37447702  0.06813662  1
  Nd3+  Nd56  1  0.25025856  0.37264193  0.56360153  1
  Nd3+  Nd57  1  0.12276653  0.24864802  0.44758299  1
  Sm3+  Sm58  1  0.49427274  0.12127489  0.54397224  1
  Sm3+  Sm59  1  0.36574617  0.50030508  0.94635655  1
  Sm3+  Sm60  1  0.36548364  0.25218816  0.94455217  1
  Sm3+  Sm61  1  0.11248633  0.25242424  0.94127246  1
  Sm3+  Sm62  1  0.49504679  0.87329418  0.54309917  1
  Sm3+  Sm63  1  0.49374100  0.37688727  0.05370471  1
  Bi2+  Bi64  1  0.00501762  0.10989909  0.30974352  1
  Bi2+  Bi65  1  0.01981279  0.12119447  0.80408334  1
  Bi2+  Bi66  1  0.01009983  0.43157762  0.29351903  1
  Bi2+  Bi67  1  0.01136928  0.38436266  0.79354925  1
  Bi2+  Bi68  1  -0.00378305  0.63275273  0.30212180  1
  Bi2+  Bi69  1  -0.00700342  0.72491895  0.79904191  1
  Bi2+  Bi70  1  -0.04075161  0.82580223  0.29516290  1
  Bi2+  Bi71  1  -0.00032659  0.91763537  0.78616605  1
  Bi2+  Bi72  1  0.31251850  0.13499171  0.31383003  1
  Bi2+  Bi73  1  0.29340241  0.11720389  0.79280817  1
  Bi2+  Bi74  1  0.25555432  0.31508566  0.28422214  1
  Bi2+  Bi75  1  0.32174037  0.38120654  0.77679369  1
  Bi2+  Bi76  1  0.24868333  0.60204635  0.28394901  1
  Bi2+  Bi77  1  0.23906395  0.62479587  0.79716630  1
  Bi2+  Bi78  1  0.19771921  0.84944359  0.27478999  1
  Bi2+  Bi79  1  0.30858272  0.87464416  0.78631679  1
  Bi2+  Bi80  1  0.49713103  0.15156982  0.28174158  1
  Bi2+  Bi81  1  0.48311564  0.15660668  0.78065435  1
  Bi2+  Bi82  1  0.50530563  0.34636006  0.30602627  1
  Bi2+  Bi83  1  0.51469598  0.35250672  0.79198020  1
  Bi2+  Bi84  1  0.51751876  0.59643662  0.27825593  1
  Bi2+  Bi85  1  0.44994460  0.63218509  0.79130648  1
  Bi2+  Bi86  1  0.52440908  0.86985168  0.27493125  1
  Bi2+  Bi87  1  0.52231333  0.89658880  0.79228966  1
  Bi2+  Bi88  1  0.75707082  0.10240833  0.30376581  1
  Bi2+  Bi89  1  0.74688662  0.07161186  0.78549791  1
  Bi2+  Bi90  1  0.74964953  0.42268750  0.31379042  1
  Bi2+  Bi91  1  0.73070437  0.39260630  0.79288987  1
  Bi2+  Bi92  1  0.80954691  0.60050845  0.33702276  1
  Bi2+  Bi93  1  0.74437164  0.63203918  0.79029207  1
  Bi2+  Bi94  1  0.77555259  0.78980536  0.25193344  1
  Bi2+  Bi95  1  0.78866130  0.88079932  0.79222115  1
  Bi2+  Bi96  1  0.13488605  -0.00854246  0.21127747  1
  Bi2+  Bi97  1  0.14616513  -0.01664149  0.70599594  1
  Bi2+  Bi98  1  0.10703048  0.25403334  0.22377602  1
  Bi2+  Bi99  1  0.12815858  0.26766384  0.72103967  1
  Bi2+  Bi100  1  0.14013700  0.49774548  0.20945756  1
  Bi2+  Bi101  1  0.16087398  0.52629584  0.71015365  1
  Bi2+  Bi102  1  0.07480717  0.74205793  0.21302416  1
  Bi2+  Bi103  1  0.15860510  0.79427448  0.72556052  1
  Bi2+  Bi104  1  0.38522418  0.00436078  0.23587319  1
  Bi2+  Bi105  1  0.40929591  -0.02515046  0.70182443  1
  Bi2+  Bi106  1  0.35881690  0.19022102  0.19735933  1
  Bi2+  Bi107  1  0.40108203  0.26280430  0.69073115  1
  Bi2+  Bi108  1  0.38823202  0.39521613  0.21673979  1
  Bi2+  Bi109  1  0.37413885  0.45289178  0.67359100  1
  Bi2+  Bi110  1  0.35388230  0.75442884  0.17393356  1
  Bi2+  Bi111  1  0.34864840  0.73037419  0.71343478  1
  Bi2+  Bi112  1  0.65473534  0.00939981  0.20853053  1
  Bi2+  Bi113  1  0.64645469  -0.03378289  0.70935699  1
  Bi2+  Bi114  1  0.61753093  0.27651684  0.22020263  1
  Bi2+  Bi115  1  0.60549123  0.23951896  0.71046004  1
  Bi2+  Bi116  1  0.65942185  0.47605623  0.21581305  1
  Bi2+  Bi117  1  0.54133074  0.51106506  0.71921882  1
  Bi2+  Bi118  1  0.64820280  0.66642557  0.20620525  1
  Bi2+  Bi119  1  0.60474825  0.77423257  0.70653158  1
  Bi2+  Bi120  1  0.89984614  -0.03446674  0.21831794  1
  Bi2+  Bi121  1  0.87087721  -0.00068135  0.70341329  1
  Bi2+  Bi122  1  0.86198995  0.27543277  0.21488659  1
  Bi2+  Bi123  1  0.86270606  0.25329070  0.70236746  1
  Bi2+  Bi124  1  0.86736306  0.53041783  0.23166224  1
  Bi2+  Bi125  1  0.93312198  0.56676520  0.72440214  1
  Bi2+  Bi126  1  0.90499786  0.79077602  0.16357240  1
  Bi2+  Bi127  1  0.88942658  0.80207349  0.70572120  1
  S2-  S128  1  -0.01463852  0.22415366  0.15783819  1
  S2-  S129  1  0.00764579  0.22023855  0.65172040  1
  S2-  S130  1  -0.13733290  0.40279089  0.15559887  1
  S2-  S131  1  -0.02402166  0.42098590  0.68959232  1
  S2-  S132  1  0.03423868  0.53336716  0.14231142  1
  S2-  S133  1  0.04822589  0.62952536  0.65946685  1
  S2-  S134  1  0.01388467  0.98986290  0.13883649  1
  S2-  S135  1  0.01296218  0.98049932  0.63773359  1
  S2-  S136  1  0.18851438  0.12927013  0.16554589  1
  S2-  S137  1  0.20656423  0.14443669  0.68260600  1
  S2-  S138  1  0.16521349  0.36286619  0.14676104  1
  S2-  S139  1  0.16226298  0.38035510  0.65025313  1
  S2-  S140  1  0.25795198  0.61177458  0.16299918  1
  S2-  S141  1  0.27790269  0.60210691  0.65144736  1
  S2-  S142  1  0.23667885  0.88331659  0.15259821  1
  S2-  S143  1  0.26595377  0.94944264  0.63470222  1
  S2-  S144  1  0.58564302  0.11321875  0.14881723  1
  S2-  S145  1  0.42933076  0.11272690  0.63520503  1
  S2-  S146  1  0.50757470  0.35949776  0.15095904  1
  S2-  S147  1  0.59293956  0.37830479  0.65078707  1
  S2-  S148  1  0.49014805  0.65334670  0.15522001  1
  S2-  S149  1  0.58109234  0.63647086  0.64806014  1
  S2-  S150  1  0.46948602  0.89008607  0.17160291  1
  S2-  S151  1  0.50565035  0.87649575  0.64299665  1
  S2-  S152  1  0.80365169  0.07538670  0.17555936  1
  S2-  S153  1  0.73189835  0.19610238  0.64736356  1
  S2-  S154  1  0.73124399  0.26608492  0.14949274  1
  S2-  S155  1  0.78030078  0.38835278  0.69166285  1
  S2-  S156  1  0.85321017  0.63319172  0.13914095  1
  S2-  S157  1  0.78800663  0.60142906  0.68879326  1
  S2-  S158  1  0.68463904  0.86676492  0.16065022  1
  S2-  S159  1  0.74361658  0.79223136  0.64212869  1
  S2-  S160  1  0.12871347  -0.01142738  0.32691682  1
  S2-  S161  1  0.16130766  0.03362444  0.83760083  1
  S2-  S162  1  0.09707919  0.22686645  0.34778611  1
  S2-  S163  1  0.10373378  0.26008084  0.84098069  1
  S2-  S164  1  0.15118396  0.48748477  0.34211945  1
  S2-  S165  1  0.10817531  0.51008707  0.82801818  1
  S2-  S166  1  0.19920642  0.73205731  0.34795516  1
  S2-  S167  1  0.14744438  0.74285486  0.85086535  1
  S2-  S168  1  0.38955887  -0.08136023  0.33541760  1
  S2-  S169  1  0.38172931  -0.00398033  0.84822079  1
  S2-  S170  1  0.36405870  0.36938375  0.36074448  1
  S2-  S171  1  0.32794268  0.24623068  0.84829601  1
  S2-  S172  1  0.37988310  0.58556994  0.34323874  1
  S2-  S173  1  0.35589547  0.51324084  0.84831074  1
  S2-  S174  1  0.34863769  0.74186360  0.26873889  1
  S2-  S175  1  0.49962635  0.75792590  0.86016284  1
  S2-  S176  1  0.63791675  -0.02935466  0.32455495  1
  S2-  S177  1  0.62007340  0.00859350  0.84822236  1
  S2-  S178  1  0.66346049  0.21076674  0.34185079  1
  S2-  S179  1  0.70605361  0.25767107  0.85377211  1
  S2-  S180  1  0.59419554  0.49348652  0.34643460  1
  S2-  S181  1  0.65126437  0.52221583  0.84717041  1
  S2-  S182  1  0.53757428  0.74010865  0.33825125  1
  S2-  S183  1  0.72467412  0.75867700  0.85672448  1
  S2-  S184  1  0.88086067  -0.01213914  0.33799554  1
  S2-  S185  1  0.87490649  0.08018185  0.85975077  1
  S2-  S186  1  0.87917897  0.19883425  0.34134285  1
  S2-  S187  1  0.90941135  0.24363236  0.79790951  1
  S2-  S188  1  0.89406879  0.40277009  0.37489538  1
  S2-  S189  1  0.86439259  0.41223558  0.84709580  1
  S2-  S190  1  0.75726691  0.75723412  0.35875180  1
  S2-  S191  1  0.87858668  0.62315912  0.85242261  1
  S2-  S192  1  -0.00407012  0.12613541  0.45789744  1
  S2-  S193  1  -0.00659818  0.13038797  0.95821950  1
  S2-  S194  1  0.00387985  0.37063191  0.47499465  1
  S2-  S195  1  -0.00751905  0.37286906  0.94250118  1
  S2-  S196  1  -0.00490651  0.62330674  0.45530195  1
  S2-  S197  1  -0.00627809  0.62778776  0.95583199  1
  S2-  S198  1  -0.00404990  0.87399590  0.44835927  1
  S2-  S199  1  -0.01116948  0.87835621  0.94729236  1
  S2-  S200  1  0.24859919  0.12572360  0.44424801  1
  S2-  S201  1  0.24189281  0.13079972  0.95778529  1
  S2-  S202  1  0.24251433  0.37459875  0.45840044  1
  S2-  S203  1  0.24212897  0.37532801  0.94994102  1
  S2-  S204  1  0.24378890  0.62070753  0.45151290  1
  S2-  S205  1  0.24533394  0.62653554  0.95367554  1
  S2-  S206  1  0.24830565  0.87397717  0.44043076  1
  S2-  S207  1  0.24455824  0.87606165  0.94777053  1
  S2-  S208  1  0.49779353  0.12772937  0.43882188  1
  S2-  S209  1  0.49110268  0.13184494  0.95461400  1
  S2-  S210  1  0.49932779  0.37546326  0.45885723  1
  S2-  S211  1  0.48927106  0.37601291  0.94818022  1
  S2-  S212  1  0.49869400  0.62517247  0.45235130  1
  S2-  S213  1  0.49135827  0.61975329  0.95388186  1
  S2-  S214  1  0.49953156  0.87563465  0.44006799  1
  S2-  S215  1  0.49101925  0.87992120  0.96151337  1
  S2-  S216  1  0.75025167  0.12742357  0.45076280  1
  S2-  S217  1  0.74095844  0.12874886  0.96173308  1
  S2-  S218  1  0.74663441  0.37217174  0.46831477  1
  S2-  S219  1  0.74430177  0.37655909  0.95898772  1
  S2-  S220  1  0.75084267  0.62384032  0.46777066  1
  S2-  S221  1  0.73941342  0.62484175  0.95619617  1
  S2-  S222  1  0.74800646  0.88149786  0.45106407  1
  S2-  S223  1  0.74101443  0.88170209  0.95667366  1
  S2-  S224  1  0.12363570  0.00097547  0.04047875  1
  S2-  S225  1  0.13018703  -0.00014394  0.53637029  1
  S2-  S226  1  0.11637533  0.24997365  0.04568242  1
  S2-  S227  1  0.13918498  0.23652579  0.55220188  1
  S2-  S228  1  0.11825099  0.49783980  0.03801440  1
  S2-  S229  1  0.12236708  0.50068035  0.54995437  1
  S2-  S230  1  0.11463197  0.75156800  0.05296711  1
  S2-  S231  1  0.12160371  0.75078893  0.54636797  1
  S2-  S232  1  0.36937439  0.00330672  0.05593919  1
  S2-  S233  1  0.37545589  -0.00269229  0.52865704  1
  S2-  S234  1  0.36813450  0.25441603  0.05021952  1
  S2-  S235  1  0.37042100  0.24662571  0.54155586  1
  S2-  S236  1  0.36684153  0.49842225  0.05183037  1
  S2-  S237  1  0.37195742  0.50005919  0.54184378  1
  S2-  S238  1  0.36674582  0.74815375  0.04172837  1
  S2-  S239  1  0.37245994  0.75150900  0.55045590  1
  S2-  S240  1  0.61781411  -0.00116956  0.05072321  1
  S2-  S241  1  0.61829428  -0.00057152  0.53809541  1
  S2-  S242  1  0.61526021  0.25693906  0.04429210  1
  S2-  S243  1  0.61544641  0.24373542  0.54416939  1
  S2-  S244  1  0.61949232  0.49802562  0.05273927  1
  S2-  S245  1  0.62400832  0.50050898  0.55323133  1
  S2-  S246  1  0.61825289  0.74724364  0.04691461  1
  S2-  S247  1  0.61853341  0.75279059  0.53735204  1
  S2-  S248  1  0.86539875  0.00321041  0.05127502  1
  S2-  S249  1  0.86940192  -0.00399885  0.54440184  1
  S2-  S250  1  0.87279643  0.25067367  0.05300990  1
  S2-  S251  1  0.87414354  0.24857467  0.55035980  1
  S2-  S252  1  0.87018513  0.49816295  0.04051188  1
  S2-  S253  1  0.87052425  0.49841502  0.56573864  1
  S2-  S254  1  0.86824547  0.75530024  0.03344088  1
  S2-  S255  1  0.87656206  0.75086840  0.54666687  1
