# generated using pymatgen
data_La9Ce10Pr6Nd4Sm3(BiS2)32
_symmetry_space_group_name_H-M   'P 1'
_cell_length_a   16.18150639
_cell_length_b   16.17578381
_cell_length_c   27.36089853
_cell_angle_alpha   90.07536892
_cell_angle_beta   89.92400539
_cell_angle_gamma   90.08178391
_symmetry_Int_Tables_number   1
_chemical_formula_structural   La9Ce10Pr6Nd4Sm3(BiS2)32
_chemical_formula_sum   'La18 Ce20 Pr12 Nd8 Sm6 Bi64 S128'
_cell_volume   7161.65572153
_cell_formula_units_Z   2
loop_
 _symmetry_equiv_pos_site_id
 _symmetry_equiv_pos_as_xyz
  1  'x, y, z'
loop_
 _atom_type_symbol
 _atom_type_oxidation_number
  La3+  3.0
  Ce3+  3.0
  Pr3+  3.0
  Nd3+  3.0
  Sm3+  3.0
  Bi2+  2.0
  S2-  -2.0
loop_
 _atom_site_type_symbol
 _atom_site_label
 _atom_site_symmetry_multiplicity
 _atom_site_fract_x
 _atom_site_fract_y
 _atom_site_fract_z
 _atom_site_occupancy
  La3+  La0  1  0.64517701  0.02104127  0.91419627  1
  La3+  La1  1  0.11946268  0.49075073  0.43414811  1
  La3+  La2  1  -0.00705155  0.11255271  0.56664585  1
  La3+  La3  1  0.75335957  0.39249092  0.07239026  1
  La3+  La4  1  0.73398652  0.61058873  0.59787613  1
  La3+  La5  1  0.75596273  0.89678194  0.06974935  1
  La3+  La6  1  0.86856207  -0.02202043  0.42715401  1
  La3+  La7  1  0.74517091  0.36102662  0.56568302  1
  La3+  La8  1  0.63876803  0.52055256  0.93213267  1
  La3+  La9  1  0.00801681  0.88611371  0.07428258  1
  La3+  La10  1  0.61588867  0.74293488  0.43084234  1
  La3+  La11  1  0.49069534  0.12225920  0.60718279  1
  La3+  La12  1  0.51166786  0.89520406  0.04652807  1
  La3+  La13  1  0.74673449  0.86895109  0.57981303  1
  La3+  La14  1  0.13577840  0.26702683  0.92444874  1
  La3+  La15  1  0.25786513  0.88587842  0.06140367  1
  La3+  La16  1  0.13753326  0.51842784  0.92027411  1
  La3+  La17  1  0.26247500  0.14447356  0.07523645  1
  Ce3+  Ce18  1  0.25611644  0.64235324  0.05635039  1
  Ce3+  Ce19  1  0.50794961  0.14337649  0.04948785  1
  Ce3+  Ce20  1  0.88251450  0.26339851  0.94738277  1
  Ce3+  Ce21  1  0.86611441  0.74097779  0.45370691  1
  Ce3+  Ce22  1  0.01190662  0.39567233  0.05912089  1
  Ce3+  Ce23  1  0.76429198  0.14292466  0.07531627  1
  Ce3+  Ce24  1  0.49455754  0.36383814  0.55901182  1
  Ce3+  Ce25  1  -0.00755574  0.36817196  0.55462960  1
  Ce3+  Ce26  1  0.11891187  0.74353098  0.44916228  1
  Ce3+  Ce27  1  0.86536521  0.49128334  0.44324942  1
  Ce3+  Ce28  1  0.24807306  0.86861385  0.56427706  1
  Ce3+  Ce29  1  0.13018525  0.76682056  0.93301827  1
  Ce3+  Ce30  1  0.11969011  -0.01216361  0.44620393  1
  Ce3+  Ce31  1  0.11867293  0.23650181  0.44346358  1
  Ce3+  Ce32  1  0.13172601  0.01926209  0.93993614  1
  Ce3+  Ce33  1  0.01251289  0.14138079  0.06967287  1
  Ce3+  Ce34  1  0.49729379  0.61671698  0.55918961  1
  Ce3+  Ce35  1  0.24277892  0.36747351  0.56302334  1
  Ce3+  Ce36  1  -0.00766283  0.86737405  0.57606790  1
  Ce3+  Ce37  1  0.38422684  0.76869145  0.93461300  1
  Pr3+  Pr38  1  0.38248857  0.52271425  0.93586452  1
  Pr3+  Pr39  1  0.37080266  0.74014535  0.44394464  1
  Pr3+  Pr40  1  0.00975779  0.63822388  0.06465853  1
  Pr3+  Pr41  1  0.37086807  -0.00803919  0.44724928  1
  Pr3+  Pr42  1  0.88566863  0.02443533  0.93779708  1
  Pr3+  Pr43  1  0.62150461  0.48752506  0.43890909  1
  Pr3+  Pr44  1  0.86831904  0.23707412  0.43819156  1
  Pr3+  Pr45  1  0.50625197  0.39211513  0.05183367  1
  Pr3+  Pr46  1  0.75467747  0.64580455  0.07050911  1
  Pr3+  Pr47  1  0.64650774  0.76914424  0.92645916  1
  Pr3+  Pr48  1  0.38458727  0.26612138  0.92696656  1
  Pr3+  Pr49  1  0.61785779  -0.01079871  0.45052424  1
  Nd3+  Nd50  1  0.25713396  0.39314124  0.05548436  1
  Nd3+  Nd51  1  0.88446446  0.51725665  0.94199633  1
  Nd3+  Nd52  1  0.74497352  0.11180749  0.56468556  1
  Nd3+  Nd53  1  0.50975286  0.64387955  0.05207110  1
  Nd3+  Nd54  1  0.37998420  0.01801512  0.92967971  1
  Nd3+  Nd55  1  0.36976142  0.48763474  0.44554686  1
  Nd3+  Nd56  1  0.36943495  0.23820187  0.44240356  1
  Nd3+  Nd57  1  0.63058178  0.26602003  0.92878982  1
  Sm3+  Sm58  1  0.88630055  0.77266548  0.94550168  1
  Sm3+  Sm59  1  0.24325354  0.61055876  0.56540340  1
  Sm3+  Sm60  1  0.50307872  0.86376350  0.57378181  1
  Sm3+  Sm61  1  -0.00720391  0.61588123  0.55788468  1
  Sm3+  Sm62  1  0.24767930  0.12439166  0.57299743  1
  Sm3+  Sm63  1  0.62054906  0.23593072  0.44798425  1
  Bi2+  Bi64  1  0.03253711  0.22579659  0.25681366  1
  Bi2+  Bi65  1  -0.01392841  0.06139278  0.80646236  1
  Bi2+  Bi66  1  0.00478712  0.41981435  0.28156278  1
  Bi2+  Bi67  1  -0.00456480  0.32522043  0.77915388  1
  Bi2+  Bi68  1  -0.00296711  0.64257437  0.23900173  1
  Bi2+  Bi69  1  -0.00664252  0.60349294  0.78401893  1
  Bi2+  Bi70  1  0.01849847  0.88213456  0.31475673  1
  Bi2+  Bi71  1  0.00458131  0.88031333  0.84845936  1
  Bi2+  Bi72  1  0.21239496  0.15122724  0.23851514  1
  Bi2+  Bi73  1  0.24206572  0.15245213  0.78989228  1
  Bi2+  Bi74  1  0.24329451  0.32689770  0.30607578  1
  Bi2+  Bi75  1  0.22844042  0.40947391  0.78248643  1
  Bi2+  Bi76  1  0.25459325  0.59339734  0.29177232  1
  Bi2+  Bi77  1  0.22636979  0.71947899  0.79361971  1
  Bi2+  Bi78  1  0.26611585  0.88767746  0.29667675  1
  Bi2+  Bi79  1  0.18619013  0.90927058  0.81218019  1
  Bi2+  Bi80  1  0.44459071  0.10390908  0.28992372  1
  Bi2+  Bi81  1  0.52035529  0.14389147  0.79891186  1
  Bi2+  Bi82  1  0.49377002  0.41694842  0.29734284  1
  Bi2+  Bi83  1  0.48962445  0.38046850  0.74829464  1
  Bi2+  Bi84  1  0.51883108  0.59322806  0.24486819  1
  Bi2+  Bi85  1  0.44682776  0.54718188  0.80657825  1
  Bi2+  Bi86  1  0.53720458  0.85817243  0.30723044  1
  Bi2+  Bi87  1  0.40593411  0.80723087  0.75060713  1
  Bi2+  Bi88  1  0.72702244  0.13719378  0.30791584  1
  Bi2+  Bi89  1  0.78908385  0.16278157  0.77845712  1
  Bi2+  Bi90  1  0.74706379  0.38431351  0.31182669  1
  Bi2+  Bi91  1  0.81229629  0.37129862  0.78686069  1
  Bi2+  Bi92  1  0.80976204  0.59222386  0.22809976  1
  Bi2+  Bi93  1  0.74543336  0.62965846  0.80316377  1
  Bi2+  Bi94  1  0.76431026  0.88478370  0.30164103  1
  Bi2+  Bi95  1  0.71798340  0.87342341  0.80043156  1
  Bi2+  Bi96  1  0.14307110  -0.01365178  0.20730534  1
  Bi2+  Bi97  1  0.11650711  0.01954249  0.72103590  1
  Bi2+  Bi98  1  0.14652750  0.36015798  0.20463233  1
  Bi2+  Bi99  1  0.10165772  0.21812730  0.70811478  1
  Bi2+  Bi100  1  0.20363722  0.56157661  0.17819519  1
  Bi2+  Bi101  1  0.13838304  0.54301396  0.71552330  1
  Bi2+  Bi102  1  0.16396028  0.75101280  0.23803904  1
  Bi2+  Bi103  1  0.12795248  0.80970998  0.70592621  1
  Bi2+  Bi104  1  0.42763750  -0.01013817  0.20173496  1
  Bi2+  Bi105  1  0.35577681  -0.01153919  0.72671895  1
  Bi2+  Bi106  1  0.39372739  0.25137877  0.20119440  1
  Bi2+  Bi107  1  0.35129302  0.25907988  0.71333173  1
  Bi2+  Bi108  1  0.36145830  0.47225785  0.21727809  1
  Bi2+  Bi109  1  0.37045462  0.52291364  0.70651927  1
  Bi2+  Bi110  1  0.38027577  0.74019376  0.26547418  1
  Bi2+  Bi111  1  0.29430072  0.69855820  0.68006551  1
  Bi2+  Bi112  1  0.62322025  0.02948730  0.22258713  1
  Bi2+  Bi113  1  0.61671799  -0.02384903  0.71019854  1
  Bi2+  Bi114  1  0.58191481  0.21984941  0.24094858  1
  Bi2+  Bi115  1  0.73361698  0.27787991  0.69491856  1
  Bi2+  Bi116  1  0.62987447  0.40479148  0.20213079  1
  Bi2+  Bi117  1  0.64797037  0.51699283  0.72537479  1
  Bi2+  Bi118  1  0.59782542  0.75567384  0.19912421  1
  Bi2+  Bi119  1  0.56625679  0.72461468  0.72173461  1
  Bi2+  Bi120  1  0.87230612  0.03073618  0.21725777  1
  Bi2+  Bi121  1  0.87612478  -0.03526485  0.71205728  1
  Bi2+  Bi122  1  0.83632688  0.26013699  0.21775806  1
  Bi2+  Bi123  1  0.91134386  0.20661042  0.68256090  1
  Bi2+  Bi124  1  0.89776666  0.43280231  0.18380105  1
  Bi2+  Bi125  1  0.89976897  0.50292454  0.70049119  1
  Bi2+  Bi126  1  0.87150776  0.77617798  0.21370371  1
  Bi2+  Bi127  1  0.94987102  0.78878122  0.75185116  1
  S2-  S128  1  -0.09803894  0.15111451  0.14701472  1
  S2-  S129  1  0.00248401  -0.00326758  0.64358824  1
  S2-  S130  1  0.02931111  0.50753876  0.13499150  1
  S2-  S131  1  -0.02467234  0.37394011  0.65082004  1
  S2-  S132  1  -0.00358980  0.74482857  0.14623541  1
  S2-  S133  1  0.00605874  0.60981914  0.65541861  1
  S2-  S134  1  -0.01522539  0.95450572  0.16813221  1
  S2-  S135  1  -0.12310070  0.83499701  0.65224781  1
  S2-  S136  1  0.13172451  0.12718266  0.14489625  1
  S2-  S137  1  0.34031138  0.11345237  0.65960186  1
  S2-  S138  1  0.26626208  0.29704288  0.13836027  1
  S2-  S139  1  0.22623435  0.26632689  0.64208811  1
  S2-  S140  1  0.24302341  0.72158786  0.14257197  1
  S2-  S141  1  0.23181185  0.48623835  0.63724426  1
  S2-  S142  1  0.27731849  0.94877655  0.15467332  1
  S2-  S143  1  0.24161710  0.91941398  0.65721678  1
  S2-  S144  1  0.41679421  0.13140217  0.13412621  1
  S2-  S145  1  0.57633095  0.12945083  0.69865469  1
  S2-  S146  1  0.48872817  0.38697236  0.15213182  1
  S2-  S147  1  0.48610152  0.30577455  0.65003916  1
  S2-  S148  1  0.49085087  0.64941146  0.15045319  1
  S2-  S149  1  0.56910868  0.60564924  0.64814574  1
  S2-  S150  1  0.51608188  0.88043648  0.14715029  1
  S2-  S151  1  0.47456227  0.95953330  0.65510766  1
  S2-  S152  1  0.74155780  0.01366527  0.14979709  1
  S2-  S153  1  0.75144006  0.01551905  0.64805488  1
  S2-  S154  1  0.71995578  0.26861621  0.14336652  1
  S2-  S155  1  0.73950898  0.45140552  0.65041930  1
  S2-  S156  1  0.72684582  0.52442707  0.14543958  1
  S2-  S157  1  0.77162840  0.63774281  0.69949720  1
  S2-  S158  1  0.73652528  0.77240343  0.14293612  1
  S2-  S159  1  0.62525832  0.82634158  0.65094444  1
  S2-  S160  1  0.13674819  -0.01803124  0.34757145  1
  S2-  S161  1  0.12132082  0.12462316  0.86095070  1
  S2-  S162  1  0.11707769  0.22781640  0.34669602  1
  S2-  S163  1  0.27231183  0.27920844  0.84883403  1
  S2-  S164  1  0.14166827  0.47283404  0.33551827  1
  S2-  S165  1  0.09472817  0.39320654  0.84904090  1
  S2-  S166  1  0.10968501  0.75235566  0.35240990  1
  S2-  S167  1  0.10472223  0.65430272  0.85693988  1
  S2-  S168  1  0.39245553  -0.03611519  0.34786075  1
  S2-  S169  1  0.37619791  0.05666377  0.83150576  1
  S2-  S170  1  0.36662419  0.24081021  0.34232488  1
  S2-  S171  1  0.50227324  0.27967349  0.84874479  1
  S2-  S172  1  0.37902922  0.50608914  0.34795769  1
  S2-  S173  1  0.28868216  0.51218302  0.85031089  1
  S2-  S174  1  0.47073244  0.73984111  0.36120823  1
  S2-  S175  1  0.38719491  0.71789605  0.84210142  1
  S2-  S176  1  0.65109704  -0.01362235  0.35128383  1
  S2-  S177  1  0.58493505  -0.02601935  0.81605686  1
  S2-  S178  1  0.63005550  0.25585624  0.35059811  1
  S2-  S179  1  0.66477465  0.16489249  0.84909315  1
  S2-  S180  1  0.63628503  0.49806571  0.33851042  1
  S2-  S181  1  0.62234492  0.50979892  0.83222049  1
  S2-  S182  1  0.67300225  0.76039881  0.33218451  1
  S2-  S183  1  0.61083938  0.73735425  0.82609992  1
  S2-  S184  1  0.89706193  0.00974158  0.32524836  1
  S2-  S185  1  0.78890506  -0.01817446  0.85461492  1
  S2-  S186  1  0.84877096  0.24063848  0.33856415  1
  S2-  S187  1  0.89419126  0.17746198  0.86183434  1
  S2-  S188  1  0.87265465  0.47849165  0.34586536  1
  S2-  S189  1  0.86532496  0.51985509  0.84187642  1
  S2-  S190  1  0.88026715  0.81761495  0.36683881  1
  S2-  S191  1  0.80059982  0.75367415  0.86137686  1
  S2-  S192  1  -0.00816974  0.11044832  0.45349519  1
  S2-  S193  1  0.01049513  0.14475613  0.96414837  1
  S2-  S194  1  -0.00746135  0.36386933  0.44807659  1
  S2-  S195  1  0.00423671  0.39191982  0.95442600  1
  S2-  S196  1  -0.00667164  0.61654482  0.45212869  1
  S2-  S197  1  0.00158920  0.64346124  0.95723839  1
  S2-  S198  1  -0.00252966  0.86494453  0.46785033  1
  S2-  S199  1  0.00818379  0.89424696  0.96310269  1
  S2-  S200  1  0.24470840  0.11569016  0.45874999  1
  S2-  S201  1  0.26132629  0.13968355  0.95641582  1
  S2-  S202  1  0.24438455  0.36396249  0.45473338  1
  S2-  S203  1  0.26133463  0.39328951  0.95290658  1
  S2-  S204  1  0.24607279  0.61498795  0.45845949  1
  S2-  S205  1  0.25960010  0.64850484  0.95157673  1
  S2-  S206  1  0.24712494  0.86447815  0.45688684  1
  S2-  S207  1  0.25828985  0.89103732  0.94905231  1
  S2-  S208  1  0.49606271  0.11762299  0.44648765  1
  S2-  S209  1  0.50892181  0.13590276  0.94582327  1
  S2-  S210  1  0.49592538  0.36144403  0.45234918  1
  S2-  S211  1  0.50888801  0.39895072  0.94676011  1
  S2-  S212  1  0.49491283  0.60992385  0.45523203  1
  S2-  S213  1  0.51262599  0.64610138  0.94614150  1
  S2-  S214  1  0.49298804  0.86588375  0.46670157  1
  S2-  S215  1  0.51237283  0.89406782  0.93849284  1
  S2-  S216  1  0.74527964  0.11283236  0.45707648  1
  S2-  S217  1  0.75774408  0.14374387  0.96256940  1
  S2-  S218  1  0.74393994  0.36110347  0.45740312  1
  S2-  S219  1  0.75785936  0.39036980  0.95027255  1
  S2-  S220  1  0.74350936  0.61643389  0.44431616  1
  S2-  S221  1  0.76216665  0.64107180  0.96057495  1
  S2-  S222  1  0.74168931  0.86497393  0.46375474  1
  S2-  S223  1  0.76164968  0.89440199  0.96118988  1
  S2-  S224  1  0.13412529  0.01076859  0.04559268  1
  S2-  S225  1  0.12867290  -0.00411691  0.54975818  1
  S2-  S226  1  0.13175095  0.27130540  0.04092396  1
  S2-  S227  1  0.11417966  0.24012981  0.54646477  1
  S2-  S228  1  0.13841983  0.51771995  0.03210718  1
  S2-  S229  1  0.11434628  0.49368487  0.54106006  1
  S2-  S230  1  0.13105339  0.76461770  0.03938210  1
  S2-  S231  1  0.12112296  0.73803008  0.55605761  1
  S2-  S232  1  0.38128190  0.01403623  0.03584479  1
  S2-  S233  1  0.36922121  -0.00312673  0.55122917  1
  S2-  S234  1  0.38413543  0.26861324  0.03396728  1
  S2-  S235  1  0.37248986  0.23885342  0.54708118  1
  S2-  S236  1  0.38271770  0.51895280  0.04423635  1
  S2-  S237  1  0.37402043  0.49187923  0.54981186  1
  S2-  S238  1  0.38597396  0.76634141  0.04131522  1
  S2-  S239  1  0.37185371  0.74053031  0.55168057  1
  S2-  S240  1  0.63165300  0.02275525  0.04217087  1
  S2-  S241  1  0.61080938  -0.00170882  0.55455746  1
  S2-  S242  1  0.62824430  0.26944343  0.03590863  1
  S2-  S243  1  0.61771142  0.23394845  0.55269983  1
  S2-  S244  1  0.62976444  0.51839080  0.03989307  1
  S2-  S245  1  0.62036218  0.48897338  0.54536558  1
  S2-  S246  1  0.63190693  0.76639439  0.03548810  1
  S2-  S247  1  0.62305190  0.73469520  0.54410110  1
  S2-  S248  1  0.88804562  0.01624933  0.04655733  1
  S2-  S249  1  0.86914491  -0.00991447  0.54109339  1
  S2-  S250  1  0.88560631  0.27551559  0.04995600  1
  S2-  S251  1  0.86909300  0.23746143  0.54561618  1
  S2-  S252  1  0.87855987  0.51851793  0.04596934  1
  S2-  S253  1  0.86659045  0.49564420  0.54860498  1
  S2-  S254  1  0.88035204  0.76703390  0.04668918  1
  S2-  S255  1  0.86166760  0.72738409  0.55563731  1
