# generated using pymatgen
data_La9Ce10Pr6Nd4Sm3(BiS2)32
_symmetry_space_group_name_H-M   'P 1'
_cell_length_a   16.08655174
_cell_length_b   16.13826925
_cell_length_c   27.14501984
_cell_angle_alpha   89.80313855
_cell_angle_beta   90.22133725
_cell_angle_gamma   90.21930174
_symmetry_Int_Tables_number   1
_chemical_formula_structural   La9Ce10Pr6Nd4Sm3(BiS2)32
_chemical_formula_sum   'La18 Ce20 Pr12 Nd8 Sm6 Bi64 S128'
_cell_volume   7046.94881447
_cell_formula_units_Z   2
loop_
 _symmetry_equiv_pos_site_id
 _symmetry_equiv_pos_as_xyz
  1  'x, y, z'
loop_
 _atom_type_symbol
 _atom_type_oxidation_number
  La3+  3.0
  Ce3+  3.0
  Pr3+  3.0
  Nd3+  3.0
  Sm3+  3.0
  Bi2+  2.0
  S2-  -2.0
loop_
 _atom_site_type_symbol
 _atom_site_label
 _atom_site_symmetry_multiplicity
 _atom_site_fract_x
 _atom_site_fract_y
 _atom_site_fract_z
 _atom_site_occupancy
  La3+  La0  1  0.25262748  0.62008469  0.56255437  1
  La3+  La1  1  -0.00179244  0.11167730  0.57652108  1
  La3+  La2  1  0.26898902  0.63777303  0.07543070  1
  La3+  La3  1  0.51899472  0.12361712  0.09540227  1
  La3+  La4  1  0.14084137  0.00024912  0.93222234  1
  La3+  La5  1  0.38004774  0.25500407  0.92654257  1
  La3+  La6  1  0.74948046  0.36779543  0.56192941  1
  La3+  La7  1  0.26722190  0.13073832  0.06690228  1
  La3+  La8  1  0.87773807  -0.00450441  0.42910210  1
  La3+  La9  1  0.49558608  0.87682549  0.57405004  1
  La3+  La10  1  0.88986024  0.00810211  0.93066087  1
  La3+  La11  1  0.36563128  0.24021611  0.41919321  1
  La3+  La12  1  0.37211219  0.48831278  0.42027894  1
  La3+  La13  1  0.74749523  0.87690823  0.58241772  1
  La3+  La14  1  0.12099622  0.49902765  0.42728519  1
  La3+  La15  1  0.00056783  0.61847518  0.57093183  1
  La3+  La16  1  0.25438753  0.38435729  0.08391383  1
  La3+  La17  1  0.63321603  0.24536193  0.38878869  1
  Ce3+  Ce18  1  0.00066479  0.87003376  0.55995270  1
  Ce3+  Ce19  1  0.14160898  0.75529321  0.93666758  1
  Ce3+  Ce20  1  0.12342408  0.74795120  0.42792977  1
  Ce3+  Ce21  1  0.01219789  0.63005703  0.05168992  1
  Ce3+  Ce22  1  0.63546281  0.75250836  0.93638244  1
  Ce3+  Ce23  1  0.63621787  0.25381099  0.94606142  1
  Ce3+  Ce24  1  0.76629690  0.62771469  0.05368628  1
  Ce3+  Ce25  1  0.74685356  0.11649290  0.55182328  1
  Ce3+  Ce26  1  0.14210605  0.50814130  0.94006173  1
  Ce3+  Ce27  1  0.37570136  0.74413307  0.43609570  1
  Ce3+  Ce28  1  0.87550658  0.74549063  0.44391926  1
  Ce3+  Ce29  1  0.62666240  0.74917533  0.44418325  1
  Ce3+  Ce30  1  0.51488595  0.62020470  0.06884975  1
  Ce3+  Ce31  1  0.00164880  0.36746002  0.55768176  1
  Ce3+  Ce32  1  0.74812547  0.62001077  0.57334638  1
  Ce3+  Ce33  1  0.87443200  0.24334256  0.43850483  1
  Ce3+  Ce34  1  0.49743878  0.36706294  0.54708711  1
  Ce3+  Ce35  1  0.12308270  -0.00434762  0.43636322  1
  Ce3+  Ce36  1  0.51074241  0.37481847  0.06799893  1
  Ce3+  Ce37  1  0.39056365  0.00405614  0.93844833  1
  Pr3+  Pr38  1  0.37393943  -0.00569202  0.42723847  1
  Pr3+  Pr39  1  0.76741425  0.12868616  0.06413706  1
  Pr3+  Pr40  1  0.25997809  0.36741881  0.56940667  1
  Pr3+  Pr41  1  0.76851308  0.37639947  0.06072305  1
  Pr3+  Pr42  1  0.62471896  -0.01127405  0.42828993  1
  Pr3+  Pr43  1  0.88905387  0.50471243  0.92790318  1
  Pr3+  Pr44  1  0.02061168  0.12779270  0.06369554  1
  Pr3+  Pr45  1  0.25178182  0.12209714  0.56593670  1
  Pr3+  Pr46  1  0.50130447  0.61926661  0.56348572  1
  Pr3+  Pr47  1  0.01547592  0.87762208  0.06534693  1
  Pr3+  Pr48  1  0.62691926  0.49716109  0.43429732  1
  Pr3+  Pr49  1  0.63900006  0.00861176  0.93724898  1
  Nd3+  Nd50  1  0.86901124  0.25856004  0.89431361  1
  Nd3+  Nd51  1  0.88280791  0.76015226  0.92412552  1
  Nd3+  Nd52  1  0.87322802  0.49856314  0.43727471  1
  Nd3+  Nd53  1  0.26940268  0.87718989  0.06483012  1
  Nd3+  Nd54  1  0.12986635  0.25547380  0.93158792  1
  Nd3+  Nd55  1  0.49937882  0.11882186  0.54657252  1
  Nd3+  Nd56  1  0.63748908  0.50025243  0.94178212  1
  Nd3+  Nd57  1  0.51872631  0.87635896  0.06361347  1
  Sm3+  Sm58  1  0.38632389  0.50140083  0.94356980  1
  Sm3+  Sm59  1  0.39679304  0.75718396  0.93261799  1
  Sm3+  Sm60  1  0.12481069  0.24383358  0.44471583  1
  Sm3+  Sm61  1  0.01563113  0.38013464  0.05342411  1
  Sm3+  Sm62  1  0.76303107  0.87829289  0.05864729  1
  Sm3+  Sm63  1  0.25118619  0.87645707  0.56152969  1
  Bi2+  Bi64  1  -0.02713525  0.17167928  0.31158317  1
  Bi2+  Bi65  1  0.00497412  0.15185711  0.77941696  1
  Bi2+  Bi66  1  -0.00907093  0.37271813  0.28377383  1
  Bi2+  Bi67  1  -0.02637747  0.39951353  0.76340498  1
  Bi2+  Bi68  1  -0.00139424  0.63413387  0.29176731  1
  Bi2+  Bi69  1  -0.05772256  0.58946503  0.80420940  1
  Bi2+  Bi70  1  -0.04061006  0.89516633  0.29093404  1
  Bi2+  Bi71  1  0.02037703  0.77185773  0.81181844  1
  Bi2+  Bi72  1  0.23187482  0.10846338  0.28991043  1
  Bi2+  Bi73  1  0.25338479  0.12716148  0.78862294  1
  Bi2+  Bi74  1  0.25500695  0.35512590  0.28181814  1
  Bi2+  Bi75  1  0.27032649  0.37900646  0.78818748  1
  Bi2+  Bi76  1  0.26741208  0.61713333  0.29588764  1
  Bi2+  Bi77  1  0.18227517  0.63622239  0.82033914  1
  Bi2+  Bi78  1  0.21088336  0.91902635  0.31560337  1
  Bi2+  Bi79  1  0.26973439  0.87944418  0.78450545  1
  Bi2+  Bi80  1  0.49209447  0.02038569  0.28717308  1
  Bi2+  Bi81  1  0.49761197  0.11242539  0.77773910  1
  Bi2+  Bi82  1  0.51116163  0.42793181  0.28437552  1
  Bi2+  Bi83  1  0.49539625  0.32310669  0.78724931  1
  Bi2+  Bi84  1  0.53015491  0.67999670  0.27686448  1
  Bi2+  Bi85  1  0.37609262  0.62609192  0.81201581  1
  Bi2+  Bi86  1  0.42272339  0.85321312  0.31785575  1
  Bi2+  Bi87  1  0.52421426  0.85663312  0.79810506  1
  Bi2+  Bi88  1  0.79008404  0.09931839  0.29531859  1
  Bi2+  Bi89  1  0.76648732  0.17446811  0.76738899  1
  Bi2+  Bi90  1  0.77779800  0.48419960  0.28791112  1
  Bi2+  Bi91  1  0.70929382  0.39293174  0.79065506  1
  Bi2+  Bi92  1  0.74855450  0.63777087  0.35532373  1
  Bi2+  Bi93  1  0.76270333  0.65426614  0.77387615  1
  Bi2+  Bi94  1  0.70954635  0.81021643  0.28968238  1
  Bi2+  Bi95  1  0.77424990  0.87715717  0.78714381  1
  Bi2+  Bi96  1  0.09714659  -0.01645457  0.19595742  1
  Bi2+  Bi97  1  0.11732338  -0.05890864  0.71840188  1
  Bi2+  Bi98  1  0.07742941  0.23496805  0.21329528  1
  Bi2+  Bi99  1  0.13387566  0.33350617  0.70279911  1
  Bi2+  Bi100  1  0.09788313  0.49510371  0.21093723  1
  Bi2+  Bi101  1  0.14847944  0.52704482  0.72297020  1
  Bi2+  Bi102  1  0.10986634  0.80262028  0.23765866  1
  Bi2+  Bi103  1  0.16466957  0.75430205  0.71346798  1
  Bi2+  Bi104  1  0.31841670  -0.02327558  0.22012281  1
  Bi2+  Bi105  1  0.36301335  -0.00673008  0.70498917  1
  Bi2+  Bi106  1  0.41187109  0.22394919  0.22338301  1
  Bi2+  Bi107  1  0.39833396  0.23853529  0.69792544  1
  Bi2+  Bi108  1  0.38625749  0.51330914  0.20242607  1
  Bi2+  Bi109  1  0.34433908  0.49634711  0.70400281  1
  Bi2+  Bi110  1  0.37136087  0.78561284  0.21025999  1
  Bi2+  Bi111  1  0.38803647  0.74042410  0.71673928  1
  Bi2+  Bi112  1  0.65378189  -0.01090004  0.21463671  1
  Bi2+  Bi113  1  0.60998579  -0.00395781  0.70596976  1
  Bi2+  Bi114  1  0.65741066  0.25814861  0.21785392  1
  Bi2+  Bi115  1  0.60487865  0.22569207  0.70485873  1
  Bi2+  Bi116  1  0.63477353  0.55177546  0.21837765  1
  Bi2+  Bi117  1  0.51746617  0.51930288  0.76095617  1
  Bi2+  Bi118  1  0.58719136  0.80714517  0.19057818  1
  Bi2+  Bi119  1  0.59092748  0.71835169  0.72258653  1
  Bi2+  Bi120  1  0.92068663  0.07831712  0.20360916  1
  Bi2+  Bi121  1  0.86309285  -0.00727701  0.70959529  1
  Bi2+  Bi122  1  0.87935474  0.27114484  0.20592020  1
  Bi2+  Bi123  1  0.86179618  0.28979160  0.69331004  1
  Bi2+  Bi124  1  0.88472153  0.49909680  0.18259308  1
  Bi2+  Bi125  1  0.75119263  0.50989090  0.69889554  1
  Bi2+  Bi126  1  0.82904950  0.67727862  0.24535317  1
  Bi2+  Bi127  1  0.94494529  0.71982752  0.71081202  1
  S2-  S128  1  0.13943288  0.13180519  0.14156071  1
  S2-  S129  1  -0.02100149  0.17383221  0.67310311  1
  S2-  S130  1  0.09623144  0.36993710  0.14233768  1
  S2-  S131  1  -0.01595930  0.40447027  0.65386894  1
  S2-  S132  1  0.00608838  0.60654893  0.15034988  1
  S2-  S133  1  -0.12612250  0.60692179  0.64494784  1
  S2-  S134  1  -0.00518788  0.85043619  0.16592889  1
  S2-  S135  1  0.00176819  0.96525262  0.64421975  1
  S2-  S136  1  0.36813894  0.11876238  0.15428840  1
  S2-  S137  1  0.22369166  0.01971800  0.65052252  1
  S2-  S138  1  0.31627957  0.33665609  0.18199726  1
  S2-  S139  1  0.24418104  0.24369797  0.64579243  1
  S2-  S140  1  0.23931573  0.52871044  0.15502366  1
  S2-  S141  1  0.13165777  0.62556174  0.64134784  1
  S2-  S142  1  0.23927361  0.77653556  0.14674504  1
  S2-  S143  1  0.35854180  0.85833185  0.64134971  1
  S2-  S144  1  0.52579501  0.27347204  0.15343553  1
  S2-  S145  1  0.49343912  0.03629033  0.63715061  1
  S2-  S146  1  0.52723417  0.49004753  0.14397959  1
  S2-  S147  1  0.41391908  0.37718124  0.63361745  1
  S2-  S148  1  0.41209928  0.65363293  0.14713890  1
  S2-  S149  1  0.37776153  0.62195634  0.63869202  1
  S2-  S150  1  0.52219232  0.96523370  0.15059250  1
  S2-  S151  1  0.61134481  0.85655330  0.65466334  1
  S2-  S152  1  0.67745211  0.12561970  0.15239402  1
  S2-  S153  1  0.75080047  0.04292714  0.64241461  1
  S2-  S154  1  0.75255945  0.37442386  0.16183243  1
  S2-  S155  1  0.68792768  0.36658596  0.65826738  1
  S2-  S156  1  0.76109577  0.61934449  0.15163699  1
  S2-  S157  1  0.62223577  0.60946499  0.64433048  1
  S2-  S158  1  0.74334761  0.87487112  0.15729952  1
  S2-  S159  1  0.82957120  0.83812503  0.67521602  1
  S2-  S160  1  0.01633799  0.01535259  0.35663016  1
  S2-  S161  1  0.11857628  0.06997012  0.83444183  1
  S2-  S162  1  0.19838680  0.24299290  0.35383300  1
  S2-  S163  1  0.02331152  0.26846899  0.84395764  1
  S2-  S164  1  0.23275042  0.47381882  0.34676275  1
  S2-  S165  1  0.14881563  0.47046167  0.84452844  1
  S2-  S166  1  0.12882120  0.63367657  0.35260428  1
  S2-  S167  1  0.14741506  0.86517109  0.86033374  1
  S2-  S168  1  0.37691584  0.10764148  0.34562107  1
  S2-  S169  1  0.38682201  0.10759896  0.85500001  1
  S2-  S170  1  0.38874641  0.35739427  0.34301540  1
  S2-  S171  1  0.24407957  0.25031573  0.85316515  1
  S2-  S172  1  0.42652827  0.58398367  0.33520407  1
  S2-  S173  1  0.39779685  0.40036641  0.86052326  1
  S2-  S174  1  0.27783439  0.76050877  0.35336950  1
  S2-  S175  1  0.38994399  0.88826971  0.86059536  1
  S2-  S176  1  0.63365608  0.08261249  0.34043171  1
  S2-  S177  1  0.65169610  -0.03151466  0.83740788  1
  S2-  S178  1  0.55250697  0.25583696  0.29166479  1
  S2-  S179  1  0.69852260  0.24661919  0.85318209  1
  S2-  S180  1  0.64207281  0.41406422  0.34470546  1
  S2-  S181  1  0.62856517  0.51207041  0.84122047  1
  S2-  S182  1  0.60131706  0.84960577  0.36247201  1
  S2-  S183  1  0.52179009  0.73006298  0.86045568  1
  S2-  S184  1  0.81455118  -0.06389941  0.33787065  1
  S2-  S185  1  0.90211170  -0.10856075  0.85146655  1
  S2-  S186  1  0.80068218  0.24604301  0.34797243  1
  S2-  S187  1  0.87666743  0.10898529  0.84329727  1
  S2-  S188  1  0.97750957  0.49257188  0.35521404  1
  S2-  S189  1  0.85730198  0.41078758  0.84289794  1
  S2-  S190  1  0.97251905  0.76429442  0.35982790  1
  S2-  S191  1  0.74457176  0.75201906  0.85583458  1
  S2-  S192  1  0.00020121  0.12302896  0.46215355  1
  S2-  S193  1  0.01369755  0.12790929  0.95641585  1
  S2-  S194  1  -0.00041603  0.36511781  0.45167109  1
  S2-  S195  1  0.01091532  0.38296232  0.95029332  1
  S2-  S196  1  -0.00204383  0.62208793  0.46213889  1
  S2-  S197  1  0.01080186  0.63400265  0.94480192  1
  S2-  S198  1  0.00173038  0.87226764  0.45743976  1
  S2-  S199  1  0.01100654  0.87672520  0.95823484  1
  S2-  S200  1  0.24495106  0.11602471  0.45508645  1
  S2-  S201  1  0.26005408  0.12607031  0.95820477  1
  S2-  S202  1  0.24583637  0.36690074  0.45852336  1
  S2-  S203  1  0.25898774  0.38305974  0.95967417  1
  S2-  S204  1  0.25191816  0.62079361  0.45448079  1
  S2-  S205  1  0.27064259  0.63199717  0.95474641  1
  S2-  S206  1  0.24845284  0.87328969  0.45564642  1
  S2-  S207  1  0.26906024  0.87488672  0.96080873  1
  S2-  S208  1  0.50503889  0.12232312  0.44272126  1
  S2-  S209  1  0.51455688  0.13249520  0.95153960  1
  S2-  S210  1  0.50881764  0.36133157  0.44326478  1
  S2-  S211  1  0.51482483  0.37793156  0.95968434  1
  S2-  S212  1  0.50367202  0.62272424  0.45256290  1
  S2-  S213  1  0.51248589  0.62087604  0.96087344  1
  S2-  S214  1  0.49291357  0.87223619  0.46058741  1
  S2-  S215  1  0.51943925  0.88185716  0.95846535  1
  S2-  S216  1  0.74840479  0.12047515  0.44808678  1
  S2-  S217  1  0.76731066  0.13433634  0.95679995  1
  S2-  S218  1  0.75279258  0.36961766  0.45260908  1
  S2-  S219  1  0.76624451  0.37723644  0.95414934  1
  S2-  S220  1  0.75102366  0.62020245  0.46686778  1
  S2-  S221  1  0.76386801  0.62552636  0.94873691  1
  S2-  S222  1  0.75340082  0.86865742  0.45830920  1
  S2-  S223  1  0.76164632  0.88216919  0.95502929  1
  S2-  S224  1  0.14270543  -0.00375768  0.04449228  1
  S2-  S225  1  0.12579149  -0.00547222  0.54163782  1
  S2-  S226  1  0.13805866  0.25798721  0.03946508  1
  S2-  S227  1  0.12099451  0.24148540  0.54851421  1
  S2-  S228  1  0.13663713  0.50963351  0.04399378  1
  S2-  S229  1  0.12832492  0.48711415  0.54470998  1
  S2-  S230  1  0.13715257  0.75343415  0.04270527  1
  S2-  S231  1  0.12781984  0.75277070  0.54279631  1
  S2-  S232  1  0.39323300  0.00048723  0.04715953  1
  S2-  S233  1  0.36949521  -0.00143679  0.53556119  1
  S2-  S234  1  0.38523785  0.25911218  0.04745596  1
  S2-  S235  1  0.37529361  0.24067949  0.53335981  1
  S2-  S236  1  0.38347714  0.50081301  0.04704606  1
  S2-  S237  1  0.37780336  0.49387099  0.53171916  1
  S2-  S238  1  0.39585614  0.75681768  0.04082062  1
  S2-  S239  1  0.37504247  0.74856171  0.53988804  1
  S2-  S240  1  0.64285437  0.00399120  0.04478987  1
  S2-  S241  1  0.62447816  -0.00660584  0.53715993  1
  S2-  S242  1  0.64110490  0.25217798  0.04914979  1
  S2-  S243  1  0.62293866  0.24111190  0.55046410  1
  S2-  S244  1  0.64488113  0.50017847  0.04632321  1
  S2-  S245  1  0.62348881  0.49087916  0.54170847  1
  S2-  S246  1  0.64079455  0.75065906  0.04644566  1
  S2-  S247  1  0.62545084  0.74873237  0.54798990  1
  S2-  S248  1  0.88920062  0.00188450  0.04916315  1
  S2-  S249  1  0.87343342  -0.00740063  0.54113628  1
  S2-  S250  1  0.89614582  0.25356707  0.06035928  1
  S2-  S251  1  0.87440741  0.24043814  0.54794549  1
  S2-  S252  1  0.89079835  0.50308456  0.03829119  1
  S2-  S253  1  0.87537979  0.49045505  0.54317404  1
  S2-  S254  1  0.88646226  0.75634772  0.04307893  1
  S2-  S255  1  0.87310794  0.74980055  0.55045732  1
