# generated using pymatgen
data_La9Ce10Pr6Nd4Sm3(BiS2)32
_symmetry_space_group_name_H-M   'P 1'
_cell_length_a   16.13881480
_cell_length_b   16.23375399
_cell_length_c   27.13442639
_cell_angle_alpha   89.99451371
_cell_angle_beta   89.99514563
_cell_angle_gamma   89.89921772
_symmetry_Int_Tables_number   1
_chemical_formula_structural   La9Ce10Pr6Nd4Sm3(BiS2)32
_chemical_formula_sum   'La18 Ce20 Pr12 Nd8 Sm6 Bi64 S128'
_cell_volume   7109.03362042
_cell_formula_units_Z   2
loop_
 _symmetry_equiv_pos_site_id
 _symmetry_equiv_pos_as_xyz
  1  'x, y, z'
loop_
 _atom_type_symbol
 _atom_type_oxidation_number
  La3+  3.0
  Ce3+  3.0
  Pr3+  3.0
  Nd3+  3.0
  Sm3+  3.0
  Bi2+  2.0
  S2-  -2.0
loop_
 _atom_site_type_symbol
 _atom_site_label
 _atom_site_symmetry_multiplicity
 _atom_site_fract_x
 _atom_site_fract_y
 _atom_site_fract_z
 _atom_site_occupancy
  La3+  La0  1  0.13793474  0.76868341  0.43369704  1
  La3+  La1  1  0.10423827  0.22932093  0.91676469  1
  La3+  La2  1  0.50668971  0.39392961  0.56192756  1
  La3+  La3  1  0.51445718  0.13972033  0.56174695  1
  La3+  La4  1  0.26310441  0.64113430  0.59164382  1
  La3+  La5  1  0.73577764  0.36024415  0.06756911  1
  La3+  La6  1  0.01662465  0.14005003  0.56529673  1
  La3+  La7  1  0.23181366  0.11314550  0.06311292  1
  La3+  La8  1  0.62815958  0.50532418  0.39266369  1
  La3+  La9  1  0.48055138  0.60420572  0.06910562  1
  La3+  La10  1  0.47558672  0.35880525  0.07197431  1
  La3+  La11  1  0.88766757  0.77141419  0.42552017  1
  La3+  La12  1  0.64303861  0.76749014  0.42275826  1
  La3+  La13  1  0.36899265  0.72842964  0.92211023  1
  La3+  La14  1  0.61083660  0.48217244  0.93487706  1
  La3+  La15  1  0.85440130  0.73689994  0.94152325  1
  La3+  La16  1  0.51509061  0.88592170  0.56591020  1
  La3+  La17  1  0.47861138  0.85835995  0.06745601  1
  Ce3+  Ce18  1  0.38539138  0.26919545  0.44542662  1
  Ce3+  Ce19  1  -0.00945181  0.11077026  0.06564937  1
  Ce3+  Ce20  1  0.73559049  0.11267824  0.05721701  1
  Ce3+  Ce21  1  -0.00797798  0.61180199  0.06220212  1
  Ce3+  Ce22  1  0.75547207  0.63849480  0.55827422  1
  Ce3+  Ce23  1  0.86279869  0.48718597  0.94955598  1
  Ce3+  Ce24  1  0.00860789  0.64199038  0.55844457  1
  Ce3+  Ce25  1  0.85948854  -0.01547721  0.95394768  1
  Ce3+  Ce26  1  0.76085975  0.88695334  0.56700524  1
  Ce3+  Ce27  1  0.72971892  0.61155495  0.07252751  1
  Ce3+  Ce28  1  -0.00479830  0.36088980  0.05891072  1
  Ce3+  Ce29  1  0.86499913  0.23485754  0.94463699  1
  Ce3+  Ce30  1  0.38679166  0.00982155  0.43806902  1
  Ce3+  Ce31  1  0.61006016  0.23908009  0.93546082  1
  Ce3+  Ce32  1  0.10963381  -0.01447095  0.93991513  1
  Ce3+  Ce33  1  0.13735185  0.01076837  0.44409438  1
  Ce3+  Ce34  1  0.88014325  0.51571304  0.43784106  1
  Ce3+  Ce35  1  0.76112319  0.39198919  0.55601487  1
  Ce3+  Ce36  1  0.23856999  0.85640318  0.05551977  1
  Ce3+  Ce37  1  0.23411109  0.60989344  0.05697867  1
  Pr3+  Pr38  1  0.35977055  0.23691663  0.93042840  1
  Pr3+  Pr39  1  0.39349174  0.76490504  0.43055797  1
  Pr3+  Pr40  1  0.88648274  0.01735914  0.44057776  1
  Pr3+  Pr41  1  0.00721230  0.88554453  0.56978289  1
  Pr3+  Pr42  1  0.14006771  0.27067590  0.43721429  1
  Pr3+  Pr43  1  0.63763743  0.01730754  0.43448272  1
  Pr3+  Pr44  1  0.51349084  0.63689480  0.55616345  1
  Pr3+  Pr45  1  0.36463626  -0.01322953  0.93529835  1
  Pr3+  Pr46  1  0.26761513  0.88579142  0.57280436  1
  Pr3+  Pr47  1  0.72856273  0.85911044  0.07739432  1
  Pr3+  Pr48  1  0.11915697  0.73887056  0.92412381  1
  Pr3+  Pr49  1  0.10648032  0.49469171  0.92394365  1
  Nd3+  Nd50  1  0.37092920  0.52254490  0.42755924  1
  Nd3+  Nd51  1  0.61233976  0.73224912  0.93420592  1
  Nd3+  Nd52  1  -0.01340361  0.85695822  0.06186756  1
  Nd3+  Nd53  1  0.47856677  0.11780323  0.06918908  1
  Nd3+  Nd54  1  0.01023836  0.39233612  0.56235738  1
  Nd3+  Nd55  1  0.13753012  0.51593761  0.44761391  1
  Nd3+  Nd56  1  0.25139456  0.38795955  0.57907942  1
  Nd3+  Nd57  1  0.35380207  0.47867459  0.92462402  1
  Sm3+  Sm58  1  0.63414374  0.26910657  0.43854414  1
  Sm3+  Sm59  1  0.22927748  0.36219346  0.05356654  1
  Sm3+  Sm60  1  0.26059989  0.13850291  0.55361264  1
  Sm3+  Sm61  1  0.61025470  -0.01240809  0.95057466  1
  Sm3+  Sm62  1  0.88724048  0.26613393  0.44214538  1
  Sm3+  Sm63  1  0.76295851  0.14241605  0.55731742  1
  Bi2+  Bi64  1  0.02316272  0.12121450  0.28743653  1
  Bi2+  Bi65  1  -0.03816363  0.08121319  0.80933198  1
  Bi2+  Bi66  1  0.02742257  0.38761440  0.29905638  1
  Bi2+  Bi67  1  -0.06892554  0.40025704  0.79452608  1
  Bi2+  Bi68  1  0.02487786  0.58368543  0.30236876  1
  Bi2+  Bi69  1  -0.02173673  0.66828182  0.76889627  1
  Bi2+  Bi70  1  0.02047325  0.86528993  0.29196299  1
  Bi2+  Bi71  1  -0.02338748  0.85377603  0.80391574  1
  Bi2+  Bi72  1  0.30945512  0.08974840  0.28318919  1
  Bi2+  Bi73  1  0.24782522  0.13644304  0.79622536  1
  Bi2+  Bi74  1  0.23590751  0.36185797  0.29614627  1
  Bi2+  Bi75  1  0.26062916  0.37697369  0.77329971  1
  Bi2+  Bi76  1  0.21455648  0.63838994  0.28150589  1
  Bi2+  Bi77  1  0.23183852  0.62087514  0.79041647  1
  Bi2+  Bi78  1  0.25785958  0.89178869  0.28419538  1
  Bi2+  Bi79  1  0.17093466  0.88285575  0.79376518  1
  Bi2+  Bi80  1  0.51168418  0.10402897  0.30307719  1
  Bi2+  Bi81  1  0.57846221  0.12591218  0.80953510  1
  Bi2+  Bi82  1  0.49671566  0.35300137  0.29004000  1
  Bi2+  Bi83  1  0.49738651  0.29655121  0.78491897  1
  Bi2+  Bi84  1  0.46834837  0.63324119  0.28765051  1
  Bi2+  Bi85  1  0.49742538  0.63798814  0.78204876  1
  Bi2+  Bi86  1  0.50865170  0.89115023  0.29282969  1
  Bi2+  Bi87  1  0.48090698  0.89609246  0.79549701  1
  Bi2+  Bi88  1  0.72079765  0.12993455  0.30651660  1
  Bi2+  Bi89  1  0.76908099  0.15807478  0.78968675  1
  Bi2+  Bi90  1  0.82928837  0.36852530  0.28734952  1
  Bi2+  Bi91  1  0.74042628  0.35334280  0.78784433  1
  Bi2+  Bi92  1  0.83715401  0.62410596  0.27090429  1
  Bi2+  Bi93  1  0.74851110  0.61732610  0.79381753  1
  Bi2+  Bi94  1  0.77450490  0.87425621  0.28891742  1
  Bi2+  Bi95  1  0.73287130  0.87210433  0.79139328  1
  Bi2+  Bi96  1  0.15203405  0.02231987  0.22448910  1
  Bi2+  Bi97  1  0.14834317  0.01481723  0.71011370  1
  Bi2+  Bi98  1  0.11829562  0.24608552  0.20992097  1
  Bi2+  Bi99  1  0.08260439  0.22219296  0.70640998  1
  Bi2+  Bi100  1  0.13689805  0.49692574  0.20973179  1
  Bi2+  Bi101  1  0.02331958  0.49531703  0.70866126  1
  Bi2+  Bi102  1  0.13612640  0.76173617  0.19826715  1
  Bi2+  Bi103  1  0.08009310  0.80104759  0.70217221  1
  Bi2+  Bi104  1  0.43762194  0.00227245  0.20593734  1
  Bi2+  Bi105  1  0.34006914  -0.02008807  0.73142279  1
  Bi2+  Bi106  1  0.37757125  0.23397051  0.20706750  1
  Bi2+  Bi107  1  0.36112567  0.19927873  0.71184122  1
  Bi2+  Bi108  1  0.35927841  0.48423303  0.20248287  1
  Bi2+  Bi109  1  0.40055980  0.50665388  0.69742490  1
  Bi2+  Bi110  1  0.33920176  0.74812954  0.21176091  1
  Bi2+  Bi111  1  0.37574914  0.77342012  0.71351783  1
  Bi2+  Bi112  1  0.63383953  0.02636435  0.22013957  1
  Bi2+  Bi113  1  0.65588188  0.00347284  0.71655570  1
  Bi2+  Bi114  1  0.63606497  0.23698040  0.21883096  1
  Bi2+  Bi115  1  0.61682658  0.21940278  0.70372202  1
  Bi2+  Bi116  1  0.64487499  0.50844851  0.20484528  1
  Bi2+  Bi117  1  0.64983735  0.49355600  0.70647764  1
  Bi2+  Bi118  1  0.65870323  0.75905870  0.20993469  1
  Bi2+  Bi119  1  0.63922425  0.75108593  0.71182454  1
  Bi2+  Bi120  1  0.86422870  0.08645775  0.22765816  1
  Bi2+  Bi121  1  0.87185143  -0.02921794  0.73057550  1
  Bi2+  Bi122  1  0.92276137  0.26934708  0.20309689  1
  Bi2+  Bi123  1  0.88371198  0.26761784  0.71479009  1
  Bi2+  Bi124  1  0.93243784  0.47630561  0.20343190  1
  Bi2+  Bi125  1  0.83701628  0.53462813  0.68227925  1
  Bi2+  Bi126  1  0.94035453  0.75314765  0.20492155  1
  Bi2+  Bi127  1  0.83202866  0.72832567  0.69208402  1
  S2-  S128  1  0.10705189  0.11886137  0.13934752  1
  S2-  S129  1  -0.03717623  0.13660468  0.66134060  1
  S2-  S130  1  0.11170748  0.36255547  0.13233318  1
  S2-  S131  1  0.09811715  0.36966509  0.64797817  1
  S2-  S132  1  0.11198091  0.61510539  0.13407187  1
  S2-  S133  1  0.05460517  0.64459758  0.65328182  1
  S2-  S134  1  0.02810621  0.88411565  0.15803229  1
  S2-  S135  1  -0.11858707  0.88202265  0.64344001  1
  S2-  S136  1  0.34721560  0.10757295  0.14191658  1
  S2-  S137  1  0.21336055  0.14898387  0.64862159  1
  S2-  S138  1  0.32739139  0.35506952  0.13958990  1
  S2-  S139  1  0.31939117  0.35972677  0.67120993  1
  S2-  S140  1  0.34295180  0.61615888  0.13768789  1
  S2-  S141  1  0.24983534  0.55970345  0.69051660  1
  S2-  S142  1  0.33836640  0.86138325  0.13720359  1
  S2-  S143  1  0.23603304  0.77955097  0.65444957  1
  S2-  S144  1  0.51349232  0.23370461  0.14615384  1
  S2-  S145  1  0.48527322  0.12640574  0.66128121  1
  S2-  S146  1  0.49958948  0.46915354  0.15433876  1
  S2-  S147  1  0.53794624  0.40280776  0.66233942  1
  S2-  S148  1  0.60163550  0.64114933  0.14432366  1
  S2-  S149  1  0.42395560  0.65165421  0.64679052  1
  S2-  S150  1  0.58974757  0.85492370  0.14668809  1
  S2-  S151  1  0.40383543  0.89897173  0.64523734  1
  S2-  S152  1  0.73542843  0.12259717  0.15521077  1
  S2-  S153  1  0.72272589  0.11759296  0.65234245  1
  S2-  S154  1  0.71009320  0.36057915  0.16835436  1
  S2-  S155  1  0.78205986  0.37263304  0.65303651  1
  S2-  S156  1  0.79479413  0.58047204  0.16727984  1
  S2-  S157  1  0.63960366  0.63166024  0.63780019  1
  S2-  S158  1  0.79348431  0.84329136  0.17597392  1
  S2-  S159  1  0.63935682  0.88365839  0.64145398  1
  S2-  S160  1  0.14230303  -0.08781119  0.36312964  1
  S2-  S161  1  0.11274360  0.07477804  0.85521984  1
  S2-  S162  1  0.12188559  0.23880633  0.33826658  1
  S2-  S163  1  0.15768632  0.27778495  0.81733802  1
  S2-  S164  1  0.22871918  0.47490861  0.36442888  1
  S2-  S165  1  0.21542118  0.47678945  0.84349654  1
  S2-  S166  1  0.02005505  0.74209005  0.35465695  1
  S2-  S167  1  0.08697344  0.62713489  0.84708648  1
  S2-  S168  1  0.37584205  -0.09706602  0.36019376  1
  S2-  S169  1  0.37290554  0.02678703  0.83647519  1
  S2-  S170  1  0.36685301  0.28363644  0.34786235  1
  S2-  S171  1  0.37781973  0.34794647  0.85050838  1
  S2-  S172  1  0.46559903  0.48912722  0.34376096  1
  S2-  S173  1  0.38085256  0.58995849  0.84429132  1
  S2-  S174  1  0.33107753  0.66404223  0.35266292  1
  S2-  S175  1  0.25116699  0.76162324  0.84587509  1
  S2-  S176  1  0.65186547  -0.08475361  0.35222062  1
  S2-  S177  1  0.60925931  -0.03695976  0.85233441  1
  S2-  S178  1  0.62747452  0.34293416  0.34806313  1
  S2-  S179  1  0.61514838  0.35157920  0.85864228  1
  S2-  S180  1  0.62216006  0.58305280  0.29456030  1
  S2-  S181  1  0.61482573  0.57253565  0.84480513  1
  S2-  S182  1  0.52075760  0.75113519  0.35027224  1
  S2-  S183  1  0.50342451  0.76368049  0.85302716  1
  S2-  S184  1  0.89475543  -0.07401238  0.35378756  1
  S2-  S185  1  0.84837500  -0.03711713  0.85738397  1
  S2-  S186  1  0.85334585  0.23239347  0.34733146  1
  S2-  S187  1  0.95041556  0.22991117  0.85900222  1
  S2-  S188  1  0.80031532  0.50856941  0.34928171  1
  S2-  S189  1  0.86232981  0.52324330  0.85347026  1
  S2-  S190  1  0.77790537  0.74200504  0.34429114  1
  S2-  S191  1  0.74300419  0.74431260  0.86328645  1
  S2-  S192  1  0.01286802  0.14248407  0.45354067  1
  S2-  S193  1  -0.01676134  0.10497361  0.96107556  1
  S2-  S194  1  0.00973896  0.39038323  0.45341431  1
  S2-  S195  1  -0.01289239  0.36446053  0.95248580  1
  S2-  S196  1  0.01002127  0.63512196  0.45432605  1
  S2-  S197  1  -0.01706562  0.61704584  0.95628002  1
  S2-  S198  1  0.00997991  0.89349115  0.46365460  1
  S2-  S199  1  -0.01434442  0.85913133  0.95343169  1
  S2-  S200  1  0.26067521  0.13883986  0.44807079  1
  S2-  S201  1  0.23778433  0.11050201  0.95147795  1
  S2-  S202  1  0.26263819  0.38814030  0.46910565  1
  S2-  S203  1  0.22715142  0.35530154  0.94820937  1
  S2-  S204  1  0.25323798  0.64180361  0.46243778  1
  S2-  S205  1  0.23528469  0.61033056  0.94963319  1
  S2-  S206  1  0.26296576  0.89061473  0.46506908  1
  S2-  S207  1  0.23802712  0.86691222  0.95009650  1
  S2-  S208  1  0.51203983  0.14256172  0.45130215  1
  S2-  S209  1  0.48728968  0.11370069  0.95405069  1
  S2-  S210  1  0.50892864  0.38965833  0.45424262  1
  S2-  S211  1  0.48384518  0.35833469  0.95902017  1
  S2-  S212  1  0.51135427  0.62698387  0.44887422  1
  S2-  S213  1  0.48845923  0.60580688  0.95669078  1
  S2-  S214  1  0.51532435  0.89485379  0.45753265  1
  S2-  S215  1  0.48883939  0.86584318  0.95809467  1
  S2-  S216  1  0.76056841  0.14472226  0.45326348  1
  S2-  S217  1  0.73574696  0.11180079  0.95036099  1
  S2-  S218  1  0.76134654  0.38506573  0.45081520  1
  S2-  S219  1  0.74386025  0.35884377  0.95828125  1
  S2-  S220  1  0.75784618  0.63494474  0.45161219  1
  S2-  S221  1  0.73674679  0.60739461  0.96350653  1
  S2-  S222  1  0.76381464  0.89470011  0.45899950  1
  S2-  S223  1  0.73215905  0.86637627  0.96836380  1
  S2-  S224  1  0.11097554  -0.02050657  0.04473088  1
  S2-  S225  1  0.13761808  0.01007824  0.55133297  1
  S2-  S226  1  0.10682439  0.23400406  0.03162538  1
  S2-  S227  1  0.13699066  0.26380457  0.54350339  1
  S2-  S228  1  0.10865089  0.48820147  0.03226993  1
  S2-  S229  1  0.13517912  0.51685102  0.55312157  1
  S2-  S230  1  0.11140601  0.74025973  0.03515379  1
  S2-  S231  1  0.13249552  0.76614895  0.54594174  1
  S2-  S232  1  0.36024570  -0.01076218  0.04027687  1
  S2-  S233  1  0.38513270  0.02011542  0.54487771  1
  S2-  S234  1  0.35401201  0.23650124  0.03665732  1
  S2-  S235  1  0.38170116  0.26224595  0.55297003  1
  S2-  S236  1  0.35174436  0.48219632  0.03432737  1
  S2-  S237  1  0.37692176  0.51244981  0.55279663  1
  S2-  S238  1  0.35863449  0.73405040  0.03348025  1
  S2-  S239  1  0.38771683  0.76218561  0.54146391  1
  S2-  S240  1  0.60556150  -0.00417007  0.05492334  1
  S2-  S241  1  0.64080306  0.01981066  0.54209217  1
  S2-  S242  1  0.61318460  0.23503629  0.04183358  1
  S2-  S243  1  0.63748630  0.26588705  0.54578300  1
  S2-  S244  1  0.61249781  0.48140901  0.04594393  1
  S2-  S245  1  0.63776977  0.50823786  0.54311259  1
  S2-  S246  1  0.60873908  0.73612813  0.04059401  1
  S2-  S247  1  0.63818485  0.76235051  0.53500004  1
  S2-  S248  1  0.86180349  -0.01534899  0.06149075  1
  S2-  S249  1  0.88621059  0.02001799  0.54772416  1
  S2-  S250  1  0.86594910  0.23559298  0.05229332  1
  S2-  S251  1  0.88841133  0.26474265  0.54779158  1
  S2-  S252  1  0.86661912  0.48495170  0.05516389  1
  S2-  S253  1  0.88662174  0.51497188  0.54570348  1
  S2-  S254  1  0.85959815  0.73486643  0.05297575  1
  S2-  S255  1  0.88417635  0.76080005  0.54005268  1
