# generated using pymatgen
data_La9Ce10Pr6Nd4Sm3(BiS2)32
_symmetry_space_group_name_H-M   'P 1'
_cell_length_a   16.18646632
_cell_length_b   16.20844346
_cell_length_c   27.09486221
_cell_angle_alpha   90.00686024
_cell_angle_beta   89.80376543
_cell_angle_gamma   89.95927730
_symmetry_Int_Tables_number   1
_chemical_formula_structural   La9Ce10Pr6Nd4Sm3(BiS2)32
_chemical_formula_sum   'La18 Ce20 Pr12 Nd8 Sm6 Bi64 S128'
_cell_volume   7108.49471636
_cell_formula_units_Z   2
loop_
 _symmetry_equiv_pos_site_id
 _symmetry_equiv_pos_as_xyz
  1  'x, y, z'
loop_
 _atom_type_symbol
 _atom_type_oxidation_number
  La3+  3.0
  Ce3+  3.0
  Pr3+  3.0
  Nd3+  3.0
  Sm3+  3.0
  Bi2+  2.0
  S2-  -2.0
loop_
 _atom_site_type_symbol
 _atom_site_label
 _atom_site_symmetry_multiplicity
 _atom_site_fract_x
 _atom_site_fract_y
 _atom_site_fract_z
 _atom_site_occupancy
  La3+  La0  1  0.49810550  0.36544169  0.07032246  1
  La3+  La1  1  0.50308351  0.87104608  0.10157400  1
  La3+  La2  1  0.38523871  0.75327783  0.90546101  1
  La3+  La3  1  0.61538162  0.24474092  0.42946750  1
  La3+  La4  1  0.25220871  0.86541832  0.57483716  1
  La3+  La5  1  0.25816546  0.62752380  0.05685867  1
  La3+  La6  1  0.88642158  0.25387748  0.91289740  1
  La3+  La7  1  0.89253452  -0.00938693  0.89547745  1
  La3+  La8  1  0.73733908  0.12372140  0.58837088  1
  La3+  La9  1  0.49100989  0.86180877  0.54853791  1
  La3+  La10  1  -0.00990723  0.61510870  0.57731936  1
  La3+  La11  1  0.86766885  0.22565298  0.40897680  1
  La3+  La12  1  0.48656359  0.36738876  0.56320536  1
  La3+  La13  1  0.11257117  0.48878399  0.44815704  1
  La3+  La14  1  0.35481735  -0.01564579  0.42031564  1
  La3+  La15  1  0.25663636  0.61361548  0.57950778  1
  La3+  La16  1  0.62398855  0.74542297  0.41524688  1
  La3+  La17  1  0.73761645  0.85705315  0.56913699  1
  Ce3+  Ce18  1  0.75166285  0.87649092  0.05299453  1
  Ce3+  Ce19  1  0.36362973  0.49210266  0.42852129  1
  Ce3+  Ce20  1  0.38208381  -0.00898479  0.94414258  1
  Ce3+  Ce21  1  0.11566766  -0.00957854  0.45400942  1
  Ce3+  Ce22  1  0.87841679  0.49859710  0.93426858  1
  Ce3+  Ce23  1  0.63288767  0.74928416  0.93621657  1
  Ce3+  Ce24  1  0.38380657  0.49932665  0.93716676  1
  Ce3+  Ce25  1  0.00202811  0.62114239  0.05496827  1
  Ce3+  Ce26  1  -0.00977361  0.36102992  0.56858628  1
  Ce3+  Ce27  1  0.87920463  0.74923660  0.94294430  1
  Ce3+  Ce28  1  0.25765504  0.12357260  0.05868655  1
  Ce3+  Ce29  1  0.00237505  0.37264776  0.05899314  1
  Ce3+  Ce30  1  0.13226209  0.50230853  0.94000597  1
  Ce3+  Ce31  1  0.86748863  0.74060815  0.44202176  1
  Ce3+  Ce32  1  0.24800675  0.11583984  0.56405978  1
  Ce3+  Ce33  1  0.75582480  0.12560650  0.04308807  1
  Ce3+  Ce34  1  0.62021505  0.48872465  0.43141091  1
  Ce3+  Ce35  1  0.86820212  -0.00574573  0.45296478  1
  Ce3+  Ce36  1  0.75207544  0.62473157  0.06342942  1
  Ce3+  Ce37  1  0.00465071  0.87407135  0.06678604  1
  Pr3+  Pr38  1  0.48765685  0.11440142  0.56125252  1
  Pr3+  Pr39  1  0.24485364  0.36362223  0.56239161  1
  Pr3+  Pr40  1  0.73368651  0.36276277  0.56319553  1
  Pr3+  Pr41  1  0.13213703  -0.00199414  0.94000948  1
  Pr3+  Pr42  1  0.34893923  0.73368581  0.42282873  1
  Pr3+  Pr43  1  0.25238076  0.87172858  0.06625635  1
  Pr3+  Pr44  1  0.62485769  0.24860385  0.91861750  1
  Pr3+  Pr45  1  0.50601442  0.62813828  0.06164290  1
  Pr3+  Pr46  1  0.00116788  0.12507979  0.05644441  1
  Pr3+  Pr47  1  0.36927138  0.23857109  0.42859196  1
  Pr3+  Pr48  1  0.86771019  0.48549859  0.44725747  1
  Pr3+  Pr49  1  0.13081925  0.24742468  0.93629043  1
  Nd3+  Nd50  1  0.73710504  0.61381623  0.55921770  1
  Nd3+  Nd51  1  -0.00762208  0.86721190  0.56995538  1
  Nd3+  Nd52  1  0.11670544  0.23767333  0.44631752  1
  Nd3+  Nd53  1  0.63025283  -0.00391025  0.93457328  1
  Nd3+  Nd54  1  0.12344198  0.75307910  0.93506598  1
  Nd3+  Nd55  1  0.37983305  0.24813156  0.93049040  1
  Nd3+  Nd56  1  0.62142018  -0.00199466  0.44360780  1
  Nd3+  Nd57  1  0.62785508  0.49857251  0.94292738  1
  Sm3+  Sm58  1  -0.00925244  0.11889036  0.57207298  1
  Sm3+  Sm59  1  0.75269965  0.36952069  0.05280573  1
  Sm3+  Sm60  1  0.25598193  0.37235527  0.05197861  1
  Sm3+  Sm61  1  0.11469813  0.73935671  0.45735934  1
  Sm3+  Sm62  1  0.50703784  0.12423794  0.05187118  1
  Sm3+  Sm63  1  0.49136202  0.61582550  0.54032061  1
  Bi2+  Bi64  1  0.04729848  0.12045038  0.29543328  1
  Bi2+  Bi65  1  0.02784919  0.13067383  0.77814147  1
  Bi2+  Bi66  1  -0.00532335  0.39258778  0.30212837  1
  Bi2+  Bi67  1  0.01398544  0.38985133  0.78618291  1
  Bi2+  Bi68  1  -0.01178246  0.71049651  0.30834121  1
  Bi2+  Bi69  1  -0.04865354  0.59515111  0.80160077  1
  Bi2+  Bi70  1  -0.02844173  0.90299853  0.29813017  1
  Bi2+  Bi71  1  0.04254263  0.85679486  0.79075250  1
  Bi2+  Bi72  1  0.25755259  0.19690473  0.30903441  1
  Bi2+  Bi73  1  0.24860244  0.20750152  0.82292887  1
  Bi2+  Bi74  1  0.22240975  0.38048689  0.27473645  1
  Bi2+  Bi75  1  0.26768585  0.38520120  0.77969611  1
  Bi2+  Bi76  1  0.18877722  0.61958619  0.29292198  1
  Bi2+  Bi77  1  0.22408309  0.61910104  0.79627530  1
  Bi2+  Bi78  1  0.19814711  0.88129108  0.29535956  1
  Bi2+  Bi79  1  0.26425543  1.01362955  0.80675286  1
  Bi2+  Bi80  1  0.59075435  0.12304144  0.29720966  1
  Bi2+  Bi81  1  0.42791175  0.14083759  0.78688469  1
  Bi2+  Bi82  1  0.41658179  0.35384753  0.30047152  1
  Bi2+  Bi83  1  0.46236006  0.39990047  0.78995234  1
  Bi2+  Bi84  1  0.44522456  0.54424664  0.28039039  1
  Bi2+  Bi85  1  0.55515867  0.64418446  0.76713813  1
  Bi2+  Bi86  1  0.49566185  0.90372697  0.30541595  1
  Bi2+  Bi87  1  0.51698894  0.90830617  0.78964247  1
  Bi2+  Bi88  1  0.83354511  0.13976675  0.27405123  1
  Bi2+  Bi89  1  0.73323072  0.11224517  0.79326588  1
  Bi2+  Bi90  1  0.73077342  0.42540511  0.27814723  1
  Bi2+  Bi91  1  0.72127956  0.44468176  0.79323538  1
  Bi2+  Bi92  1  0.66598911  0.60095983  0.31223104  1
  Bi2+  Bi93  1  0.77312232  0.63346985  0.84377231  1
  Bi2+  Bi94  1  0.77433923  0.87411443  0.28936808  1
  Bi2+  Bi95  1  0.69364397  0.80969910  0.80170850  1
  Bi2+  Bi96  1  0.11494111  -0.00106642  0.21268736  1
  Bi2+  Bi97  1  0.14142192  0.01173562  0.71439423  1
  Bi2+  Bi98  1  0.13685255  0.22834072  0.21442894  1
  Bi2+  Bi99  1  0.19984555  0.19536545  0.69475223  1
  Bi2+  Bi100  1  0.09437242  0.50965151  0.21054064  1
  Bi2+  Bi101  1  0.13412384  0.37572272  0.69358974  1
  Bi2+  Bi102  1  0.12082083  0.73986165  0.20978820  1
  Bi2+  Bi103  1  0.09496060  0.72309258  0.70355853  1
  Bi2+  Bi104  1  0.30258571  0.04086224  0.24422275  1
  Bi2+  Bi105  1  0.39145422  -0.00618751  0.71302246  1
  Bi2+  Bi106  1  0.39222909  0.25100560  0.20249871  1
  Bi2+  Bi107  1  0.38343373  0.26402219  0.69890909  1
  Bi2+  Bi108  1  0.30249809  0.51624463  0.20017882  1
  Bi2+  Bi109  1  0.48645021  0.50834177  0.69320713  1
  Bi2+  Bi110  1  0.37159065  0.76856371  0.21285662  1
  Bi2+  Bi111  1  0.34633434  0.74390496  0.70106862  1
  Bi2+  Bi112  1  0.74342963  0.01101331  0.20675814  1
  Bi2+  Bi113  1  0.63089120  0.01410940  0.70632067  1
  Bi2+  Bi114  1  0.64534606  0.26368743  0.18860105  1
  Bi2+  Bi115  1  0.62777240  0.27603874  0.71320394  1
  Bi2+  Bi116  1  0.59901030  0.52950418  0.21138433  1
  Bi2+  Bi117  1  0.68027578  0.56114100  0.69161732  1
  Bi2+  Bi118  1  0.62341074  0.76803151  0.21337319  1
  Bi2+  Bi119  1  0.58786051  0.80183941  0.69983757  1
  Bi2+  Bi120  1  0.92586481  -0.05449455  0.18573118  1
  Bi2+  Bi121  1  0.88148644  -0.03909561  0.71510318  1
  Bi2+  Bi122  1  0.88972473  0.27274890  0.19207530  1
  Bi2+  Bi123  1  0.85495524  0.35353845  0.72377396  1
  Bi2+  Bi124  1  0.85256653  0.58389116  0.26297994  1
  Bi2+  Bi125  1  0.87502304  0.54250450  0.69124521  1
  Bi2+  Bi126  1  0.88040615  0.76034983  0.21319975  1
  Bi2+  Bi127  1  0.83833954  0.71658198  0.74376974  1
  S2-  S128  1  -0.00009002  0.17408306  0.15487676  1
  S2-  S129  1  -0.00226518  0.07266731  0.66968578  1
  S2-  S130  1  -0.00680792  0.39531559  0.15787291  1
  S2-  S131  1  -0.01268465  0.30131179  0.66097859  1
  S2-  S132  1  0.01957977  0.63162650  0.15274608  1
  S2-  S133  1  0.03819985  0.57148922  0.67125286  1
  S2-  S134  1  0.12229117  0.86594307  0.14099752  1
  S2-  S135  1  -0.03234047  0.82114481  0.66570718  1
  S2-  S136  1  0.26794402  0.14683181  0.15678598  1
  S2-  S137  1  0.36366203  0.10655781  0.63739913  1
  S2-  S138  1  0.33346388  0.37066979  0.13962860  1
  S2-  S139  1  0.35934832  0.39541939  0.63833326  1
  S2-  S140  1  0.26568706  0.67116959  0.15549625  1
  S2-  S141  1  0.23454921  0.62066941  0.68415352  1
  S2-  S142  1  0.34340522  0.88704204  0.15351125  1
  S2-  S143  1  0.20443414  0.84111616  0.67480353  1
  S2-  S144  1  0.51098440  0.17381789  0.14681130  1
  S2-  S145  1  0.58444938  0.13979024  0.64966184  1
  S2-  S146  1  0.54216195  0.38525570  0.16819843  1
  S2-  S147  1  0.59589732  0.38546591  0.64479092  1
  S2-  S148  1  0.49248522  0.71184162  0.15347030  1
  S2-  S149  1  0.42351472  0.63166460  0.63193123  1
  S2-  S150  1  0.51654887  0.90533342  0.20957187  1
  S2-  S151  1  0.40520604  0.86959279  0.63731005  1
  S2-  S152  1  0.75309256  0.15020674  0.14161284  1
  S2-  S153  1  0.78722295  0.09221101  0.69130701  1
  S2-  S154  1  0.75949492  0.37454297  0.15216431  1
  S2-  S155  1  0.75569860  0.27556892  0.65171420  1
  S2-  S156  1  0.70794794  0.63874937  0.15783040  1
  S2-  S157  1  0.69417514  0.71656698  0.63596695  1
  S2-  S158  1  0.67672318  0.87518137  0.14188456  1
  S2-  S159  1  0.75185453  0.90890615  0.66621989  1
  S2-  S160  1  0.16919701  0.00262401  0.36101099  1
  S2-  S161  1  0.05307374  0.00276167  0.84848837  1
  S2-  S162  1  0.03190137  0.24911242  0.35927635  1
  S2-  S163  1  0.04445677  0.25650304  0.84766750  1
  S2-  S164  1  0.12974836  0.48018871  0.34763218  1
  S2-  S165  1  0.09763833  0.51967538  0.84321534  1
  S2-  S166  1  0.17002364  0.74458694  0.36413246  1
  S2-  S167  1  0.15885976  0.76405455  0.83665928  1
  S2-  S168  1  0.40507071  0.04734419  0.32449270  1
  S2-  S169  1  0.37467428  -0.09053381  0.85653930  1
  S2-  S170  1  0.49223580  0.22875236  0.35227340  1
  S2-  S171  1  0.48706100  0.26576898  0.85217251  1
  S2-  S172  1  0.33803227  0.60111113  0.35266401  1
  S2-  S173  1  0.34102240  0.51190184  0.84109289  1
  S2-  S174  1  0.35261574  0.85097485  0.34843248  1
  S2-  S175  1  0.34860505  0.71726375  0.80047757  1
  S2-  S176  1  0.64190831  -0.02191717  0.34334546  1
  S2-  S177  1  0.59681427  0.04033026  0.83877281  1
  S2-  S178  1  0.71120554  0.18285169  0.34920077  1
  S2-  S179  1  0.69125225  0.27076502  0.82134877  1
  S2-  S180  1  0.62850642  0.39052740  0.35287510  1
  S2-  S181  1  0.58130035  0.48903028  0.84612010  1
  S2-  S182  1  0.56109750  0.74044057  0.31647090  1
  S2-  S183  1  0.54058721  0.73867304  0.85272001  1
  S2-  S184  1  0.88769985  0.06215003  0.36174272  1
  S2-  S185  1  0.80020048  -0.04627208  0.80749621  1
  S2-  S186  1  0.85509226  0.31737625  0.31842858  1
  S2-  S187  1  0.88445159  0.13852756  0.83493139  1
  S2-  S188  1  0.91442009  0.51800018  0.35116931  1
  S2-  S189  1  0.87561160  0.40022653  0.85227563  1
  S2-  S190  1  0.77702091  0.75155119  0.35788442  1
  S2-  S191  1  0.93772298  0.81591878  0.85924230  1
  S2-  S192  1  -0.00521945  0.11560690  0.46641751  1
  S2-  S193  1  0.00374786  0.12233723  0.95066471  1
  S2-  S194  1  -0.00981339  0.36069510  0.46182692  1
  S2-  S195  1  0.00922488  0.37887486  0.95324286  1
  S2-  S196  1  -0.00932340  0.61698548  0.46537552  1
  S2-  S197  1  0.00310842  0.62367333  0.94933938  1
  S2-  S198  1  -0.00771085  0.86444822  0.46098928  1
  S2-  S199  1  0.00568963  0.87856672  0.96217609  1
  S2-  S200  1  0.24251143  0.11753303  0.45648552  1
  S2-  S201  1  0.25803725  0.12173627  0.95213934  1
  S2-  S202  1  0.24194496  0.36261565  0.45077894  1
  S2-  S203  1  0.25581098  0.37501143  0.94685616  1
  S2-  S204  1  0.23410106  0.61254173  0.46512364  1
  S2-  S205  1  0.25743822  0.63108764  0.94729030  1
  S2-  S206  1  0.23436075  0.86371299  0.46491269  1
  S2-  S207  1  0.25251102  0.86939082  0.95659196  1
  S2-  S208  1  0.48818910  0.10916538  0.45321686  1
  S2-  S209  1  0.50245719  0.12097870  0.94793985  1
  S2-  S210  1  0.48627135  0.37167652  0.45200454  1
  S2-  S211  1  0.50339241  0.37465448  0.95773304  1
  S2-  S212  1  0.49427621  0.61549861  0.43707867  1
  S2-  S213  1  0.50298452  0.62401794  0.95419455  1
  S2-  S214  1  0.49671417  0.86830005  0.44147852  1
  S2-  S215  1  0.50937346  0.87262189  0.95087120  1
  S2-  S216  1  0.74661493  0.11553808  0.46551630  1
  S2-  S217  1  0.75505037  0.12298655  0.93755179  1
  S2-  S218  1  0.75017450  0.35901662  0.45424848  1
  S2-  S219  1  0.74844482  0.37170033  0.94778642  1
  S2-  S220  1  0.74557972  0.61254310  0.45354100  1
  S2-  S221  1  0.75412753  0.62164224  0.95841438  1
  S2-  S222  1  0.74530357  0.87076365  0.45975596  1
  S2-  S223  1  0.75905915  0.87702638  0.94543018  1
  S2-  S224  1  0.13007088  0.00420153  0.04737049  1
  S2-  S225  1  0.11832268  -0.00938555  0.56038791  1
  S2-  S226  1  0.13195906  0.25035173  0.04511818  1
  S2-  S227  1  0.11911237  0.23799303  0.55321013  1
  S2-  S228  1  0.13337929  0.49707953  0.04849772  1
  S2-  S229  1  0.12013864  0.48890696  0.55751547  1
  S2-  S230  1  0.12539832  0.74388786  0.04243279  1
  S2-  S231  1  0.11952221  0.73838106  0.56176364  1
  S2-  S232  1  0.38602453  0.00052680  0.05061088  1
  S2-  S233  1  0.36515329  -0.01124153  0.53352449  1
  S2-  S234  1  0.37830390  0.24541198  0.03761637  1
  S2-  S235  1  0.36516576  0.24042607  0.53709789  1
  S2-  S236  1  0.38109154  0.49977938  0.04469164  1
  S2-  S237  1  0.36598487  0.49373974  0.53365050  1
  S2-  S238  1  0.38269549  0.75294541  0.04687840  1
  S2-  S239  1  0.36613363  0.73812115  0.53157275  1
  S2-  S240  1  0.62764141  0.00246835  0.04290389  1
  S2-  S241  1  0.61649264  -0.01171530  0.55185480  1
  S2-  S242  1  0.62890636  0.24866327  0.03445591  1
  S2-  S243  1  0.61076089  0.24144729  0.53985970  1
  S2-  S244  1  0.62865685  0.49587558  0.05069866  1
  S2-  S245  1  0.61415430  0.49417544  0.53852312  1
  S2-  S246  1  0.62986660  0.74919435  0.04302500  1
  S2-  S247  1  0.61228058  0.73676239  0.52751085  1
  S2-  S248  1  0.87750511  -0.00072845  0.05071856  1
  S2-  S249  1  0.86884368  -0.00760509  0.55985071  1
  S2-  S250  1  0.87917340  0.25228511  0.03522501  1
  S2-  S251  1  0.86992871  0.23696906  0.55485924  1
  S2-  S252  1  0.87472273  0.49663037  0.04492546  1
  S2-  S253  1  0.86295549  0.48800151  0.55534274  1
  S2-  S254  1  0.87783769  0.74913237  0.05132243  1
  S2-  S255  1  0.86778427  0.73820617  0.55082749  1
