# generated using pymatgen
data_La9Ce10Pr6Nd4Sm3(BiS2)32
_symmetry_space_group_name_H-M   'P 1'
_cell_length_a   16.18222746
_cell_length_b   16.15885920
_cell_length_c   27.12518229
_cell_angle_alpha   90.11268352
_cell_angle_beta   90.11370462
_cell_angle_gamma   90.03238922
_symmetry_Int_Tables_number   1
_chemical_formula_structural   La9Ce10Pr6Nd4Sm3(BiS2)32
_chemical_formula_sum   'La18 Ce20 Pr12 Nd8 Sm6 Bi64 S128'
_cell_volume   7092.83567185
_cell_formula_units_Z   2
loop_
 _symmetry_equiv_pos_site_id
 _symmetry_equiv_pos_as_xyz
  1  'x, y, z'
loop_
 _atom_type_symbol
 _atom_type_oxidation_number
  La3+  3.0
  Ce3+  3.0
  Pr3+  3.0
  Nd3+  3.0
  Sm3+  3.0
  Bi2+  2.0
  S2-  -2.0
loop_
 _atom_site_type_symbol
 _atom_site_label
 _atom_site_symmetry_multiplicity
 _atom_site_fract_x
 _atom_site_fract_y
 _atom_site_fract_z
 _atom_site_occupancy
  La3+  La0  1  0.51048007  0.13221679  0.09084962  1
  La3+  La1  1  0.87101036  0.01017220  0.42594026  1
  La3+  La2  1  0.24596512  0.12743455  0.56737725  1
  La3+  La3  1  0.49752162  0.12000630  0.57023348  1
  La3+  La4  1  0.37511192  0.74730324  0.92684046  1
  La3+  La5  1  0.74661699  0.38233317  0.59837416  1
  La3+  La6  1  0.88529672  0.50822288  0.92699081  1
  La3+  La7  1  0.74494310  0.12611347  0.57277200  1
  La3+  La8  1  0.24552093  0.88010157  0.07155952  1
  La3+  La9  1  0.12273254  0.25946062  0.43196551  1
  La3+  La10  1  0.37170787  -0.01050504  0.39042572  1
  La3+  La11  1  0.12193334  0.00379247  0.43308292  1
  La3+  La12  1  0.13337000  -0.00204400  0.93013697  1
  La3+  La13  1  0.01469952  0.61450136  0.07734340  1
  La3+  La14  1  0.76075245  0.61949878  0.09330253  1
  La3+  La15  1  0.24055007  0.87536160  0.60589245  1
  La3+  La16  1  0.49651458  0.85914237  0.07757301  1
  La3+  La17  1  0.87329129  0.74964968  0.42326686  1
  Ce3+  Ce18  1  0.49594555  0.62779226  0.54879017  1
  Ce3+  Ce19  1  0.87785524  0.74535763  0.94950265  1
  Ce3+  Ce20  1  -0.00958209  0.37869917  0.55889853  1
  Ce3+  Ce21  1  0.00413585  0.37498847  0.05452990  1
  Ce3+  Ce22  1  0.12830903  0.74380978  0.94113686  1
  Ce3+  Ce23  1  -0.00264053  0.87718785  0.55893600  1
  Ce3+  Ce24  1  0.00642795  0.87345008  0.05818431  1
  Ce3+  Ce25  1  0.87812517  -0.00165576  0.94708804  1
  Ce3+  Ce26  1  0.50080546  0.61948395  0.06142686  1
  Ce3+  Ce27  1  0.49390707  0.86745506  0.56399885  1
  Ce3+  Ce28  1  0.63308846  0.50081852  0.94769689  1
  Ce3+  Ce29  1  0.74750501  0.87503656  0.55121357  1
  Ce3+  Ce30  1  0.24780414  0.37401462  0.57037477  1
  Ce3+  Ce31  1  -0.00635942  0.62660230  0.55936451  1
  Ce3+  Ce32  1  0.50603916  0.37047324  0.04771986  1
  Ce3+  Ce33  1  0.25695979  0.62101153  0.06278253  1
  Ce3+  Ce34  1  -0.00238408  0.12685322  0.55558850  1
  Ce3+  Ce35  1  0.36895415  0.49297973  0.43626182  1
  Ce3+  Ce36  1  0.87709030  0.25402716  0.93267149  1
  Ce3+  Ce37  1  0.24709942  0.62817053  0.55905148  1
  Pr3+  Pr38  1  0.37958966  0.49743794  0.93068013  1
  Pr3+  Pr39  1  0.13351908  0.49415409  0.93588145  1
  Pr3+  Pr40  1  0.75267547  0.87623712  0.06920907  1
  Pr3+  Pr41  1  0.61881726  0.75710684  0.43010756  1
  Pr3+  Pr42  1  0.86615164  0.25556659  0.44218541  1
  Pr3+  Pr43  1  0.75639136  0.12695683  0.06561480  1
  Pr3+  Pr44  1  0.63029596  0.24342353  0.93005705  1
  Pr3+  Pr45  1  0.36921213  0.75438654  0.43685936  1
  Pr3+  Pr46  1  0.38491336  -0.00558162  0.94939525  1
  Pr3+  Pr47  1  0.26034800  0.37024542  0.06915429  1
  Pr3+  Pr48  1  0.75596714  0.37461383  0.05868065  1
  Pr3+  Pr49  1  0.62173697  0.50098847  0.43176788  1
  Nd3+  Nd50  1  0.38016914  0.24236912  0.93788993  1
  Nd3+  Nd51  1  0.61885501  0.24890632  0.44506519  1
  Nd3+  Nd52  1  0.86586223  0.50514905  0.42548307  1
  Nd3+  Nd53  1  0.61747530  0.00416264  0.43755277  1
  Nd3+  Nd54  1  0.62916712  -0.00485425  0.94501227  1
  Nd3+  Nd55  1  0.12551668  0.75581515  0.44268652  1
  Nd3+  Nd56  1  0.12136154  0.50171970  0.44915240  1
  Nd3+  Nd57  1  0.74608029  0.62621874  0.55672744  1
  Sm3+  Sm58  1  0.00458310  0.12531300  0.05395590  1
  Sm3+  Sm59  1  0.49892896  0.37780393  0.56219458  1
  Sm3+  Sm60  1  0.37149151  0.25056521  0.44031719  1
  Sm3+  Sm61  1  0.63165672  0.74578557  0.95066347  1
  Sm3+  Sm62  1  0.13215734  0.24611890  0.94212272  1
  Sm3+  Sm63  1  0.25443867  0.12904721  0.06972957  1
  Bi2+  Bi64  1  -0.01046436  0.11075707  0.28847552  1
  Bi2+  Bi65  1  -0.01926584  0.14980664  0.75912615  1
  Bi2+  Bi66  1  -0.01800358  0.38096536  0.30100794  1
  Bi2+  Bi67  1  -0.00461406  0.41453784  0.78252728  1
  Bi2+  Bi68  1  0.04403436  0.56717340  0.29008674  1
  Bi2+  Bi69  1  -0.00093956  0.67376033  0.80036492  1
  Bi2+  Bi70  1  0.01570757  0.84170189  0.29227247  1
  Bi2+  Bi71  1  -0.02812804  0.86345069  0.77187975  1
  Bi2+  Bi72  1  0.24243666  0.12707687  0.28516846  1
  Bi2+  Bi73  1  0.24105617  0.13853905  0.80664501  1
  Bi2+  Bi74  1  0.25380850  0.38442676  0.28490478  1
  Bi2+  Bi75  1  0.25165458  0.44400612  0.82492140  1
  Bi2+  Bi76  1  0.28883206  0.58034217  0.28217544  1
  Bi2+  Bi77  1  0.24172242  0.62576900  0.78851856  1
  Bi2+  Bi78  1  0.21888215  0.84901099  0.28509235  1
  Bi2+  Bi79  1  0.27141438  0.88765441  0.80081526  1
  Bi2+  Bi80  1  0.48522307  0.13467084  0.28203726  1
  Bi2+  Bi81  1  0.48170436  0.08979251  0.79553150  1
  Bi2+  Bi82  1  0.51840432  0.37835956  0.29468279  1
  Bi2+  Bi83  1  0.42982982  0.41237476  0.78429244  1
  Bi2+  Bi84  1  0.48673491  0.56625450  0.28262773  1
  Bi2+  Bi85  1  0.50735902  0.59660374  0.78634463  1
  Bi2+  Bi86  1  0.54325076  0.85079268  0.30260612  1
  Bi2+  Bi87  1  0.53251911  0.82722326  0.77211795  1
  Bi2+  Bi88  1  0.72746312  0.15898933  0.29806817  1
  Bi2+  Bi89  1  0.73915382  0.12239136  0.80903529  1
  Bi2+  Bi90  1  0.79099725  0.38831413  0.28350838  1
  Bi2+  Bi91  1  0.71409516  0.40326505  0.78754909  1
  Bi2+  Bi92  1  0.76747674  0.65161470  0.29634805  1
  Bi2+  Bi93  1  0.73239160  0.65384061  0.79718709  1
  Bi2+  Bi94  1  0.74433755  0.96661433  0.31671600  1
  Bi2+  Bi95  1  0.77475695  0.86770300  0.80042145  1
  Bi2+  Bi96  1  0.11508793  -0.02262086  0.21338598  1
  Bi2+  Bi97  1  0.10222562  0.01337826  0.71277871  1
  Bi2+  Bi98  1  0.01736341  0.25988799  0.21277522  1
  Bi2+  Bi99  1  0.12054359  0.28248950  0.72568305  1
  Bi2+  Bi100  1  0.17492195  0.47670713  0.19318914  1
  Bi2+  Bi101  1  0.16506367  0.47343815  0.71956024  1
  Bi2+  Bi102  1  0.04409038  0.71270225  0.20891304  1
  Bi2+  Bi103  1  0.10923910  0.74458044  0.71534830  1
  Bi2+  Bi104  1  0.38286647  -0.03073443  0.18874086  1
  Bi2+  Bi105  1  0.39029070  0.01433287  0.70215186  1
  Bi2+  Bi106  1  0.37137907  0.31079218  0.20170601  1
  Bi2+  Bi107  1  0.34526773  0.26892043  0.72087258  1
  Bi2+  Bi108  1  0.36553120  0.51356709  0.17330701  1
  Bi2+  Bi109  1  0.35512563  0.45414804  0.67626758  1
  Bi2+  Bi110  1  0.38715698  0.71036067  0.21916222  1
  Bi2+  Bi111  1  0.37701474  0.64309014  0.70059638  1
  Bi2+  Bi112  1  0.68102941  0.01872517  0.21728539  1
  Bi2+  Bi113  1  0.65033486  -0.03477077  0.71392195  1
  Bi2+  Bi114  1  0.63990914  0.28849132  0.21180331  1
  Bi2+  Bi115  1  0.60336957  0.22583782  0.70540905  1
  Bi2+  Bi116  1  0.62949572  0.48784516  0.21861120  1
  Bi2+  Bi117  1  0.62094590  0.50922988  0.70783994  1
  Bi2+  Bi118  1  0.62319302  0.79135125  0.20846325  1
  Bi2+  Bi119  1  0.64172956  0.71775217  0.69892050  1
  Bi2+  Bi120  1  0.87495729  0.10659783  0.18483488  1
  Bi2+  Bi121  1  0.84568671  0.01535204  0.72591537  1
  Bi2+  Bi122  1  0.83110681  0.29814282  0.17655671  1
  Bi2+  Bi123  1  0.85192458  0.30289443  0.73006256  1
  Bi2+  Bi124  1  0.90579906  0.50913282  0.21251383  1
  Bi2+  Bi125  1  0.89700130  0.53780480  0.71017975  1
  Bi2+  Bi126  1  0.92973292  0.91567851  0.19583199  1
  Bi2+  Bi127  1  0.84607727  0.74732203  0.71058423  1
  S2-  S128  1  0.04481883  0.12569053  0.15049243  1
  S2-  S129  1  0.00638513  0.12404522  0.65323406  1
  S2-  S130  1  0.02014516  0.45538385  0.14121545  1
  S2-  S131  1  -0.08606167  0.39178529  0.64676549  1
  S2-  S132  1  -0.09424655  0.65028481  0.15477802  1
  S2-  S133  1  0.00760525  0.63039306  0.65837048  1
  S2-  S134  1  0.09759402  0.85577558  0.14197105  1
  S2-  S135  1  0.07444589  0.87806761  0.64885679  1
  S2-  S136  1  0.23901706  0.01842494  0.14482681  1
  S2-  S137  1  0.23168802  0.03704089  0.65690284  1
  S2-  S138  1  0.25157628  0.25325962  0.14424184  1
  S2-  S139  1  0.22532774  0.25709541  0.64412103  1
  S2-  S140  1  0.15858858  0.63125060  0.14544423  1
  S2-  S141  1  0.23754845  0.70491093  0.64685957  1
  S2-  S142  1  0.33609833  0.81501461  0.14880162  1
  S2-  S143  1  0.31551194  0.87015771  0.70562896  1
  S2-  S144  1  0.43264937  0.13366355  0.18395954  1
  S2-  S145  1  0.44723492  0.17741811  0.66559124  1
  S2-  S146  1  0.51545255  0.31306697  0.13877383  1
  S2-  S147  1  0.58596406  0.36768572  0.64978622  1
  S2-  S148  1  0.50984342  0.70920494  0.14590697  1
  S2-  S149  1  0.50166343  0.70499677  0.63680429  1
  S2-  S150  1  0.54787302  0.93980955  0.16316986  1
  S2-  S151  1  0.51158319  0.91904093  0.65944699  1
  S2-  S152  1  0.65618296  0.14035475  0.14887657  1
  S2-  S153  1  0.62505960  0.09542419  0.64781712  1
  S2-  S154  1  0.76849759  0.46466656  0.14634682  1
  S2-  S155  1  0.75775877  0.23678470  0.65813723  1
  S2-  S156  1  0.70325871  0.64944679  0.19629639  1
  S2-  S157  1  0.75546089  0.54151671  0.64504845  1
  S2-  S158  1  0.77124124  0.85873632  0.16967863  1
  S2-  S159  1  0.74179899  0.84989670  0.64872963  1
  S2-  S160  1  0.20902350  -0.00361425  0.34381968  1
  S2-  S161  1  0.13721056  0.00102671  0.82825022  1
  S2-  S162  1  0.12580863  0.19992783  0.33604998  1
  S2-  S163  1  0.13570871  0.24087887  0.84283682  1
  S2-  S164  1  0.12850566  0.44116862  0.35535314  1
  S2-  S165  1  0.03440013  0.53241420  0.85549378  1
  S2-  S166  1  0.14329436  0.74396515  0.34205790  1
  S2-  S167  1  0.20892877  0.76159938  0.85483235  1
  S2-  S168  1  0.37271314  0.00762170  0.28132327  1
  S2-  S169  1  0.35057199  0.02070392  0.85088115  1
  S2-  S170  1  0.36626560  0.16086192  0.35441095  1
  S2-  S171  1  0.39100258  0.22250069  0.83805478  1
  S2-  S172  1  0.36639732  0.37509302  0.36351249  1
  S2-  S173  1  0.38376869  0.61631943  0.85539783  1
  S2-  S174  1  0.38145934  0.82008630  0.34274634  1
  S2-  S175  1  0.42017814  0.83329020  0.83949477  1
  S2-  S176  1  0.53698140  0.00929107  0.34866486  1
  S2-  S177  1  0.60089258  0.02022125  0.84509805  1
  S2-  S178  1  0.58794278  0.24253397  0.34507649  1
  S2-  S179  1  0.63720317  0.25435587  0.82726502  1
  S2-  S180  1  0.73297032  0.50684681  0.35185474  1
  S2-  S181  1  0.64246079  0.52627342  0.85127211  1
  S2-  S182  1  0.61332650  0.70703215  0.33248797  1
  S2-  S183  1  0.63825639  0.77777730  0.85225975  1
  S2-  S184  1  0.99394027  -0.01500128  0.35381715  1
  S2-  S185  1  0.84974269  -0.00683453  0.85144020  1
  S2-  S186  1  0.86836718  0.17004371  0.35293972  1
  S2-  S187  1  0.87364858  0.20397691  0.83879432  1
  S2-  S188  1  0.90845370  0.62033560  0.34961464  1
  S2-  S189  1  0.85325739  0.40787800  0.84550694  1
  S2-  S190  1  0.80894192  0.80540131  0.33149537  1
  S2-  S191  1  0.86086761  0.65544557  0.86397230  1
  S2-  S192  1  -0.00333059  0.13317276  0.45181309  1
  S2-  S193  1  0.00503296  0.12488484  0.94728726  1
  S2-  S194  1  -0.00988321  0.38179159  0.45178065  1
  S2-  S195  1  0.00855952  0.36875978  0.94810279  1
  S2-  S196  1  0.00189777  0.62749196  0.45425839  1
  S2-  S197  1  0.00761686  0.62639678  0.96516917  1
  S2-  S198  1  -0.00606393  0.87235919  0.45348129  1
  S2-  S199  1  0.00422460  0.87212851  0.94813731  1
  S2-  S200  1  0.24410441  0.13369467  0.45883896  1
  S2-  S201  1  0.25521084  0.12322327  0.95934123  1
  S2-  S202  1  0.24577566  0.37691726  0.46418529  1
  S2-  S203  1  0.25773256  0.36655825  0.95643293  1
  S2-  S204  1  0.24689831  0.62424758  0.44975786  1
  S2-  S205  1  0.25223026  0.61897616  0.95550723  1
  S2-  S206  1  0.24866394  0.87858646  0.44685471  1
  S2-  S207  1  0.25417137  0.87571229  0.95914192  1
  S2-  S208  1  0.49501245  0.12750618  0.46107289  1
  S2-  S209  1  0.50658781  0.12250956  0.95419267  1
  S2-  S210  1  0.49999608  0.37690438  0.45780679  1
  S2-  S211  1  0.50533437  0.37149635  0.94041042  1
  S2-  S212  1  0.49362041  0.62453916  0.44155887  1
  S2-  S213  1  0.50845740  0.62338655  0.95563592  1
  S2-  S214  1  0.49399845  0.87880327  0.45431527  1
  S2-  S215  1  0.50893758  0.86910365  0.96345646  1
  S2-  S216  1  0.74292928  0.12592452  0.45888346  1
  S2-  S217  1  0.75451374  0.12230708  0.95606811  1
  S2-  S218  1  0.74236123  0.37545545  0.44773210  1
  S2-  S219  1  0.75085979  0.37249187  0.95167653  1
  S2-  S220  1  0.74292235  0.63160948  0.45114522  1
  S2-  S221  1  0.75244498  0.62455923  0.96715635  1
  S2-  S222  1  0.74690032  0.87952029  0.44722562  1
  S2-  S223  1  0.75400695  0.87194953  0.96048629  1
  S2-  S224  1  0.12429110  0.00503083  0.03892663  1
  S2-  S225  1  0.11950895  0.00007247  0.54394547  1
  S2-  S226  1  0.12744497  0.24855163  0.04591427  1
  S2-  S227  1  0.11361145  0.25698849  0.54233498  1
  S2-  S228  1  0.13894262  0.49036701  0.04121248  1
  S2-  S229  1  0.12111054  0.50091152  0.55631963  1
  S2-  S230  1  0.13213330  0.74623316  0.04312612  1
  S2-  S231  1  0.12073123  0.75156852  0.54686600  1
  S2-  S232  1  0.38620942  0.00434695  0.05546139  1
  S2-  S233  1  0.36926586  -0.00747990  0.56417145  1
  S2-  S234  1  0.38353533  0.24416172  0.04381492  1
  S2-  S235  1  0.37623699  0.25757113  0.54859593  1
  S2-  S236  1  0.38107102  0.49370984  0.03901635  1
  S2-  S237  1  0.37328349  0.50220378  0.54394108  1
  S2-  S238  1  0.37700510  0.73933391  0.03836039  1
  S2-  S239  1  0.36631605  0.75183287  0.54378514  1
  S2-  S240  1  0.62896412  0.00036280  0.05042340  1
  S2-  S241  1  0.62166734  -0.00667351  0.54274771  1
  S2-  S242  1  0.63216388  0.24885157  0.03838013  1
  S2-  S243  1  0.62387607  0.25598521  0.54908083  1
  S2-  S244  1  0.62739723  0.49878062  0.05408462  1
  S2-  S245  1  0.62054461  0.50281086  0.54114759  1
  S2-  S246  1  0.63700347  0.74357982  0.05507206  1
  S2-  S247  1  0.62387528  0.75045318  0.53727782  1
  S2-  S248  1  0.88168613  -0.00009415  0.05256926  1
  S2-  S249  1  0.87150923  0.00194044  0.54572975  1
  S2-  S250  1  0.88218798  0.24832583  0.04182572  1
  S2-  S251  1  0.86929990  0.25227520  0.54775905  1
  S2-  S252  1  0.88164884  0.49838670  0.04052673  1
  S2-  S253  1  0.86971784  0.50419244  0.53625392  1
  S2-  S254  1  0.88043862  0.75328515  0.05356790  1
  S2-  S255  1  0.87178396  0.75026746  0.54237421  1
