# generated using pymatgen
data_La9Ce10Pr6Nd4Sm3(BiS2)32
_symmetry_space_group_name_H-M   'P 1'
_cell_length_a   16.16034831
_cell_length_b   16.18691613
_cell_length_c   27.13666658
_cell_angle_alpha   89.94999242
_cell_angle_beta   89.78761728
_cell_angle_gamma   90.14590442
_symmetry_Int_Tables_number   1
_chemical_formula_structural   La9Ce10Pr6Nd4Sm3(BiS2)32
_chemical_formula_sum   'La18 Ce20 Pr12 Nd8 Sm6 Bi64 S128'
_cell_volume   7098.50302076
_cell_formula_units_Z   2
loop_
 _symmetry_equiv_pos_site_id
 _symmetry_equiv_pos_as_xyz
  1  'x, y, z'
loop_
 _atom_type_symbol
 _atom_type_oxidation_number
  La3+  3.0
  Ce3+  3.0
  Pr3+  3.0
  Nd3+  3.0
  Sm3+  3.0
  Bi2+  2.0
  S2-  -2.0
loop_
 _atom_site_type_symbol
 _atom_site_label
 _atom_site_symmetry_multiplicity
 _atom_site_fract_x
 _atom_site_fract_y
 _atom_site_fract_z
 _atom_site_occupancy
  La3+  La0  1  0.52034810  0.62582790  0.57143073  1
  La3+  La1  1  0.52230428  0.61218474  0.06369423  1
  La3+  La2  1  0.77022529  0.85672151  0.07888490  1
  La3+  La3  1  0.26992211  0.36133969  0.06229908  1
  La3+  La4  1  0.39967301  -0.00312057  0.40933897  1
  La3+  La5  1  0.40078685  0.23230284  0.92637913  1
  La3+  La6  1  0.76745351  0.11595598  0.06339614  1
  La3+  La7  1  0.02254131  0.61177438  0.06308351  1
  La3+  La8  1  0.27939670  0.86531044  0.07542556  1
  La3+  La9  1  0.02170363  0.86542544  0.07370113  1
  La3+  La10  1  0.39626087  0.25399656  0.43629635  1
  La3+  La11  1  0.76927644  0.87314665  0.59920434  1
  La3+  La12  1  0.02972336  0.12105917  0.07144859  1
  La3+  La13  1  0.52140545  0.12719089  0.56888742  1
  La3+  La14  1  0.26335470  0.36764014  0.60563431  1
  La3+  La15  1  0.15161341  0.23576765  0.92395111  1
  La3+  La16  1  0.64379657  0.50648136  0.42320120  1
  La3+  La17  1  0.00473803  0.36581960  0.10779359  1
  Ce3+  Ce18  1  0.63712002  0.25026485  0.43436927  1
  Ce3+  Ce19  1  0.38969956  0.50292655  0.44209515  1
  Ce3+  Ce20  1  0.51715395  0.35971859  0.05861596  1
  Ce3+  Ce21  1  0.52583793  0.37725133  0.56526656  1
  Ce3+  Ce22  1  0.77122445  0.61189590  0.05337057  1
  Ce3+  Ce23  1  0.90016807  0.23766477  0.94033745  1
  Ce3+  Ce24  1  0.14256613  0.00191180  0.43790455  1
  Ce3+  Ce25  1  0.89254995  0.25539800  0.42959553  1
  Ce3+  Ce26  1  0.88769029  0.00073331  0.43913054  1
  Ce3+  Ce27  1  0.51775600  0.88056098  0.56069270  1
  Ce3+  Ce28  1  0.65098492  0.74308722  0.93693057  1
  Ce3+  Ce29  1  0.89935156  0.73936840  0.94179318  1
  Ce3+  Ce30  1  0.89838484  0.50386778  0.42948831  1
  Ce3+  Ce31  1  0.02192450  0.62403804  0.55686701  1
  Ce3+  Ce32  1  0.90008959  0.48507135  0.94249602  1
  Ce3+  Ce33  1  0.64723077  0.48718511  0.93473376  1
  Ce3+  Ce34  1  0.76861404  0.37829581  0.54830936  1
  Ce3+  Ce35  1  0.89568751  -0.01191981  0.94687423  1
  Ce3+  Ce36  1  0.14410160  0.75292764  0.44648048  1
  Ce3+  Ce37  1  0.01544773  0.87935249  0.55914436  1
  Pr3+  Pr38  1  0.64395995  0.23019806  0.92230989  1
  Pr3+  Pr39  1  0.77246332  0.62513640  0.56467334  1
  Pr3+  Pr40  1  0.27423263  0.11537916  0.06532139  1
  Pr3+  Pr41  1  0.27063994  0.61053777  0.05800391  1
  Pr3+  Pr42  1  0.64961758  -0.00096424  0.43841626  1
  Pr3+  Pr43  1  0.76866572  0.12949659  0.56259430  1
  Pr3+  Pr44  1  0.76562441  0.36071765  0.05514081  1
  Pr3+  Pr45  1  0.27456569  0.62337751  0.57039424  1
  Pr3+  Pr46  1  0.01949125  0.13011431  0.54673664  1
  Pr3+  Pr47  1  0.14525269  0.50204463  0.43234338  1
  Pr3+  Pr48  1  0.40184705  0.48934457  0.92535794  1
  Pr3+  Pr49  1  0.39518525  0.75153098  0.43966199  1
  Nd3+  Nd50  1  0.39896179  -0.01372900  0.93584574  1
  Nd3+  Nd51  1  0.64572948  0.75372777  0.44746091  1
  Nd3+  Nd52  1  0.39814340  0.73964509  0.94358597  1
  Nd3+  Nd53  1  0.27036199  0.87991809  0.55863470  1
  Nd3+  Nd54  1  0.14793231  -0.01369814  0.94418635  1
  Nd3+  Nd55  1  0.02250766  0.37558409  0.55409922  1
  Nd3+  Nd56  1  0.52124573  0.11298317  0.06289469  1
  Nd3+  Nd57  1  0.27114594  0.13053873  0.55260257  1
  Sm3+  Sm58  1  0.52543734  0.86645010  0.06402448  1
  Sm3+  Sm59  1  0.89140147  0.75296951  0.44466870  1
  Sm3+  Sm60  1  0.65718285  -0.01800785  0.93061669  1
  Sm3+  Sm61  1  0.14789301  0.74005273  0.94850128  1
  Sm3+  Sm62  1  0.15305460  0.25311375  0.42590037  1
  Sm3+  Sm63  1  0.14764617  0.48719755  0.94074280  1
  Bi2+  Bi64  1  -0.06947709  0.07406651  0.26788302  1
  Bi2+  Bi65  1  -0.02157722  0.09085738  0.78289531  1
  Bi2+  Bi66  1  -0.09152143  0.42964097  0.29193703  1
  Bi2+  Bi67  1  -0.09295557  0.35822842  0.77355816  1
  Bi2+  Bi68  1  0.04014924  0.65313041  0.29614739  1
  Bi2+  Bi69  1  -0.04931587  0.63292036  0.79739771  1
  Bi2+  Bi70  1  0.00395737  0.89725260  0.28888003  1
  Bi2+  Bi71  1  0.00323779  0.91058602  0.74629455  1
  Bi2+  Bi72  1  0.20367327  0.12648915  0.29926492  1
  Bi2+  Bi73  1  0.22917669  0.14445439  0.79664647  1
  Bi2+  Bi74  1  0.20883615  0.37203007  0.30299937  1
  Bi2+  Bi75  1  0.20476848  0.39258121  0.80033152  1
  Bi2+  Bi76  1  0.28045703  0.59580543  0.27426732  1
  Bi2+  Bi77  1  0.24413657  0.64709198  0.81408723  1
  Bi2+  Bi78  1  0.19231466  0.79999880  0.25379045  1
  Bi2+  Bi79  1  0.20894984  0.90260251  0.81531332  1
  Bi2+  Bi80  1  0.50379159  0.12993792  0.28513980  1
  Bi2+  Bi81  1  0.50195229  0.12866562  0.78854546  1
  Bi2+  Bi82  1  0.54567460  0.40210834  0.29991928  1
  Bi2+  Bi83  1  0.53871436  0.36184193  0.76082168  1
  Bi2+  Bi84  1  0.44222351  0.68713687  0.31129348  1
  Bi2+  Bi85  1  0.55772253  0.62787068  0.79822904  1
  Bi2+  Bi86  1  0.52754657  0.86650983  0.29179702  1
  Bi2+  Bi87  1  0.50551547  0.82373197  0.78545963  1
  Bi2+  Bi88  1  0.73437991  0.10038810  0.28741622  1
  Bi2+  Bi89  1  0.76671472  0.10686076  0.79214390  1
  Bi2+  Bi90  1  0.71093977  0.29997563  0.28152032  1
  Bi2+  Bi91  1  0.71708750  0.38108308  0.80435352  1
  Bi2+  Bi92  1  0.67004249  0.58224312  0.29181405  1
  Bi2+  Bi93  1  0.75036291  0.59036522  0.79825638  1
  Bi2+  Bi94  1  0.78747792  0.84135432  0.29804437  1
  Bi2+  Bi95  1  0.76282773  0.86024480  0.79190230  1
  Bi2+  Bi96  1  0.07162411  0.00670842  0.20048001  1
  Bi2+  Bi97  1  0.18327466  -0.02020873  0.70806209  1
  Bi2+  Bi98  1  0.10064353  0.24595628  0.21427071  1
  Bi2+  Bi99  1  0.10570687  0.23050596  0.70271608  1
  Bi2+  Bi100  1  0.13929852  0.50977196  0.19782857  1
  Bi2+  Bi101  1  0.13150284  0.58992116  0.72577730  1
  Bi2+  Bi102  1  0.02446900  0.76274477  0.19893404  1
  Bi2+  Bi103  1  0.15186752  0.78094724  0.71249153  1
  Bi2+  Bi104  1  0.34621974  -0.00782981  0.20599164  1
  Bi2+  Bi105  1  0.36672594  -0.04694172  0.75425386  1
  Bi2+  Bi106  1  0.42307631  0.24734250  0.20946320  1
  Bi2+  Bi107  1  0.39012705  0.21341558  0.70500839  1
  Bi2+  Bi108  1  0.37998219  0.43526632  0.23658709  1
  Bi2+  Bi109  1  0.36917957  0.50989993  0.72115151  1
  Bi2+  Bi110  1  0.36652349  0.74141334  0.20894420  1
  Bi2+  Bi111  1  0.34922746  0.75830021  0.71577475  1
  Bi2+  Bi112  1  0.60194393  0.00934719  0.21514978  1
  Bi2+  Bi113  1  0.59960873  -0.00148945  0.70192860  1
  Bi2+  Bi114  1  0.60704485  0.30933823  0.17865064  1
  Bi2+  Bi115  1  0.67996962  0.24254703  0.72016422  1
  Bi2+  Bi116  1  0.55111844  0.50893939  0.18972986  1
  Bi2+  Bi117  1  0.66521758  0.51331550  0.70124554  1
  Bi2+  Bi118  1  0.64189044  0.74764750  0.21111177  1
  Bi2+  Bi119  1  0.62162805  0.70600796  0.70289485  1
  Bi2+  Bi120  1  0.79989902  -0.03336377  0.20519209  1
  Bi2+  Bi121  1  0.86853305  0.13653941  0.69006039  1
  Bi2+  Bi122  1  0.78249891  0.21774767  0.18436976  1
  Bi2+  Bi123  1  0.86744160  0.32650638  0.66395408  1
  Bi2+  Bi124  1  0.74509258  0.49187303  0.19736009  1
  Bi2+  Bi125  1  0.86798936  0.51378533  0.70066918  1
  Bi2+  Bi126  1  0.82140394  0.66428629  0.23537660  1
  Bi2+  Bi127  1  0.91944807  0.74179657  0.70648751  1
  S2-  S128  1  -0.02336038  0.21058969  0.15616065  1
  S2-  S129  1  0.02804347  0.12151864  0.64805864  1
  S2-  S130  1  0.00997627  0.40072322  0.21744846  1
  S2-  S131  1  0.09600772  0.35845410  0.64474882  1
  S2-  S132  1  0.00590547  0.59289241  0.16309764  1
  S2-  S133  1  0.00488106  0.60029462  0.65408206  1
  S2-  S134  1  -0.09627393  0.86377125  0.14968155  1
  S2-  S135  1  -0.06390830  0.88344425  0.64623371  1
  S2-  S136  1  0.16397805  0.12757623  0.14829693  1
  S2-  S137  1  0.25022546  0.19611048  0.64492537  1
  S2-  S138  1  0.17121245  0.36297914  0.14974015  1
  S2-  S139  1  0.29231936  0.36576845  0.71340471  1
  S2-  S140  1  0.26111106  0.62523058  0.15819143  1
  S2-  S141  1  0.24139676  0.52851130  0.65299259  1
  S2-  S142  1  0.20028818  0.90770705  0.16533415  1
  S2-  S143  1  0.32169226  0.89674003  0.65397077  1
  S2-  S144  1  0.39682027  0.10556511  0.14312028  1
  S2-  S145  1  0.45364329  0.08512605  0.66199857  1
  S2-  S146  1  0.39806372  0.36896209  0.13507006  1
  S2-  S147  1  0.47780278  0.34873022  0.65883065  1
  S2-  S148  1  0.51081968  0.67239008  0.15942986  1
  S2-  S149  1  0.42225684  0.63108812  0.65587713  1
  S2-  S150  1  0.41378961  0.88214039  0.14668338  1
  S2-  S151  1  0.56585721  0.85787772  0.65420025  1
  S2-  S152  1  0.64364764  0.11684383  0.13930378  1
  S2-  S153  1  0.65478335  0.13629805  0.64215595  1
  S2-  S154  1  0.83698460  0.37366775  0.14844643  1
  S2-  S155  1  0.69329296  0.37593533  0.63633403  1
  S2-  S156  1  0.76181087  0.69255780  0.14027012  1
  S2-  S157  1  0.77328397  0.71986819  0.65228488  1
  S2-  S158  1  0.63240218  0.87568959  0.14380505  1
  S2-  S159  1  0.74722276  0.93931719  0.69759239  1
  S2-  S160  1  0.13535109  -0.01152810  0.33925132  1
  S2-  S161  1  0.12241681  0.05624034  0.85197516  1
  S2-  S162  1  0.08971657  0.25786986  0.33007573  1
  S2-  S163  1  0.10486101  0.26309507  0.81998604  1
  S2-  S164  1  0.02717662  0.50814477  0.35131675  1
  S2-  S165  1  0.12871255  0.52781119  0.84422252  1
  S2-  S166  1  0.16127963  0.73253019  0.34895696  1
  S2-  S167  1  0.13045650  0.76419447  0.85180511  1
  S2-  S168  1  0.34451286  0.04693029  0.31012449  1
  S2-  S169  1  0.38395623  0.08198385  0.85171418  1
  S2-  S170  1  0.29008501  0.25635692  0.35132153  1
  S2-  S171  1  0.28884483  0.27183467  0.85028415  1
  S2-  S172  1  0.27638593  0.50110282  0.36247476  1
  S2-  S173  1  0.33804530  0.49896619  0.82733920  1
  S2-  S174  1  0.38982224  0.84324968  0.35215042  1
  S2-  S175  1  0.38973660  0.74139620  0.84365103  1
  S2-  S176  1  0.54918731  0.00297219  0.35436248  1
  S2-  S177  1  0.63226242  0.09043314  0.85342492  1
  S2-  S178  1  0.52208345  0.24772315  0.35803094  1
  S2-  S179  1  0.51841679  0.26544971  0.84848358  1
  S2-  S180  1  0.49856673  0.52577323  0.36234342  1
  S2-  S181  1  0.54146092  0.49380734  0.85780735  1
  S2-  S182  1  0.65085689  0.77884134  0.34792783  1
  S2-  S183  1  0.64201417  0.85082061  0.85760273  1
  S2-  S184  1  0.77809888  -0.01654324  0.36282127  1
  S2-  S185  1  0.81359308  -0.02259314  0.85909026  1
  S2-  S186  1  0.86784443  0.27790315  0.33266195  1
  S2-  S187  1  0.89027760  0.20377376  0.84292738  1
  S2-  S188  1  0.78655307  0.51247338  0.35352325  1
  S2-  S189  1  0.91116746  0.47957917  0.84422753  1
  S2-  S190  1  0.90735453  0.73682567  0.34612726  1
  S2-  S191  1  0.88254180  0.77143950  0.84532227  1
  S2-  S192  1  0.01674450  0.12774316  0.43949398  1
  S2-  S193  1  0.02152707  0.11242780  0.95834832  1
  S2-  S194  1  0.02046756  0.37149566  0.44717139  1
  S2-  S195  1  0.02607754  0.36406145  0.94095514  1
  S2-  S196  1  0.01846857  0.63172114  0.45335823  1
  S2-  S197  1  0.02494705  0.61463788  0.95413361  1
  S2-  S198  1  0.01566067  0.87662475  0.45153571  1
  S2-  S199  1  0.02354871  0.86351156  0.96015744  1
  S2-  S200  1  0.27103190  0.11968505  0.44650338  1
  S2-  S201  1  0.27075648  0.10932659  0.95687189  1
  S2-  S202  1  0.26734703  0.37485203  0.45419506  1
  S2-  S203  1  0.27399322  0.37065282  0.95244028  1
  S2-  S204  1  0.26906744  0.63180794  0.46181371  1
  S2-  S205  1  0.27082669  0.61505967  0.95141969  1
  S2-  S206  1  0.26812437  0.87974060  0.45227823  1
  S2-  S207  1  0.27298228  0.86257835  0.95905398  1
  S2-  S208  1  0.51828929  0.12156467  0.45904306  1
  S2-  S209  1  0.52440119  0.10518281  0.95599182  1
  S2-  S210  1  0.52057395  0.38112930  0.45802389  1
  S2-  S211  1  0.52469839  0.36358594  0.95483563  1
  S2-  S212  1  0.52034559  0.63183532  0.46315651  1
  S2-  S213  1  0.52462812  0.62012128  0.95397672  1
  S2-  S214  1  0.52056644  0.87601682  0.45639333  1
  S2-  S215  1  0.52075925  0.86384484  0.95657801  1
  S2-  S216  1  0.76848870  0.13259643  0.45342533  1
  S2-  S217  1  0.77334836  0.11410854  0.95592060  1
  S2-  S218  1  0.76420896  0.37515676  0.44427292  1
  S2-  S219  1  0.77101852  0.36070742  0.94635908  1
  S2-  S220  1  0.77011858  0.63024378  0.45656739  1
  S2-  S221  1  0.77348632  0.61313178  0.94709598  1
  S2-  S222  1  0.77269698  0.87176756  0.46390979  1
  S2-  S223  1  0.77677107  0.85994372  0.96485659  1
  S2-  S224  1  0.14881786  -0.01373528  0.04851287  1
  S2-  S225  1  0.14467482  0.00322925  0.54648958  1
  S2-  S226  1  0.14607096  0.24150629  0.03919694  1
  S2-  S227  1  0.14538920  0.25118326  0.53398807  1
  S2-  S228  1  0.14264451  0.48668922  0.04609773  1
  S2-  S229  1  0.14401989  0.50140897  0.54174188  1
  S2-  S230  1  0.14871614  0.74089462  0.05437159  1
  S2-  S231  1  0.14476421  0.75350332  0.55488714  1
  S2-  S232  1  0.39945665  -0.01304571  0.04032196  1
  S2-  S233  1  0.39238484  0.00302556  0.54346754  1
  S2-  S234  1  0.39902189  0.23538805  0.03670381  1
  S2-  S235  1  0.39358162  0.25494499  0.54735795  1
  S2-  S236  1  0.39766360  0.49315261  0.03655344  1
  S2-  S237  1  0.39418360  0.49595433  0.55106900  1
  S2-  S238  1  0.39732013  0.73747152  0.04878102  1
  S2-  S239  1  0.39389367  0.75457877  0.54865428  1
  S2-  S240  1  0.64795233  -0.01380101  0.03818012  1
  S2-  S241  1  0.65048749  -0.00492224  0.54859860  1
  S2-  S242  1  0.64215773  0.23910623  0.03410929  1
  S2-  S243  1  0.64426863  0.25323597  0.53808771  1
  S2-  S244  1  0.64563649  0.48745948  0.04412332  1
  S2-  S245  1  0.64588312  0.50614851  0.54035594  1
  S2-  S246  1  0.64433703  0.73792539  0.04139660  1
  S2-  S247  1  0.64606818  0.75182919  0.55227388  1
  S2-  S248  1  0.89795948  -0.00425359  0.05298067  1
  S2-  S249  1  0.89148143  0.00463324  0.54554754  1
  S2-  S250  1  0.89668338  0.24326030  0.04443193  1
  S2-  S251  1  0.89346706  0.25286369  0.53734137  1
  S2-  S252  1  0.89679417  0.48579725  0.04850773  1
  S2-  S253  1  0.89604134  0.50063910  0.54159780  1
  S2-  S254  1  0.89942380  0.73532657  0.04651904  1
  S2-  S255  1  0.89691098  0.75033694  0.54881809  1
