# generated using pymatgen
data_La9Ce10Pr6Nd4Sm3(BiS2)32
_symmetry_space_group_name_H-M   'P 1'
_cell_length_a   16.14817852
_cell_length_b   16.19979154
_cell_length_c   27.20895866
_cell_angle_alpha   89.86918511
_cell_angle_beta   89.47340761
_cell_angle_gamma   90.11371058
_symmetry_Int_Tables_number   1
_chemical_formula_structural   La9Ce10Pr6Nd4Sm3(BiS2)32
_chemical_formula_sum   'La18 Ce20 Pr12 Nd8 Sm6 Bi64 S128'
_cell_volume   7117.45189507
_cell_formula_units_Z   2
loop_
 _symmetry_equiv_pos_site_id
 _symmetry_equiv_pos_as_xyz
  1  'x, y, z'
loop_
 _atom_type_symbol
 _atom_type_oxidation_number
  La3+  3.0
  Ce3+  3.0
  Pr3+  3.0
  Nd3+  3.0
  Sm3+  3.0
  Bi2+  2.0
  S2-  -2.0
loop_
 _atom_site_type_symbol
 _atom_site_label
 _atom_site_symmetry_multiplicity
 _atom_site_fract_x
 _atom_site_fract_y
 _atom_site_fract_z
 _atom_site_occupancy
  La3+  La0  1  0.36556298  0.51145835  0.39076792  1
  La3+  La1  1  0.61792695  0.75075082  0.43597803  1
  La3+  La2  1  0.63570422  0.00103316  0.92809251  1
  La3+  La3  1  -0.00799484  0.37459857  0.55890576  1
  La3+  La4  1  0.49775973  0.13538478  0.06346028  1
  La3+  La5  1  0.12182126  0.00802323  0.42142789  1
  La3+  La6  1  0.48362539  0.11937869  0.59723724  1
  La3+  La7  1  0.48037745  0.38325057  0.58430375  1
  La3+  La8  1  0.00678344  0.62762384  0.08193882  1
  La3+  La9  1  0.37138692  0.51562823  0.90597414  1
  La3+  La10  1  0.49339229  0.62916075  0.56745183  1
  La3+  La11  1  0.61741013  0.49653827  0.43984802  1
  La3+  La12  1  0.75279372  0.62605010  0.56917921  1
  La3+  La13  1  0.36886010  0.00972773  0.43583790  1
  La3+  La14  1  0.87058169  0.00158374  0.41799043  1
  La3+  La15  1  0.74339434  0.89542891  0.08802406  1
  La3+  La16  1  0.88795516  0.25685753  0.93454787  1
  La3+  La17  1  0.12527921  0.76093570  0.93947955  1
  Ce3+  Ce18  1  0.74271271  0.12452417  0.56134574  1
  Ce3+  Ce19  1  0.24626377  0.37604064  0.55277819  1
  Ce3+  Ce20  1  0.63330053  0.75604631  0.94841398  1
  Ce3+  Ce21  1  0.50248769  0.62833184  0.05455606  1
  Ce3+  Ce22  1  0.13225843  0.00272364  0.93154101  1
  Ce3+  Ce23  1  0.36791419  0.74954957  0.44304643  1
  Ce3+  Ce24  1  0.23761826  0.88000350  0.55529628  1
  Ce3+  Ce25  1  0.49024449  0.87892604  0.55711111  1
  Ce3+  Ce26  1  0.88711223  0.50897826  0.95104276  1
  Ce3+  Ce27  1  0.63320371  0.50413937  0.93598822  1
  Ce3+  Ce28  1  0.38080993  0.75315323  0.93976898  1
  Ce3+  Ce29  1  -0.00576187  0.12329007  0.55522319  1
  Ce3+  Ce30  1  0.74324866  0.87776195  0.55721228  1
  Ce3+  Ce31  1  0.86407425  0.50010972  0.43149617  1
  Ce3+  Ce32  1  -0.00846967  0.62757493  0.54920546  1
  Ce3+  Ce33  1  0.87646147  0.00316633  0.94375697  1
  Ce3+  Ce34  1  0.75275253  0.37915226  0.05761387  1
  Ce3+  Ce35  1  0.00440597  0.89609977  0.07683936  1
  Ce3+  Ce36  1  0.12132814  0.25018900  0.43801180  1
  Ce3+  Ce37  1  0.11967287  0.50077891  0.43490199  1
  Pr3+  Pr38  1  0.23534755  0.11870695  0.57706724  1
  Pr3+  Pr39  1  0.75248504  0.63066345  0.06561915  1
  Pr3+  Pr40  1  0.74391305  0.37144146  0.56817933  1
  Pr3+  Pr41  1  0.61593434  0.00594778  0.44415529  1
  Pr3+  Pr42  1  0.86485091  0.75248947  0.42513527  1
  Pr3+  Pr43  1  0.38347569  0.25390022  0.92584224  1
  Pr3+  Pr44  1  0.64135705  0.26221302  0.92080226  1
  Pr3+  Pr45  1  0.25353200  0.12993437  0.05743293  1
  Pr3+  Pr46  1  0.11813774  0.75094273  0.43549666  1
  Pr3+  Pr47  1  0.13113737  0.25734669  0.93866452  1
  Pr3+  Pr48  1  0.25413123  0.88180990  0.05789879  1
  Pr3+  Pr49  1  0.86743493  0.24909142  0.43027450  1
  Nd3+  Nd50  1  0.00485164  0.37777483  0.07088071  1
  Nd3+  Nd51  1  0.37259657  0.25329738  0.44159131  1
  Nd3+  Nd52  1  0.61251585  0.25192407  0.45584822  1
  Nd3+  Nd53  1  0.50165810  0.38264321  0.04666349  1
  Nd3+  Nd54  1  0.24131022  0.62584979  0.55626284  1
  Nd3+  Nd55  1  0.25522007  0.38385010  0.05242145  1
  Nd3+  Nd56  1  0.88048258  0.75950411  0.96154744  1
  Nd3+  Nd57  1  0.38839572  0.00803288  0.92680802  1
  Sm3+  Sm58  1  0.00320403  0.13171067  0.05654683  1
  Sm3+  Sm59  1  -0.01093753  0.87649009  0.55246569  1
  Sm3+  Sm60  1  0.74520037  0.13693227  0.06037208  1
  Sm3+  Sm61  1  0.50374070  0.88264565  0.05768772  1
  Sm3+  Sm62  1  0.25332428  0.63010696  0.05593065  1
  Sm3+  Sm63  1  0.12010962  0.51401916  0.92852027  1
  Bi2+  Bi64  1  0.00945949  0.13036485  0.29752361  1
  Bi2+  Bi65  1  -0.00814571  0.06250209  0.80165579  1
  Bi2+  Bi66  1  0.02723114  0.32143911  0.32381263  1
  Bi2+  Bi67  1  -0.09744721  0.33821364  0.79660804  1
  Bi2+  Bi68  1  0.04076366  0.51378461  0.30839640  1
  Bi2+  Bi69  1  -0.02636947  0.62095632  0.80226400  1
  Bi2+  Bi70  1  -0.02834344  0.82856008  0.29813489  1
  Bi2+  Bi71  1  -0.02923354  0.86615651  0.79924899  1
  Bi2+  Bi72  1  0.28905878  0.22188342  0.29726814  1
  Bi2+  Bi73  1  0.18216407  0.11635928  0.79349131  1
  Bi2+  Bi74  1  0.16867310  0.34336601  0.24214979  1
  Bi2+  Bi75  1  0.16464075  0.31580306  0.80869625  1
  Bi2+  Bi76  1  0.25317738  0.68139259  0.29305094  1
  Bi2+  Bi77  1  0.23450646  0.61340027  0.79369598  1
  Bi2+  Bi78  1  0.29125171  0.94984922  0.31724110  1
  Bi2+  Bi79  1  0.22572639  0.83939957  0.78128690  1
  Bi2+  Bi80  1  0.54165065  0.12421737  0.30772226  1
  Bi2+  Bi81  1  0.46566146  0.11012999  0.78606821  1
  Bi2+  Bi82  1  0.49780495  0.37144884  0.29110955  1
  Bi2+  Bi83  1  0.52205003  0.35596961  0.79138440  1
  Bi2+  Bi84  1  0.50211898  0.61434450  0.27465913  1
  Bi2+  Bi85  1  0.54883138  0.66982876  0.77631552  1
  Bi2+  Bi86  1  0.46114433  0.88060072  0.27890756  1
  Bi2+  Bi87  1  0.51515706  0.85990582  0.78635334  1
  Bi2+  Bi88  1  0.81503810  0.17556144  0.25569571  1
  Bi2+  Bi89  1  0.73169363  0.11399431  0.79400783  1
  Bi2+  Bi90  1  0.83267567  0.36267462  0.31755593  1
  Bi2+  Bi91  1  0.76063349  0.45828982  0.77133497  1
  Bi2+  Bi92  1  0.75404307  0.61527162  0.28823288  1
  Bi2+  Bi93  1  0.74195493  0.65589908  0.76789561  1
  Bi2+  Bi94  1  0.70718006  0.86592289  0.28470761  1
  Bi2+  Bi95  1  0.77342982  0.84729115  0.79551032  1
  Bi2+  Bi96  1  0.20042417  0.05502810  0.23420549  1
  Bi2+  Bi97  1  0.11081741  -0.00872203  0.71024862  1
  Bi2+  Bi98  1  0.08675665  0.19217869  0.18142652  1
  Bi2+  Bi99  1  0.12492401  0.25281628  0.70443346  1
  Bi2+  Bi100  1  0.14184621  0.55043109  0.21002350  1
  Bi2+  Bi101  1  0.14010192  0.44680699  0.72504829  1
  Bi2+  Bi102  1  0.19089234  0.84830349  0.23599317  1
  Bi2+  Bi103  1  0.11329302  0.73538740  0.70965356  1
  Bi2+  Bi104  1  0.39177859  0.01878134  0.21010499  1
  Bi2+  Bi105  1  0.35330804  -0.06609021  0.71610748  1
  Bi2+  Bi106  1  0.44301391  0.21901585  0.21037177  1
  Bi2+  Bi107  1  0.34808846  0.26859169  0.71635128  1
  Bi2+  Bi108  1  0.38398017  0.47996041  0.17061274  1
  Bi2+  Bi109  1  0.35201096  0.49734351  0.71971118  1
  Bi2+  Bi110  1  0.35604129  0.75879097  0.20489847  1
  Bi2+  Bi111  1  0.32956363  0.73832270  0.69841530  1
  Bi2+  Bi112  1  0.62210167  0.03207839  0.20936624  1
  Bi2+  Bi113  1  0.65799269  -0.08961296  0.70973389  1
  Bi2+  Bi114  1  0.67294874  0.31127838  0.25173435  1
  Bi2+  Bi115  1  0.65849729  0.24776393  0.70096612  1
  Bi2+  Bi116  1  0.70236994  0.48662893  0.20200111  1
  Bi2+  Bi117  1  0.61330692  0.52448639  0.70446385  1
  Bi2+  Bi118  1  0.54985918  0.75264506  0.20095702  1
  Bi2+  Bi119  1  0.52411242  0.77180721  0.67684978  1
  Bi2+  Bi120  1  0.88221127  -0.01238595  0.20709048  1
  Bi2+  Bi121  1  0.85014256  0.02367540  0.72229725  1
  Bi2+  Bi122  1  0.91963267  0.28742786  0.18454686  1
  Bi2+  Bi123  1  0.92822945  0.20817663  0.71387277  1
  Bi2+  Bi124  1  0.90222490  0.47042110  0.22684469  1
  Bi2+  Bi125  1  0.95686317  0.49615770  0.71319006  1
  Bi2+  Bi126  1  0.90678144  0.72910976  0.20741100  1
  Bi2+  Bi127  1  0.91874860  0.76019420  0.69545731  1
  S2-  S128  1  0.00307393  0.04751531  0.14181774  1
  S2-  S129  1  0.08576926  0.11720697  0.63899075  1
  S2-  S130  1  0.02061469  0.48472415  0.14850245  1
  S2-  S131  1  -0.05815260  0.35280568  0.65463144  1
  S2-  S132  1  0.05893123  0.68205885  0.17538538  1
  S2-  S133  1  -0.08555798  0.62126024  0.63730895  1
  S2-  S134  1  -0.01120301  0.86488744  0.17700631  1
  S2-  S135  1  0.03225601  0.86694773  0.64880368  1
  S2-  S136  1  0.35751047  0.14052823  0.13744119  1
  S2-  S137  1  0.34225749  0.14341652  0.65872722  1
  S2-  S138  1  0.25000071  0.37948298  0.15288615  1
  S2-  S139  1  0.30652257  0.38739341  0.64532189  1
  S2-  S140  1  0.27346613  0.61869512  0.15405947  1
  S2-  S141  1  0.21298532  0.62745749  0.65595822  1
  S2-  S142  1  0.22227765  0.94037209  0.15107283  1
  S2-  S143  1  0.23344857  0.96408261  0.64059876  1
  S2-  S144  1  0.58101824  0.15356203  0.15260022  1
  S2-  S145  1  0.56301133  0.12171807  0.69389779  1
  S2-  S146  1  0.48356723  0.35813402  0.14584527  1
  S2-  S147  1  0.50708751  0.32041781  0.68159442  1
  S2-  S148  1  0.51546174  0.59806879  0.15074811  1
  S2-  S149  1  0.46486139  0.53138966  0.65068687  1
  S2-  S150  1  0.58222772  0.90068224  0.14394430  1
  S2-  S151  1  0.47467231  0.95128476  0.64502142  1
  S2-  S152  1  0.76054234  0.04971339  0.14548968  1
  S2-  S153  1  0.78435215  0.15589213  0.65481863  1
  S2-  S154  1  0.74178437  0.33248898  0.15116450  1
  S2-  S155  1  0.72863875  0.40552989  0.66739396  1
  S2-  S156  1  0.77398949  0.62988828  0.16609477  1
  S2-  S157  1  0.69558489  0.65088903  0.66349880  1
  S2-  S158  1  0.77986441  0.84889040  0.18889092  1
  S2-  S159  1  0.79177409  0.86314966  0.65097904  1
  S2-  S160  1  0.01209802  -0.02293537  0.34283609  1
  S2-  S161  1  0.11657953  -0.11910881  0.86092945  1
  S2-  S162  1  0.15047268  0.15213077  0.35732152  1
  S2-  S163  1  0.01832265  0.26948358  0.86099595  1
  S2-  S164  1  0.20229642  0.52552134  0.34702287  1
  S2-  S165  1  0.22600296  0.47848563  0.85028006  1
  S2-  S166  1  0.11077567  0.75981997  0.33475385  1
  S2-  S167  1  0.10886635  0.65210713  0.85961602  1
  S2-  S168  1  0.39107008  0.13315754  0.36170873  1
  S2-  S169  1  0.32033822  0.05146203  0.83559284  1
  S2-  S170  1  0.36763450  0.34620778  0.35340684  1
  S2-  S171  1  0.38110107  0.27064849  0.82348814  1
  S2-  S172  1  0.38522385  0.49950777  0.26932301  1
  S2-  S173  1  0.44262163  0.49130115  0.81090624  1
  S2-  S174  1  0.38998561  0.68214390  0.35291216  1
  S2-  S175  1  0.35750156  0.67972800  0.85384345  1
  S2-  S176  1  0.63602517  -0.00089503  0.34238244  1
  S2-  S177  1  0.51640973  0.00410328  0.85173165  1
  S2-  S178  1  0.60305143  0.26366190  0.35503230  1
  S2-  S179  1  0.58317533  0.20346460  0.83017344  1
  S2-  S180  1  0.53042006  0.50655423  0.35127771  1
  S2-  S181  1  0.64552036  0.41950232  0.85072264  1
  S2-  S182  1  0.64733280  0.73341766  0.33627430  1
  S2-  S183  1  0.64116733  0.82651732  0.86064381  1
  S2-  S184  1  0.82969953  -0.12443939  0.34836502  1
  S2-  S185  1  0.77638269  0.00399012  0.86200245  1
  S2-  S186  1  0.85013628  0.13365198  0.35141062  1
  S2-  S187  1  0.78510345  0.24045107  0.85209431  1
  S2-  S188  1  0.74323987  0.49920410  0.36103639  1
  S2-  S189  1  0.97532046  0.49575835  0.86711341  1
  S2-  S190  1  0.88656487  0.67615265  0.33058085  1
  S2-  S191  1  0.89808349  0.74948505  0.86150882  1
  S2-  S192  1  -0.00705457  0.12799243  0.45126971  1
  S2-  S193  1  0.00711234  0.12370742  0.95288203  1
  S2-  S194  1  -0.00778723  0.37715262  0.45046381  1
  S2-  S195  1  0.01050479  0.38356382  0.96666867  1
  S2-  S196  1  -0.00729954  0.62449858  0.44441508  1
  S2-  S197  1  0.00330136  0.63442757  0.97182942  1
  S2-  S198  1  -0.00778192  0.87440711  0.44858605  1
  S2-  S199  1  0.00151973  0.88535381  0.96754065  1
  S2-  S200  1  0.24381273  0.12896605  0.46399355  1
  S2-  S201  1  0.25539256  0.13134239  0.94989545  1
  S2-  S202  1  0.24089116  0.37808306  0.44903854  1
  S2-  S203  1  0.25742704  0.37976526  0.94826946  1
  S2-  S204  1  0.24372949  0.62707959  0.45131676  1
  S2-  S205  1  0.25071941  0.63121564  0.95471137  1
  S2-  S206  1  0.24317336  0.87635235  0.44795843  1
  S2-  S207  1  0.26354974  0.88287016  0.95054444  1
  S2-  S208  1  0.49459797  0.12695753  0.46854735  1
  S2-  S209  1  0.50747891  0.13479091  0.95127680  1
  S2-  S210  1  0.49324580  0.37578402  0.46569155  1
  S2-  S211  1  0.50065314  0.38618410  0.94100171  1
  S2-  S212  1  0.49400181  0.62759228  0.45860352  1
  S2-  S213  1  0.50857024  0.62930988  0.94665500  1
  S2-  S214  1  0.49127973  0.87773315  0.44786754  1
  S2-  S215  1  0.50386513  0.87629768  0.95509582  1
  S2-  S216  1  0.74022507  0.12746658  0.45617524  1
  S2-  S217  1  0.75629420  0.13370745  0.95807514  1
  S2-  S218  1  0.74454771  0.36894191  0.46086020  1
  S2-  S219  1  0.76344822  0.38585110  0.95281134  1
  S2-  S220  1  0.74434282  0.62978772  0.45816478  1
  S2-  S221  1  0.75757212  0.63093094  0.95625585  1
  S2-  S222  1  0.74013998  0.87967960  0.45323693  1
  S2-  S223  1  0.75492146  0.87870392  0.97026283  1
  S2-  S224  1  0.13128430  0.00928572  0.03922812  1
  S2-  S225  1  0.11136599  -0.00332460  0.53301157  1
  S2-  S226  1  0.12920754  0.25588629  0.04625021  1
  S2-  S227  1  0.11891574  0.25263217  0.54445550  1
  S2-  S228  1  0.13308354  0.50690767  0.04336667  1
  S2-  S229  1  0.11694575  0.50155234  0.54565993  1
  S2-  S230  1  0.13096529  0.75774641  0.05266168  1
  S2-  S231  1  0.11475017  0.75264205  0.54332618  1
  S2-  S232  1  0.38082306  0.00327203  0.03923691  1
  S2-  S233  1  0.36507776  0.00038491  0.54300900  1
  S2-  S234  1  0.37646654  0.25955898  0.03395280  1
  S2-  S235  1  0.36752728  0.24995724  0.55050706  1
  S2-  S236  1  0.37727119  0.50846541  0.03739812  1
  S2-  S237  1  0.36299004  0.50657012  0.54529112  1
  S2-  S238  1  0.38036232  0.75629715  0.04831463  1
  S2-  S239  1  0.36365248  0.75386632  0.54960450  1
  S2-  S240  1  0.62453766  0.01154846  0.03979330  1
  S2-  S241  1  0.61772957  0.00172364  0.55223006  1
  S2-  S242  1  0.62750167  0.26038235  0.03559438  1
  S2-  S243  1  0.61337068  0.24898325  0.56304369  1
  S2-  S244  1  0.62998533  0.50492852  0.04373102  1
  S2-  S245  1  0.62185605  0.50050573  0.55187377  1
  S2-  S246  1  0.62704740  0.75542903  0.05342500  1
  S2-  S247  1  0.61955980  0.75396919  0.54552517  1
  S2-  S248  1  0.87470614  0.01202160  0.04666044  1
  S2-  S249  1  0.86905983  0.00139878  0.54442734  1
  S2-  S250  1  0.87959758  0.25280558  0.04633881  1
  S2-  S251  1  0.86783889  0.24696406  0.54138553  1
  S2-  S252  1  0.87650301  0.50331762  0.05650801  1
  S2-  S253  1  0.86713948  0.49647816  0.54089754  1
  S2-  S254  1  0.87742485  0.76128492  0.06644085  1
  S2-  S255  1  0.86918378  0.75448646  0.53633333  1
