# generated using pymatgen
data_La9Ce10Pr6Nd4Sm3(BiS2)32
_symmetry_space_group_name_H-M   'P 1'
_cell_length_a   16.24461131
_cell_length_b   16.25593384
_cell_length_c   27.02814595
_cell_angle_alpha   90.09322345
_cell_angle_beta   90.04837018
_cell_angle_gamma   89.96258553
_symmetry_Int_Tables_number   1
_chemical_formula_structural   La9Ce10Pr6Nd4Sm3(BiS2)32
_chemical_formula_sum   'La18 Ce20 Pr12 Nd8 Sm6 Bi64 S128'
_cell_volume   7137.34485221
_cell_formula_units_Z   2
loop_
 _symmetry_equiv_pos_site_id
 _symmetry_equiv_pos_as_xyz
  1  'x, y, z'
loop_
 _atom_type_symbol
 _atom_type_oxidation_number
  La3+  3.0
  Ce3+  3.0
  Pr3+  3.0
  Nd3+  3.0
  Sm3+  3.0
  Bi2+  2.0
  S2-  -2.0
loop_
 _atom_site_type_symbol
 _atom_site_label
 _atom_site_symmetry_multiplicity
 _atom_site_fract_x
 _atom_site_fract_y
 _atom_site_fract_z
 _atom_site_occupancy
  La3+  La0  1  0.74265563  0.88152220  0.56692670  1
  La3+  La1  1  0.87445089  0.00289165  0.92872586  1
  La3+  La2  1  0.74202288  0.37546629  0.56125773  1
  La3+  La3  1  -0.00916137  0.61822057  0.58453774  1
  La3+  La4  1  0.11527857  -0.00185504  0.42479901  1
  La3+  La5  1  0.11646202  0.73817633  0.92541930  1
  La3+  La6  1  0.24902965  0.12840725  0.56183048  1
  La3+  La7  1  0.11953481  0.51275311  0.41901059  1
  La3+  La8  1  0.49381669  0.87392877  0.57361889  1
  La3+  La9  1  0.75488740  0.37401407  0.07747072  1
  La3+  La10  1  0.61346096  -0.00470857  0.42228993  1
  La3+  La11  1  0.51860664  0.12724340  0.59719459  1
  La3+  La12  1  0.38414076  0.00998833  0.90886009  1
  La3+  La13  1  0.00248608  0.88000357  0.06052585  1
  La3+  La14  1  -0.00915463  0.88632992  0.58600152  1
  La3+  La15  1  0.86357250  0.49223863  0.92449268  1
  La3+  La16  1  0.37312619  0.25041024  0.43551339  1
  La3+  La17  1  0.24738384  0.64448601  0.08986779  1
  Ce3+  Ce18  1  0.50140887  0.62933970  0.07092120  1
  Ce3+  Ce19  1  0.12432447  0.50619964  0.95229440  1
  Ce3+  Ce20  1  0.24736765  0.38192745  0.55061353  1
  Ce3+  Ce21  1  0.11940978  0.75798084  0.43934646  1
  Ce3+  Ce22  1  0.25136926  0.12361321  0.04927655  1
  Ce3+  Ce23  1  0.37350903  0.50420853  0.95689474  1
  Ce3+  Ce24  1  0.62263379  0.49924147  0.94929207  1
  Ce3+  Ce25  1  0.74851116  0.62594821  0.55663097  1
  Ce3+  Ce26  1  0.12574151  0.25412128  0.94467349  1
  Ce3+  Ce27  1  0.00101332  0.37934201  0.06075991  1
  Ce3+  Ce28  1  0.87235193  0.25464392  0.44435238  1
  Ce3+  Ce29  1  0.62198282  0.75023869  0.94308663  1
  Ce3+  Ce30  1  0.37673117  0.00104785  0.44747871  1
  Ce3+  Ce31  1  0.62210913  0.00378958  0.94207876  1
  Ce3+  Ce32  1  0.87274383  -0.00047299  0.44083596  1
  Ce3+  Ce33  1  -0.00222738  0.12776459  0.55744654  1
  Ce3+  Ce34  1  0.61998636  0.50325653  0.44496716  1
  Ce3+  Ce35  1  0.24718631  0.37870244  0.06919486  1
  Ce3+  Ce36  1  0.74418656  0.12815016  0.54936942  1
  Ce3+  Ce37  1  0.87645928  0.75332711  0.44888082  1
  Pr3+  Pr38  1  0.62429190  0.25152637  0.42748287  1
  Pr3+  Pr39  1  0.12610594  -0.00313575  0.92354818  1
  Pr3+  Pr40  1  0.87340986  0.75078237  0.93688085  1
  Pr3+  Pr41  1  -0.00267286  0.37886983  0.55594053  1
  Pr3+  Pr42  1  0.12167993  0.25320621  0.43836851  1
  Pr3+  Pr43  1  0.37454055  0.75034753  0.94065640  1
  Pr3+  Pr44  1  0.87047044  0.50597977  0.42959342  1
  Pr3+  Pr45  1  0.49952141  0.37667638  0.07031216  1
  Pr3+  Pr46  1  0.00100872  0.12543796  0.05090924  1
  Pr3+  Pr47  1  0.49347125  0.62833049  0.56892438  1
  Pr3+  Pr48  1  0.37621372  0.25393507  0.93809362  1
  Pr3+  Pr49  1  0.24111330  0.62915739  0.55550268  1
  Nd3+  Nd50  1  0.24228422  0.87924052  0.56402332  1
  Nd3+  Nd51  1  0.25247454  0.88227746  0.05187040  1
  Nd3+  Nd52  1  0.49776465  0.12544370  0.06772020  1
  Nd3+  Nd53  1  0.49226483  0.37687962  0.55966763  1
  Nd3+  Nd54  1  0.74873512  0.87879755  0.05553872  1
  Nd3+  Nd55  1  -0.01374492  0.62334775  0.07130805  1
  Nd3+  Nd56  1  0.37340530  0.50438935  0.43363372  1
  Nd3+  Nd57  1  0.62082222  0.75279990  0.44147765  1
  Sm3+  Sm58  1  0.50115771  0.87931889  0.05664638  1
  Sm3+  Sm59  1  0.62348666  0.25261957  0.94991476  1
  Sm3+  Sm60  1  0.87294201  0.25465281  0.94406876  1
  Sm3+  Sm61  1  0.37019430  0.75293672  0.44363149  1
  Sm3+  Sm62  1  0.75143277  0.12663125  0.05666000  1
  Sm3+  Sm63  1  0.74858110  0.62696954  0.05794604  1
  Bi2+  Bi64  1  -0.00877330  0.11986099  0.28178063  1
  Bi2+  Bi65  1  -0.03468762  0.12869400  0.79216653  1
  Bi2+  Bi66  1  0.00232761  0.31737329  0.29040290  1
  Bi2+  Bi67  1  -0.00042715  0.33285906  0.79263393  1
  Bi2+  Bi68  1  -0.01436008  0.67183926  0.27878250  1
  Bi2+  Bi69  1  0.02780710  0.62344944  0.78901021  1
  Bi2+  Bi70  1  -0.06405540  0.85929466  0.29360127  1
  Bi2+  Bi71  1  0.00713474  0.87129976  0.79266796  1
  Bi2+  Bi72  1  0.18281558  0.05841456  0.29943248  1
  Bi2+  Bi73  1  0.22403072  0.20888580  0.76246977  1
  Bi2+  Bi74  1  0.26297849  0.38278788  0.28850137  1
  Bi2+  Bi75  1  0.27323920  0.38585740  0.79886708  1
  Bi2+  Bi76  1  0.24123933  0.62515004  0.29690098  1
  Bi2+  Bi77  1  0.25326850  0.56140648  0.75121551  1
  Bi2+  Bi78  1  0.26576226  0.87846557  0.29566114  1
  Bi2+  Bi79  1  0.28003914  0.82285327  0.77435361  1
  Bi2+  Bi80  1  0.52615291  0.07439249  0.27485395  1
  Bi2+  Bi81  1  0.50546209  0.14074907  0.79060394  1
  Bi2+  Bi82  1  0.52171204  0.39647631  0.29681518  1
  Bi2+  Bi83  1  0.47323912  0.40883728  0.78338161  1
  Bi2+  Bi84  1  0.52153970  0.66332428  0.28062595  1
  Bi2+  Bi85  1  0.49524799  0.60578925  0.79875905  1
  Bi2+  Bi86  1  0.49859158  0.86779060  0.29201012  1
  Bi2+  Bi87  1  0.49942504  0.86529890  0.79719340  1
  Bi2+  Bi88  1  0.77359025  0.10397738  0.25430966  1
  Bi2+  Bi89  1  0.76905952  0.12437325  0.79656428  1
  Bi2+  Bi90  1  0.76735149  0.37469099  0.30597474  1
  Bi2+  Bi91  1  0.72049253  0.32983345  0.80653552  1
  Bi2+  Bi92  1  0.71185176  0.62416181  0.28553340  1
  Bi2+  Bi93  1  0.74641574  0.58844869  0.78405711  1
  Bi2+  Bi94  1  0.74573905  0.91360186  0.29348110  1
  Bi2+  Bi95  1  0.74136036  0.84354172  0.78422462  1
  Bi2+  Bi96  1  0.13818984  -0.03411480  0.18688594  1
  Bi2+  Bi97  1  0.12973909  0.01882772  0.71518735  1
  Bi2+  Bi98  1  0.14498989  0.22256572  0.23027995  1
  Bi2+  Bi99  1  0.07087180  0.24780730  0.69118942  1
  Bi2+  Bi100  1  0.10326608  0.48834003  0.20215210  1
  Bi2+  Bi101  1  0.11602996  0.43053931  0.71965009  1
  Bi2+  Bi102  1  0.12789974  0.75878017  0.21407931  1
  Bi2+  Bi103  1  0.15805971  0.74923049  0.69160641  1
  Bi2+  Bi104  1  0.35345068  0.00912495  0.21864909  1
  Bi2+  Bi105  1  0.41418792  -0.03845917  0.70888113  1
  Bi2+  Bi106  1  0.32822473  0.18119674  0.26605627  1
  Bi2+  Bi107  1  0.38086789  0.28940009  0.70537169  1
  Bi2+  Bi108  1  0.44920644  0.50732321  0.21441417  1
  Bi2+  Bi109  1  0.41951759  0.48805128  0.67071587  1
  Bi2+  Bi110  1  0.39255949  0.77158298  0.21196714  1
  Bi2+  Bi111  1  0.39469503  0.67064114  0.70586656  1
  Bi2+  Bi112  1  0.60414529  -0.06145833  0.19679525  1
  Bi2+  Bi113  1  0.64528309  -0.00547218  0.74482289  1
  Bi2+  Bi114  1  0.60422797  0.26537415  0.20330577  1
  Bi2+  Bi115  1  0.66319107  0.25637024  0.70679778  1
  Bi2+  Bi116  1  0.62669646  0.55150201  0.18703430  1
  Bi2+  Bi117  1  0.59986766  0.51701856  0.71108541  1
  Bi2+  Bi118  1  0.59785455  0.74388093  0.17660783  1
  Bi2+  Bi119  1  0.65136122  0.71018964  0.70948815  1
  Bi2+  Bi120  1  0.90717821  -0.01364504  0.19921405  1
  Bi2+  Bi121  1  0.86546985  0.03838925  0.70669846  1
  Bi2+  Bi122  1  0.88527329  0.24210809  0.21007440  1
  Bi2+  Bi123  1  0.87682248  0.24260064  0.70767313  1
  Bi2+  Bi124  1  0.84939817  0.50165138  0.21187880  1
  Bi2+  Bi125  1  0.86596914  0.48624531  0.71197765  1
  Bi2+  Bi126  1  0.78002402  0.76626296  0.21926789  1
  Bi2+  Bi127  1  0.84807615  0.74197108  0.70923797  1
  S2-  S128  1  0.02047251  0.07162518  0.14587478  1
  S2-  S129  1  0.00429074  0.04729794  0.64401751  1
  S2-  S130  1  -0.04030728  0.41188288  0.15466683  1
  S2-  S131  1  -0.00248869  0.46722248  0.64376914  1
  S2-  S132  1  0.02906793  0.63844823  0.17068025  1
  S2-  S133  1  0.01268468  0.67358933  0.68434669  1
  S2-  S134  1  0.00388790  0.85445412  0.16053313  1
  S2-  S135  1  0.05408455  0.87181951  0.68521362  1
  S2-  S136  1  0.25360498  0.06309836  0.14073347  1
  S2-  S137  1  0.22882752  0.09765323  0.66160557  1
  S2-  S138  1  0.21676888  0.38026515  0.16724727  1
  S2-  S139  1  0.27517907  0.37388559  0.64695571  1
  S2-  S140  1  0.21833629  0.59630167  0.19301658  1
  S2-  S141  1  0.21134033  0.60003166  0.65374478  1
  S2-  S142  1  0.23396925  0.80594410  0.14152837  1
  S2-  S143  1  0.28725396  0.86344050  0.66114330  1
  S2-  S144  1  0.53517375  0.13506204  0.16720850  1
  S2-  S145  1  0.43865631  0.11738432  0.69008866  1
  S2-  S146  1  0.47452349  0.34580872  0.16971693  1
  S2-  S147  1  0.53223105  0.29238742  0.64401894  1
  S2-  S148  1  0.39859477  0.64159462  0.14959550  1
  S2-  S149  1  0.50464400  0.74392331  0.64634000  1
  S2-  S150  1  0.44844150  0.90972257  0.14918906  1
  S2-  S151  1  0.56023827  0.95588273  0.65503069  1
  S2-  S152  1  0.76519430  0.17045395  0.15211759  1
  S2-  S153  1  0.68173846  0.13363935  0.64081727  1
  S2-  S154  1  0.71677105  0.39588382  0.17628499  1
  S2-  S155  1  0.76760882  0.38552199  0.66196685  1
  S2-  S156  1  0.83833449  0.60888197  0.14035513  1
  S2-  S157  1  0.82694075  0.60559147  0.64255328  1
  S2-  S158  1  0.76362858  0.91375595  0.15258920  1
  S2-  S159  1  0.83976334  0.88442363  0.65153327  1
  S2-  S160  1  0.13347473  -0.13561812  0.36008767  1
  S2-  S161  1  0.09065833  0.01698215  0.82374752  1
  S2-  S162  1  0.14752715  0.27883885  0.33940216  1
  S2-  S163  1  0.13648684  0.25776279  0.84647621  1
  S2-  S164  1  0.14225950  0.48213266  0.31401783  1
  S2-  S165  1  0.12808940  0.58431399  0.86485211  1
  S2-  S166  1  0.10418758  0.65805841  0.35548206  1
  S2-  S167  1  0.15486991  0.81129481  0.83384728  1
  S2-  S168  1  0.45145180  -0.00174242  0.35798014  1
  S2-  S169  1  0.33967515  -0.03649784  0.81092704  1
  S2-  S170  1  0.39401259  0.29205424  0.33747353  1
  S2-  S171  1  0.38275498  0.16471992  0.85022374  1
  S2-  S172  1  0.34943997  0.51200913  0.33449616  1
  S2-  S173  1  0.38760550  0.50328425  0.85860117  1
  S2-  S174  1  0.34122766  0.74600800  0.34543548  1
  S2-  S175  1  0.39842014  0.74308116  0.84006456  1
  S2-  S176  1  0.66881366  0.06739171  0.33295522  1
  S2-  S177  1  0.54280570  0.00830802  0.85458690  1
  S2-  S178  1  0.61913742  0.27657106  0.32492931  1
  S2-  S179  1  0.58817686  0.25543811  0.85275508  1
  S2-  S180  1  0.64363676  0.49056783  0.34654143  1
  S2-  S181  1  0.69364831  0.48013956  0.86083923  1
  S2-  S182  1  0.62735449  0.84777737  0.35843891  1
  S2-  S183  1  0.62005587  0.76836336  0.84569239  1
  S2-  S184  1  0.96404002  -0.00280850  0.35777193  1
  S2-  S185  1  0.87160700  -0.07639485  0.83872550  1
  S2-  S186  1  0.85425982  0.25609112  0.34691752  1
  S2-  S187  1  0.86503944  0.34465808  0.86083224  1
  S2-  S188  1  0.89042104  0.47946549  0.32807548  1
  S2-  S189  1  0.90262524  0.55111470  0.82832396  1
  S2-  S190  1  0.87824337  0.72069937  0.35071517  1
  S2-  S191  1  0.97040032  0.74108989  0.85288712  1
  S2-  S192  1  -0.00269503  0.13107644  0.45161408  1
  S2-  S193  1  -0.00171605  0.13055498  0.94319147  1
  S2-  S194  1  -0.00193678  0.38022129  0.44644815  1
  S2-  S195  1  0.00168505  0.37682808  0.95518935  1
  S2-  S196  1  -0.00577684  0.62614246  0.45959910  1
  S2-  S197  1  -0.01092151  0.61925039  0.96203062  1
  S2-  S198  1  -0.00644276  0.87789585  0.46589721  1
  S2-  S199  1  -0.00081246  0.87862130  0.95081735  1
  S2-  S200  1  0.24613808  0.12410606  0.44902402  1
  S2-  S201  1  0.24813658  0.12535937  0.94399753  1
  S2-  S202  1  0.24689959  0.38145071  0.44389349  1
  S2-  S203  1  0.24982032  0.37773685  0.95977559  1
  S2-  S204  1  0.24886354  0.62954522  0.44957876  1
  S2-  S205  1  0.25268548  0.62814417  0.96585242  1
  S2-  S206  1  0.25320020  0.87983808  0.45817524  1
  S2-  S207  1  0.25466195  0.87952268  0.94412547  1
  S2-  S208  1  0.49971090  0.13123597  0.44631742  1
  S2-  S209  1  0.50139816  0.13078838  0.95993410  1
  S2-  S210  1  0.49777278  0.37902271  0.45107433  1
  S2-  S211  1  0.49933158  0.37540430  0.96115665  1
  S2-  S212  1  0.49534898  0.63030191  0.45299228  1
  S2-  S213  1  0.50090868  0.62591249  0.96114842  1
  S2-  S214  1  0.49301022  0.87010282  0.46272897  1
  S2-  S215  1  0.49937295  0.87705027  0.95206335  1
  S2-  S216  1  0.74979187  0.12700573  0.44504967  1
  S2-  S217  1  0.74890474  0.13074763  0.95006752  1
  S2-  S218  1  0.74609750  0.37909468  0.45156525  1
  S2-  S219  1  0.74489929  0.36974273  0.96777947  1
  S2-  S220  1  0.74530791  0.62878247  0.44964056  1
  S2-  S221  1  0.74782757  0.62708764  0.95280768  1
  S2-  S222  1  0.75043166  0.87644212  0.45734010  1
  S2-  S223  1  0.74720280  0.87732832  0.94883389  1
  S2-  S224  1  0.12612030  0.00198479  0.03253057  1
  S2-  S225  1  0.12338398  0.00318289  0.54157730  1
  S2-  S226  1  0.12550874  0.25032162  0.05321823  1
  S2-  S227  1  0.12325348  0.25476231  0.54603630  1
  S2-  S228  1  0.12420561  0.50770677  0.05902468  1
  S2-  S229  1  0.12146736  0.50227235  0.53702838  1
  S2-  S230  1  0.11897926  0.75056958  0.04215967  1
  S2-  S231  1  0.11664121  0.75556963  0.55385030  1
  S2-  S232  1  0.37906312  0.00261905  0.03689399  1
  S2-  S233  1  0.37659284  0.00676384  0.55527652  1
  S2-  S234  1  0.37382070  0.25136030  0.05021391  1
  S2-  S235  1  0.37348717  0.25112884  0.54504469  1
  S2-  S236  1  0.37233526  0.50021706  0.06134773  1
  S2-  S237  1  0.37127010  0.50590627  0.54074350  1
  S2-  S238  1  0.37935466  0.75880359  0.04673135  1
  S2-  S239  1  0.36561458  0.75149505  0.54855264  1
  S2-  S240  1  0.62512678  0.00545805  0.04911473  1
  S2-  S241  1  0.62062579  0.00400406  0.53776752  1
  S2-  S242  1  0.62497653  0.24928697  0.05542930  1
  S2-  S243  1  0.62059012  0.25247182  0.53571922  1
  S2-  S244  1  0.62669678  0.50157407  0.05566668  1
  S2-  S245  1  0.61811970  0.50440639  0.55279150  1
  S2-  S246  1  0.62598046  0.75371721  0.04910226  1
  S2-  S247  1  0.62539267  0.74984513  0.54743213  1
  S2-  S248  1  0.87210150  0.00381384  0.03930866  1
  S2-  S249  1  0.86924128  0.00724393  0.54579018  1
  S2-  S250  1  0.87697494  0.25007214  0.04875123  1
  S2-  S251  1  0.87209311  0.25231099  0.55195496  1
  S2-  S252  1  0.87027789  0.49569435  0.04014957  1
  S2-  S253  1  0.86824677  0.49761766  0.53794772  1
  S2-  S254  1  0.87058638  0.75479214  0.04577070  1
  S2-  S255  1  0.87238411  0.75174132  0.55343849  1
