# generated using pymatgen
data_La9Ce10Pr6Nd4Sm3(BiS2)32
_symmetry_space_group_name_H-M   'P 1'
_cell_length_a   16.24746235
_cell_length_b   16.25324030
_cell_length_c   27.07898647
_cell_angle_alpha   89.92476973
_cell_angle_beta   89.85256138
_cell_angle_gamma   89.98072191
_symmetry_Int_Tables_number   1
_chemical_formula_structural   La9Ce10Pr6Nd4Sm3(BiS2)32
_chemical_formula_sum   'La18 Ce20 Pr12 Nd8 Sm6 Bi64 S128'
_cell_volume   7150.82359408
_cell_formula_units_Z   2
loop_
 _symmetry_equiv_pos_site_id
 _symmetry_equiv_pos_as_xyz
  1  'x, y, z'
loop_
 _atom_type_symbol
 _atom_type_oxidation_number
  La3+  3.0
  Ce3+  3.0
  Pr3+  3.0
  Nd3+  3.0
  Sm3+  3.0
  Bi2+  2.0
  S2-  -2.0
loop_
 _atom_site_type_symbol
 _atom_site_label
 _atom_site_symmetry_multiplicity
 _atom_site_fract_x
 _atom_site_fract_y
 _atom_site_fract_z
 _atom_site_occupancy
  La3+  La0  1  0.11895435  0.74157301  0.42710173  1
  La3+  La1  1  0.12564694  0.00266513  0.93045524  1
  La3+  La2  1  0.13500086  0.48502926  0.41462863  1
  La3+  La3  1  -0.01438494  0.62467482  0.08711391  1
  La3+  La4  1  0.37801724  0.24310835  0.43527501  1
  La3+  La5  1  0.24700964  0.37280503  0.55937280  1
  La3+  La6  1  0.75447536  0.37171185  0.56282613  1
  La3+  La7  1  0.24414380  0.62372776  0.07416555  1
  La3+  La8  1  0.23351947  0.87703762  0.07729300  1
  La3+  La9  1  0.24510815  0.12954617  0.07672340  1
  La3+  La10  1  0.37596753  0.74860202  0.43502726  1
  La3+  La11  1  0.74452566  0.61609404  0.58551367  1
  La3+  La12  1  0.74665845  0.87667441  0.06018725  1
  La3+  La13  1  0.00665480  0.12141748  0.57758773  1
  La3+  La14  1  0.62436355  0.75324248  0.93085038  1
  La3+  La15  1  0.61697912  0.00320472  0.93538701  1
  La3+  La16  1  0.74078283  0.37065010  0.07539143  1
  La3+  La17  1  0.74225223  0.11746829  0.57518421  1
  Ce3+  Ce18  1  0.24261047  0.37759304  0.06160228  1
  Ce3+  Ce19  1  0.36745193  0.50154953  0.94659906  1
  Ce3+  Ce20  1  0.49307790  0.12362390  0.06213881  1
  Ce3+  Ce21  1  0.86843238  0.25230337  0.93807992  1
  Ce3+  Ce22  1  0.12465384  0.24149312  0.43458467  1
  Ce3+  Ce23  1  0.50024646  0.86863200  0.55517880  1
  Ce3+  Ce24  1  0.74550835  0.12592793  0.05963308  1
  Ce3+  Ce25  1  0.49131125  0.87460175  0.05448760  1
  Ce3+  Ce26  1  0.24630880  0.62094055  0.55156861  1
  Ce3+  Ce27  1  0.49662151  0.37847187  0.06667682  1
  Ce3+  Ce28  1  0.36040014  0.75221474  0.94130892  1
  Ce3+  Ce29  1  0.37617892  0.49689386  0.44045820  1
  Ce3+  Ce30  1  0.62933937  0.24509974  0.44191992  1
  Ce3+  Ce31  1  0.62777094  0.49644326  0.43876688  1
  Ce3+  Ce32  1  -0.00050063  0.37743051  0.54396138  1
  Ce3+  Ce33  1  0.63137120  0.74442803  0.44367543  1
  Ce3+  Ce34  1  0.36355746  0.00235836  0.94850113  1
  Ce3+  Ce35  1  0.11817567  0.25198629  0.95015720  1
  Ce3+  Ce36  1  0.00005973  0.86553706  0.55804733  1
  Ce3+  Ce37  1  0.50263258  0.62008075  0.55593622  1
  Pr3+  Pr38  1  0.37518846  -0.00334841  0.43769465  1
  Pr3+  Pr39  1  0.86168467  0.01212637  0.90993631  1
  Pr3+  Pr40  1  -0.01007788  0.87744115  0.05742656  1
  Pr3+  Pr41  1  0.86857562  0.50241029  0.93530479  1
  Pr3+  Pr42  1  0.24726890  0.86712068  0.55580047  1
  Pr3+  Pr43  1  0.88399107  0.75199994  0.92903121  1
  Pr3+  Pr44  1  0.87562673  -0.00369599  0.44856423  1
  Pr3+  Pr45  1  0.87543001  0.24190552  0.43935688  1
  Pr3+  Pr46  1  0.74357691  0.62599408  0.05935018  1
  Pr3+  Pr47  1  0.36705876  0.25369860  0.94661723  1
  Pr3+  Pr48  1  0.61833872  0.50026440  0.93575935  1
  Pr3+  Pr49  1  0.00964202  0.60782993  0.58280325  1
  Nd3+  Nd50  1  0.86831019  0.49666049  0.42070994  1
  Nd3+  Nd51  1  0.12395203  0.74785971  0.93995652  1
  Nd3+  Nd52  1  -0.01188142  0.38024351  0.07119359  1
  Nd3+  Nd53  1  0.24913887  0.11949134  0.55996671  1
  Nd3+  Nd54  1  -0.00948146  0.12463907  0.05368522  1
  Nd3+  Nd55  1  0.87691154  0.73765472  0.45015723  1
  Nd3+  Nd56  1  0.49903406  0.37031789  0.55404847  1
  Nd3+  Nd57  1  0.75181014  0.86625196  0.56864068  1
  Sm3+  Sm58  1  0.49534840  0.62916491  0.04947378  1
  Sm3+  Sm59  1  0.11739189  0.50280697  0.94573518  1
  Sm3+  Sm60  1  0.49928725  0.11892521  0.55981693  1
  Sm3+  Sm61  1  0.61750707  0.25309718  0.94559830  1
  Sm3+  Sm62  1  0.62978263  -0.00615110  0.44511316  1
  Sm3+  Sm63  1  0.12324293  -0.00302715  0.44014038  1
  Bi2+  Bi64  1  0.01947699  0.10540749  0.31944796  1
  Bi2+  Bi65  1  -0.01700475  0.18652617  0.77550150  1
  Bi2+  Bi66  1  0.05274974  0.28052445  0.26004618  1
  Bi2+  Bi67  1  0.00140370  0.38192200  0.77445987  1
  Bi2+  Bi68  1  -0.00044927  0.66055642  0.28797230  1
  Bi2+  Bi69  1  0.00676878  0.62863126  0.79509838  1
  Bi2+  Bi70  1  -0.07396755  0.92239708  0.26189819  1
  Bi2+  Bi71  1  0.04241132  0.88922589  0.78668465  1
  Bi2+  Bi72  1  0.20766243  0.15052677  0.30734597  1
  Bi2+  Bi73  1  0.21453165  0.13109956  0.80940726  1
  Bi2+  Bi74  1  0.32081099  0.32769422  0.28912311  1
  Bi2+  Bi75  1  0.30959196  0.33878096  0.78298894  1
  Bi2+  Bi76  1  0.25367412  0.62076267  0.29745362  1
  Bi2+  Bi77  1  0.25022964  0.60553658  0.79623581  1
  Bi2+  Bi78  1  0.27379724  0.87528188  0.30182393  1
  Bi2+  Bi79  1  0.29210947  0.86938166  0.79171547  1
  Bi2+  Bi80  1  0.51494640  0.10096237  0.29798539  1
  Bi2+  Bi81  1  0.47555087  0.10772196  0.79589265  1
  Bi2+  Bi82  1  0.51433908  0.39206145  0.30177503  1
  Bi2+  Bi83  1  0.48298301  0.42639122  0.79226207  1
  Bi2+  Bi84  1  0.50995242  0.58004744  0.27354734  1
  Bi2+  Bi85  1  0.46994884  0.62863601  0.79226968  1
  Bi2+  Bi86  1  0.53914598  0.83809259  0.25077589  1
  Bi2+  Bi87  1  0.48275133  0.90750895  0.80087559  1
  Bi2+  Bi88  1  0.82706456  0.12851570  0.29750244  1
  Bi2+  Bi89  1  0.72742372  0.15755969  0.78945950  1
  Bi2+  Bi90  1  0.71757856  0.35225582  0.29177144  1
  Bi2+  Bi91  1  0.71742522  0.35335697  0.78017984  1
  Bi2+  Bi92  1  0.77145790  0.64206124  0.31185958  1
  Bi2+  Bi93  1  0.74402948  0.62013449  0.78797859  1
  Bi2+  Bi94  1  0.71292612  0.88033309  0.30251503  1
  Bi2+  Bi95  1  0.71942417  0.86542781  0.80256503  1
  Bi2+  Bi96  1  0.07936905  0.01625800  0.21441104  1
  Bi2+  Bi97  1  0.11719504  0.00090816  0.70492265  1
  Bi2+  Bi98  1  0.22086623  0.23837091  0.20119178  1
  Bi2+  Bi99  1  0.13440509  0.26072899  0.71728725  1
  Bi2+  Bi100  1  0.12800097  0.44757406  0.22670145  1
  Bi2+  Bi101  1  0.13523707  0.47986787  0.70655092  1
  Bi2+  Bi102  1  0.15121197  0.77863472  0.20617056  1
  Bi2+  Bi103  1  0.13099374  0.75778078  0.69574903  1
  Bi2+  Bi104  1  0.44588409  -0.00385338  0.21271623  1
  Bi2+  Bi105  1  0.37512712  -0.00202283  0.71323590  1
  Bi2+  Bi106  1  0.48387459  0.29280893  0.19565529  1
  Bi2+  Bi107  1  0.35703230  0.19149313  0.70686390  1
  Bi2+  Bi108  1  0.39199319  0.46185285  0.21375679  1
  Bi2+  Bi109  1  0.36847887  0.52028657  0.71321118  1
  Bi2+  Bi110  1  0.38782019  0.73052563  0.20633730  1
  Bi2+  Bi111  1  0.35146344  0.71644371  0.71154740  1
  Bi2+  Bi112  1  0.65969305  -0.00667638  0.20244012  1
  Bi2+  Bi113  1  0.58012012  0.00357166  0.71625323  1
  Bi2+  Bi114  1  0.64377237  0.18562012  0.22466438  1
  Bi2+  Bi115  1  0.54290239  0.24454544  0.71659788  1
  Bi2+  Bi116  1  0.66219342  0.49648240  0.21892302  1
  Bi2+  Bi117  1  0.61311478  0.47634748  0.70885386  1
  Bi2+  Bi118  1  0.64097245  0.68849187  0.19382456  1
  Bi2+  Bi119  1  0.55098114  0.74168434  0.71385583  1
  Bi2+  Bi120  1  0.84313621  0.02468686  0.17487884  1
  Bi2+  Bi121  1  0.84108675  0.02074708  0.72331707  1
  Bi2+  Bi122  1  0.87712537  0.24014075  0.20749805  1
  Bi2+  Bi123  1  0.86004188  0.29738837  0.70839407  1
  Bi2+  Bi124  1  0.88459625  0.50576539  0.21318708  1
  Bi2+  Bi125  1  0.89057361  0.50229189  0.70467008  1
  Bi2+  Bi126  1  0.80564803  0.78078037  0.21848194  1
  Bi2+  Bi127  1  0.87552578  0.78490458  0.70908567  1
  S2-  S128  1  -0.01556001  0.12826452  0.15464497  1
  S2-  S129  1  -0.02643808  0.07043203  0.67571312  1
  S2-  S130  1  0.02699016  0.48644998  0.15353448  1
  S2-  S131  1  0.00730945  0.44856128  0.63299959  1
  S2-  S132  1  0.02239905  0.69380312  0.18452682  1
  S2-  S133  1  -0.02634946  0.65446546  0.68252893  1
  S2-  S134  1  0.09261594  0.88954451  0.14207138  1
  S2-  S135  1  0.00752349  0.86271897  0.65636078  1
  S2-  S136  1  0.21819696  0.07155592  0.17112255  1
  S2-  S137  1  0.15652572  0.12655816  0.64418072  1
  S2-  S138  1  0.24717354  0.42722225  0.15500034  1
  S2-  S139  1  0.23086185  0.37325759  0.65969783  1
  S2-  S140  1  0.24698675  0.64426634  0.17575551  1
  S2-  S141  1  0.16625353  0.61287035  0.63815537  1
  S2-  S142  1  0.30622746  0.85851574  0.17198027  1
  S2-  S143  1  0.21910810  0.87661864  0.65559864  1
  S2-  S144  1  0.43376021  0.13404118  0.15488746  1
  S2-  S145  1  0.58892753  0.12176443  0.64340763  1
  S2-  S146  1  0.60465104  0.39676439  0.14341518  1
  S2-  S147  1  0.51179947  0.37479144  0.65368032  1
  S2-  S148  1  0.49605055  0.63278330  0.14756371  1
  S2-  S149  1  0.57840445  0.61016574  0.64393326  1
  S2-  S150  1  0.54464579  0.88942229  0.14670166  1
  S2-  S151  1  0.53677250  0.86776226  0.65078184  1
  S2-  S152  1  0.74050731  0.21920454  0.14288598  1
  S2-  S153  1  0.78509126  0.15776049  0.67059663  1
  S2-  S154  1  0.86665185  0.37797003  0.14785624  1
  S2-  S155  1  0.75848181  0.47154787  0.64535290  1
  S2-  S156  1  0.83476388  0.60977635  0.14536497  1
  S2-  S157  1  0.76541765  0.68171764  0.68492615  1
  S2-  S158  1  0.86648373  0.86475411  0.13398497  1
  S2-  S159  1  0.76645753  0.90235291  0.66654120  1
  S2-  S160  1  0.15809363  -0.01610770  0.34313368  1
  S2-  S161  1  0.07179500  0.03126879  0.83213625  1
  S2-  S162  1  0.14472942  0.32310803  0.35011749  1
  S2-  S163  1  0.13657510  0.25357273  0.85314914  1
  S2-  S164  1  0.11165494  0.54029480  0.31826878  1
  S2-  S165  1  0.11982585  0.53567072  0.84728545  1
  S2-  S166  1  0.14392936  0.75833095  0.32579221  1
  S2-  S167  1  0.02498299  0.75333857  0.85598707  1
  S2-  S168  1  0.38861588  -0.03931503  0.33879252  1
  S2-  S169  1  0.27296125  -0.00691703  0.86519017  1
  S2-  S170  1  0.36915160  0.18157237  0.34077153  1
  S2-  S171  1  0.35985494  0.21323168  0.84826977  1
  S2-  S172  1  0.30306819  0.49789870  0.35195674  1
  S2-  S173  1  0.33521448  0.47556649  0.85180248  1
  S2-  S174  1  0.36605465  0.74023948  0.33410213  1
  S2-  S175  1  0.25259257  0.74852955  0.86386846  1
  S2-  S176  1  0.61847033  0.00451423  0.34673069  1
  S2-  S177  1  0.70643867  0.01526529  0.84940450  1
  S2-  S178  1  0.60239602  0.24671679  0.34526438  1
  S2-  S179  1  0.62312844  0.24650304  0.84689536  1
  S2-  S180  1  0.72192512  0.49490507  0.35726156  1
  S2-  S181  1  0.68243029  0.49349266  0.84207929  1
  S2-  S182  1  0.63910203  0.72758069  0.34610156  1
  S2-  S183  1  0.61945753  0.72635719  0.83022325  1
  S2-  S184  1  0.84323912  -0.02550434  0.35037422  1
  S2-  S185  1  0.88304509  -0.06494890  0.81594808  1
  S2-  S186  1  0.84810569  0.28482615  0.34152522  1
  S2-  S187  1  0.86944630  0.16536435  0.85085196  1
  S2-  S188  1  0.91131329  0.52440716  0.31926440  1
  S2-  S189  1  0.88338485  0.54862682  0.83631478  1
  S2-  S190  1  0.89901573  0.74463998  0.35009628  1
  S2-  S191  1  0.81367650  0.74788403  0.83484481  1
  S2-  S192  1  0.00152757  0.11924638  0.46157921  1
  S2-  S193  1  -0.00548596  0.12822753  0.94844530  1
  S2-  S194  1  -0.00427953  0.37135260  0.43936426  1
  S2-  S195  1  -0.00558643  0.37836952  0.95383618  1
  S2-  S196  1  -0.00070682  0.61277377  0.44097934  1
  S2-  S197  1  -0.00375643  0.62135218  0.95721562  1
  S2-  S198  1  0.00033300  0.87170855  0.44970782  1
  S2-  S199  1  -0.00353368  0.88495992  0.94879950  1
  S2-  S200  1  0.24865502  0.11824819  0.45388629  1
  S2-  S201  1  0.24452681  0.13101231  0.96587707  1
  S2-  S202  1  0.25710676  0.36636479  0.45283937  1
  S2-  S203  1  0.24091123  0.37837850  0.95565998  1
  S2-  S204  1  0.25008880  0.62328291  0.44708704  1
  S2-  S205  1  0.24346164  0.62064038  0.96382268  1
  S2-  S206  1  0.24675919  0.87182968  0.44897206  1
  S2-  S207  1  0.24286567  0.87457142  0.96751974  1
  S2-  S208  1  0.50444271  0.11699738  0.45489912  1
  S2-  S209  1  0.49275096  0.12810879  0.95371026  1
  S2-  S210  1  0.50083494  0.37137067  0.44797389  1
  S2-  S211  1  0.49452729  0.37678501  0.95455224  1
  S2-  S212  1  0.50177892  0.62120217  0.44778945  1
  S2-  S213  1  0.49267571  0.62872876  0.94396929  1
  S2-  S214  1  0.50435107  0.87215318  0.44815679  1
  S2-  S215  1  0.49024091  0.87539449  0.94758389  1
  S2-  S216  1  0.74918350  0.11920927  0.46023407  1
  S2-  S217  1  0.74044069  0.13211983  0.95433149  1
  S2-  S218  1  0.75290626  0.36775461  0.45555965  1
  S2-  S219  1  0.74231669  0.37445878  0.95520879  1
  S2-  S220  1  0.75022217  0.61994903  0.46054919  1
  S2-  S221  1  0.74459673  0.62662207  0.95065134  1
  S2-  S222  1  0.75347150  0.86843640  0.46008412  1
  S2-  S223  1  0.74823807  0.87756838  0.94934679  1
  S2-  S224  1  0.11841808  0.00818428  0.04307082  1
  S2-  S225  1  0.12435115  -0.00696151  0.54550768  1
  S2-  S226  1  0.11425055  0.25477737  0.05793775  1
  S2-  S227  1  0.12390064  0.24924019  0.54296865  1
  S2-  S228  1  0.11802588  0.50173989  0.04927626  1
  S2-  S229  1  0.12657289  0.49650563  0.52974551  1
  S2-  S230  1  0.11421324  0.74315318  0.04983328  1
  S2-  S231  1  0.12091767  0.74271999  0.53810584  1
  S2-  S232  1  0.36749756  -0.00097415  0.05437487  1
  S2-  S233  1  0.37426592  -0.00369088  0.54811842  1
  S2-  S234  1  0.36959925  0.25637252  0.05349306  1
  S2-  S235  1  0.37578059  0.24233640  0.54773575  1
  S2-  S236  1  0.37387202  0.50354920  0.05277959  1
  S2-  S237  1  0.37556433  0.49727991  0.54878059  1
  S2-  S238  1  0.36872638  0.74977566  0.04919552  1
  S2-  S239  1  0.37464654  0.74445593  0.54595775  1
  S2-  S240  1  0.61934982  0.00184374  0.04376710  1
  S2-  S241  1  0.62549174  -0.01015717  0.54884219  1
  S2-  S242  1  0.61258340  0.24755212  0.04826797  1
  S2-  S243  1  0.62386774  0.24835616  0.54794152  1
  S2-  S244  1  0.61787703  0.50641376  0.04225755  1
  S2-  S245  1  0.62355677  0.49213993  0.54288830  1
  S2-  S246  1  0.61979618  0.75172281  0.04053387  1
  S2-  S247  1  0.62770538  0.74573743  0.54954355  1
  S2-  S248  1  0.86639287  0.00576913  0.03358577  1
  S2-  S249  1  0.87538758  -0.00458781  0.55588197  1
  S2-  S250  1  0.87146171  0.25222677  0.04244714  1
  S2-  S251  1  0.87834205  0.24439707  0.55018451  1
  S2-  S252  1  0.86722696  0.49916992  0.04214690  1
  S2-  S253  1  0.87681808  0.50075003  0.53706937  1
  S2-  S254  1  0.86952911  0.74643057  0.03748313  1
  S2-  S255  1  0.87705800  0.73772173  0.55763002  1
