# generated using pymatgen
data_La9Ce10Pr6Nd4Sm3(BiS2)32
_symmetry_space_group_name_H-M   'P 1'
_cell_length_a   16.21322729
_cell_length_b   16.20287209
_cell_length_c   27.12164706
_cell_angle_alpha   89.90355560
_cell_angle_beta   89.84736298
_cell_angle_gamma   90.02753872
_symmetry_Int_Tables_number   1
_chemical_formula_structural   La9Ce10Pr6Nd4Sm3(BiS2)32
_chemical_formula_sum   'La18 Ce20 Pr12 Nd8 Sm6 Bi64 S128'
_cell_volume   7124.84346466
_cell_formula_units_Z   2
loop_
 _symmetry_equiv_pos_site_id
 _symmetry_equiv_pos_as_xyz
  1  'x, y, z'
loop_
 _atom_type_symbol
 _atom_type_oxidation_number
  La3+  3.0
  Ce3+  3.0
  Pr3+  3.0
  Nd3+  3.0
  Sm3+  3.0
  Bi2+  2.0
  S2-  -2.0
loop_
 _atom_site_type_symbol
 _atom_site_label
 _atom_site_symmetry_multiplicity
 _atom_site_fract_x
 _atom_site_fract_y
 _atom_site_fract_z
 _atom_site_occupancy
  La3+  La0  1  0.11096463  0.75287475  0.94405893  1
  La3+  La1  1  0.63531772  0.26812641  0.42322271  1
  La3+  La2  1  0.75283667  0.87975172  0.61416165  1
  La3+  La3  1  0.24300134  0.39632704  0.58326950  1
  La3+  La4  1  0.48356248  0.38116583  0.06802370  1
  La3+  La5  1  0.72769755  0.62818289  0.06182338  1
  La3+  La6  1  0.51660860  0.38863406  0.57202899  1
  La3+  La7  1  0.25737941  0.14087259  0.56343730  1
  La3+  La8  1  0.23086714  0.37540531  0.09355996  1
  La3+  La9  1  0.50992583  0.64387082  0.56076552  1
  La3+  La10  1  0.72758875  0.12809998  0.07101319  1
  La3+  La11  1  0.35748578  0.48521226  0.88957521  1
  La3+  La12  1  0.73371822  0.87999327  0.06915402  1
  La3+  La13  1  0.11473867  0.25697636  0.93872258  1
  La3+  La14  1  -0.01533737  0.37546956  0.06880782  1
  La3+  La15  1  0.13720535  0.77207303  0.42227319  1
  La3+  La16  1  0.85996158  0.01216397  0.92542096  1
  La3+  La17  1  0.60888708  -0.00001347  0.93051216  1
  Ce3+  Ce18  1  0.76006358  0.38921865  0.55783651  1
  Ce3+  Ce19  1  0.47882218  0.62533769  0.05204757  1
  Ce3+  Ce20  1  0.88066389  0.76855753  0.44324290  1
  Ce3+  Ce21  1  0.63138070  0.51309856  0.43709166  1
  Ce3+  Ce22  1  0.13303232  0.01321765  0.43831292  1
  Ce3+  Ce23  1  0.00348332  0.39028714  0.55491794  1
  Ce3+  Ce24  1  0.00896058  0.64381622  0.55155739  1
  Ce3+  Ce25  1  0.48498156  0.12399613  0.05988277  1
  Ce3+  Ce26  1  0.38092983  0.01662311  0.44143746  1
  Ce3+  Ce27  1  0.88274372  0.51778870  0.44073771  1
  Ce3+  Ce28  1  0.35812849  0.25670494  0.94892242  1
  Ce3+  Ce29  1  0.73180937  0.37800459  0.05347119  1
  Ce3+  Ce30  1  0.00449515  0.13815448  0.55523061  1
  Ce3+  Ce31  1  0.25431865  0.88942682  0.56574520  1
  Ce3+  Ce32  1  0.38183462  0.51253529  0.44580857  1
  Ce3+  Ce33  1  0.88146199  0.26463850  0.43694025  1
  Ce3+  Ce34  1  -0.01394138  0.62875295  0.06429202  1
  Ce3+  Ce35  1  0.60856420  0.75391040  0.93624471  1
  Ce3+  Ce36  1  0.85971905  0.25330631  0.94275451  1
  Ce3+  Ce37  1  0.38227972  0.76627034  0.44226096  1
  Pr3+  Pr38  1  0.23001942  0.87971909  0.07520380  1
  Pr3+  Pr39  1  0.60629691  0.50313357  0.93157291  1
  Pr3+  Pr40  1  -0.02211056  0.87796661  0.06767129  1
  Pr3+  Pr41  1  0.63200760  0.01887849  0.42417242  1
  Pr3+  Pr42  1  0.85953520  0.50426249  0.94747357  1
  Pr3+  Pr43  1  0.11164104  0.00310290  0.94415385  1
  Pr3+  Pr44  1  0.75880988  0.64271316  0.56223638  1
  Pr3+  Pr45  1  0.13360845  0.51841942  0.42703527  1
  Pr3+  Pr46  1  0.23600806  0.12732758  0.07072358  1
  Pr3+  Pr47  1  0.35769226  0.74862078  0.94101636  1
  Pr3+  Pr48  1  0.50948156  0.14246977  0.55536519  1
  Pr3+  Pr49  1  0.25493628  0.64260817  0.56049275  1
  Nd3+  Nd50  1  0.63424115  0.76639148  0.43737385  1
  Nd3+  Nd51  1  0.86167369  0.75369935  0.93899497  1
  Nd3+  Nd52  1  -0.01777478  0.12571891  0.06230726  1
  Nd3+  Nd53  1  0.23354084  0.62785747  0.06785455  1
  Nd3+  Nd54  1  0.13242285  0.26657486  0.43690507  1
  Nd3+  Nd55  1  0.00762520  0.89141292  0.56939265  1
  Nd3+  Nd56  1  0.60517820  0.25502903  0.94021017  1
  Nd3+  Nd57  1  0.88252334  0.01060492  0.43970485  1
  Sm3+  Sm58  1  0.11656596  0.50154853  0.94667047  1
  Sm3+  Sm59  1  0.51275730  0.89423346  0.55236467  1
  Sm3+  Sm60  1  0.35926233  0.00315833  0.94230589  1
  Sm3+  Sm61  1  0.48773367  0.87632157  0.06406544  1
  Sm3+  Sm62  1  0.37936085  0.27061963  0.44416304  1
  Sm3+  Sm63  1  0.75558641  0.13256369  0.55707944  1
  Bi2+  Bi64  1  0.01810855  0.11296985  0.28998835  1
  Bi2+  Bi65  1  0.03511132  0.12346921  0.80250358  1
  Bi2+  Bi66  1  -0.03538886  0.30299426  0.30980898  1
  Bi2+  Bi67  1  -0.02446299  0.37723829  0.77345012  1
  Bi2+  Bi68  1  -0.01197950  0.61423039  0.26768814  1
  Bi2+  Bi69  1  -0.01666781  0.57843804  0.78460955  1
  Bi2+  Bi70  1  -0.01664960  0.89738725  0.29236717  1
  Bi2+  Bi71  1  0.00467573  0.82898953  0.79716622  1
  Bi2+  Bi72  1  0.21660919  0.10280844  0.29568608  1
  Bi2+  Bi73  1  0.30155973  0.10056577  0.74880433  1
  Bi2+  Bi74  1  0.28081191  0.37451824  0.29977320  1
  Bi2+  Bi75  1  0.23658141  0.35549958  0.78428412  1
  Bi2+  Bi76  1  0.24864529  0.61926868  0.30817802  1
  Bi2+  Bi77  1  0.22062795  0.61286274  0.79421926  1
  Bi2+  Bi78  1  0.27167184  0.91426014  0.29850755  1
  Bi2+  Bi79  1  0.29882603  0.85399845  0.78897473  1
  Bi2+  Bi80  1  0.49587031  0.11746786  0.27707253  1
  Bi2+  Bi81  1  0.49742499  0.06943497  0.80580946  1
  Bi2+  Bi82  1  0.49085832  0.38171645  0.28823553  1
  Bi2+  Bi83  1  0.49184136  0.25363723  0.78680256  1
  Bi2+  Bi84  1  0.57213746  0.60951384  0.29467028  1
  Bi2+  Bi85  1  0.50496684  0.65993553  0.80115093  1
  Bi2+  Bi86  1  0.47712855  0.91970726  0.25511394  1
  Bi2+  Bi87  1  0.49120148  0.87556481  0.77885728  1
  Bi2+  Bi88  1  0.75145513  0.11454817  0.29627899  1
  Bi2+  Bi89  1  0.74940121  0.16212082  0.79499602  1
  Bi2+  Bi90  1  0.72955791  0.37603299  0.28374253  1
  Bi2+  Bi91  1  0.77164575  0.40043741  0.78826623  1
  Bi2+  Bi92  1  0.76548932  0.57123703  0.29096281  1
  Bi2+  Bi93  1  0.67295414  0.57643655  0.81152943  1
  Bi2+  Bi94  1  0.73556252  0.82716811  0.28737353  1
  Bi2+  Bi95  1  0.75836594  0.86794673  0.81978453  1
  Bi2+  Bi96  1  0.21488260  0.00110344  0.19617441  1
  Bi2+  Bi97  1  0.14313437  -0.05382481  0.73972664  1
  Bi2+  Bi98  1  0.09018330  0.26031994  0.22049760  1
  Bi2+  Bi99  1  0.06834332  0.21905983  0.70381004  1
  Bi2+  Bi100  1  0.14345556  0.51356998  0.21408972  1
  Bi2+  Bi101  1  0.08542956  0.50531663  0.69857261  1
  Bi2+  Bi102  1  0.12882937  0.76741053  0.20742674  1
  Bi2+  Bi103  1  0.15248957  0.75446624  0.71001596  1
  Bi2+  Bi104  1  0.40042131  0.00511125  0.15944005  1
  Bi2+  Bi105  1  0.35172450  -0.05805878  0.68630138  1
  Bi2+  Bi106  1  0.34977538  0.17102809  0.21370738  1
  Bi2+  Bi107  1  0.38890949  0.22789415  0.68468336  1
  Bi2+  Bi108  1  0.38473506  0.55582933  0.21199776  1
  Bi2+  Bi109  1  0.37719761  0.50578419  0.68855611  1
  Bi2+  Bi110  1  0.42403336  0.72938285  0.25813894  1
  Bi2+  Bi111  1  0.34612169  0.74798896  0.69155114  1
  Bi2+  Bi112  1  0.63815664  0.00185031  0.20545729  1
  Bi2+  Bi113  1  0.62510181  0.01631568  0.71362169  1
  Bi2+  Bi114  1  0.61380064  0.25322583  0.21293910  1
  Bi2+  Bi115  1  0.65355937  0.24261275  0.70659132  1
  Bi2+  Bi116  1  0.61116441  0.46923634  0.19392907  1
  Bi2+  Bi117  1  0.70509283  0.51113151  0.70379902  1
  Bi2+  Bi118  1  0.61855326  0.72299694  0.20184219  1
  Bi2+  Bi119  1  0.56600982  0.74251382  0.70126851  1
  Bi2+  Bi120  1  0.90782191  -0.01893044  0.20390543  1
  Bi2+  Bi121  1  0.88491633  0.00623040  0.71143028  1
  Bi2+  Bi122  1  0.89401460  0.24247198  0.20756635  1
  Bi2+  Bi123  1  0.85567366  0.24673373  0.70888834  1
  Bi2+  Bi124  1  0.89389034  0.43959530  0.23133468  1
  Bi2+  Bi125  1  0.88170294  0.42979291  0.66970651  1
  Bi2+  Bi126  1  0.85649366  0.73196286  0.22007088  1
  Bi2+  Bi127  1  0.86718866  0.62478254  0.69724425  1
  S2-  S128  1  0.00246799  0.13039939  0.16229896  1
  S2-  S129  1  -0.00039490  0.09346115  0.65147128  1
  S2-  S130  1  0.08003451  0.39527806  0.15266310  1
  S2-  S131  1  0.08709166  0.36621425  0.63986603  1
  S2-  S132  1  0.02796382  0.64383788  0.15967576  1
  S2-  S133  1  0.02511869  0.65471076  0.64925940  1
  S2-  S134  1  0.06663479  0.88829544  0.15711662  1
  S2-  S135  1  -0.08524678  0.88162165  0.65578311  1
  S2-  S136  1  0.22499701  0.22950658  0.15332049  1
  S2-  S137  1  0.21638933  0.15264813  0.66209877  1
  S2-  S138  1  0.28703230  0.42732318  0.19315630  1
  S2-  S139  1  0.27991452  0.35794018  0.68445988  1
  S2-  S140  1  0.24573817  0.62620133  0.16898821  1
  S2-  S141  1  0.22830241  0.54787803  0.64359212  1
  S2-  S142  1  0.26471476  0.82875465  0.17144395  1
  S2-  S143  1  0.13850886  0.88383491  0.63994266  1
  S2-  S144  1  0.58767508  0.12864692  0.14107566  1
  S2-  S145  1  0.53791350  0.13838040  0.65555156  1
  S2-  S146  1  0.49145338  0.35235316  0.16930602  1
  S2-  S147  1  0.47161084  0.37593204  0.67133276  1
  S2-  S148  1  0.52283930  0.60559941  0.14640090  1
  S2-  S149  1  0.51966497  0.59806190  0.65830214  1
  S2-  S150  1  0.60647123  0.86385658  0.14080550  1
  S2-  S151  1  0.57894575  0.89714987  0.64347664  1
  S2-  S152  1  0.78074873  0.05270365  0.15956367  1
  S2-  S153  1  0.75596089  0.05215197  0.64605291  1
  S2-  S154  1  0.71609091  0.35912757  0.14974815  1
  S2-  S155  1  0.66273936  0.37514674  0.63851951  1
  S2-  S156  1  0.75583384  0.63724215  0.16190833  1
  S2-  S157  1  0.73234070  0.71621120  0.65309879  1
  S2-  S158  1  0.85462079  0.85783666  0.14402286  1
  S2-  S159  1  0.74903057  0.89859869  0.72651025  1
  S2-  S160  1  0.12225048  -0.08686646  0.35644264  1
  S2-  S161  1  0.11385526  -0.00863641  0.84343547  1
  S2-  S162  1  0.19525839  0.26083239  0.34325324  1
  S2-  S163  1  0.14319681  0.23159908  0.83946048  1
  S2-  S164  1  0.15111915  0.47548210  0.32730132  1
  S2-  S165  1  0.17892809  0.47712060  0.85475323  1
  S2-  S166  1  0.11076477  0.69077842  0.33127065  1
  S2-  S167  1  0.12473719  0.72784899  0.84493284  1
  S2-  S168  1  0.40692601  0.00295157  0.34413470  1
  S2-  S169  1  0.34364430  0.03155082  0.84586129  1
  S2-  S170  1  0.40913499  0.27809242  0.34541552  1
  S2-  S171  1  0.35798391  0.31212865  0.85441092  1
  S2-  S172  1  0.37353473  0.50545652  0.34712382  1
  S2-  S173  1  0.34044083  0.48494392  0.78134948  1
  S2-  S174  1  0.31993312  0.76663441  0.35046078  1
  S2-  S175  1  0.35023152  0.65747738  0.85358791  1
  S2-  S176  1  0.68189232  -0.03175922  0.32572252  1
  S2-  S177  1  0.72386276  0.02721195  0.85524684  1
  S2-  S178  1  0.61089102  0.14717075  0.35017562  1
  S2-  S179  1  0.63119105  0.27508641  0.84164546  1
  S2-  S180  1  0.60792955  0.40680072  0.35869813  1
  S2-  S181  1  0.52108782  0.49703038  0.84375664  1
  S2-  S182  1  0.59980254  0.76321914  0.33902395  1
  S2-  S183  1  0.59799710  0.86042389  0.85849169  1
  S2-  S184  1  0.88709949  0.03477508  0.33857168  1
  S2-  S185  1  0.90954178  -0.05255779  0.83106692  1
  S2-  S186  1  0.78619356  0.25657688  0.35470694  1
  S2-  S187  1  0.89022440  0.17974404  0.85591248  1
  S2-  S188  1  0.90770639  0.52961572  0.34455793  1
  S2-  S189  1  0.89138789  0.48072221  0.84899277  1
  S2-  S190  1  0.88639607  0.79184844  0.34494456  1
  S2-  S191  1  0.87483772  0.73912815  0.83895466  1
  S2-  S192  1  0.00800488  0.13960320  0.44674974  1
  S2-  S193  1  -0.00996495  0.12938490  0.95694731  1
  S2-  S194  1  0.00827354  0.39091980  0.44712853  1
  S2-  S195  1  -0.01349547  0.37979604  0.95784411  1
  S2-  S196  1  0.00816296  0.64357009  0.44540173  1
  S2-  S197  1  -0.01233381  0.62407900  0.95489765  1
  S2-  S198  1  0.00648526  0.88966218  0.45888399  1
  S2-  S199  1  -0.01476516  0.87816213  0.95646718  1
  S2-  S200  1  0.25849131  0.14224025  0.45342008  1
  S2-  S201  1  0.23745524  0.12649031  0.95928378  1
  S2-  S202  1  0.25440334  0.39103619  0.45592379  1
  S2-  S203  1  0.23659753  0.38063906  0.96372862  1
  S2-  S204  1  0.25847930  0.63977445  0.45311133  1
  S2-  S205  1  0.23336910  0.62520779  0.96124835  1
  S2-  S206  1  0.26079696  0.89316862  0.45809050  1
  S2-  S207  1  0.23776785  0.87885125  0.95799841  1
  S2-  S208  1  0.49951983  0.14503645  0.45056022  1
  S2-  S209  1  0.48170104  0.12890821  0.95123871  1
  S2-  S210  1  0.50367465  0.38945528  0.46229560  1
  S2-  S211  1  0.48114838  0.38077320  0.95654639  1
  S2-  S212  1  0.50705317  0.64008692  0.45113517  1
  S2-  S213  1  0.48556688  0.62921674  0.94960836  1
  S2-  S214  1  0.50817360  0.89066028  0.44686702  1
  S2-  S215  1  0.47740554  0.87800032  0.95756308  1
  S2-  S216  1  0.76052708  0.13505505  0.45339938  1
  S2-  S217  1  0.73181884  0.13590494  0.95992390  1
  S2-  S218  1  0.76164393  0.39404378  0.45247222  1
  S2-  S219  1  0.73387383  0.37864120  0.94758741  1
  S2-  S220  1  0.75584479  0.64088621  0.45049036  1
  S2-  S221  1  0.73362030  0.62943400  0.95123791  1
  S2-  S222  1  0.75543725  0.89080361  0.44288896  1
  S2-  S223  1  0.74006681  0.87676351  0.95670648  1
  S2-  S224  1  0.10947012  0.00476873  0.05107633  1
  S2-  S225  1  0.13248480  0.01737500  0.54372295  1
  S2-  S226  1  0.10753964  0.25063206  0.04829443  1
  S2-  S227  1  0.13082386  0.26194155  0.54200207  1
  S2-  S228  1  0.11085869  0.50456458  0.05104779  1
  S2-  S229  1  0.12651530  0.51615065  0.53580287  1
  S2-  S230  1  0.10988162  0.75410229  0.05205166  1
  S2-  S231  1  0.13403335  0.76463207  0.53703738  1
  S2-  S232  1  0.35861102  -0.00172554  0.04670008  1
  S2-  S233  1  0.38475392  0.01461582  0.54910538  1
  S2-  S234  1  0.36185284  0.25136095  0.05522680  1
  S2-  S235  1  0.37918249  0.27007161  0.55095135  1
  S2-  S236  1  0.35465699  0.50200008  0.06420185  1
  S2-  S237  1  0.38202639  0.51456720  0.55241761  1
  S2-  S238  1  0.35941955  0.75606316  0.05150576  1
  S2-  S239  1  0.38493234  0.77007037  0.54904940  1
  S2-  S240  1  0.60607029  -0.00000658  0.04007943  1
  S2-  S241  1  0.62933016  0.01832625  0.53502888  1
  S2-  S242  1  0.60629023  0.25667028  0.04535450  1
  S2-  S243  1  0.63823568  0.25960140  0.53674676  1
  S2-  S244  1  0.60793441  0.50203526  0.04068292  1
  S2-  S245  1  0.63599581  0.51845622  0.54332682  1
  S2-  S246  1  0.60461861  0.75084970  0.04038266  1
  S2-  S247  1  0.63397345  0.76958522  0.54289920  1
  S2-  S248  1  0.85878755  0.00596790  0.04051842  1
  S2-  S249  1  0.88165742  0.01334525  0.54436207  1
  S2-  S250  1  0.85829636  0.25205449  0.05134212  1
  S2-  S251  1  0.87967939  0.26056137  0.54616183  1
  S2-  S252  1  0.85946560  0.50323931  0.05558638  1
  S2-  S253  1  0.88274217  0.51868282  0.54613430  1
  S2-  S254  1  0.85951872  0.74572255  0.04469141  1
  S2-  S255  1  0.88085698  0.76702988  0.54837032  1
