# generated using pymatgen
data_La9Ce10Pr6Nd4Sm3(BiS2)32
_symmetry_space_group_name_H-M   'P 1'
_cell_length_a   16.23386438
_cell_length_b   16.24920272
_cell_length_c   27.08896281
_cell_angle_alpha   90.12669706
_cell_angle_beta   89.95038182
_cell_angle_gamma   89.97154745
_symmetry_Int_Tables_number   1
_chemical_formula_structural   La9Ce10Pr6Nd4Sm3(BiS2)32
_chemical_formula_sum   'La18 Ce20 Pr12 Nd8 Sm6 Bi64 S128'
_cell_volume   7145.70476142
_cell_formula_units_Z   2
loop_
 _symmetry_equiv_pos_site_id
 _symmetry_equiv_pos_as_xyz
  1  'x, y, z'
loop_
 _atom_type_symbol
 _atom_type_oxidation_number
  La3+  3.0
  Ce3+  3.0
  Pr3+  3.0
  Nd3+  3.0
  Sm3+  3.0
  Bi2+  2.0
  S2-  -2.0
loop_
 _atom_site_type_symbol
 _atom_site_label
 _atom_site_symmetry_multiplicity
 _atom_site_fract_x
 _atom_site_fract_y
 _atom_site_fract_z
 _atom_site_occupancy
  La3+  La0  1  0.75824166  0.63107327  0.07955074  1
  La3+  La1  1  0.61625660  0.00524953  0.43166581  1
  La3+  La2  1  0.49116645  0.37968474  0.56875284  1
  La3+  La3  1  0.24826481  0.88528254  0.06548886  1
  La3+  La4  1  0.49986528  0.63860486  0.08286610  1
  La3+  La5  1  0.00635828  0.12329044  0.09311144  1
  La3+  La6  1  0.24181790  0.63853375  0.07629474  1
  La3+  La7  1  0.74511823  0.12787986  0.57119209  1
  La3+  La8  1  0.86851215  0.51613203  0.92409151  1
  La3+  La9  1  0.61958226  0.49370406  0.42503926  1
  La3+  La10  1  -0.00112351  0.38564754  0.05983683  1
  La3+  La11  1  -0.00952715  0.87764146  0.57410496  1
  La3+  La12  1  -0.01580798  0.62921918  0.58521939  1
  La3+  La13  1  0.13387312  0.76157232  0.91103923  1
  La3+  La14  1  0.24683861  0.38310364  0.07393023  1
  La3+  La15  1  0.11561950  0.51003232  0.42615728  1
  La3+  La16  1  0.62767779  0.75631109  0.94757200  1
  La3+  La17  1  0.23710477  0.37749699  0.55168498  1
  Ce3+  Ce18  1  0.87388956  0.50251445  0.43544615  1
  Ce3+  Ce19  1  0.74308040  0.62757732  0.54649009  1
  Ce3+  Ce20  1  0.36799470  0.74819727  0.43893408  1
  Ce3+  Ce21  1  0.36793899  0.00431491  0.44280468  1
  Ce3+  Ce22  1  0.50348543  0.38270993  0.06196892  1
  Ce3+  Ce23  1  0.49985516  0.88379958  0.06783632  1
  Ce3+  Ce24  1  0.37589899  0.50833300  0.95374720  1
  Ce3+  Ce25  1  0.87891147  0.00455769  0.93093064  1
  Ce3+  Ce26  1  0.12948687  0.50766372  0.93512292  1
  Ce3+  Ce27  1  0.23973189  0.12703198  0.55370438  1
  Ce3+  Ce28  1  0.00306199  0.63755408  0.05162757  1
  Ce3+  Ce29  1  0.37832934  0.26161451  0.94465013  1
  Ce3+  Ce30  1  0.49568519  0.13133833  0.57482476  1
  Ce3+  Ce31  1  0.25159910  0.13171318  0.06345804  1
  Ce3+  Ce32  1  0.61492686  0.74715823  0.42656455  1
  Ce3+  Ce33  1  0.49239549  0.62026914  0.54866133  1
  Ce3+  Ce34  1  0.49480286  0.87652121  0.55125238  1
  Ce3+  Ce35  1  0.74873955  0.38370396  0.06418975  1
  Ce3+  Ce36  1  0.37342620  0.75453427  0.94296915  1
  Ce3+  Ce37  1  0.11781661  0.75048591  0.44590227  1
  Pr3+  Pr38  1  0.11821381  0.00067885  0.43995078  1
  Pr3+  Pr39  1  -0.00559688  0.38080875  0.56240216  1
  Pr3+  Pr40  1  0.61703908  0.25050641  0.44234166  1
  Pr3+  Pr41  1  0.86835375  0.75334943  0.43722317  1
  Pr3+  Pr42  1  0.74483912  0.38131582  0.56073470  1
  Pr3+  Pr43  1  0.86830439  0.00100714  0.44575769  1
  Pr3+  Pr44  1  0.73062080  0.87171116  0.56335769  1
  Pr3+  Pr45  1  0.75846187  0.89666549  0.06894669  1
  Pr3+  Pr46  1  0.24341392  0.62572047  0.56090809  1
  Pr3+  Pr47  1  0.36229103  0.49035851  0.41439010  1
  Pr3+  Pr48  1  -0.00161953  0.12918963  0.58783489  1
  Pr3+  Pr49  1  0.87771434  0.25788433  0.94482750  1
  Nd3+  Nd50  1  0.10579204  0.24579447  0.42606232  1
  Nd3+  Nd51  1  0.12850915  0.01002686  0.93406821  1
  Nd3+  Nd52  1  0.74896745  0.13511648  0.05950046  1
  Nd3+  Nd53  1  0.87601758  0.76101379  0.93453547  1
  Nd3+  Nd54  1  0.37723983  0.00735981  0.93997452  1
  Nd3+  Nd55  1  0.62692069  0.00528543  0.94115646  1
  Nd3+  Nd56  1  0.63745135  0.25872588  0.93094122  1
  Nd3+  Nd57  1  0.12788597  0.25772404  0.94473829  1
  Sm3+  Sm58  1  0.24455209  0.87564842  0.56056591  1
  Sm3+  Sm59  1  0.62493644  0.50940309  0.95058115  1
  Sm3+  Sm60  1  0.36646340  0.25032808  0.43723743  1
  Sm3+  Sm61  1  0.50227936  0.13578969  0.05049526  1
  Sm3+  Sm62  1  0.87155936  0.25001518  0.44732611  1
  Sm3+  Sm63  1  0.00252152  0.88606223  0.05151277  1
  Bi2+  Bi64  1  -0.01451458  0.12069778  0.28755496  1
  Bi2+  Bi65  1  -0.03536728  0.08926381  0.81773464  1
  Bi2+  Bi66  1  -0.04673508  0.37648253  0.29251925  1
  Bi2+  Bi67  1  0.03037433  0.36619109  0.79150659  1
  Bi2+  Bi68  1  0.00953848  0.64076616  0.28834543  1
  Bi2+  Bi69  1  -0.02334650  0.59462351  0.78348387  1
  Bi2+  Bi70  1  0.02186492  0.88720543  0.27274204  1
  Bi2+  Bi71  1  -0.00132191  0.89633544  0.79133135  1
  Bi2+  Bi72  1  0.24395446  0.08346620  0.28576561  1
  Bi2+  Bi73  1  0.16416373  0.11592484  0.80300807  1
  Bi2+  Bi74  1  0.26971727  0.34862693  0.28303021  1
  Bi2+  Bi75  1  0.28958703  0.43619596  0.81380587  1
  Bi2+  Bi76  1  0.26415657  0.62251254  0.29950552  1
  Bi2+  Bi77  1  0.29594877  0.61123336  0.75846359  1
  Bi2+  Bi78  1  0.21371957  0.87627896  0.28518739  1
  Bi2+  Bi79  1  0.27808874  0.87000581  0.78901105  1
  Bi2+  Bi80  1  0.45075178  0.10646991  0.32923085  1
  Bi2+  Bi81  1  0.52252571  0.11300013  0.78315757  1
  Bi2+  Bi82  1  0.51612462  0.27372963  0.28579746  1
  Bi2+  Bi83  1  0.47517432  0.38325420  0.79130440  1
  Bi2+  Bi84  1  0.51084476  0.65998556  0.29194448  1
  Bi2+  Bi85  1  0.48015380  0.65865380  0.79770493  1
  Bi2+  Bi86  1  0.48285124  0.95810796  0.25269633  1
  Bi2+  Bi87  1  0.47443074  0.85969712  0.79140483  1
  Bi2+  Bi88  1  0.71928831  0.15915033  0.28650500  1
  Bi2+  Bi89  1  0.78663989  0.15094457  0.78035263  1
  Bi2+  Bi90  1  0.77127682  0.45422242  0.30625883  1
  Bi2+  Bi91  1  0.73208206  0.39158728  0.80265055  1
  Bi2+  Bi92  1  0.78289807  0.64307542  0.27466208  1
  Bi2+  Bi93  1  0.73031943  0.65636942  0.79120909  1
  Bi2+  Bi94  1  0.78490699  0.89830146  0.30805859  1
  Bi2+  Bi95  1  0.73047345  0.91123054  0.79623260  1
  Bi2+  Bi96  1  0.15558670  -0.01425289  0.19438968  1
  Bi2+  Bi97  1  0.13340770  0.00523671  0.71059806  1
  Bi2+  Bi98  1  0.09390237  0.24587664  0.22200555  1
  Bi2+  Bi99  1  0.17514973  0.25151222  0.71587789  1
  Bi2+  Bi100  1  0.15285297  0.48967303  0.19879609  1
  Bi2+  Bi101  1  0.12943012  0.47459208  0.68887540  1
  Bi2+  Bi102  1  0.08471291  0.74845700  0.20132408  1
  Bi2+  Bi103  1  0.11725892  0.75131239  0.71343175  1
  Bi2+  Bi104  1  0.35384541  -0.00899799  0.16458479  1
  Bi2+  Bi105  1  0.40337442  0.01210201  0.70725462  1
  Bi2+  Bi106  1  0.38994953  0.16157516  0.22071490  1
  Bi2+  Bi107  1  0.34324029  0.17537841  0.75697516  1
  Bi2+  Bi108  1  0.40131158  0.47824312  0.21349281  1
  Bi2+  Bi109  1  0.37578669  0.46190269  0.70376141  1
  Bi2+  Bi110  1  0.35902712  0.81245583  0.21453416  1
  Bi2+  Bi111  1  0.39796629  0.74869947  0.70287337  1
  Bi2+  Bi112  1  0.63655645  0.04835029  0.20832107  1
  Bi2+  Bi113  1  0.59479587  -0.02823581  0.71430587  1
  Bi2+  Bi114  1  0.64541415  0.26655555  0.18079242  1
  Bi2+  Bi115  1  0.60134986  0.23961406  0.70679755  1
  Bi2+  Bi116  1  0.64063390  0.45531950  0.20881745  1
  Bi2+  Bi117  1  0.58319510  0.53218973  0.72295691  1
  Bi2+  Bi118  1  0.62399037  0.79937719  0.22033204  1
  Bi2+  Bi119  1  0.59282070  0.72490267  0.70258258  1
  Bi2+  Bi120  1  0.86979233  -0.04480247  0.21142571  1
  Bi2+  Bi121  1  0.85945926  0.00671204  0.71711019  1
  Bi2+  Bi122  1  0.82081550  0.28709680  0.22488905  1
  Bi2+  Bi123  1  0.94944998  0.22218436  0.72720824  1
  Bi2+  Bi124  1  0.90720872  0.51615071  0.21379070  1
  Bi2+  Bi125  1  0.77209908  0.49735096  0.70598496  1
  Bi2+  Bi126  1  0.89276219  0.70328565  0.18351842  1
  Bi2+  Bi127  1  0.84118700  0.75216823  0.71275581  1
  S2-  S128  1  -0.04773081  0.17959939  0.18606125  1
  S2-  S129  1  0.00209737  -0.00836155  0.65304481  1
  S2-  S130  1  0.06187054  0.37828559  0.15421075  1
  S2-  S131  1  0.03018263  0.33604850  0.65810149  1
  S2-  S132  1  0.08989175  0.61010353  0.13656414  1
  S2-  S133  1  -0.01131974  0.54471164  0.67808332  1
  S2-  S134  1  -0.00005031  0.96393504  0.14104930  1
  S2-  S135  1  -0.00870585  0.76222770  0.65422037  1
  S2-  S136  1  0.15993178  0.14557534  0.14846488  1
  S2-  S137  1  0.15870025  0.13645853  0.64073120  1
  S2-  S138  1  0.26979528  0.36436135  0.17528281  1
  S2-  S139  1  0.25973437  0.36552065  0.65235822  1
  S2-  S140  1  0.29815007  0.57808667  0.17171423  1
  S2-  S141  1  0.19142613  0.62101461  0.65835672  1
  S2-  S142  1  0.23835503  0.77854659  0.14599931  1
  S2-  S143  1  0.19790716  0.86832040  0.65608104  1
  S2-  S144  1  0.52837052  0.14003905  0.14814872  1
  S2-  S145  1  0.62440145  0.10936013  0.64562230  1
  S2-  S146  1  0.49829826  0.36465666  0.15959294  1
  S2-  S147  1  0.47796283  0.26231214  0.64520008  1
  S2-  S148  1  0.52429123  0.56963274  0.17858377  1
  S2-  S149  1  0.49312446  0.52337418  0.63120200  1
  S2-  S150  1  0.49624393  0.78181627  0.14899631  1
  S2-  S151  1  0.58972951  0.85934894  0.63304205  1
  S2-  S152  1  0.77361816  0.04989564  0.14407442  1
  S2-  S153  1  0.85812738  0.14950938  0.64990789  1
  S2-  S154  1  0.77264021  0.47598485  0.14524344  1
  S2-  S155  1  0.71265212  0.35850333  0.66049373  1
  S2-  S156  1  0.71079522  0.67014080  0.17746622  1
  S2-  S157  1  0.79847161  0.63444689  0.63942043  1
  S2-  S158  1  0.74563254  0.85859304  0.16854141  1
  S2-  S159  1  0.80535859  0.87719037  0.65649757  1
  S2-  S160  1  0.09920312  0.05353407  0.34363981  1
  S2-  S161  1  0.13833880  -0.08938831  0.85037372  1
  S2-  S162  1  0.16353070  0.26024526  0.32748524  1
  S2-  S163  1  0.13181998  0.27695081  0.84498692  1
  S2-  S164  1  0.22160541  0.48706900  0.34380354  1
  S2-  S165  1  0.10009992  0.51129952  0.83592431  1
  S2-  S166  1  0.12878620  0.68149626  0.35542307  1
  S2-  S167  1  0.05864584  0.72214635  0.81423566  1
  S2-  S168  1  0.32942231  -0.02879356  0.34873235  1
  S2-  S169  1  0.37631456  -0.01913022  0.84145213  1
  S2-  S170  1  0.39018490  0.33837685  0.35328063  1
  S2-  S171  1  0.35934412  0.27897825  0.84734883  1
  S2-  S172  1  0.41377425  0.53791153  0.31676658  1
  S2-  S173  1  0.42471313  0.51834419  0.85936062  1
  S2-  S174  1  0.37674817  0.73906721  0.34030589  1
  S2-  S175  1  0.28598596  0.74576895  0.85730754  1
  S2-  S176  1  0.66960290  0.00853095  0.33534218  1
  S2-  S177  1  0.64919609  0.04019765  0.84388573  1
  S2-  S178  1  0.65103181  0.28899416  0.34531224  1
  S2-  S179  1  0.59312855  0.30306449  0.83689495  1
  S2-  S180  1  0.62153661  0.55048184  0.32905613  1
  S2-  S181  1  0.68598762  0.52198534  0.85835810  1
  S2-  S182  1  0.61710818  0.78436112  0.32962887  1
  S2-  S183  1  0.65822702  0.78607542  0.84860346  1
  S2-  S184  1  0.88207004  0.01548276  0.34395448  1
  S2-  S185  1  0.86839331  -0.11952189  0.85837497  1
  S2-  S186  1  0.95791327  0.23964553  0.36207006  1
  S2-  S187  1  0.78060312  0.25518880  0.86066148  1
  S2-  S188  1  0.98245132  0.51060032  0.35777321  1
  S2-  S189  1  0.89001163  0.43338069  0.83363602  1
  S2-  S190  1  0.87390708  0.75020751  0.33518494  1
  S2-  S191  1  0.86382718  0.65039605  0.85513876  1
  S2-  S192  1  -0.00782553  0.12247377  0.46487130  1
  S2-  S193  1  0.00371870  0.13390281  0.94842712  1
  S2-  S194  1  -0.00626908  0.37653224  0.45584582  1
  S2-  S195  1  0.00172976  0.38300979  0.95082573  1
  S2-  S196  1  -0.00918061  0.63200387  0.46127072  1
  S2-  S197  1  0.00785163  0.63738638  0.94679558  1
  S2-  S198  1  -0.00566946  0.87635471  0.45256013  1
  S2-  S199  1  0.00739195  0.88239282  0.94944135  1
  S2-  S200  1  0.24186919  0.12887710  0.44706437  1
  S2-  S201  1  0.25402943  0.13349472  0.95319084  1
  S2-  S202  1  0.23590314  0.36856034  0.44603785  1
  S2-  S203  1  0.25210139  0.38217472  0.96093848  1
  S2-  S204  1  0.24696128  0.62622044  0.45386605  1
  S2-  S205  1  0.25051719  0.62969006  0.95896590  1
  S2-  S206  1  0.24397710  0.87434680  0.45468993  1
  S2-  S207  1  0.25481051  0.88592830  0.95674945  1
  S2-  S208  1  0.49125070  0.12972053  0.46014989  1
  S2-  S209  1  0.50392474  0.13425502  0.94499206  1
  S2-  S210  1  0.49383384  0.37518848  0.45540183  1
  S2-  S211  1  0.50593375  0.38305616  0.95563860  1
  S2-  S212  1  0.49107857  0.62031137  0.44267557  1
  S2-  S213  1  0.50180642  0.63238670  0.96583337  1
  S2-  S214  1  0.49176671  0.87747524  0.44417360  1
  S2-  S215  1  0.50012918  0.88309069  0.95611343  1
  S2-  S216  1  0.74580689  0.12952726  0.45533558  1
  S2-  S217  1  0.75279440  0.12730013  0.95454677  1
  S2-  S218  1  0.75008068  0.37477042  0.45229670  1
  S2-  S219  1  0.75128085  0.38687102  0.95958631  1
  S2-  S220  1  0.74459678  0.62564396  0.43953912  1
  S2-  S221  1  0.74957184  0.63459201  0.96639634  1
  S2-  S222  1  0.73873608  0.87569214  0.45026685  1
  S2-  S223  1  0.75057096  0.88548122  0.96061914  1
  S2-  S224  1  0.12660150  0.01074740  0.04061853  1
  S2-  S225  1  0.12299601  -0.00368243  0.54575591  1
  S2-  S226  1  0.12272761  0.25576941  0.04918716  1
  S2-  S227  1  0.11439162  0.25083239  0.53879699  1
  S2-  S228  1  0.12771973  0.50464130  0.04048743  1
  S2-  S229  1  0.11454867  0.50765794  0.54470134  1
  S2-  S230  1  0.12197250  0.76361400  0.03862363  1
  S2-  S231  1  0.12041722  0.75241847  0.54974517  1
  S2-  S232  1  0.38000519  0.01189689  0.04544441  1
  S2-  S233  1  0.36784461  0.00089245  0.55150414  1
  S2-  S234  1  0.37612741  0.25662630  0.05298218  1
  S2-  S235  1  0.36361083  0.25073668  0.54175101  1
  S2-  S236  1  0.37646362  0.50758123  0.05911026  1
  S2-  S237  1  0.36295578  0.50068795  0.53406144  1
  S2-  S238  1  0.37492865  0.75974167  0.04757006  1
  S2-  S239  1  0.36941316  0.75191791  0.54864800  1
  S2-  S240  1  0.62222802  0.00962848  0.04784798  1
  S2-  S241  1  0.61535592  0.00304638  0.53940915  1
  S2-  S242  1  0.62661546  0.25705499  0.04032165  1
  S2-  S243  1  0.62145117  0.25589723  0.54709372  1
  S2-  S244  1  0.62514225  0.51032991  0.05493469  1
  S2-  S245  1  0.62272803  0.50179125  0.53481074  1
  S2-  S246  1  0.63274820  0.76200656  0.05515680  1
  S2-  S247  1  0.61434598  0.74397130  0.53348225  1
  S2-  S248  1  0.88313715  0.01408805  0.03825731  1
  S2-  S249  1  0.86245296  -0.00253764  0.55046827  1
  S2-  S250  1  0.87664278  0.25527100  0.05435344  1
  S2-  S251  1  0.87068488  0.25716784  0.54988028  1
  S2-  S252  1  0.88054657  0.51152813  0.04103527  1
  S2-  S253  1  0.86910971  0.50316441  0.54421101  1
  S2-  S254  1  0.87806594  0.76473464  0.04553266  1
  S2-  S255  1  0.86454413  0.75476434  0.54315319  1
