# generated using pymatgen
data_La9Ce10Pr6Nd4Sm3(BiS2)32
_symmetry_space_group_name_H-M   'P 1'
_cell_length_a   16.19749965
_cell_length_b   16.17867341
_cell_length_c   27.19159051
_cell_angle_alpha   89.78284248
_cell_angle_beta   90.08673582
_cell_angle_gamma   89.96097704
_symmetry_Int_Tables_number   1
_chemical_formula_structural   La9Ce10Pr6Nd4Sm3(BiS2)32
_chemical_formula_sum   'La18 Ce20 Pr12 Nd8 Sm6 Bi64 S128'
_cell_volume   7125.60558042
_cell_formula_units_Z   2
loop_
 _symmetry_equiv_pos_site_id
 _symmetry_equiv_pos_as_xyz
  1  'x, y, z'
loop_
 _atom_type_symbol
 _atom_type_oxidation_number
  La3+  3.0
  Ce3+  3.0
  Pr3+  3.0
  Nd3+  3.0
  Sm3+  3.0
  Bi2+  2.0
  S2-  -2.0
loop_
 _atom_site_type_symbol
 _atom_site_label
 _atom_site_symmetry_multiplicity
 _atom_site_fract_x
 _atom_site_fract_y
 _atom_site_fract_z
 _atom_site_occupancy
  La3+  La0  1  0.64583006  0.51288371  0.91807955  1
  La3+  La1  1  0.27284963  0.62676343  0.07311472  1
  La3+  La2  1  0.11508169  0.48687830  0.42703270  1
  La3+  La3  1  -0.00934343  0.86098343  0.59028658  1
  La3+  La4  1  0.13473719  0.74943989  0.93165168  1
  La3+  La5  1  0.27949644  0.37147698  0.08429189  1
  La3+  La6  1  -0.00875300  0.11132674  0.55899439  1
  La3+  La7  1  0.14467459  0.25771791  0.94073579  1
  La3+  La8  1  0.60878011  -0.02304718  0.40678931  1
  La3+  La9  1  0.49602112  0.11324673  0.56665865  1
  La3+  La10  1  0.49296326  0.86402089  0.57203946  1
  La3+  La11  1  0.26836184  0.12417544  0.06269499  1
  La3+  La12  1  0.13441153  0.23441805  0.38340129  1
  La3+  La13  1  0.46417525  0.36733154  0.62344755  1
  La3+  La14  1  0.39136679  0.50585252  0.93464826  1
  La3+  La15  1  0.87089518  -0.01769847  0.42511139  1
  La3+  La16  1  0.64487572  0.24249980  0.93016369  1
  La3+  La17  1  0.86955230  0.23404687  0.42281428  1
  Ce3+  Ce18  1  0.76222445  0.37411384  0.05968290  1
  Ce3+  Ce19  1  0.24157546  0.61041877  0.55500479  1
  Ce3+  Ce20  1  0.76709482  0.12032192  0.07326550  1
  Ce3+  Ce21  1  0.39126157  0.25816838  0.93050843  1
  Ce3+  Ce22  1  0.01612611  0.87704473  0.05534637  1
  Ce3+  Ce23  1  0.36944314  -0.01155562  0.44275074  1
  Ce3+  Ce24  1  0.51836408  0.12688211  0.05480267  1
  Ce3+  Ce25  1  0.36870047  0.47985828  0.44597684  1
  Ce3+  Ce26  1  0.14218556  0.50223871  0.95264631  1
  Ce3+  Ce27  1  0.61515811  0.73617950  0.44575398  1
  Ce3+  Ce28  1  0.01471385  0.37678181  0.05939555  1
  Ce3+  Ce29  1  0.01583727  0.12373002  0.06357811  1
  Ce3+  Ce30  1  0.49180967  0.60812755  0.56655340  1
  Ce3+  Ce31  1  0.23640082  0.86152306  0.55675068  1
  Ce3+  Ce32  1  0.89079050  0.24654366  0.94520239  1
  Ce3+  Ce33  1  -0.00425823  0.35373300  0.56125498  1
  Ce3+  Ce34  1  0.64493046  0.00129039  0.94092903  1
  Ce3+  Ce35  1  0.77106811  0.87849501  0.06683646  1
  Ce3+  Ce36  1  0.88580809  0.50427820  0.94630946  1
  Ce3+  Ce37  1  0.36902410  0.23721144  0.44243064  1
  Pr3+  Pr38  1  0.86676544  0.73789329  0.43564904  1
  Pr3+  Pr39  1  0.74403994  0.10697682  0.54680710  1
  Pr3+  Pr40  1  0.76497760  0.62729578  0.06970211  1
  Pr3+  Pr41  1  0.37018590  0.73768500  0.44355523  1
  Pr3+  Pr42  1  0.38921850  0.00353666  0.92788860  1
  Pr3+  Pr43  1  0.74477271  0.61113673  0.56719219  1
  Pr3+  Pr44  1  0.73648037  0.35467928  0.56708061  1
  Pr3+  Pr45  1  0.51639367  0.87878029  0.05963226  1
  Pr3+  Pr46  1  0.39126794  0.75156114  0.93437483  1
  Pr3+  Pr47  1  -0.00286425  0.61128482  0.56679333  1
  Pr3+  Pr48  1  0.11736046  0.73431270  0.43206996  1
  Pr3+  Pr49  1  0.86612235  0.48496926  0.44835727  1
  Nd3+  Nd50  1  0.26478640  0.87791498  0.06078885  1
  Nd3+  Nd51  1  0.11690530  -0.01214122  0.43622181  1
  Nd3+  Nd52  1  0.89897352  0.00992398  0.92587405  1
  Nd3+  Nd53  1  0.61615742  0.48569845  0.44678126  1
  Nd3+  Nd54  1  0.52048719  0.62335294  0.06511853  1
  Nd3+  Nd55  1  0.61958216  0.23617614  0.43094409  1
  Nd3+  Nd56  1  0.52497453  0.37595024  0.05732440  1
  Nd3+  Nd57  1  0.23421362  0.36038284  0.56192966  1
  Sm3+  Sm58  1  0.64327501  0.75376221  0.94642754  1
  Sm3+  Sm59  1  0.24153389  0.11492022  0.55272338  1
  Sm3+  Sm60  1  0.01759241  0.62736363  0.06181107  1
  Sm3+  Sm61  1  0.14661228  0.00388632  0.93361606  1
  Sm3+  Sm62  1  0.88813338  0.76255502  0.93436479  1
  Sm3+  Sm63  1  0.74535285  0.86208320  0.55504350  1
  Bi2+  Bi64  1  0.00235893  0.12381468  0.27394026  1
  Bi2+  Bi65  1  -0.06135357  0.16429482  0.75873264  1
  Bi2+  Bi66  1  -0.01805129  0.39166775  0.28253485  1
  Bi2+  Bi67  1  -0.02603366  0.34635544  0.79127872  1
  Bi2+  Bi68  1  -0.04166646  0.66682691  0.26020757  1
  Bi2+  Bi69  1  -0.03392021  0.60047364  0.79128395  1
  Bi2+  Bi70  1  0.02722343  0.83782150  0.30051821  1
  Bi2+  Bi71  1  0.01209918  0.87259496  0.80539728  1
  Bi2+  Bi72  1  0.37206712  0.10963662  0.29700490  1
  Bi2+  Bi73  1  0.17532757  0.08690107  0.79224262  1
  Bi2+  Bi74  1  0.27019063  0.38679408  0.28541619  1
  Bi2+  Bi75  1  0.23726637  0.35948842  0.80113955  1
  Bi2+  Bi76  1  0.20168788  0.73251930  0.30486202  1
  Bi2+  Bi77  1  0.22087621  0.63977286  0.81740093  1
  Bi2+  Bi78  1  0.20556929  0.93370598  0.30563111  1
  Bi2+  Bi79  1  0.26748696  0.81123606  0.75395763  1
  Bi2+  Bi80  1  0.53527819  0.21584846  0.30244599  1
  Bi2+  Bi81  1  0.50656609  0.05022423  0.79541596  1
  Bi2+  Bi82  1  0.47727764  0.40370992  0.29650795  1
  Bi2+  Bi83  1  0.51830524  0.32966727  0.81426203  1
  Bi2+  Bi84  1  0.60628713  0.63050901  0.31500888  1
  Bi2+  Bi85  1  0.49594649  0.69528398  0.78754810  1
  Bi2+  Bi86  1  0.47380597  0.83972316  0.29294528  1
  Bi2+  Bi87  1  0.43916050  0.87286111  0.82301611  1
  Bi2+  Bi88  1  0.76199898  0.13837660  0.27625707  1
  Bi2+  Bi89  1  0.75136275  0.15408641  0.78893327  1
  Bi2+  Bi90  1  0.74027206  0.38800401  0.28424806  1
  Bi2+  Bi91  1  0.78564488  0.40623793  0.77878748  1
  Bi2+  Bi92  1  0.80388585  0.62586259  0.32465689  1
  Bi2+  Bi93  1  0.77314291  0.67195593  0.81042562  1
  Bi2+  Bi94  1  0.75324107  0.82693170  0.28283705  1
  Bi2+  Bi95  1  0.70756170  0.87354603  0.80183493  1
  Bi2+  Bi96  1  0.14659415  0.00965047  0.20142944  1
  Bi2+  Bi97  1  0.12475205  -0.01258703  0.70448652  1
  Bi2+  Bi98  1  0.12524292  0.27457195  0.18628558  1
  Bi2+  Bi99  1  0.14534875  0.24698489  0.68299605  1
  Bi2+  Bi100  1  0.10394277  0.53417394  0.20698126  1
  Bi2+  Bi101  1  0.06990945  0.47510303  0.72584937  1
  Bi2+  Bi102  1  0.15420763  0.81367144  0.19766369  1
  Bi2+  Bi103  1  0.08907126  0.69460657  0.71852255  1
  Bi2+  Bi104  1  0.36506797  -0.04405349  0.22545346  1
  Bi2+  Bi105  1  0.38599423  -0.04273794  0.71965581  1
  Bi2+  Bi106  1  0.40557814  0.24691086  0.21190145  1
  Bi2+  Bi107  1  0.37068679  0.22141570  0.73080817  1
  Bi2+  Bi108  1  0.44452626  0.61106341  0.24622611  1
  Bi2+  Bi109  1  0.30962022  0.61111534  0.71988584  1
  Bi2+  Bi110  1  0.34837797  0.76498840  0.19905035  1
  Bi2+  Bi111  1  0.42578486  0.75452610  0.68128090  1
  Bi2+  Bi112  1  0.61990396  -0.01574233  0.20742531  1
  Bi2+  Bi113  1  0.63509670  -0.01723739  0.71339404  1
  Bi2+  Bi114  1  0.61039070  0.23254063  0.19399178  1
  Bi2+  Bi115  1  0.63895770  0.22388123  0.70517837  1
  Bi2+  Bi116  1  0.54943521  0.47052526  0.19589082  1
  Bi2+  Bi117  1  0.61454750  0.50279783  0.72156248  1
  Bi2+  Bi118  1  0.62588459  0.72532593  0.21265877  1
  Bi2+  Bi119  1  0.61700723  0.78778316  0.70811766  1
  Bi2+  Bi120  1  0.88086520  -0.07548186  0.21622599  1
  Bi2+  Bi121  1  0.84830531  0.01274387  0.70792508  1
  Bi2+  Bi122  1  0.85267232  0.34187381  0.19783148  1
  Bi2+  Bi123  1  0.86621040  0.31948550  0.68757798  1
  Bi2+  Bi124  1  0.81274557  0.53678471  0.21945734  1
  Bi2+  Bi125  1  0.88147636  0.52154625  0.69520162  1
  Bi2+  Bi126  1  0.81526679  0.75134088  0.17948063  1
  Bi2+  Bi127  1  0.82354734  0.77977337  0.72609331  1
  S2-  S128  1  0.02678562  0.13373554  0.16366885  1
  S2-  S129  1  -0.00915915  0.22905525  0.63897392  1
  S2-  S130  1  0.00646596  0.39870496  0.15781525  1
  S2-  S131  1  0.10649075  0.39441318  0.63694984  1
  S2-  S132  1  -0.01675671  0.62517055  0.15793039  1
  S2-  S133  1  -0.02174991  0.71371207  0.64899728  1
  S2-  S134  1  0.01360311  0.90068375  0.15350929  1
  S2-  S135  1  -0.01188211  1.01049362  0.64633356  1
  S2-  S136  1  0.27667280  0.22185528  0.14727896  1
  S2-  S137  1  0.22593932  0.10682811  0.65280287  1
  S2-  S138  1  0.22748438  0.42710691  0.18229306  1
  S2-  S139  1  0.29732406  0.32340279  0.65684463  1
  S2-  S140  1  0.19214492  0.64799412  0.16481863  1
  S2-  S141  1  0.18823163  0.61242068  0.64760677  1
  S2-  S142  1  0.27537904  0.99540344  0.13693666  1
  S2-  S143  1  0.15240518  0.86151297  0.64253620  1
  S2-  S144  1  0.52379104  0.09261801  0.15219224  1
  S2-  S145  1  0.48963660  0.20093225  0.65744881  1
  S2-  S146  1  0.43126745  0.38007425  0.14551243  1
  S2-  S147  1  0.44508360  0.36780804  0.73185375  1
  S2-  S148  1  0.40625873  0.62859124  0.14365836  1
  S2-  S149  1  0.49748864  0.53582530  0.65693771  1
  S2-  S150  1  0.55380856  0.86369828  0.15888631  1
  S2-  S151  1  0.49974046  0.98843864  0.64547626  1
  S2-  S152  1  0.77145109  0.19232608  0.16658337  1
  S2-  S153  1  0.74758584  0.11992871  0.64937393  1
  S2-  S154  1  0.64888534  0.37469172  0.13382028  1
  S2-  S155  1  0.63939004  0.36359275  0.65468136  1
  S2-  S156  1  0.63739618  0.60161379  0.14108705  1
  S2-  S157  1  0.72633814  0.58842041  0.66803409  1
  S2-  S158  1  0.76276123  0.98401944  0.14571872  1
  S2-  S159  1  0.82663237  0.87457326  0.64294488  1
  S2-  S160  1  0.10467467  0.06498047  0.34582074  1
  S2-  S161  1  0.04469893  0.01034203  0.85139860  1
  S2-  S162  1  0.14628688  0.21788888  0.27196422  1
  S2-  S163  1  0.13940105  0.24342368  0.83919294  1
  S2-  S164  1  0.13144490  0.39893307  0.33913997  1
  S2-  S165  1  0.16136586  0.48625612  0.85564738  1
  S2-  S166  1  0.10711882  0.62196157  0.35410428  1
  S2-  S167  1  0.16982665  0.81418107  0.83679825  1
  S2-  S168  1  0.45056855  -0.02087140  0.35641300  1
  S2-  S169  1  0.26232933  0.01227619  0.85672874  1
  S2-  S170  1  0.30478877  0.24924313  0.35023224  1
  S2-  S171  1  0.40572503  0.18913870  0.83440166  1
  S2-  S172  1  0.34661201  0.49161802  0.34686349  1
  S2-  S173  1  0.36380321  0.38890963  0.85966097  1
  S2-  S174  1  0.37178458  0.74120952  0.34273336  1
  S2-  S175  1  0.38044235  0.63264173  0.85877251  1
  S2-  S176  1  0.66090334  0.02510231  0.30803188  1
  S2-  S177  1  0.64066555  0.09469174  0.85836786  1
  S2-  S178  1  0.73656431  0.25495828  0.35245890  1
  S2-  S179  1  0.68992078  0.30000266  0.83619190  1
  S2-  S180  1  0.62412454  0.46421723  0.34624031  1
  S2-  S181  1  0.56707525  0.48126630  0.82458882  1
  S2-  S182  1  0.61058129  0.81442193  0.35701517  1
  S2-  S183  1  0.62679718  0.67429121  0.85947957  1
  S2-  S184  1  0.87307753  0.07316366  0.33454308  1
  S2-  S185  1  0.86504018  -0.11187969  0.85562671  1
  S2-  S186  1  0.97251657  0.25435309  0.33998293  1
  S2-  S187  1  0.88202133  0.15365295  0.86164828  1
  S2-  S188  1  0.88646329  0.46695020  0.34784103  1
  S2-  S189  1  0.79746192  0.51768324  0.86174617  1
  S2-  S190  1  0.87167634  0.84793779  0.35333451  1
  S2-  S191  1  0.99414725  0.72530811  0.85862736  1
  S2-  S192  1  -0.00752477  0.10964889  0.45024817  1
  S2-  S193  1  0.02297477  0.12983135  0.95765443  1
  S2-  S194  1  -0.00922317  0.36227909  0.45360687  1
  S2-  S195  1  0.01135971  0.37883624  0.95197145  1
  S2-  S196  1  -0.01291476  0.61318011  0.45784876  1
  S2-  S197  1  0.01264285  0.62244742  0.95883829  1
  S2-  S198  1  -0.00159726  0.85949173  0.45036653  1
  S2-  S199  1  0.01699151  0.88077212  0.95235854  1
  S2-  S200  1  0.24427768  0.11135238  0.44738579  1
  S2-  S201  1  0.26835267  0.13235716  0.95464939  1
  S2-  S202  1  0.24301508  0.35975681  0.45387319  1
  S2-  S203  1  0.26512483  0.37936397  0.96781728  1
  S2-  S204  1  0.24802252  0.61075233  0.45090971  1
  S2-  S205  1  0.26161558  0.62979087  0.96320898  1
  S2-  S206  1  0.24397626  0.86188347  0.44919226  1
  S2-  S207  1  0.26524630  0.87487712  0.95540067  1
  S2-  S208  1  0.49583344  0.11122827  0.45285269  1
  S2-  S209  1  0.51165254  0.12459706  0.95079681  1
  S2-  S210  1  0.49493433  0.35947983  0.44439387  1
  S2-  S211  1  0.52484983  0.37696267  0.94879524  1
  S2-  S212  1  0.49150686  0.61004478  0.45756459  1
  S2-  S213  1  0.51792467  0.63207658  0.95976217  1
  S2-  S214  1  0.49266453  0.86241638  0.46284338  1
  S2-  S215  1  0.51928669  0.87687212  0.95125758  1
  S2-  S216  1  0.73453180  0.10030441  0.44140630  1
  S2-  S217  1  0.77024070  0.12018931  0.96303366  1
  S2-  S218  1  0.73972100  0.36333304  0.45849402  1
  S2-  S219  1  0.76927741  0.37181303  0.95423593  1
  S2-  S220  1  0.74016688  0.61244895  0.45887445  1
  S2-  S221  1  0.77156969  0.63843367  0.96198614  1
  S2-  S222  1  0.73769895  0.86133759  0.45250756  1
  S2-  S223  1  0.76513996  0.87876077  0.95985241  1
  S2-  S224  1  0.13880387  0.00144223  0.04023576  1
  S2-  S225  1  0.12067062  -0.01121307  0.54091737  1
  S2-  S226  1  0.13786656  0.25295017  0.04954442  1
  S2-  S227  1  0.12129345  0.23293643  0.54206467  1
  S2-  S228  1  0.14045192  0.50160790  0.05764289  1
  S2-  S229  1  0.11724899  0.49134373  0.53554232  1
  S2-  S230  1  0.13982013  0.75204170  0.04640641  1
  S2-  S231  1  0.11713331  0.73509788  0.53984192  1
  S2-  S232  1  0.39427068  0.00022339  0.03675180  1
  S2-  S233  1  0.36217215  -0.01321389  0.54813347  1
  S2-  S234  1  0.39862462  0.25118267  0.04006933  1
  S2-  S235  1  0.36715764  0.23727789  0.54745858  1
  S2-  S236  1  0.39655102  0.50053730  0.04360051  1
  S2-  S237  1  0.36627486  0.48315955  0.55403576  1
  S2-  S238  1  0.39111541  0.75742375  0.04332913  1
  S2-  S239  1  0.36562389  0.73665335  0.55077217  1
  S2-  S240  1  0.64155671  0.00052415  0.04478186  1
  S2-  S241  1  0.62211065  -0.01831513  0.54532301  1
  S2-  S242  1  0.64605451  0.24286931  0.03961208  1
  S2-  S243  1  0.62062749  0.23118134  0.53862948  1
  S2-  S244  1  0.64725286  0.50266433  0.03221447  1
  S2-  S245  1  0.61889257  0.48864693  0.55040936  1
  S2-  S246  1  0.64306954  0.75574337  0.04940539  1
  S2-  S247  1  0.61952440  0.73663049  0.55473535  1
  S2-  S248  1  0.89460081  0.00187054  0.04320541  1
  S2-  S249  1  0.86880063  -0.01932036  0.53564327  1
  S2-  S250  1  0.89127527  0.24983284  0.05139148  1
  S2-  S251  1  0.86230823  0.23687879  0.53587207  1
  S2-  S252  1  0.88927670  0.50329231  0.05271259  1
  S2-  S253  1  0.86789108  0.48302580  0.55516335  1
  S2-  S254  1  0.89367520  0.75093088  0.04414688  1
  S2-  S255  1  0.86644339  0.73555622  0.54314267  1
