# generated using pymatgen
data_La9Ce10Pr6Nd4Sm3(BiS2)32
_symmetry_space_group_name_H-M   'P 1'
_cell_length_a   16.11663892
_cell_length_b   16.15665010
_cell_length_c   27.15988685
_cell_angle_alpha   90.05626978
_cell_angle_beta   90.17765176
_cell_angle_gamma   89.98431713
_symmetry_Int_Tables_number   1
_chemical_formula_structural   La9Ce10Pr6Nd4Sm3(BiS2)32
_chemical_formula_sum   'La18 Ce20 Pr12 Nd8 Sm6 Bi64 S128'
_cell_volume   7072.14960502
_cell_formula_units_Z   2
loop_
 _symmetry_equiv_pos_site_id
 _symmetry_equiv_pos_as_xyz
  1  'x, y, z'
loop_
 _atom_type_symbol
 _atom_type_oxidation_number
  La3+  3.0
  Ce3+  3.0
  Pr3+  3.0
  Nd3+  3.0
  Sm3+  3.0
  Bi2+  2.0
  S2-  -2.0
loop_
 _atom_site_type_symbol
 _atom_site_label
 _atom_site_symmetry_multiplicity
 _atom_site_fract_x
 _atom_site_fract_y
 _atom_site_fract_z
 _atom_site_occupancy
  La3+  La0  1  0.14022746  0.50761377  0.93923810  1
  La3+  La1  1  0.02029605  0.88223318  0.08543295  1
  La3+  La2  1  0.38861358  0.50501931  0.91792935  1
  La3+  La3  1  0.01322599  0.62314346  0.07588665  1
  La3+  La4  1  0.13537867  0.00382569  0.92531404  1
  La3+  La5  1  0.63752986  0.51331246  0.91137480  1
  La3+  La6  1  0.51090841  0.62835805  0.06667341  1
  La3+  La7  1  0.63953175  0.00312767  0.92067257  1
  La3+  La8  1  0.76167822  0.38042050  0.05854387  1
  La3+  La9  1  0.76433691  0.12600371  0.05398474  1
  La3+  La10  1  0.37255751  0.50717047  0.42214271  1
  La3+  La11  1  0.47529508  0.63508041  0.57702749  1
  La3+  La12  1  0.48143100  0.12684881  0.58382511  1
  La3+  La13  1  -0.01024147  0.88100523  0.56645093  1
  La3+  La14  1  0.02301057  0.12968558  0.07133124  1
  La3+  La15  1  0.76241976  0.63059065  0.06557631  1
  La3+  La16  1  0.10214667  0.50535853  0.42548143  1
  La3+  La17  1  0.88665136  0.49561566  0.92613094  1
  Ce3+  Ce18  1  0.26254033  0.63320164  0.06538460  1
  Ce3+  Ce19  1  0.60977938  0.75558680  0.45451055  1
  Ce3+  Ce20  1  0.85464401  0.00984315  0.43464539  1
  Ce3+  Ce21  1  0.51125035  0.38013963  0.04585752  1
  Ce3+  Ce22  1  0.14153473  0.25438861  0.94401531  1
  Ce3+  Ce23  1  0.61239208  0.26071515  0.45047451  1
  Ce3+  Ce24  1  0.36546305  0.01549695  0.43452392  1
  Ce3+  Ce25  1  0.39007529  0.75095311  0.93544768  1
  Ce3+  Ce26  1  0.10036462  0.00821485  0.42361113  1
  Ce3+  Ce27  1  0.73511834  0.63971019  0.57851536  1
  Ce3+  Ce28  1  0.13945394  0.75963128  0.93747567  1
  Ce3+  Ce29  1  0.73473766  0.13046418  0.56717090  1
  Ce3+  Ce30  1  0.51382116  0.88443393  0.05082052  1
  Ce3+  Ce31  1  0.10202256  0.25653169  0.42704704  1
  Ce3+  Ce32  1  0.26193988  0.88169546  0.05472092  1
  Ce3+  Ce33  1  0.85603870  0.26057171  0.44637879  1
  Ce3+  Ce34  1  0.64297740  0.75119032  0.93959203  1
  Ce3+  Ce35  1  0.01742785  0.38169506  0.05849443  1
  Ce3+  Ce36  1  -0.00747811  0.63430282  0.56595400  1
  Ce3+  Ce37  1  -0.01171929  0.39027338  0.57175833  1
  Pr3+  Pr38  1  0.76764397  0.88122036  0.05497501  1
  Pr3+  Pr39  1  0.60837995  0.01174505  0.43484512  1
  Pr3+  Pr40  1  0.27917912  0.38234186  0.06551026  1
  Pr3+  Pr41  1  0.23390149  0.13486279  0.55835545  1
  Pr3+  Pr42  1  0.36116363  0.75426018  0.42763638  1
  Pr3+  Pr43  1  0.10119900  0.75922112  0.42038432  1
  Pr3+  Pr44  1  0.74172232  0.38939244  0.59089706  1
  Pr3+  Pr45  1  0.38999009  0.00766917  0.92222215  1
  Pr3+  Pr46  1  0.85682705  0.75681834  0.44135682  1
  Pr3+  Pr47  1  0.38904489  0.25372332  0.92622011  1
  Pr3+  Pr48  1  0.73443446  0.88610981  0.57095245  1
  Pr3+  Pr49  1  0.63811761  0.25240366  0.93492528  1
  Nd3+  Nd50  1  -0.01433716  0.12846360  0.56564537  1
  Nd3+  Nd51  1  0.89237825  -0.00095360  0.93345580  1
  Nd3+  Nd52  1  0.50907866  0.12105071  0.06550374  1
  Nd3+  Nd53  1  0.26705421  0.12918304  0.06196016  1
  Nd3+  Nd54  1  0.23535250  0.38334424  0.55314585  1
  Nd3+  Nd55  1  0.89981983  0.74875260  0.93651104  1
  Nd3+  Nd56  1  0.36680009  0.26325269  0.43406218  1
  Nd3+  Nd57  1  0.48343940  0.38386855  0.57384396  1
  Sm3+  Sm58  1  0.23304699  0.88422836  0.54465284  1
  Sm3+  Sm59  1  0.89064392  0.25311886  0.94256421  1
  Sm3+  Sm60  1  0.85869777  0.50724926  0.45268584  1
  Sm3+  Sm61  1  0.23827134  0.63315104  0.55077331  1
  Sm3+  Sm62  1  0.61018462  0.50794265  0.45740303  1
  Sm3+  Sm63  1  0.48056112  0.88607916  0.55494310  1
  Bi2+  Bi64  1  -0.00098152  0.12823933  0.29159627  1
  Bi2+  Bi65  1  0.05546702  0.12128819  0.78138775  1
  Bi2+  Bi66  1  -0.02403571  0.37716143  0.29642771  1
  Bi2+  Bi67  1  -0.00996278  0.34928209  0.77868605  1
  Bi2+  Bi68  1  -0.01052845  0.61959274  0.29286557  1
  Bi2+  Bi69  1  0.04199188  0.61130148  0.77911536  1
  Bi2+  Bi70  1  0.00146528  0.86993439  0.28714697  1
  Bi2+  Bi71  1  0.01147567  0.85723394  0.80602196  1
  Bi2+  Bi72  1  0.28134778  0.10876797  0.29180708  1
  Bi2+  Bi73  1  0.24343126  0.04606890  0.79553230  1
  Bi2+  Bi74  1  0.22503856  0.30061648  0.28376635  1
  Bi2+  Bi75  1  0.22244475  0.35208787  0.78785934  1
  Bi2+  Bi76  1  0.25894314  0.57506982  0.28263990  1
  Bi2+  Bi77  1  0.24965391  0.59127325  0.77347741  1
  Bi2+  Bi78  1  0.30653228  0.83036694  0.29992841  1
  Bi2+  Bi79  1  0.25716386  0.79292243  0.78043553  1
  Bi2+  Bi80  1  0.55952911  0.12791588  0.29899525  1
  Bi2+  Bi81  1  0.49127009  0.12380191  0.78110085  1
  Bi2+  Bi82  1  0.48524219  0.37133733  0.30004969  1
  Bi2+  Bi83  1  0.48829290  0.35890253  0.78314696  1
  Bi2+  Bi84  1  0.52348299  0.61710996  0.29011529  1
  Bi2+  Bi85  1  0.49748059  0.65875085  0.79488295  1
  Bi2+  Bi86  1  0.49791881  0.87960733  0.28781751  1
  Bi2+  Bi87  1  0.44373485  0.85229576  0.80599234  1
  Bi2+  Bi88  1  0.76133031  0.14798853  0.30361081  1
  Bi2+  Bi89  1  0.80063966  0.10835941  0.79740284  1
  Bi2+  Bi90  1  0.71502692  0.35754307  0.28036047  1
  Bi2+  Bi91  1  0.74516743  0.31654566  0.79161906  1
  Bi2+  Bi92  1  0.72443664  0.63920098  0.29631826  1
  Bi2+  Bi93  1  0.79594597  0.67507098  0.79430675  1
  Bi2+  Bi94  1  0.69208168  0.84139126  0.27423833  1
  Bi2+  Bi95  1  0.72244790  0.93133614  0.79994418  1
  Bi2+  Bi96  1  0.16721502  0.01214144  0.21322219  1
  Bi2+  Bi97  1  0.12768950  -0.01191637  0.70260685  1
  Bi2+  Bi98  1  0.07512561  0.24504773  0.21088654  1
  Bi2+  Bi99  1  0.11739169  0.18875584  0.67020380  1
  Bi2+  Bi100  1  0.12054965  0.50560335  0.21168133  1
  Bi2+  Bi101  1  0.11234276  0.39166935  0.69325070  1
  Bi2+  Bi102  1  0.17769035  0.73148951  0.23244928  1
  Bi2+  Bi103  1  0.14392881  0.70865811  0.70248716  1
  Bi2+  Bi104  1  0.35853345  -0.03148942  0.21917684  1
  Bi2+  Bi105  1  0.35035995  -0.05376571  0.71472391  1
  Bi2+  Bi106  1  0.37496346  0.23211763  0.21974170  1
  Bi2+  Bi107  1  0.29278539  0.20278260  0.72718347  1
  Bi2+  Bi108  1  0.36656700  0.47989893  0.20332246  1
  Bi2+  Bi109  1  0.38611386  0.50591840  0.69589646  1
  Bi2+  Bi110  1  0.35767599  0.76868351  0.19100554  1
  Bi2+  Bi111  1  0.43481464  0.75465063  0.69905105  1
  Bi2+  Bi112  1  0.61310199  0.07212974  0.19671701  1
  Bi2+  Bi113  1  0.60457516  -0.01396954  0.70770293  1
  Bi2+  Bi114  1  0.57808596  0.26317084  0.21112457  1
  Bi2+  Bi115  1  0.71796822  0.18369671  0.70144032  1
  Bi2+  Bi116  1  0.64440702  0.51370019  0.21929913  1
  Bi2+  Bi117  1  0.64567256  0.50430450  0.72802148  1
  Bi2+  Bi118  1  0.55413183  0.75291127  0.20271679  1
  Bi2+  Bi119  1  0.62948860  0.79461116  0.73017907  1
  Bi2+  Bi120  1  0.85629713  -0.02134065  0.19939478  1
  Bi2+  Bi121  1  0.86277623  -0.03864366  0.71640040  1
  Bi2+  Bi122  1  0.87031586  0.24522844  0.22383143  1
  Bi2+  Bi123  1  0.92112402  0.20488767  0.70700718  1
  Bi2+  Bi124  1  0.85475558  0.48423836  0.20386406  1
  Bi2+  Bi125  1  0.89963175  0.48829531  0.71437362  1
  Bi2+  Bi126  1  0.82717476  0.73955013  0.21420077  1
  Bi2+  Bi127  1  0.88389516  0.76693762  0.71329042  1
  S2-  S128  1  -0.01719704  0.02105383  0.14862203  1
  S2-  S129  1  -0.01842384  0.00125805  0.64192589  1
  S2-  S130  1  -0.00278792  0.45430258  0.14662812  1
  S2-  S131  1  -0.11360771  0.35860693  0.65158281  1
  S2-  S132  1  -0.12533060  0.62200911  0.14477056  1
  S2-  S133  1  0.01740778  0.52341109  0.64224836  1
  S2-  S134  1  -0.03544599  0.82308463  0.18485479  1
  S2-  S135  1  0.00630476  0.75482127  0.64156129  1
  S2-  S136  1  0.15782459  0.14196443  0.14547426  1
  S2-  S137  1  0.33357284  0.13722816  0.64377809  1
  S2-  S138  1  0.22367260  0.40283976  0.16343217  1
  S2-  S139  1  0.26681345  0.42152697  0.65166133  1
  S2-  S140  1  0.14533497  0.64132728  0.14503284  1
  S2-  S141  1  0.32934229  0.64654929  0.63802754  1
  S2-  S142  1  0.17707837  0.89619551  0.14160976  1
  S2-  S143  1  0.22475297  0.89192701  0.64440987  1
  S2-  S144  1  0.38470039  0.14371725  0.13747950  1
  S2-  S145  1  0.55344253  0.15088006  0.68136821  1
  S2-  S146  1  0.43434001  0.39025410  0.13210301  1
  S2-  S147  1  0.46814818  0.36981162  0.67581114  1
  S2-  S148  1  0.38161695  0.61375171  0.13947070  1
  S2-  S149  1  0.54440622  0.59174685  0.67209639  1
  S2-  S150  1  0.52833327  0.98063750  0.13191314  1
  S2-  S151  1  0.47656566  0.96528081  0.64208028  1
  S2-  S152  1  0.77483897  0.10123520  0.15379205  1
  S2-  S153  1  0.74540036  0.01467281  0.64374737  1
  S2-  S154  1  0.78275561  0.35286749  0.15738325  1
  S2-  S155  1  0.67766205  0.35668657  0.68782606  1
  S2-  S156  1  0.63603361  0.62790196  0.14304323  1
  S2-  S157  1  0.76130470  0.54232073  0.66052581  1
  S2-  S158  1  0.74947553  0.86715298  0.15568281  1
  S2-  S159  1  0.73640596  0.76912436  0.65076651  1
  S2-  S160  1  0.13242611  0.13132309  0.35537514  1
  S2-  S161  1  0.16303284  -0.12691929  0.85386872  1
  S2-  S162  1  0.11777439  0.38115568  0.35101094  1
  S2-  S163  1  0.12711226  0.24485362  0.84616877  1
  S2-  S164  1  0.12124397  0.62821824  0.34896997  1
  S2-  S165  1  0.14825071  0.49861249  0.83753989  1
  S2-  S166  1  0.12335618  0.88613750  0.34685339  1
  S2-  S167  1  0.03732153  0.72047355  0.86037706  1
  S2-  S168  1  0.48258343  0.01109683  0.35950893  1
  S2-  S169  1  0.36560575  0.13763842  0.84891111  1
  S2-  S170  1  0.50663815  0.24535749  0.36900119  1
  S2-  S171  1  0.36281295  0.36852220  0.84684100  1
  S2-  S172  1  0.34613858  0.37708025  0.35080807  1
  S2-  S173  1  0.51225422  0.49579766  0.83494494  1
  S2-  S174  1  0.37752901  0.64024626  0.34851198  1
  S2-  S175  1  0.35906776  0.64572279  0.85551654  1
  S2-  S176  1  0.73241872  0.01341898  0.35918116  1
  S2-  S177  1  0.51866538  0.00418576  0.84545301  1
  S2-  S178  1  0.73131490  0.28199841  0.37239112  1
  S2-  S179  1  0.59085957  0.24102097  0.83612735  1
  S2-  S180  1  0.53854862  0.49626443  0.36574645  1
  S2-  S181  1  0.72174943  0.46559455  0.82416184  1
  S2-  S182  1  0.63484424  0.75655273  0.35781160  1
  S2-  S183  1  0.64781107  0.67379051  0.85163591  1
  S2-  S184  1  0.95398636  -0.00164625  0.35245812  1
  S2-  S185  1  0.99702917  0.01064318  0.85400687  1
  S2-  S186  1  0.95423777  0.25483414  0.36304193  1
  S2-  S187  1  0.88447357  0.33515414  0.85555489  1
  S2-  S188  1  0.91972546  0.50999206  0.35866384  1
  S2-  S189  1  0.90591631  0.56932310  0.83484109  1
  S2-  S190  1  0.94453714  0.75581114  0.35151847  1
  S2-  S191  1  0.85454484  0.81707099  0.84530861  1
  S2-  S192  1  -0.01912003  0.13128590  0.46053838  1
  S2-  S193  1  0.01227693  0.13356000  0.95738064  1
  S2-  S194  1  -0.01994136  0.38477029  0.46426647  1
  S2-  S195  1  0.01556641  0.37731309  0.95242033  1
  S2-  S196  1  -0.01835884  0.63298987  0.45889524  1
  S2-  S197  1  0.01292903  0.62215665  0.96325041  1
  S2-  S198  1  -0.01876850  0.88107805  0.45809771  1
  S2-  S199  1  0.01356712  0.87892996  0.95841149  1
  S2-  S200  1  0.24445801  0.13823090  0.45239144  1
  S2-  S201  1  0.26044136  0.12763483  0.95321972  1
  S2-  S202  1  0.23604948  0.38176621  0.45118677  1
  S2-  S203  1  0.26396194  0.37926584  0.95418597  1
  S2-  S204  1  0.23936541  0.63010988  0.44884944  1
  S2-  S205  1  0.25954646  0.63458699  0.95737527  1
  S2-  S206  1  0.24233640  0.88633938  0.44240209  1
  S2-  S207  1  0.27331491  0.88155476  0.95049933  1
  S2-  S208  1  0.48565253  0.13361896  0.46892914  1
  S2-  S209  1  0.51594388  0.12776105  0.95297825  1
  S2-  S210  1  0.48932994  0.38442839  0.46744252  1
  S2-  S211  1  0.51860503  0.38057414  0.94250221  1
  S2-  S212  1  0.48686495  0.63418555  0.46431908  1
  S2-  S213  1  0.51604151  0.63122348  0.95377658  1
  S2-  S214  1  0.48445977  0.87868891  0.45179205  1
  S2-  S215  1  0.51637235  0.87520055  0.94587971  1
  S2-  S216  1  0.73293737  0.13399962  0.46404511  1
  S2-  S217  1  0.76750648  0.12867489  0.94446492  1
  S2-  S218  1  0.73463666  0.39099917  0.47580627  1
  S2-  S219  1  0.75868617  0.37680366  0.95125642  1
  S2-  S220  1  0.73437419  0.63003005  0.46420353  1
  S2-  S221  1  0.76859429  0.62737395  0.95383828  1
  S2-  S222  1  0.73262539  0.88063690  0.46110937  1
  S2-  S223  1  0.76482134  0.87947763  0.94889907  1
  S2-  S224  1  0.14065698  0.00643301  0.03694624  1
  S2-  S225  1  0.11303827  0.00914739  0.53640571  1
  S2-  S226  1  0.14528599  0.26269681  0.04838302  1
  S2-  S227  1  0.10720695  0.25995364  0.54352866  1
  S2-  S228  1  0.14540001  0.50082147  0.04667076  1
  S2-  S229  1  0.11737790  0.51149087  0.53758332  1
  S2-  S230  1  0.13725906  0.75846910  0.04301829  1
  S2-  S231  1  0.11828524  0.75626717  0.53402927  1
  S2-  S232  1  0.38620199  0.00295642  0.03325566  1
  S2-  S233  1  0.35625730  0.00561863  0.53924457  1
  S2-  S234  1  0.39196283  0.25234538  0.03314587  1
  S2-  S235  1  0.36286445  0.26264366  0.54619030  1
  S2-  S236  1  0.38966693  0.50760165  0.02921961  1
  S2-  S237  1  0.36085480  0.50645056  0.54005026  1
  S2-  S238  1  0.38975146  0.76000075  0.04239825  1
  S2-  S239  1  0.35784390  0.76404966  0.53666469  1
  S2-  S240  1  0.64184353  0.00426802  0.03041599  1
  S2-  S241  1  0.60748922  0.00625894  0.54418331  1
  S2-  S242  1  0.63453789  0.24972371  0.04643697  1
  S2-  S243  1  0.61095703  0.26094807  0.56155614  1
  S2-  S244  1  0.63679004  0.50236228  0.04082106  1
  S2-  S245  1  0.60925525  0.50989519  0.56034074  1
  S2-  S246  1  0.63766943  0.76040088  0.04418073  1
  S2-  S247  1  0.60120333  0.76146827  0.55843685  1
  S2-  S248  1  0.89233807  0.00431408  0.03957611  1
  S2-  S249  1  0.85957727  0.00735489  0.54157503  1
  S2-  S250  1  0.89208568  0.25316600  0.04857903  1
  S2-  S251  1  0.86044227  0.25180288  0.55329092  1
  S2-  S252  1  0.88724075  0.49950187  0.03816473  1
  S2-  S253  1  0.86157057  0.51482383  0.55407094  1
  S2-  S254  1  0.89346424  0.75839582  0.04705689  1
  S2-  S255  1  0.85939267  0.75737540  0.54725301  1
