# generated using pymatgen
data_La9Ce10Pr6Nd4Sm3(BiS2)32
_symmetry_space_group_name_H-M   'P 1'
_cell_length_a   16.15708612
_cell_length_b   16.09395209
_cell_length_c   27.01255282
_cell_angle_alpha   89.93053491
_cell_angle_beta   90.02288532
_cell_angle_gamma   89.97264057
_symmetry_Int_Tables_number   1
_chemical_formula_structural   La9Ce10Pr6Nd4Sm3(BiS2)32
_chemical_formula_sum   'La18 Ce20 Pr12 Nd8 Sm6 Bi64 S128'
_cell_volume   7024.10459263
_cell_formula_units_Z   2
loop_
 _symmetry_equiv_pos_site_id
 _symmetry_equiv_pos_as_xyz
  1  'x, y, z'
loop_
 _atom_type_symbol
 _atom_type_oxidation_number
  La3+  3.0
  Ce3+  3.0
  Pr3+  3.0
  Nd3+  3.0
  Sm3+  3.0
  Bi2+  2.0
  S2-  -2.0
loop_
 _atom_site_type_symbol
 _atom_site_label
 _atom_site_symmetry_multiplicity
 _atom_site_fract_x
 _atom_site_fract_y
 _atom_site_fract_z
 _atom_site_occupancy
  La3+  La0  1  0.25938232  0.62275972  0.59397375  1
  La3+  La1  1  0.74091211  0.62386298  0.56220862  1
  La3+  La2  1  0.48761066  0.37658258  0.06827308  1
  La3+  La3  1  0.74108675  0.87080624  0.57306042  1
  La3+  La4  1  0.49545918  0.36686247  0.56910130  1
  La3+  La5  1  0.23547255  0.12750097  0.07457529  1
  La3+  La6  1  0.11175144  0.49701552  0.92443520  1
  La3+  La7  1  0.36283015  0.75412273  0.42638384  1
  La3+  La8  1  -0.00646706  0.61644350  0.59436602  1
  La3+  La9  1  -0.01334916  0.38275320  0.08094037  1
  La3+  La10  1  0.24304741  0.38165033  0.06791956  1
  La3+  La11  1  0.61882103  0.26234989  0.93036482  1
  La3+  La12  1  0.36638968  0.25070924  0.92451532  1
  La3+  La13  1  0.37191738  0.48823915  0.41498811  1
  La3+  La14  1  0.11612909  0.23929470  0.40785050  1
  La3+  La15  1  -0.00877290  0.87004225  0.58445229  1
  La3+  La16  1  0.87690884  0.50407930  0.43146561  1
  La3+  La17  1  0.75401529  0.13470263  0.59058534  1
  Ce3+  Ce18  1  -0.01025322  0.12748314  0.07652237  1
  Ce3+  Ce19  1  -0.00640784  0.12792056  0.55883314  1
  Ce3+  Ce20  1  0.73909286  0.87450840  0.06398358  1
  Ce3+  Ce21  1  0.23753327  0.87505407  0.04868913  1
  Ce3+  Ce22  1  0.36657607  0.00082423  0.45108388  1
  Ce3+  Ce23  1  0.49555390  0.86904493  0.56360982  1
  Ce3+  Ce24  1  0.62346894  -0.00441086  0.44229343  1
  Ce3+  Ce25  1  0.49895901  0.12212850  0.55542497  1
  Ce3+  Ce26  1  0.48991129  0.62269040  0.54757784  1
  Ce3+  Ce27  1  0.74671342  0.37480136  0.55526840  1
  Ce3+  Ce28  1  0.61573472  0.00714874  0.94481474  1
  Ce3+  Ce29  1  0.86348013  0.00881579  0.94043601  1
  Ce3+  Ce30  1  -0.00580951  0.37575945  0.55900727  1
  Ce3+  Ce31  1  0.61809924  0.50569528  0.43140597  1
  Ce3+  Ce32  1  0.61234144  0.50638511  0.94899468  1
  Ce3+  Ce33  1  0.11118156  0.00846459  0.93624324  1
  Ce3+  Ce34  1  0.12435621  0.49867377  0.44868894  1
  Ce3+  Ce35  1  0.48327332  0.13167409  0.06377819  1
  Ce3+  Ce36  1  0.62062748  0.24949835  0.43956170  1
  Ce3+  Ce37  1  0.24403360  0.12991010  0.56462849  1
  Pr3+  Pr38  1  0.61465686  0.75489754  0.42110804  1
  Pr3+  Pr39  1  0.87453974  0.74990688  0.43826358  1
  Pr3+  Pr40  1  0.23933077  0.87406759  0.57308309  1
  Pr3+  Pr41  1  0.74140573  0.13019300  0.07122810  1
  Pr3+  Pr42  1  0.61625920  0.75477353  0.93254860  1
  Pr3+  Pr43  1  0.36288382  0.75287987  0.92019799  1
  Pr3+  Pr44  1  0.73589690  0.38793487  0.07548771  1
  Pr3+  Pr45  1  0.48484466  0.87854731  0.05601846  1
  Pr3+  Pr46  1  0.12297953  0.74773944  0.44578560  1
  Pr3+  Pr47  1  0.24640271  0.37075266  0.56491596  1
  Pr3+  Pr48  1  0.86474480  0.25616624  0.94212799  1
  Pr3+  Pr49  1  0.86868478  0.25600429  0.42656659  1
  Nd3+  Nd50  1  0.47363675  0.63744994  0.08565986  1
  Nd3+  Nd51  1  0.73738642  0.63525807  0.06822021  1
  Nd3+  Nd52  1  0.11574416  -0.00282931  0.44004657  1
  Nd3+  Nd53  1  0.36489819  0.50472534  0.93090795  1
  Nd3+  Nd54  1  0.86593597  0.50652524  0.94474363  1
  Nd3+  Nd55  1  0.86192159  0.75737196  0.92845702  1
  Nd3+  Nd56  1  -0.00702473  0.63149694  0.05878851  1
  Nd3+  Nd57  1  0.36210102  0.00171577  0.92811252  1
  Sm3+  Sm58  1  0.36985699  0.24785403  0.43662327  1
  Sm3+  Sm59  1  0.10353921  0.76691819  0.90735978  1
  Sm3+  Sm60  1  -0.01032941  0.87737421  0.05223749  1
  Sm3+  Sm61  1  0.11292220  0.25283623  0.94869143  1
  Sm3+  Sm62  1  0.23881244  0.63112561  0.04298168  1
  Sm3+  Sm63  1  0.86940517  -0.00105791  0.45124738  1
  Bi2+  Bi64  1  -0.00110736  0.07029100  0.29664368  1
  Bi2+  Bi65  1  -0.00827712  0.13948326  0.85291049  1
  Bi2+  Bi66  1  0.00125965  0.37373565  0.29751575  1
  Bi2+  Bi67  1  -0.03305670  0.32900793  0.80847316  1
  Bi2+  Bi68  1  0.01213064  0.63833803  0.29367153  1
  Bi2+  Bi69  1  0.02247994  0.61759617  0.79762584  1
  Bi2+  Bi70  1  0.00871231  0.83309322  0.33578570  1
  Bi2+  Bi71  1  0.04342563  1.00565201  0.76863101  1
  Bi2+  Bi72  1  0.33669764  0.08248020  0.28090522  1
  Bi2+  Bi73  1  0.19179243  0.16006321  0.79333295  1
  Bi2+  Bi74  1  0.24327578  0.42726074  0.29140805  1
  Bi2+  Bi75  1  0.23399034  0.35404462  0.78718409  1
  Bi2+  Bi76  1  0.19310183  0.69421963  0.26185286  1
  Bi2+  Bi77  1  0.27764982  0.61971518  0.77433470  1
  Bi2+  Bi78  1  0.26111218  0.89905037  0.28802398  1
  Bi2+  Bi79  1  0.25544274  0.94688979  0.78429523  1
  Bi2+  Bi80  1  0.52501279  0.13365756  0.28825123  1
  Bi2+  Bi81  1  0.47096784  0.09480866  0.79073796  1
  Bi2+  Bi82  1  0.48466387  0.35008147  0.28083210  1
  Bi2+  Bi83  1  0.49686539  0.36181397  0.79187157  1
  Bi2+  Bi84  1  0.50841028  0.61315319  0.29118949  1
  Bi2+  Bi85  1  0.55932148  0.61330049  0.77032613  1
  Bi2+  Bi86  1  0.52320865  0.88361579  0.28956620  1
  Bi2+  Bi87  1  0.51700018  0.79804716  0.80523512  1
  Bi2+  Bi88  1  0.71759010  0.09292873  0.26814194  1
  Bi2+  Bi89  1  0.80955868  0.11410810  0.81383753  1
  Bi2+  Bi90  1  0.73591861  0.34685305  0.28202996  1
  Bi2+  Bi91  1  0.70393855  0.36249269  0.77924060  1
  Bi2+  Bi92  1  0.76260159  0.63514446  0.27560381  1
  Bi2+  Bi93  1  0.75480543  0.61156832  0.78886945  1
  Bi2+  Bi94  1  0.82704353  0.82872711  0.28982755  1
  Bi2+  Bi95  1  0.69710501  0.88582920  0.80198599  1
  Bi2+  Bi96  1  0.08615636  -0.07821527  0.24170224  1
  Bi2+  Bi97  1  0.19655859  0.06566730  0.69072763  1
  Bi2+  Bi98  1  0.13203649  0.19443872  0.21867144  1
  Bi2+  Bi99  1  0.08061654  0.26766999  0.71649439  1
  Bi2+  Bi100  1  0.12991802  0.52089342  0.21701315  1
  Bi2+  Bi101  1  0.12615772  0.46106880  0.70624146  1
  Bi2+  Bi102  1  0.10377199  0.77244435  0.16433366  1
  Bi2+  Bi103  1  0.13704836  0.77823761  0.71154881  1
  Bi2+  Bi104  1  0.47500881  0.00544760  0.20216866  1
  Bi2+  Bi105  1  0.38242953  -0.00550550  0.70021871  1
  Bi2+  Bi106  1  0.37487612  0.25216110  0.19742730  1
  Bi2+  Bi107  1  0.38893628  0.25799945  0.70834873  1
  Bi2+  Bi108  1  0.35784356  0.52713979  0.21195733  1
  Bi2+  Bi109  1  0.39719897  0.51141393  0.71695686  1
  Bi2+  Bi110  1  0.35257696  0.77202426  0.20004348  1
  Bi2+  Bi111  1  0.42392562  0.77014633  0.70663699  1
  Bi2+  Bi112  1  0.67030751  -0.02170392  0.17750790  1
  Bi2+  Bi113  1  0.57203724  -0.04248325  0.72145017  1
  Bi2+  Bi114  1  0.67380510  0.23791726  0.18974758  1
  Bi2+  Bi115  1  0.64187886  0.20948582  0.71554842  1
  Bi2+  Bi116  1  0.61599781  0.43533880  0.20848568  1
  Bi2+  Bi117  1  0.69260535  0.50630561  0.69285023  1
  Bi2+  Bi118  1  0.66377018  0.79308140  0.22529218  1
  Bi2+  Bi119  1  0.68092365  0.70538358  0.69302131  1
  Bi2+  Bi120  1  0.85788941  -0.01508393  0.21493350  1
  Bi2+  Bi121  1  0.86417593  0.01450047  0.72202352  1
  Bi2+  Bi122  1  0.87791422  0.24535912  0.21872622  1
  Bi2+  Bi123  1  0.87546377  0.26012820  0.71548240  1
  Bi2+  Bi124  1  0.86961119  0.51795665  0.20793738  1
  Bi2+  Bi125  1  0.88650606  0.48050349  0.73710127  1
  Bi2+  Bi126  1  0.92141358  0.71226882  0.19578606  1
  Bi2+  Bi127  1  0.90550642  0.80219673  0.74314174  1
  S2-  S128  1  0.10729176  0.08717411  0.14918409  1
  S2-  S129  1  -0.08530139  0.13477839  0.64745723  1
  S2-  S130  1  0.02451779  0.28898908  0.17293740  1
  S2-  S131  1  -0.02349359  0.45715693  0.64823422  1
  S2-  S132  1  0.01454669  0.53016219  0.14328164  1
  S2-  S133  1  -0.01428891  0.74790810  0.66589465  1
  S2-  S134  1  -0.03534783  0.88168322  0.15165195  1
  S2-  S135  1  0.12090752  0.90962369  0.65245960  1
  S2-  S136  1  0.36922522  0.10118386  0.14185148  1
  S2-  S137  1  0.26971853  0.24181234  0.64245836  1
  S2-  S138  1  0.22985182  0.26569113  0.15081087  1
  S2-  S139  1  0.26879502  0.46875805  0.65126223  1
  S2-  S140  1  0.31086129  0.63795745  0.13547423  1
  S2-  S141  1  0.13081837  0.61859109  0.66717700  1
  S2-  S142  1  0.25567709  0.87930958  0.14718314  1
  S2-  S143  1  0.28220062  0.77271476  0.65645016  1
  S2-  S144  1  0.51896594  0.24564369  0.14126472  1
  S2-  S145  1  0.50957806  0.19264966  0.64482991  1
  S2-  S146  1  0.36888740  0.40746615  0.14468985  1
  S2-  S147  1  0.48836804  0.39528211  0.67109832  1
  S2-  S148  1  0.51456839  0.57631788  0.18267784  1
  S2-  S149  1  0.43680955  0.63177197  0.64224931  1
  S2-  S150  1  0.48412196  0.78588384  0.14287825  1
  S2-  S151  1  0.60540671  0.84934904  0.64191455  1
  S2-  S152  1  0.86657832  0.12049059  0.14740968  1
  S2-  S153  1  0.69808308  0.06545288  0.67984131  1
  S2-  S154  1  0.85199456  0.37145380  0.15308102  1
  S2-  S155  1  0.74393719  0.29267170  0.64425104  1
  S2-  S156  1  0.72788837  0.52769244  0.14991735  1
  S2-  S157  1  0.81963713  0.62169294  0.65305778  1
  S2-  S158  1  0.75149242  0.76139489  0.14069878  1
  S2-  S159  1  0.84634345  0.88232653  0.65880865  1
  S2-  S160  1  0.13569788  0.07906559  0.35170125  1
  S2-  S161  1  0.11124840  -0.07719781  0.84772953  1
  S2-  S162  1  0.15883261  0.28976332  0.31000715  1
  S2-  S163  1  0.10914706  0.34399452  0.86326116  1
  S2-  S164  1  0.08262432  0.49475559  0.35161267  1
  S2-  S165  1  0.15564630  0.52282520  0.82203631  1
  S2-  S166  1  0.22403780  0.77306470  0.35773629  1
  S2-  S167  1  0.16186500  0.72685704  0.81388160  1
  S2-  S168  1  0.38156707  -0.03367165  0.35466004  1
  S2-  S169  1  0.33620608  0.11731508  0.85132473  1
  S2-  S170  1  0.35972625  0.33630087  0.35068429  1
  S2-  S171  1  0.35665132  0.38657385  0.85264847  1
  S2-  S172  1  0.34563139  0.56998450  0.32007190  1
  S2-  S173  1  0.37546709  0.61787186  0.84980228  1
  S2-  S174  1  0.47525467  0.75244254  0.34614440  1
  S2-  S175  1  0.36714260  0.88204922  0.84684993  1
  S2-  S176  1  0.63917396  -0.09820173  0.35945928  1
  S2-  S177  1  0.60660496  0.02083021  0.84592936  1
  S2-  S178  1  0.60905576  0.26511392  0.34145363  1
  S2-  S179  1  0.50822424  0.23237356  0.85139422  1
  S2-  S180  1  0.52178431  0.47363895  0.34984365  1
  S2-  S181  1  0.61493613  0.43525391  0.85848225  1
  S2-  S182  1  0.64593254  0.62581050  0.35035736  1
  S2-  S183  1  0.73599230  0.74034164  0.85647309  1
  S2-  S184  1  0.88877827  -0.03516950  0.35440138  1
  S2-  S185  1  0.84078068  -0.05347253  0.84828838  1
  S2-  S186  1  0.96728383  0.22158801  0.34387126  1
  S2-  S187  1  0.75342660  0.25853751  0.85966574  1
  S2-  S188  1  0.86249206  0.39634183  0.34906623  1
  S2-  S189  1  0.90729418  0.50804296  0.84558345  1
  S2-  S190  1  0.87635878  0.63213650  0.35749112  1
  S2-  S191  1  0.96042927  0.75358014  0.84169938  1
  S2-  S192  1  -0.00769727  0.12304214  0.45413101  1
  S2-  S193  1  -0.01227930  0.13023625  0.96742747  1
  S2-  S194  1  0.00186521  0.36856695  0.45317353  1
  S2-  S195  1  -0.01408551  0.38047074  0.96376153  1
  S2-  S196  1  0.00098000  0.62506693  0.46061675  1
  S2-  S197  1  -0.00790198  0.63186361  0.94972873  1
  S2-  S198  1  -0.00442108  0.87561174  0.46805761  1
  S2-  S199  1  -0.01343579  0.88160574  0.94858313  1
  S2-  S200  1  0.24407172  0.12799950  0.45562790  1
  S2-  S201  1  0.23247922  0.12929979  0.95747332  1
  S2-  S202  1  0.24022575  0.36405429  0.45281294  1
  S2-  S203  1  0.23928835  0.37798152  0.95845121  1
  S2-  S204  1  0.24784233  0.61797669  0.44695515  1
  S2-  S205  1  0.22891751  0.63323322  0.94032985  1
  S2-  S206  1  0.24178752  0.88079283  0.46391324  1
  S2-  S207  1  0.23240828  0.87558649  0.94399251  1
  S2-  S208  1  0.49483818  0.12325682  0.44699047  1
  S2-  S209  1  0.48940400  0.12498978  0.95690860  1
  S2-  S210  1  0.49543166  0.36823250  0.45758642  1
  S2-  S211  1  0.48886170  0.38138562  0.95908407  1
  S2-  S212  1  0.48822542  0.62262568  0.44540889  1
  S2-  S213  1  0.49317026  0.63093656  0.94822253  1
  S2-  S214  1  0.49262237  0.87863873  0.45888829  1
  S2-  S215  1  0.49273585  0.87928984  0.94897944  1
  S2-  S216  1  0.74804481  0.12243804  0.43807512  1
  S2-  S217  1  0.74025044  0.12795330  0.96175063  1
  S2-  S218  1  0.74036159  0.37853617  0.44995286  1
  S2-  S219  1  0.74285718  0.38695007  0.96546565  1
  S2-  S220  1  0.74513670  0.62749940  0.45551264  1
  S2-  S221  1  0.74027653  0.62764962  0.95896178  1
  S2-  S222  1  0.75061749  0.87299917  0.46202702  1
  S2-  S223  1  0.73871384  0.88150707  0.95819263  1
  S2-  S224  1  0.11204085  -0.00238787  0.04200321  1
  S2-  S225  1  0.11816365  0.00689394  0.54671200  1
  S2-  S226  1  0.10933115  0.25739976  0.05068603  1
  S2-  S227  1  0.11595514  0.24951581  0.55142191  1
  S2-  S228  1  0.11905539  0.50674622  0.03889738  1
  S2-  S229  1  0.12253953  0.49884196  0.55261681  1
  S2-  S230  1  0.11294288  0.75365789  0.03326728  1
  S2-  S231  1  0.12310744  0.74209779  0.55366162  1
  S2-  S232  1  0.36049659  -0.00043571  0.03522086  1
  S2-  S233  1  0.36980319  0.00005996  0.55756353  1
  S2-  S234  1  0.36264788  0.25264797  0.03921318  1
  S2-  S235  1  0.37410988  0.24554026  0.53954231  1
  S2-  S236  1  0.36588462  0.51310173  0.03719651  1
  S2-  S237  1  0.37167628  0.49360669  0.54061624  1
  S2-  S238  1  0.36327005  0.75338384  0.03042254  1
  S2-  S239  1  0.36892494  0.75110068  0.53988855  1
  S2-  S240  1  0.61209127  0.00480799  0.05196865  1
  S2-  S241  1  0.62546088  0.00478071  0.54923853  1
  S2-  S242  1  0.62212043  0.25594096  0.04145622  1
  S2-  S243  1  0.62608601  0.24457265  0.54347715  1
  S2-  S244  1  0.60261157  0.51356840  0.05379134  1
  S2-  S245  1  0.61676849  0.49593957  0.54549968  1
  S2-  S246  1  0.61010427  0.75297746  0.04094213  1
  S2-  S247  1  0.61411611  0.74591000  0.53570243  1
  S2-  S248  1  0.86301964  -0.00215500  0.04742906  1
  S2-  S249  1  0.86649670  0.00272517  0.55350079  1
  S2-  S250  1  0.86281144  0.25613245  0.04935202  1
  S2-  S251  1  0.86964421  0.25156492  0.53718483  1
  S2-  S252  1  0.86408417  0.51204844  0.04927828  1
  S2-  S253  1  0.86885280  0.49800211  0.54189313  1
  S2-  S254  1  0.86921570  0.75342540  0.03758019  1
  S2-  S255  1  0.87048553  0.74622416  0.54830271  1
