# generated using pymatgen
data_La9Ce10Pr6Nd4Sm3(BiS2)32
_symmetry_space_group_name_H-M   'P 1'
_cell_length_a   16.24467727
_cell_length_b   16.22457220
_cell_length_c   27.09772975
_cell_angle_alpha   89.76119638
_cell_angle_beta   89.96221289
_cell_angle_gamma   90.01286677
_symmetry_Int_Tables_number   1
_chemical_formula_structural   La9Ce10Pr6Nd4Sm3(BiS2)32
_chemical_formula_sum   'La18 Ce20 Pr12 Nd8 Sm6 Bi64 S128'
_cell_volume   7141.89352561
_cell_formula_units_Z   2
loop_
 _symmetry_equiv_pos_site_id
 _symmetry_equiv_pos_as_xyz
  1  'x, y, z'
loop_
 _atom_type_symbol
 _atom_type_oxidation_number
  La3+  3.0
  Ce3+  3.0
  Pr3+  3.0
  Nd3+  3.0
  Sm3+  3.0
  Bi2+  2.0
  S2-  -2.0
loop_
 _atom_site_type_symbol
 _atom_site_label
 _atom_site_symmetry_multiplicity
 _atom_site_fract_x
 _atom_site_fract_y
 _atom_site_fract_z
 _atom_site_occupancy
  La3+  La0  1  0.49508094  0.86577327  0.56804747  1
  La3+  La1  1  0.75270550  0.86384208  0.60478488  1
  La3+  La2  1  0.73782527  0.62168128  0.07119696  1
  La3+  La3  1  0.74701229  0.12053603  0.06579120  1
  La3+  La4  1  0.26047324  0.61020995  0.58499120  1
  La3+  La5  1  0.12247902  0.25248440  0.93774968  1
  La3+  La6  1  0.12986380  0.50163716  0.43228400  1
  La3+  La7  1  0.48785585  0.11550056  0.09150080  1
  La3+  La8  1  0.60817158  0.02041155  0.88857797  1
  La3+  La9  1  0.51004770  0.34547063  0.59435446  1
  La3+  La10  1  0.12736264  0.24546803  0.43580185  1
  La3+  La11  1  0.74179614  0.37316565  0.06494733  1
  La3+  La12  1  0.75430528  0.87531733  0.07667962  1
  La3+  La13  1  0.37645429  -0.00969128  0.42892452  1
  La3+  La14  1  0.63375798  0.24139953  0.42016036  1
  La3+  La15  1  0.11808972  0.50756355  0.90530228  1
  La3+  La16  1  0.62049318  0.74486201  0.43467537  1
  La3+  La17  1  0.86692817  0.49891085  0.93303480  1
  Ce3+  Ce18  1  0.49334249  0.62335833  0.05744805  1
  Ce3+  Ce19  1  0.74764640  0.36501020  0.55951685  1
  Ce3+  Ce20  1  -0.00123843  0.37905821  0.05718301  1
  Ce3+  Ce21  1  0.87420496  0.49447354  0.44533300  1
  Ce3+  Ce22  1  0.37553947  0.24480261  0.94723747  1
  Ce3+  Ce23  1  0.37509232  0.75277416  0.94169095  1
  Ce3+  Ce24  1  0.37272661  0.73799357  0.44166661  1
  Ce3+  Ce25  1  0.12244531  0.74924269  0.93357459  1
  Ce3+  Ce26  1  0.25099357  0.86870559  0.56138277  1
  Ce3+  Ce27  1  0.25056555  0.12063586  0.56239380  1
  Ce3+  Ce28  1  0.74806978  0.61919936  0.56066600  1
  Ce3+  Ce29  1  0.37404994  0.00157771  0.94913658  1
  Ce3+  Ce30  1  0.62229377  0.50070921  0.94122674  1
  Ce3+  Ce31  1  -0.00196693  0.87180828  0.06101838  1
  Ce3+  Ce32  1  0.24565101  0.37851294  0.04811677  1
  Ce3+  Ce33  1  0.74781954  0.11609930  0.55611963  1
  Ce3+  Ce34  1  0.87669024  0.24400877  0.44706215  1
  Ce3+  Ce35  1  0.87302208  0.74140594  0.43803661  1
  Ce3+  Ce36  1  0.37743285  0.24336699  0.44070615  1
  Ce3+  Ce37  1  0.62343354  0.76176029  0.94450022  1
  Pr3+  Pr38  1  0.37775640  0.48766574  0.44960017  1
  Pr3+  Pr39  1  0.24214954  0.12389801  0.06720287  1
  Pr3+  Pr40  1  0.50327242  0.11395266  0.55236238  1
  Pr3+  Pr41  1  0.86828586  0.24709205  0.94579788  1
  Pr3+  Pr42  1  0.24542964  0.36302580  0.57571503  1
  Pr3+  Pr43  1  -0.00277549  0.86520379  0.55845507  1
  Pr3+  Pr44  1  0.62639473  0.49175171  0.44052546  1
  Pr3+  Pr45  1  0.00058931  0.61760649  0.56294814  1
  Pr3+  Pr46  1  -0.00270387  0.11309509  0.55646865  1
  Pr3+  Pr47  1  0.87443402  -0.01147007  0.43754281  1
  Pr3+  Pr48  1  0.87008262  -0.00308139  0.93313763  1
  Pr3+  Pr49  1  0.00105410  0.36825016  0.56272628  1
  Nd3+  Nd50  1  0.49592285  0.87366433  0.06778361  1
  Nd3+  Nd51  1  0.12014650  -0.00203979  0.93363838  1
  Nd3+  Nd52  1  0.50078352  0.61221774  0.56019580  1
  Nd3+  Nd53  1  0.12777216  0.74061966  0.44606344  1
  Nd3+  Nd54  1  0.12652472  -0.00803020  0.44107009  1
  Nd3+  Nd55  1  0.87010109  0.75088997  0.94487324  1
  Nd3+  Nd56  1  0.38314010  0.49862893  0.92729486  1
  Nd3+  Nd57  1  0.62829193  -0.00942398  0.43903524  1
  Sm3+  Sm58  1  0.49192621  0.37267714  0.06277509  1
  Sm3+  Sm59  1  -0.00193675  0.62047313  0.05366924  1
  Sm3+  Sm60  1  0.61758937  0.24382598  0.95114471  1
  Sm3+  Sm61  1  0.24622946  0.62138025  0.04787049  1
  Sm3+  Sm62  1  0.24260067  0.87156383  0.05321273  1
  Sm3+  Sm63  1  -0.00145463  0.12412640  0.05809959  1
  Bi2+  Bi64  1  -0.00604064  0.07913748  0.25993189  1
  Bi2+  Bi65  1  0.00716014  0.12615184  0.78719831  1
  Bi2+  Bi66  1  0.05065864  0.32717704  0.26224249  1
  Bi2+  Bi67  1  -0.00228420  0.35983698  0.79250516  1
  Bi2+  Bi68  1  0.05838536  0.57550475  0.28333626  1
  Bi2+  Bi69  1  -0.02684735  0.65462308  0.79912270  1
  Bi2+  Bi70  1  0.06164018  0.86965855  0.29223256  1
  Bi2+  Bi71  1  0.00516163  0.89744440  0.78125815  1
  Bi2+  Bi72  1  0.23591892  0.13383090  0.30836097  1
  Bi2+  Bi73  1  0.20798071  0.07935849  0.78028520  1
  Bi2+  Bi74  1  0.25906951  0.41892810  0.28461626  1
  Bi2+  Bi75  1  0.25642949  0.34303867  0.78929539  1
  Bi2+  Bi76  1  0.26780464  0.64941452  0.29283683  1
  Bi2+  Bi77  1  0.24617766  0.71560137  0.77363957  1
  Bi2+  Bi78  1  0.25259906  0.84191732  0.27885305  1
  Bi2+  Bi79  1  0.19344395  0.89207413  0.81590342  1
  Bi2+  Bi80  1  0.48654344  0.13493971  0.29505740  1
  Bi2+  Bi81  1  0.48031938  0.13889835  0.79100358  1
  Bi2+  Bi82  1  0.44498966  0.41678963  0.23900014  1
  Bi2+  Bi83  1  0.47805087  0.36252784  0.80043352  1
  Bi2+  Bi84  1  0.47277279  0.59521553  0.28560167  1
  Bi2+  Bi85  1  0.56252940  0.61319276  0.78535792  1
  Bi2+  Bi86  1  0.52162336  0.86120435  0.29142382  1
  Bi2+  Bi87  1  0.46767954  0.86422238  0.80154702  1
  Bi2+  Bi88  1  0.73133872  0.10996178  0.30471800  1
  Bi2+  Bi89  1  0.81053241  0.15586954  0.77464303  1
  Bi2+  Bi90  1  0.78589750  0.42669867  0.28469475  1
  Bi2+  Bi91  1  0.76372499  0.43470897  0.80966834  1
  Bi2+  Bi92  1  0.75838966  0.61753436  0.31232391  1
  Bi2+  Bi93  1  0.76167130  0.63204302  0.79654183  1
  Bi2+  Bi94  1  0.77353312  0.86460242  0.28211068  1
  Bi2+  Bi95  1  0.76362275  0.87288061  0.79967656  1
  Bi2+  Bi96  1  0.13389444  -0.01886929  0.19620368  1
  Bi2+  Bi97  1  0.17109788  0.01356858  0.67147798  1
  Bi2+  Bi98  1  0.13747891  0.17682279  0.19553924  1
  Bi2+  Bi99  1  0.12721376  0.24034005  0.70595332  1
  Bi2+  Bi100  1  0.14724456  0.47235155  0.19008095  1
  Bi2+  Bi101  1  0.12609987  0.51430584  0.70613492  1
  Bi2+  Bi102  1  0.11546780  0.72725691  0.21160137  1
  Bi2+  Bi103  1  0.13205613  0.83194891  0.70198891  1
  Bi2+  Bi104  1  0.33937550  -0.00506820  0.21442455  1
  Bi2+  Bi105  1  0.34309743  -0.02100729  0.72123056  1
  Bi2+  Bi106  1  0.31244484  0.26558619  0.21983638  1
  Bi2+  Bi107  1  0.39425321  0.23574073  0.71118523  1
  Bi2+  Bi108  1  0.36950794  0.56975490  0.18220322  1
  Bi2+  Bi109  1  0.37755547  0.52652837  0.72555259  1
  Bi2+  Bi110  1  0.40110154  0.75701184  0.21355987  1
  Bi2+  Bi111  1  0.40880228  0.76452045  0.71553627  1
  Bi2+  Bi112  1  0.62118778  -0.00058402  0.19961612  1
  Bi2+  Bi113  1  0.62449600  0.04073667  0.68545424  1
  Bi2+  Bi114  1  0.64903735  0.26324653  0.21358908  1
  Bi2+  Bi115  1  0.67628471  0.29530236  0.74819619  1
  Bi2+  Bi116  1  0.67047311  0.49900589  0.19750151  1
  Bi2+  Bi117  1  0.65385669  0.49094596  0.71112261  1
  Bi2+  Bi118  1  0.59170449  0.71704152  0.22508050  1
  Bi2+  Bi119  1  0.62656094  0.74407556  0.71719356  1
  Bi2+  Bi120  1  0.85335645  0.00744795  0.19916816  1
  Bi2+  Bi121  1  0.90526519  0.01908500  0.70250915  1
  Bi2+  Bi122  1  0.87985217  0.24101768  0.26083821  1
  Bi2+  Bi123  1  0.86927194  0.31416204  0.71023051  1
  Bi2+  Bi124  1  0.91605464  0.53142219  0.20746934  1
  Bi2+  Bi125  1  0.84876736  0.50735826  0.70816489  1
  Bi2+  Bi126  1  0.92090354  0.78083800  0.23484294  1
  Bi2+  Bi127  1  0.89335198  0.72550979  0.70814729  1
  S2-  S128  1  -0.04070170  0.12070514  0.15398942  1
  S2-  S129  1  0.01812570  0.12527468  0.65610345  1
  S2-  S130  1  -0.00180418  0.39769808  0.15455911  1
  S2-  S131  1  0.08568074  0.37020144  0.65168137  1
  S2-  S132  1  -0.00306815  0.64445140  0.15161736  1
  S2-  S133  1  -0.01329841  0.59224384  0.66269682  1
  S2-  S134  1  -0.09760895  0.87371117  0.14380541  1
  S2-  S135  1  -0.08336439  0.86191255  0.64771932  1
  S2-  S136  1  0.33797646  0.12391290  0.15274861  1
  S2-  S137  1  0.26244713  0.22652706  0.64265136  1
  S2-  S138  1  0.26006591  0.37185952  0.14552441  1
  S2-  S139  1  0.25916054  0.47507971  0.65570141  1
  S2-  S140  1  0.21724205  0.62120219  0.14573220  1
  S2-  S141  1  0.18811541  0.66823170  0.67435407  1
  S2-  S142  1  0.24950010  0.88049591  0.15090609  1
  S2-  S143  1  0.35972926  0.87135656  0.63898040  1
  S2-  S144  1  0.53300147  0.15974502  0.19159585  1
  S2-  S145  1  0.52106098  0.17298310  0.64728705  1
  S2-  S146  1  0.54886981  0.37789329  0.15665882  1
  S2-  S147  1  0.45284611  0.39828747  0.68723228  1
  S2-  S148  1  0.58706439  0.61792607  0.14028551  1
  S2-  S149  1  0.41733830  0.62716626  0.64764081  1
  S2-  S150  1  0.48042794  0.96001934  0.15580148  1
  S2-  S151  1  0.59303670  0.87714953  0.65123322  1
  S2-  S152  1  0.73360642  0.12987712  0.16705934  1
  S2-  S153  1  0.76911304  0.11359763  0.65322464  1
  S2-  S154  1  0.76792383  0.36921013  0.16436872  1
  S2-  S155  1  0.66362479  0.34854897  0.64494641  1
  S2-  S156  1  0.78805021  0.61643072  0.17000407  1
  S2-  S157  1  0.74794904  0.70147707  0.64835589  1
  S2-  S158  1  0.68192296  0.85841390  0.17147656  1
  S2-  S159  1  0.75580714  0.93051867  0.70793002  1
  S2-  S160  1  0.14012664  0.00642496  0.34310512  1
  S2-  S161  1  -0.00006095  0.00970437  0.86030216  1
  S2-  S162  1  0.10767914  0.22168878  0.33653691  1
  S2-  S163  1  0.12482801  0.26161116  0.83729164  1
  S2-  S164  1  0.11012350  0.43201006  0.33934686  1
  S2-  S165  1  0.15367767  0.46380651  0.80459661  1
  S2-  S166  1  0.13757001  0.64466579  0.36379547  1
  S2-  S167  1  0.12067506  0.66344523  0.84744272  1
  S2-  S168  1  0.37529643  0.02036588  0.32837031  1
  S2-  S169  1  0.43411100  0.00869101  0.85791887  1
  S2-  S170  1  0.37669743  0.23580592  0.34219900  1
  S2-  S171  1  0.36667627  0.24416483  0.84892976  1
  S2-  S172  1  0.34815102  0.52354544  0.35174457  1
  S2-  S173  1  0.35245200  0.47634805  0.82811363  1
  S2-  S174  1  0.42954423  0.79050187  0.35538750  1
  S2-  S175  1  0.38466056  0.73186829  0.84378356  1
  S2-  S176  1  0.60437813  0.01981560  0.33945608  1
  S2-  S177  1  0.59357151  0.01852042  0.77821273  1
  S2-  S178  1  0.60903185  0.24923334  0.31859530  1
  S2-  S179  1  0.60167727  0.19186497  0.85803419  1
  S2-  S180  1  0.65085531  0.50451605  0.33960796  1
  S2-  S181  1  0.54882517  0.47648866  0.85429529  1
  S2-  S182  1  0.65564644  0.76741852  0.33580776  1
  S2-  S183  1  0.62080358  0.84543047  0.85750268  1
  S2-  S184  1  0.83592138  -0.01335999  0.33771985  1
  S2-  S185  1  0.77271958  0.01380240  0.84896731  1
  S2-  S186  1  0.81839531  0.24008607  0.35581207  1
  S2-  S187  1  0.89414181  0.24788207  0.84597009  1
  S2-  S188  1  0.88857133  0.51281584  0.34741514  1
  S2-  S189  1  0.96463425  0.49842445  0.84873221  1
  S2-  S190  1  0.87795334  0.74361366  0.33889717  1
  S2-  S191  1  0.89904406  0.79513033  0.84856208  1
  S2-  S192  1  -0.00057063  0.11534799  0.44787077  1
  S2-  S193  1  -0.00160584  0.12799900  0.95512603  1
  S2-  S194  1  -0.00036879  0.37010213  0.45389258  1
  S2-  S195  1  -0.00443467  0.37483100  0.95044567  1
  S2-  S196  1  -0.00244918  0.61995402  0.45627838  1
  S2-  S197  1  -0.00533509  0.62596510  0.95035776  1
  S2-  S198  1  0.00306723  0.86500670  0.44967911  1
  S2-  S199  1  0.00036479  0.87095437  0.95623982  1
  S2-  S200  1  0.25086746  0.11642474  0.45288788  1
  S2-  S201  1  0.24381885  0.12219800  0.95462613  1
  S2-  S202  1  0.25027125  0.36767746  0.45590137  1
  S2-  S203  1  0.24997075  0.37965041  0.94204906  1
  S2-  S204  1  0.25578080  0.61575270  0.46829210  1
  S2-  S205  1  0.25364595  0.62125928  0.94331854  1
  S2-  S206  1  0.24968416  0.86622772  0.45055214  1
  S2-  S207  1  0.24738491  0.87549904  0.94883192  1
  S2-  S208  1  0.50336523  0.11734985  0.44557797  1
  S2-  S209  1  0.49700845  0.12181347  0.96713958  1
  S2-  S210  1  0.50477922  0.36590153  0.43771291  1
  S2-  S211  1  0.49704014  0.36954444  0.95766471  1
  S2-  S212  1  0.50034020  0.61543066  0.45264483  1
  S2-  S213  1  0.50024715  0.62865623  0.95080391  1
  S2-  S214  1  0.50058436  0.87147160  0.45842021  1
  S2-  S215  1  0.49489696  0.87695675  0.96183289  1
  S2-  S216  1  0.75219235  0.11451038  0.45086773  1
  S2-  S217  1  0.74282529  0.12415852  0.95773857  1
  S2-  S218  1  0.75210027  0.36913131  0.45257957  1
  S2-  S219  1  0.74125024  0.37010349  0.95486072  1
  S2-  S220  1  0.74838259  0.61893784  0.45371887  1
  S2-  S221  1  0.74417426  0.62679323  0.95471159  1
  S2-  S222  1  0.74929526  0.86621485  0.44634386  1
  S2-  S223  1  0.75247328  0.87399467  0.96473247  1
  S2-  S224  1  0.12059161  -0.00164915  0.04405831  1
  S2-  S225  1  0.12404073  -0.00979962  0.54653571  1
  S2-  S226  1  0.12075775  0.25009247  0.04715672  1
  S2-  S227  1  0.12090975  0.23912121  0.54378839  1
  S2-  S228  1  0.12189435  0.50176136  0.03570865  1
  S2-  S229  1  0.12544306  0.49408054  0.54575963  1
  S2-  S230  1  0.12238595  0.74522667  0.04238911  1
  S2-  S231  1  0.12592648  0.74271680  0.55202796  1
  S2-  S232  1  0.36398264  -0.00535316  0.05191751  1
  S2-  S233  1  0.37237498  -0.00213713  0.54006054  1
  S2-  S234  1  0.36954443  0.25046726  0.05239500  1
  S2-  S235  1  0.38222284  0.24289466  0.54505577  1
  S2-  S236  1  0.37301652  0.49900648  0.03886483  1
  S2-  S237  1  0.38875561  0.47465958  0.55449173  1
  S2-  S238  1  0.36762519  0.74884013  0.05004368  1
  S2-  S239  1  0.37386477  0.73829684  0.54491613  1
  S2-  S240  1  0.62186218  -0.00254341  0.06380136  1
  S2-  S241  1  0.62983562  -0.01132209  0.54584581  1
  S2-  S242  1  0.61493187  0.24608669  0.05689448  1
  S2-  S243  1  0.62655420  0.24107656  0.53415117  1
  S2-  S244  1  0.61569223  0.49411860  0.04457748  1
  S2-  S245  1  0.62348458  0.48948621  0.54857865  1
  S2-  S246  1  0.62068194  0.75405998  0.04998263  1
  S2-  S247  1  0.62150608  0.74001132  0.54492617  1
  S2-  S248  1  0.87788088  0.00210349  0.04297639  1
  S2-  S249  1  0.87066482  -0.01174679  0.54527560  1
  S2-  S250  1  0.87432560  0.24950844  0.05256948  1
  S2-  S251  1  0.87559231  0.24252422  0.55326683  1
  S2-  S252  1  0.86933419  0.50043100  0.04450807  1
  S2-  S253  1  0.87259346  0.49143243  0.55326215  1
  S2-  S254  1  0.87185420  0.74028918  0.05027830  1
  S2-  S255  1  0.87288729  0.74100085  0.54482820  1
