# generated using pymatgen
data_La9Ce10Pr6Nd4Sm3(BiS2)32
_symmetry_space_group_name_H-M   'P 1'
_cell_length_a   16.16342329
_cell_length_b   16.13990331
_cell_length_c   27.08836847
_cell_angle_alpha   90.01209089
_cell_angle_beta   90.04576558
_cell_angle_gamma   90.11365304
_symmetry_Int_Tables_number   1
_chemical_formula_structural   La9Ce10Pr6Nd4Sm3(BiS2)32
_chemical_formula_sum   'La18 Ce20 Pr12 Nd8 Sm6 Bi64 S128'
_cell_volume   7066.69130798
_cell_formula_units_Z   2
loop_
 _symmetry_equiv_pos_site_id
 _symmetry_equiv_pos_as_xyz
  1  'x, y, z'
loop_
 _atom_type_symbol
 _atom_type_oxidation_number
  La3+  3.0
  Ce3+  3.0
  Pr3+  3.0
  Nd3+  3.0
  Sm3+  3.0
  Bi2+  2.0
  S2-  -2.0
loop_
 _atom_site_type_symbol
 _atom_site_label
 _atom_site_symmetry_multiplicity
 _atom_site_fract_x
 _atom_site_fract_y
 _atom_site_fract_z
 _atom_site_occupancy
  La3+  La0  1  0.86236723  0.73358280  0.93646336  1
  La3+  La1  1  -0.02196238  0.35601033  0.08713687  1
  La3+  La2  1  0.87311099  0.22298106  0.40046094  1
  La3+  La3  1  0.62090735  -0.00414790  0.44775262  1
  La3+  La4  1  0.62058857  0.49086772  0.43454842  1
  La3+  La5  1  0.24435951  0.86503699  0.56967110  1
  La3+  La6  1  -0.01174158  0.60472080  0.12105149  1
  La3+  La7  1  0.35626042  0.73714143  0.93109548  1
  La3+  La8  1  -0.00869908  0.11786103  0.56881997  1
  La3+  La9  1  0.48289982  0.10789450  0.08258775  1
  La3+  La10  1  0.73336757  0.36900070  0.07238428  1
  La3+  La11  1  0.60271073  -0.01563676  0.91862791  1
  La3+  La12  1  0.13163970  0.49748604  0.41828035  1
  La3+  La13  1  0.48805379  0.36467661  0.07264567  1
  La3+  La14  1  0.35209603  0.25156918  0.91336565  1
  La3+  La15  1  0.74585418  0.11985244  0.57087037  1
  La3+  La16  1  0.61313752  0.74937979  0.42389628  1
  La3+  La17  1  0.49480637  0.11587347  0.61185228  1
  Ce3+  Ce18  1  0.74488224  0.85905711  0.57244868  1
  Ce3+  Ce19  1  0.60974389  0.48874016  0.93770613  1
  Ce3+  Ce20  1  0.36833433  0.49304099  0.44270107  1
  Ce3+  Ce21  1  0.87090720  0.48749255  0.42925312  1
  Ce3+  Ce22  1  0.23145778  0.61547497  0.06472849  1
  Ce3+  Ce23  1  0.49306433  0.36289750  0.55877014  1
  Ce3+  Ce24  1  0.48597799  0.61831224  0.05964782  1
  Ce3+  Ce25  1  0.86706523  -0.00880758  0.44594743  1
  Ce3+  Ce26  1  0.24405549  0.62085690  0.56212171  1
  Ce3+  Ce27  1  0.49877078  0.86349266  0.56872426  1
  Ce3+  Ce28  1  0.73139237  0.11015344  0.05527113  1
  Ce3+  Ce29  1  0.11947251  -0.00858098  0.43768862  1
  Ce3+  Ce30  1  -0.00559919  0.36873594  0.54572448  1
  Ce3+  Ce31  1  0.72822925  0.86786196  0.05357845  1
  Ce3+  Ce32  1  0.49491629  0.62100117  0.56124608  1
  Ce3+  Ce33  1  0.10916695  -0.00997944  0.93195447  1
  Ce3+  Ce34  1  0.23659522  0.86843786  0.05999709  1
  Ce3+  Ce35  1  0.35851403  0.48744256  0.94853792  1
  Ce3+  Ce36  1  0.74500586  0.36415983  0.54827025  1
  Ce3+  Ce37  1  0.11781737  0.23794650  0.44284233  1
  Pr3+  Pr38  1  -0.00460560  0.61576455  0.55148063  1
  Pr3+  Pr39  1  0.86024576  0.48996375  0.95366610  1
  Pr3+  Pr40  1  0.61714152  0.24029332  0.43231202  1
  Pr3+  Pr41  1  0.24463965  0.11256343  0.57148082  1
  Pr3+  Pr42  1  0.36779099  0.74624673  0.43482443  1
  Pr3+  Pr43  1  0.74369063  0.61764262  0.55671159  1
  Pr3+  Pr44  1  0.37048412  0.23719043  0.43246205  1
  Pr3+  Pr45  1  0.23694306  0.11579318  0.06242300  1
  Pr3+  Pr46  1  0.47907618  0.86644545  0.06357219  1
  Pr3+  Pr47  1  0.61035067  0.73415962  0.93019945  1
  Pr3+  Pr48  1  -0.01591231  0.86171298  0.06499051  1
  Pr3+  Pr49  1  0.35396545  -0.00856510  0.92679142  1
  Nd3+  Nd50  1  -0.01589915  0.11191836  0.06493880  1
  Nd3+  Nd51  1  0.24461374  0.36726422  0.55781749  1
  Nd3+  Nd52  1  0.10756946  0.24138701  0.94099252  1
  Nd3+  Nd53  1  0.73121336  0.62735910  0.07717417  1
  Nd3+  Nd54  1  0.23399535  0.36231402  0.06672289  1
  Nd3+  Nd55  1  -0.00759024  0.86212821  0.55702297  1
  Nd3+  Nd56  1  0.11338722  0.75172067  0.42402410  1
  Nd3+  Nd57  1  0.85682070  -0.00863584  0.93640778  1
  Sm3+  Sm58  1  0.10680835  0.73739619  0.94625291  1
  Sm3+  Sm59  1  0.60725345  0.23996673  0.94478296  1
  Sm3+  Sm60  1  0.37010204  -0.00550883  0.45124492  1
  Sm3+  Sm61  1  0.85873241  0.24155426  0.94552951  1
  Sm3+  Sm62  1  0.85944414  0.74442757  0.42779058  1
  Sm3+  Sm63  1  0.10535510  0.48903934  0.95395255  1
  Bi2+  Bi64  1  0.12019637  0.07839217  0.29157479  1
  Bi2+  Bi65  1  -0.01513684  0.19393105  0.79193746  1
  Bi2+  Bi66  1  0.03745331  0.30928942  0.27421553  1
  Bi2+  Bi67  1  0.04753799  0.39871713  0.78445885  1
  Bi2+  Bi68  1  -0.02307613  0.60683580  0.32579173  1
  Bi2+  Bi69  1  0.00927623  0.63053335  0.80479830  1
  Bi2+  Bi70  1  0.01800651  0.91371009  0.28748884  1
  Bi2+  Bi71  1  0.01898607  0.90424225  0.76512099  1
  Bi2+  Bi72  1  0.29623790  0.16213009  0.30662436  1
  Bi2+  Bi73  1  0.17189354  0.13204069  0.79271945  1
  Bi2+  Bi74  1  0.28746486  0.35330272  0.28861299  1
  Bi2+  Bi75  1  0.25654758  0.45334815  0.79449216  1
  Bi2+  Bi76  1  0.28893579  0.63557089  0.28852705  1
  Bi2+  Bi77  1  0.29782222  0.64407443  0.81130804  1
  Bi2+  Bi78  1  0.27401058  0.83011944  0.28759590  1
  Bi2+  Bi79  1  0.20714401  0.92311848  0.75695816  1
  Bi2+  Bi80  1  0.48925049  0.15113474  0.26805636  1
  Bi2+  Bi81  1  0.53248953  0.14270870  0.81830718  1
  Bi2+  Bi82  1  0.47993246  0.37099650  0.28197641  1
  Bi2+  Bi83  1  0.50579789  0.43334502  0.77772968  1
  Bi2+  Bi84  1  0.49186850  0.64535867  0.28512200  1
  Bi2+  Bi85  1  0.49402256  0.63068851  0.79251056  1
  Bi2+  Bi86  1  0.47696886  0.95476410  0.28438930  1
  Bi2+  Bi87  1  0.49002760  0.84529710  0.78900930  1
  Bi2+  Bi88  1  0.73163291  0.07333820  0.28263426  1
  Bi2+  Bi89  1  0.73653974  0.20210128  0.79390898  1
  Bi2+  Bi90  1  0.72255545  0.37111173  0.30891136  1
  Bi2+  Bi91  1  0.81028414  0.42859275  0.78228811  1
  Bi2+  Bi92  1  0.71393406  0.69082151  0.25271078  1
  Bi2+  Bi93  1  0.75652149  0.62880668  0.79018139  1
  Bi2+  Bi94  1  0.78159622  0.90338757  0.32049516  1
  Bi2+  Bi95  1  0.77581775  0.89740916  0.80195812  1
  Bi2+  Bi96  1  0.13424390  -0.00664899  0.15588623  1
  Bi2+  Bi97  1  0.09208450  0.09319607  0.68795489  1
  Bi2+  Bi98  1  0.14756917  0.19321112  0.20102307  1
  Bi2+  Bi99  1  0.11226223  0.28420760  0.70254671  1
  Bi2+  Bi100  1  0.13505804  0.51586149  0.22999326  1
  Bi2+  Bi101  1  0.23979669  0.52166622  0.68599854  1
  Bi2+  Bi102  1  0.12990646  0.81909634  0.20973342  1
  Bi2+  Bi103  1  0.15487365  0.68122276  0.73301563  1
  Bi2+  Bi104  1  0.31214292  -0.02639784  0.21465281  1
  Bi2+  Bi105  1  0.36208569  0.00508553  0.71771584  1
  Bi2+  Bi106  1  0.38272384  0.25808772  0.19037354  1
  Bi2+  Bi107  1  0.36993536  0.26517355  0.72212724  1
  Bi2+  Bi108  1  0.39407407  0.51039579  0.21258343  1
  Bi2+  Bi109  1  0.44517479  0.51932545  0.68073663  1
  Bi2+  Bi110  1  0.39582759  0.70368097  0.18304579  1
  Bi2+  Bi111  1  0.36522541  0.70204006  0.69976239  1
  Bi2+  Bi112  1  0.68777627  -0.05136683  0.18849328  1
  Bi2+  Bi113  1  0.63584307  -0.00470524  0.71266806  1
  Bi2+  Bi114  1  0.68600922  0.27681119  0.20385138  1
  Bi2+  Bi115  1  0.62919427  0.28899696  0.71197583  1
  Bi2+  Bi116  1  0.61962715  0.52791986  0.21767633  1
  Bi2+  Bi117  1  0.64650460  0.51396695  0.70651372  1
  Bi2+  Bi118  1  0.55256968  0.81237683  0.21850501  1
  Bi2+  Bi119  1  0.63341708  0.71283010  0.71454088  1
  Bi2+  Bi120  1  0.94074986  -0.01514357  0.17734009  1
  Bi2+  Bi121  1  0.90767068  0.04900833  0.72561978  1
  Bi2+  Bi122  1  0.88513037  0.14626470  0.22199844  1
  Bi2+  Bi123  1  0.87577104  0.29674233  0.70046836  1
  Bi2+  Bi124  1  0.86842866  0.47601161  0.22661113  1
  Bi2+  Bi125  1  0.94050514  0.51728554  0.71319316  1
  Bi2+  Bi126  1  0.84681143  0.82294264  0.21781949  1
  Bi2+  Bi127  1  0.89631974  0.77006719  0.69878051  1
  S2-  S128  1  -0.00845507  0.21111785  0.14984343  1
  S2-  S129  1  -0.12674277  0.14461051  0.64580790  1
  S2-  S130  1  0.01573115  0.44411322  0.17208734  1
  S2-  S131  1  -0.00248580  0.38685607  0.64412611  1
  S2-  S132  1  -0.00923404  0.61064256  0.23137484  1
  S2-  S133  1  -0.01331018  0.65451498  0.65117691  1
  S2-  S134  1  -0.01471211  0.77264165  0.15317618  1
  S2-  S135  1  -0.00167863  0.87550584  0.65804889  1
  S2-  S136  1  0.34130112  0.10417726  0.14687264  1
  S2-  S137  1  0.33502969  0.14559785  0.65763021  1
  S2-  S138  1  0.22462291  0.33822090  0.16677630  1
  S2-  S139  1  0.25800984  0.34749008  0.65818746  1
  S2-  S140  1  0.16624374  0.61330313  0.15619519  1
  S2-  S141  1  0.22362405  0.73433610  0.63984973  1
  S2-  S142  1  0.34422463  0.85630700  0.13797911  1
  S2-  S143  1  0.22850542  0.96814342  0.65261465  1
  S2-  S144  1  0.53921218  0.19255806  0.16932404  1
  S2-  S145  1  0.49660449  0.10755932  0.72592801  1
  S2-  S146  1  0.60973100  0.39096473  0.14926911  1
  S2-  S147  1  0.49442364  0.28920756  0.64893570  1
  S2-  S148  1  0.58588908  0.61675016  0.13973512  1
  S2-  S149  1  0.51025932  0.73181479  0.63893811  1
  S2-  S150  1  0.53896594  0.96792436  0.14213598  1
  S2-  S151  1  0.49110048  0.94733163  0.65746859  1
  S2-  S152  1  0.75181663  0.13507267  0.15284618  1
  S2-  S153  1  0.65497320  0.13820210  0.65814425  1
  S2-  S154  1  0.82464698  0.35411607  0.16106500  1
  S2-  S155  1  0.74256567  0.36402920  0.64715726  1
  S2-  S156  1  0.82165806  0.58640285  0.16303743  1
  S2-  S157  1  0.75870021  0.72028926  0.63917792  1
  S2-  S158  1  0.72822193  0.78785705  0.14041686  1
  S2-  S159  1  0.75669635  0.93093642  0.66602011  1
  S2-  S160  1  0.14638664  -0.11241232  0.35800849  1
  S2-  S161  1  0.21914054  -0.00436387  0.85485216  1
  S2-  S162  1  0.04628520  0.20439773  0.35487449  1
  S2-  S163  1  0.19437866  0.25908381  0.85531611  1
  S2-  S164  1  0.07650954  0.44256399  0.32374647  1
  S2-  S165  1  0.11152572  0.50591044  0.85378023  1
  S2-  S166  1  0.14330965  0.64210315  0.34814384  1
  S2-  S167  1  0.08384709  0.75580273  0.84801463  1
  S2-  S168  1  0.36010552  0.01190735  0.35187701  1
  S2-  S169  1  0.46636368  -0.01233840  0.84663825  1
  S2-  S170  1  0.49204858  0.24621957  0.35493791  1
  S2-  S171  1  0.38037705  0.19841770  0.81495683  1
  S2-  S172  1  0.29730961  0.48670321  0.35293299  1
  S2-  S173  1  0.38025529  0.41194460  0.85929099  1
  S2-  S174  1  0.47960982  0.76308425  0.35559625  1
  S2-  S175  1  0.34760934  0.80752580  0.83818811  1
  S2-  S176  1  0.62430575  -0.03928042  0.34732581  1
  S2-  S177  1  0.69784467  0.04339820  0.83387339  1
  S2-  S178  1  0.71171687  0.21525739  0.34607728  1
  S2-  S179  1  0.61758545  0.29315983  0.84941824  1
  S2-  S180  1  0.58858985  0.48236067  0.33493889  1
  S2-  S181  1  0.62633559  0.59871709  0.86086093  1
  S2-  S182  1  0.73238770  0.73910811  0.34835179  1
  S2-  S183  1  0.62241871  0.83967489  0.84587071  1
  S2-  S184  1  0.86687434  0.05677605  0.35374801  1
  S2-  S185  1  0.91662214  -0.02836498  0.84263246  1
  S2-  S186  1  0.88326440  0.32106391  0.31442869  1
  S2-  S187  1  0.85882169  0.27934770  0.84843359  1
  S2-  S188  1  0.82216258  0.51682893  0.33414801  1
  S2-  S189  1  0.86639899  0.54041480  0.85515770  1
  S2-  S190  1  0.96209157  0.76495590  0.34757001  1
  S2-  S191  1  0.83736853  0.76054961  0.83540622  1
  S2-  S192  1  -0.00597335  0.11235062  0.46016415  1
  S2-  S193  1  -0.01721347  0.11676170  0.95242760  1
  S2-  S194  1  -0.00271811  0.36648719  0.44128626  1
  S2-  S195  1  -0.01580151  0.36355206  0.95767722  1
  S2-  S196  1  -0.00857665  0.61620363  0.44499720  1
  S2-  S197  1  -0.01176276  0.61421357  0.95808416  1
  S2-  S198  1  -0.00997274  0.87019961  0.45182987  1
  S2-  S199  1  -0.01458308  0.86531171  0.95499587  1
  S2-  S200  1  0.24288686  0.11532949  0.45799538  1
  S2-  S201  1  0.23454163  0.12087317  0.95526335  1
  S2-  S202  1  0.24448560  0.36201124  0.45046851  1
  S2-  S203  1  0.23134582  0.36806940  0.96101559  1
  S2-  S204  1  0.24857654  0.62195928  0.45543668  1
  S2-  S205  1  0.23018493  0.61144544  0.95640662  1
  S2-  S206  1  0.24813472  0.86939314  0.46028787  1
  S2-  S207  1  0.22940247  0.86209548  0.95309824  1
  S2-  S208  1  0.49336078  0.11429531  0.45146731  1
  S2-  S209  1  0.47857963  0.12595121  0.94341002  1
  S2-  S210  1  0.49098140  0.36993778  0.45276824  1
  S2-  S211  1  0.48670816  0.36434960  0.96196969  1
  S2-  S212  1  0.49293734  0.61515116  0.45133946  1
  S2-  S213  1  0.48092796  0.61082027  0.95281722  1
  S2-  S214  1  0.49135163  0.87328192  0.46041152  1
  S2-  S215  1  0.48002240  0.86009577  0.95272282  1
  S2-  S216  1  0.74780724  0.11921102  0.45931424  1
  S2-  S217  1  0.73577513  0.11953560  0.94928270  1
  S2-  S218  1  0.74831206  0.36394652  0.44266459  1
  S2-  S219  1  0.73473420  0.36395008  0.95947135  1
  S2-  S220  1  0.74406701  0.61588143  0.44983301  1
  S2-  S221  1  0.73552103  0.61463299  0.96458310  1
  S2-  S222  1  0.74481072  0.86629124  0.45984638  1
  S2-  S223  1  0.73724945  0.86475209  0.94839829  1
  S2-  S224  1  0.10792624  -0.00884551  0.03889449  1
  S2-  S225  1  0.11535159  -0.00913985  0.54516111  1
  S2-  S226  1  0.10928015  0.23908421  0.04757872  1
  S2-  S227  1  0.12069043  0.24147337  0.54975026  1
  S2-  S228  1  0.10722071  0.48561671  0.05740741  1
  S2-  S229  1  0.12232710  0.49343002  0.53806356  1
  S2-  S230  1  0.11430004  0.74268838  0.05091279  1
  S2-  S231  1  0.11557443  0.74247539  0.53441959  1
  S2-  S232  1  0.35971498  -0.00779782  0.03597767  1
  S2-  S233  1  0.37482600  -0.00486048  0.55420605  1
  S2-  S234  1  0.36240877  0.24339276  0.04976687  1
  S2-  S235  1  0.36617532  0.24215298  0.54196582  1
  S2-  S236  1  0.35886893  0.49025070  0.05716477  1
  S2-  S237  1  0.36888253  0.49308007  0.54768742  1
  S2-  S238  1  0.35680901  0.73468908  0.03968076  1
  S2-  S239  1  0.37119403  0.74091829  0.54191712  1
  S2-  S240  1  0.60650524  -0.00646342  0.03082902  1
  S2-  S241  1  0.62117380  -0.00907751  0.55536567  1
  S2-  S242  1  0.60840256  0.23551256  0.04889577  1
  S2-  S243  1  0.61803773  0.24358689  0.54140283  1
  S2-  S244  1  0.60995694  0.49293196  0.04187797  1
  S2-  S245  1  0.61855172  0.49182934  0.54490659  1
  S2-  S246  1  0.60293056  0.74550363  0.03810549  1
  S2-  S247  1  0.62082345  0.74032353  0.53497523  1
  S2-  S248  1  0.85902130  -0.01088864  0.04449363  1
  S2-  S249  1  0.86852903  -0.01366941  0.55193647  1
  S2-  S250  1  0.85721529  0.23498587  0.04791618  1
  S2-  S251  1  0.87213122  0.24726999  0.53941770  1
  S2-  S252  1  0.86517736  0.49275426  0.05842159  1
  S2-  S253  1  0.86800628  0.49295323  0.53966816  1
  S2-  S254  1  0.85549229  0.74490478  0.04458953  1
  S2-  S255  1  0.87140725  0.73962244  0.53430896  1
