# generated using pymatgen
data_La9Ce10Pr6Nd4Sm3(BiS2)32
_symmetry_space_group_name_H-M   'P 1'
_cell_length_a   16.20910427
_cell_length_b   16.19737756
_cell_length_c   27.13502771
_cell_angle_alpha   89.81933144
_cell_angle_beta   90.19027304
_cell_angle_gamma   89.99337422
_symmetry_Int_Tables_number   1
_chemical_formula_structural   La9Ce10Pr6Nd4Sm3(BiS2)32
_chemical_formula_sum   'La18 Ce20 Pr12 Nd8 Sm6 Bi64 S128'
_cell_volume   7124.09059806
_cell_formula_units_Z   2
loop_
 _symmetry_equiv_pos_site_id
 _symmetry_equiv_pos_as_xyz
  1  'x, y, z'
loop_
 _atom_type_symbol
 _atom_type_oxidation_number
  La3+  3.0
  Ce3+  3.0
  Pr3+  3.0
  Nd3+  3.0
  Sm3+  3.0
  Bi2+  2.0
  S2-  -2.0
loop_
 _atom_site_type_symbol
 _atom_site_label
 _atom_site_symmetry_multiplicity
 _atom_site_fract_x
 _atom_site_fract_y
 _atom_site_fract_z
 _atom_site_occupancy
  La3+  La0  1  0.26416531  0.60990825  0.57977353  1
  La3+  La1  1  0.38266266  -0.00486238  0.42776608  1
  La3+  La2  1  0.87449200  0.72895924  0.41538747  1
  La3+  La3  1  0.50789040  0.11143822  0.57751394  1
  La3+  La4  1  0.00832571  0.14754493  0.07326013  1
  La3+  La5  1  0.62974664  0.23000886  0.43504978  1
  La3+  La6  1  0.00644158  0.60599553  0.56081601  1
  La3+  La7  1  0.88480637  -0.01680707  0.43964135  1
  La3+  La8  1  0.13493943  0.73695612  0.42256211  1
  La3+  La9  1  0.13181261  0.77364823  0.90824029  1
  La3+  La10  1  0.26669680  0.63329057  0.08541340  1
  La3+  La11  1  0.87667328  0.77745828  0.92770022  1
  La3+  La12  1  0.01011293  0.84926580  0.56704122  1
  La3+  La13  1  0.25540402  0.10612832  0.57371371  1
  La3+  La14  1  0.76036903  0.64887243  0.07195739  1
  La3+  La15  1  0.37926423  0.77775525  0.92892796  1
  La3+  La16  1  0.26211604  0.89212185  0.07367469  1
  La3+  La17  1  0.88482322  0.52629603  0.92805403  1
  Ce3+  Ce18  1  0.63362904  0.77508758  0.94632994  1
  Ce3+  Ce19  1  0.38462561  0.26267733  0.93392987  1
  Ce3+  Ce20  1  0.63525788  0.02051930  0.94696142  1
  Ce3+  Ce21  1  0.13551742  0.52329712  0.94290042  1
  Ce3+  Ce22  1  0.63145461  0.48571243  0.42691289  1
  Ce3+  Ce23  1  0.26130773  0.39397695  0.05380201  1
  Ce3+  Ce24  1  0.25853785  0.85822735  0.55443164  1
  Ce3+  Ce25  1  0.13697333  0.23683587  0.44086202  1
  Ce3+  Ce26  1  0.38205235  0.74424060  0.42776165  1
  Ce3+  Ce27  1  0.13232799  0.01971413  0.94301861  1
  Ce3+  Ce28  1  0.50438942  0.85833643  0.55943615  1
  Ce3+  Ce29  1  0.63616643  0.26957278  0.94007540  1
  Ce3+  Ce30  1  0.51010272  0.39362356  0.04950568  1
  Ce3+  Ce31  1  0.50524966  0.64434437  0.05384186  1
  Ce3+  Ce32  1  0.13357879  -0.01752806  0.43393803  1
  Ce3+  Ce33  1  0.51130519  0.14615189  0.05877915  1
  Ce3+  Ce34  1  0.00824602  0.39531750  0.05219574  1
  Ce3+  Ce35  1  0.01161449  0.88975383  0.06731209  1
  Ce3+  Ce36  1  0.37611492  0.48894466  0.43096589  1
  Ce3+  Ce37  1  0.63503110  0.52325607  0.94310848  1
  Pr3+  Pr38  1  0.00930793  0.64550655  0.06029987  1
  Pr3+  Pr39  1  0.26023402  0.14491300  0.06637303  1
  Pr3+  Pr40  1  0.38102440  0.52301888  0.93192490  1
  Pr3+  Pr41  1  0.50434456  0.60774203  0.55178405  1
  Pr3+  Pr42  1  0.63447160  -0.01362623  0.44994368  1
  Pr3+  Pr43  1  0.50522117  0.35955135  0.54680440  1
  Pr3+  Pr44  1  0.25911126  0.36189631  0.56552159  1
  Pr3+  Pr45  1  0.00626313  0.10970173  0.56717080  1
  Pr3+  Pr46  1  0.13458383  0.49413604  0.42992513  1
  Pr3+  Pr47  1  0.87550203  0.48176245  0.42581811  1
  Pr3+  Pr48  1  0.88654989  0.23504382  0.43833543  1
  Pr3+  Pr49  1  0.75822491  0.60283761  0.56520222  1
  Nd3+  Nd50  1  0.00888982  0.36504418  0.55969577  1
  Nd3+  Nd51  1  0.76141620  0.85540874  0.56304742  1
  Nd3+  Nd52  1  0.75748834  0.36110877  0.56079437  1
  Nd3+  Nd53  1  0.13478008  0.26476627  0.93564534  1
  Nd3+  Nd54  1  0.88525728  0.26973883  0.93165742  1
  Nd3+  Nd55  1  0.50743141  0.89604399  0.06524823  1
  Nd3+  Nd56  1  0.75938495  0.11122641  0.57083532  1
  Nd3+  Nd57  1  0.88736007  0.02299993  0.93887250  1
  Sm3+  Sm58  1  0.38161234  0.02315785  0.93939320  1
  Sm3+  Sm59  1  0.76165299  0.89548082  0.06649047  1
  Sm3+  Sm60  1  0.63459538  0.73436188  0.44642933  1
  Sm3+  Sm61  1  0.76202383  0.39515473  0.05674931  1
  Sm3+  Sm62  1  0.76070497  0.14486538  0.06107433  1
  Sm3+  Sm63  1  0.37412822  0.23371289  0.43714902  1
  Bi2+  Bi64  1  0.03825714  0.19692679  0.30416824  1
  Bi2+  Bi65  1  0.01987095  0.14095039  0.78251819  1
  Bi2+  Bi66  1  -0.00670416  0.38306863  0.29530835  1
  Bi2+  Bi67  1  -0.00144094  0.33545927  0.79082742  1
  Bi2+  Bi68  1  -0.01013516  0.62669622  0.27590093  1
  Bi2+  Bi69  1  -0.00792003  0.58378146  0.79299415  1
  Bi2+  Bi70  1  -0.01177328  0.91010654  0.27521676  1
  Bi2+  Bi71  1  0.00467218  0.94812985  0.78441132  1
  Bi2+  Bi72  1  0.30834358  0.13731445  0.29340605  1
  Bi2+  Bi73  1  0.24374802  0.14107234  0.78860836  1
  Bi2+  Bi74  1  0.24550302  0.35364671  0.28191899  1
  Bi2+  Bi75  1  0.22082790  0.33698597  0.79844997  1
  Bi2+  Bi76  1  0.23643943  0.60888920  0.28520839  1
  Bi2+  Bi77  1  0.23766115  0.62328276  0.78545347  1
  Bi2+  Bi78  1  0.25200289  0.88000836  0.30049855  1
  Bi2+  Bi79  1  0.26874626  0.89689216  0.79171382  1
  Bi2+  Bi80  1  0.52406709  0.03446344  0.28861842  1
  Bi2+  Bi81  1  0.50907528  0.15300866  0.79307056  1
  Bi2+  Bi82  1  0.44324043  0.39474259  0.31138680  1
  Bi2+  Bi83  1  0.42098546  0.34143114  0.78080830  1
  Bi2+  Bi84  1  0.50534845  0.58258533  0.29923559  1
  Bi2+  Bi85  1  0.47262132  0.68078948  0.79337582  1
  Bi2+  Bi86  1  0.50235311  0.78331439  0.28555337  1
  Bi2+  Bi87  1  0.52071675  0.87181706  0.79494173  1
  Bi2+  Bi88  1  0.77188847  0.09692776  0.30167676  1
  Bi2+  Bi89  1  0.76475629  0.15887192  0.78718533  1
  Bi2+  Bi90  1  0.63481602  0.36310194  0.28622832  1
  Bi2+  Bi91  1  0.70405884  0.38403775  0.73663975  1
  Bi2+  Bi92  1  0.72265237  0.60116501  0.29869938  1
  Bi2+  Bi93  1  0.74320690  0.63562732  0.79138471  1
  Bi2+  Bi94  1  0.70429067  0.85410274  0.28039635  1
  Bi2+  Bi95  1  0.74974145  0.89022711  0.79786438  1
  Bi2+  Bi96  1  0.12694815  0.06502853  0.23289004  1
  Bi2+  Bi97  1  0.17284434  0.00658356  0.71661114  1
  Bi2+  Bi98  1  0.10754678  0.24890245  0.19748165  1
  Bi2+  Bi99  1  0.03836893  0.26006978  0.68338064  1
  Bi2+  Bi100  1  0.11858620  0.44420414  0.21200521  1
  Bi2+  Bi101  1  0.11890000  0.43065912  0.71307012  1
  Bi2+  Bi102  1  0.09856478  0.78023429  0.19896033  1
  Bi2+  Bi103  1  0.11228520  0.78215065  0.70847791  1
  Bi2+  Bi104  1  0.38438512  0.01580497  0.21043812  1
  Bi2+  Bi105  1  0.43725352  0.00722268  0.72098959  1
  Bi2+  Bi106  1  0.39764332  0.27840037  0.22090286  1
  Bi2+  Bi107  1  0.30251574  0.25547189  0.70128141  1
  Bi2+  Bi108  1  0.39480474  0.50267526  0.20453773  1
  Bi2+  Bi109  1  0.38985504  0.49098255  0.70535236  1
  Bi2+  Bi110  1  0.35985688  0.75840802  0.21011980  1
  Bi2+  Bi111  1  0.36574349  0.76665422  0.69223986  1
  Bi2+  Bi112  1  0.58017577  -0.08249285  0.19528161  1
  Bi2+  Bi113  1  0.63183912  0.03292680  0.72673530  1
  Bi2+  Bi114  1  0.57745436  0.19693471  0.23259163  1
  Bi2+  Bi115  1  0.55797215  0.26874349  0.70214265  1
  Bi2+  Bi116  1  0.59561072  0.48382840  0.19933528  1
  Bi2+  Bi117  1  0.58914689  0.54555009  0.74247150  1
  Bi2+  Bi118  1  0.61205746  0.67541476  0.21037385  1
  Bi2+  Bi119  1  0.62072210  0.74165403  0.72625764  1
  Bi2+  Bi120  1  0.75890139  -0.01385145  0.20306202  1
  Bi2+  Bi121  1  0.84225388  0.01357270  0.72175376  1
  Bi2+  Bi122  1  0.85660406  0.26257765  0.20727026  1
  Bi2+  Bi123  1  0.84152821  0.27145006  0.69425692  1
  Bi2+  Bi124  1  0.85812325  0.45123105  0.21875364  1
  Bi2+  Bi125  1  0.85947512  0.49077694  0.69694699  1
  Bi2+  Bi126  1  0.86628505  0.72469449  0.20170028  1
  Bi2+  Bi127  1  0.88700315  0.77925149  0.70007741  1
  S2-  S128  1  -0.00277637  0.11940801  0.17317558  1
  S2-  S129  1  -0.11837654  0.11380854  0.64350129  1
  S2-  S130  1  -0.01177590  0.39034398  0.14923940  1
  S2-  S131  1  0.00170214  0.47914084  0.63839440  1
  S2-  S132  1  0.00485249  0.63920546  0.16342078  1
  S2-  S133  1  0.01650055  0.71212699  0.64204201  1
  S2-  S134  1  -0.03397908  0.87584944  0.16464542  1
  S2-  S135  1  0.00259656  0.90450766  0.66639654  1
  S2-  S136  1  0.26126794  0.10641808  0.16524457  1
  S2-  S137  1  0.12509903  0.11316363  0.64400031  1
  S2-  S138  1  0.26042542  0.46775504  0.14247241  1
  S2-  S139  1  0.25437618  0.46623043  0.64678210  1
  S2-  S140  1  0.22236424  0.66620732  0.18553349  1
  S2-  S141  1  0.21746819  0.66515452  0.68032783  1
  S2-  S142  1  0.19006013  0.89765581  0.17019576  1
  S2-  S143  1  0.24680165  0.88055546  0.65325196  1
  S2-  S144  1  0.50023093  0.11955449  0.15468685  1
  S2-  S145  1  0.38023773  0.11827624  0.64971024  1
  S2-  S146  1  0.48931171  0.37844824  0.14708111  1
  S2-  S147  1  0.49128914  0.39365671  0.64558280  1
  S2-  S148  1  0.42276365  0.64205536  0.14070422  1
  S2-  S149  1  0.41956852  0.62403087  0.63998580  1
  S2-  S150  1  0.39856141  0.88010891  0.14248576  1
  S2-  S151  1  0.48182241  0.86756645  0.65695173  1
  S2-  S152  1  0.76749756  0.14583870  0.16022457  1
  S2-  S153  1  0.64022158  0.13496634  0.64673084  1
  S2-  S154  1  0.75440937  0.35978546  0.15454323  1
  S2-  S155  1  0.72807456  0.47120343  0.63649913  1
  S2-  S156  1  0.79880067  0.57783597  0.16443427  1
  S2-  S157  1  0.81947578  0.64929787  0.66090628  1
  S2-  S158  1  0.75976859  0.78525662  0.14271782  1
  S2-  S159  1  0.76665732  0.87706715  0.66245639  1
  S2-  S160  1  0.24320748  0.01755922  0.35745908  1
  S2-  S161  1  0.13187077  -0.07412256  0.85650826  1
  S2-  S162  1  0.24730406  0.24574863  0.36467558  1
  S2-  S163  1  0.12545782  0.13998679  0.86577324  1
  S2-  S164  1  0.10111679  0.61086768  0.34826744  1
  S2-  S165  1  0.13213781  0.53184901  0.84432793  1
  S2-  S166  1  0.11145398  0.87257109  0.34971459  1
  S2-  S167  1  0.06772906  0.72503334  0.80770179  1
  S2-  S168  1  0.40463312  -0.12579197  0.35296057  1
  S2-  S169  1  0.38906020  -0.08116567  0.85929948  1
  S2-  S170  1  0.43425007  0.13219333  0.36245170  1
  S2-  S171  1  0.37938370  0.14303049  0.86189197  1
  S2-  S172  1  0.26280934  0.48428441  0.35540929  1
  S2-  S173  1  0.36992853  0.55220601  0.83142728  1
  S2-  S174  1  0.27237964  0.72407107  0.34846848  1
  S2-  S175  1  0.27074232  0.74975903  0.84503784  1
  S2-  S176  1  0.65735883  -0.01676497  0.34939986  1
  S2-  S177  1  0.63226749  -0.02032652  0.85210687  1
  S2-  S178  1  0.64916811  0.20924243  0.33554074  1
  S2-  S179  1  0.64278670  0.24216319  0.84321099  1
  S2-  S180  1  0.73932251  0.45201855  0.35221764  1
  S2-  S181  1  0.65048722  0.52407027  0.84554487  1
  S2-  S182  1  0.71458361  0.73915464  0.35840410  1
  S2-  S183  1  0.71425733  0.76761068  0.86030166  1
  S2-  S184  1  0.89733042  -0.00260710  0.33860635  1
  S2-  S185  1  0.89101065  -0.08650619  0.85822630  1
  S2-  S186  1  0.86619923  0.21668824  0.33733672  1
  S2-  S187  1  0.88265804  0.14665900  0.86010068  1
  S2-  S188  1  0.87821874  0.59252527  0.34552923  1
  S2-  S189  1  0.89919395  0.43669871  0.83973454  1
  S2-  S190  1  0.92917234  0.77881553  0.31600675  1
  S2-  S191  1  0.88353686  0.65285975  0.85448966  1
  S2-  S192  1  0.01116106  0.11118327  0.45442135  1
  S2-  S193  1  0.00711648  0.14861012  0.96501165  1
  S2-  S194  1  0.01038116  0.36343139  0.44846586  1
  S2-  S195  1  0.01240137  0.39119349  0.94729154  1
  S2-  S196  1  0.00044729  0.60969274  0.45248426  1
  S2-  S197  1  0.01525423  0.65186569  0.95228805  1
  S2-  S198  1  0.00242748  0.85344545  0.45377460  1
  S2-  S199  1  0.01113387  0.89394913  0.96071623  1
  S2-  S200  1  0.25568398  0.11262746  0.46528507  1
  S2-  S201  1  0.25909238  0.14505109  0.96109296  1
  S2-  S202  1  0.25848390  0.36411265  0.45961511  1
  S2-  S203  1  0.25953422  0.39090441  0.94598374  1
  S2-  S204  1  0.26166472  0.61426344  0.45669205  1
  S2-  S205  1  0.25629877  0.64564680  0.95223659  1
  S2-  S206  1  0.25912097  0.86418751  0.45205456  1
  S2-  S207  1  0.25517237  0.89694649  0.96160821  1
  S2-  S208  1  0.51121012  0.10975151  0.46855742  1
  S2-  S209  1  0.51313984  0.14410056  0.95458386  1
  S2-  S210  1  0.50343700  0.35773673  0.44059749  1
  S2-  S211  1  0.50812862  0.39428238  0.94197379  1
  S2-  S212  1  0.50763949  0.61440348  0.44400491  1
  S2-  S213  1  0.50783087  0.64790595  0.94651707  1
  S2-  S214  1  0.51529029  0.85964975  0.45457565  1
  S2-  S215  1  0.50983231  0.89883630  0.96003074  1
  S2-  S216  1  0.76110390  0.11115035  0.45973130  1
  S2-  S217  1  0.75808360  0.14618963  0.95714873  1
  S2-  S218  1  0.75587779  0.35352321  0.45459018  1
  S2-  S219  1  0.76066702  0.39403659  0.95043464  1
  S2-  S220  1  0.75219813  0.60649289  0.45623424  1
  S2-  S221  1  0.75476422  0.64595278  0.96222176  1
  S2-  S222  1  0.75793969  0.85898489  0.45597459  1
  S2-  S223  1  0.75833181  0.90010100  0.96322564  1
  S2-  S224  1  0.13261522  0.02190855  0.05520270  1
  S2-  S225  1  0.12917426  -0.01987407  0.54326739  1
  S2-  S226  1  0.13563852  0.27096028  0.04651331  1
  S2-  S227  1  0.13176749  0.24173790  0.54600423  1
  S2-  S228  1  0.13393974  0.51958993  0.04801980  1
  S2-  S229  1  0.13637701  0.48612738  0.53900252  1
  S2-  S230  1  0.13878898  0.76305780  0.06202387  1
  S2-  S231  1  0.14057603  0.73019769  0.54123898  1
  S2-  S232  1  0.38535665  0.02358049  0.04551738  1
  S2-  S233  1  0.38399402  -0.01688275  0.54583505  1
  S2-  S234  1  0.38480189  0.26848110  0.04345419  1
  S2-  S235  1  0.38047887  0.23736941  0.54408589  1
  S2-  S236  1  0.38597492  0.51591627  0.03820885  1
  S2-  S237  1  0.38201052  0.48501054  0.53745725  1
  S2-  S238  1  0.38243449  0.76587284  0.03918804  1
  S2-  S239  1  0.38357872  0.73782667  0.53736688  1
  S2-  S240  1  0.63730144  0.01928223  0.05472156  1
  S2-  S241  1  0.63567893  -0.01911766  0.55614204  1
  S2-  S242  1  0.63849697  0.26961917  0.04838804  1
  S2-  S243  1  0.63497270  0.23969935  0.54397106  1
  S2-  S244  1  0.63509428  0.51847671  0.05084802  1
  S2-  S245  1  0.62765455  0.48435976  0.53315678  1
  S2-  S246  1  0.62771766  0.77151285  0.05086589  1
  S2-  S247  1  0.63263785  0.73185130  0.55277219  1
  S2-  S248  1  0.88252612  0.01940385  0.05277446  1
  S2-  S249  1  0.88251316  -0.01907083  0.54768973  1
  S2-  S250  1  0.88125085  0.26985104  0.04364109  1
  S2-  S251  1  0.88457248  0.24150091  0.54510864  1
  S2-  S252  1  0.88374579  0.51851363  0.04151970  1
  S2-  S253  1  0.87911110  0.48060596  0.53476910  1
  S2-  S254  1  0.88553295  0.77135954  0.04250982  1
  S2-  S255  1  0.87756057  0.73146778  0.54068971  1
