# generated using pymatgen
data_La9Ce10Pr6Nd4Sm3(BiS2)32
_symmetry_space_group_name_H-M   'P 1'
_cell_length_a   16.16524337
_cell_length_b   16.14195446
_cell_length_c   27.13740914
_cell_angle_alpha   89.97188551
_cell_angle_beta   90.01338133
_cell_angle_gamma   90.20007274
_symmetry_Int_Tables_number   1
_chemical_formula_structural   La9Ce10Pr6Nd4Sm3(BiS2)32
_chemical_formula_sum   'La18 Ce20 Pr12 Nd8 Sm6 Bi64 S128'
_cell_volume   7081.15393954
_cell_formula_units_Z   2
loop_
 _symmetry_equiv_pos_site_id
 _symmetry_equiv_pos_as_xyz
  1  'x, y, z'
loop_
 _atom_type_symbol
 _atom_type_oxidation_number
  La3+  3.0
  Ce3+  3.0
  Pr3+  3.0
  Nd3+  3.0
  Sm3+  3.0
  Bi2+  2.0
  S2-  -2.0
loop_
 _atom_site_type_symbol
 _atom_site_label
 _atom_site_symmetry_multiplicity
 _atom_site_fract_x
 _atom_site_fract_y
 _atom_site_fract_z
 _atom_site_occupancy
  La3+  La0  1  0.89202667  0.25435835  0.92821605  1
  La3+  La1  1  0.00703949  0.63118554  0.08141369  1
  La3+  La2  1  0.26489593  0.62995866  0.07802753  1
  La3+  La3  1  0.76376654  0.37189289  0.07420582  1
  La3+  La4  1  0.01361825  0.37077131  0.07563373  1
  La3+  La5  1  0.73753452  0.64568251  0.57324126  1
  La3+  La6  1  0.35822040  0.26996534  0.41274380  1
  La3+  La7  1  0.64170678  -0.00419441  0.94179998  1
  La3+  La8  1  0.51328005  0.36677062  0.10222751  1
  La3+  La9  1  0.27028880  0.12888796  0.06759538  1
  La3+  La10  1  0.50525409  0.37525297  0.61474769  1
  La3+  La11  1  0.73827441  0.90170397  0.58547491  1
  La3+  La12  1  0.36156126  0.51731576  0.42856368  1
  La3+  La13  1  0.64603018  0.49916380  0.93203305  1
  La3+  La14  1  -0.01386800  0.64698160  0.55436994  1
  La3+  La15  1  0.63770557  0.25452570  0.93214326  1
  La3+  La16  1  0.85875048  0.76975205  0.42440758  1
  La3+  La17  1  0.36765295  0.76694509  0.42164091  1
  Ce3+  Ce18  1  0.11224530  0.26878727  0.42699815  1
  Ce3+  Ce19  1  0.23559752  0.89001930  0.55668606  1
  Ce3+  Ce20  1  0.38827655  -0.00198567  0.94422538  1
  Ce3+  Ce21  1  0.51600321  0.12798305  0.05666952  1
  Ce3+  Ce22  1  0.64164584  0.74818264  0.94447323  1
  Ce3+  Ce23  1  0.61730733  0.76713395  0.44707367  1
  Ce3+  Ce24  1  0.73943438  0.39030274  0.56152050  1
  Ce3+  Ce25  1  -0.00608292  0.38974280  0.55523589  1
  Ce3+  Ce26  1  0.23952515  0.64271643  0.55318202  1
  Ce3+  Ce27  1  0.86319032  0.51636060  0.43925279  1
  Ce3+  Ce28  1  -0.01074437  0.13830956  0.54428879  1
  Ce3+  Ce29  1  0.11223705  0.51944978  0.43176482  1
  Ce3+  Ce30  1  0.86294708  0.26730973  0.44344632  1
  Ce3+  Ce31  1  0.13510797  0.74966403  0.94637019  1
  Ce3+  Ce32  1  0.48850781  0.89067492  0.56031777  1
  Ce3+  Ce33  1  0.51616960  0.61569085  0.05783342  1
  Ce3+  Ce34  1  0.01068413  0.12413806  0.05955158  1
  Ce3+  Ce35  1  0.76431694  0.61733952  0.06194396  1
  Ce3+  Ce36  1  0.76316815  0.12858622  0.06050677  1
  Ce3+  Ce37  1  0.48203306  0.63420938  0.56124959  1
  Pr3+  Pr38  1  0.38964092  0.75214241  0.94632766  1
  Pr3+  Pr39  1  0.11304079  0.01437909  0.42475687  1
  Pr3+  Pr40  1  0.26532825  0.87501711  0.07194646  1
  Pr3+  Pr41  1  0.23785366  0.39654881  0.56271947  1
  Pr3+  Pr42  1  0.51984690  0.87224758  0.07690572  1
  Pr3+  Pr43  1  0.89461494  0.75526781  0.92575408  1
  Pr3+  Pr44  1  0.26779581  0.37797086  0.06935717  1
  Pr3+  Pr45  1  0.14055142  0.50011241  0.94292555  1
  Pr3+  Pr46  1  0.48442160  0.15013890  0.54622901  1
  Pr3+  Pr47  1  0.11099993  0.76925741  0.42367034  1
  Pr3+  Pr48  1  0.61286716  0.27134592  0.43099611  1
  Pr3+  Pr49  1  0.38991863  0.24209854  0.92062540  1
  Nd3+  Nd50  1  -0.00917900  0.89774029  0.56302819  1
  Nd3+  Nd51  1  0.76434555  0.87028352  0.06804512  1
  Nd3+  Nd52  1  0.85544031  0.01369185  0.42746228  1
  Nd3+  Nd53  1  0.61346237  0.01315496  0.43148365  1
  Nd3+  Nd54  1  0.13895610  -0.00042860  0.94787000  1
  Nd3+  Nd55  1  0.23795866  0.14626525  0.55390741  1
  Nd3+  Nd56  1  0.61341771  0.51539493  0.44529076  1
  Nd3+  Nd57  1  0.00700172  0.87419990  0.07402142  1
  Sm3+  Sm58  1  0.14119962  0.25262444  0.94833656  1
  Sm3+  Sm59  1  0.36205534  0.01748267  0.44494174  1
  Sm3+  Sm60  1  0.89119793  -0.00196216  0.94348994  1
  Sm3+  Sm61  1  0.38429119  0.49990366  0.94119856  1
  Sm3+  Sm62  1  0.89551226  0.50436568  0.94019574  1
  Sm3+  Sm63  1  0.73547185  0.14217848  0.55583903  1
  Bi2+  Bi64  1  0.04343947  0.11563102  0.29433219  1
  Bi2+  Bi65  1  -0.04997848  0.13534618  0.78634510  1
  Bi2+  Bi66  1  0.02706365  0.31790709  0.28792887  1
  Bi2+  Bi67  1  -0.03250672  0.33913712  0.80614133  1
  Bi2+  Bi68  1  0.04004819  0.59704722  0.28951632  1
  Bi2+  Bi69  1  0.03268658  0.60932640  0.78990652  1
  Bi2+  Bi70  1  -0.00107519  0.91002755  0.27512975  1
  Bi2+  Bi71  1  0.00724386  0.87093743  0.79513798  1
  Bi2+  Bi72  1  0.20610839  0.00109781  0.28256196  1
  Bi2+  Bi73  1  0.24164476  0.06131267  0.78695084  1
  Bi2+  Bi74  1  0.24745097  0.36709407  0.28297314  1
  Bi2+  Bi75  1  0.19257101  0.39334416  0.80672692  1
  Bi2+  Bi76  1  0.26679485  0.61740011  0.27218865  1
  Bi2+  Bi77  1  0.21609825  0.67459318  0.75874669  1
  Bi2+  Bi78  1  0.35240417  0.85799967  0.29405737  1
  Bi2+  Bi79  1  0.23356612  0.86680592  0.80422000  1
  Bi2+  Bi80  1  0.49809471  0.01769528  0.29612148  1
  Bi2+  Bi81  1  0.46190917  0.04996099  0.77395469  1
  Bi2+  Bi82  1  0.51516628  0.35836749  0.30037208  1
  Bi2+  Bi83  1  0.45679366  0.38292465  0.81480459  1
  Bi2+  Bi84  1  0.51569901  0.65743710  0.28247667  1
  Bi2+  Bi85  1  0.47294201  0.63050948  0.78150180  1
  Bi2+  Bi86  1  0.53650454  0.83620388  0.33228794  1
  Bi2+  Bi87  1  0.42623519  0.87911303  0.82650500  1
  Bi2+  Bi88  1  0.83864632  0.11436362  0.29250876  1
  Bi2+  Bi89  1  0.75066492  0.13073746  0.78334596  1
  Bi2+  Bi90  1  0.75074094  0.37759991  0.30794334  1
  Bi2+  Bi91  1  0.75236469  0.38249492  0.78475577  1
  Bi2+  Bi92  1  0.78363512  0.62822739  0.30174972  1
  Bi2+  Bi93  1  0.70138805  0.62247326  0.80439251  1
  Bi2+  Bi94  1  0.73612136  0.88484220  0.29573703  1
  Bi2+  Bi95  1  0.74158661  0.86342281  0.80393041  1
  Bi2+  Bi96  1  0.01483932  0.02572642  0.18248787  1
  Bi2+  Bi97  1  0.11619102  0.05392537  0.70092948  1
  Bi2+  Bi98  1  0.15113896  0.21571690  0.20942350  1
  Bi2+  Bi99  1  0.05718190  0.24873795  0.71201486  1
  Bi2+  Bi100  1  0.11631708  0.40890183  0.19900965  1
  Bi2+  Bi101  1  0.08396259  0.51082954  0.69703350  1
  Bi2+  Bi102  1  0.15859123  0.89195159  0.19150990  1
  Bi2+  Bi103  1  0.09505978  0.79647142  0.70646406  1
  Bi2+  Bi104  1  0.42720383  -0.05363014  0.19305739  1
  Bi2+  Bi105  1  0.34812368  -0.07697804  0.70924258  1
  Bi2+  Bi106  1  0.39185859  0.21093418  0.22018391  1
  Bi2+  Bi107  1  0.35968034  0.23711861  0.70549912  1
  Bi2+  Bi108  1  0.38452056  0.48771049  0.21738240  1
  Bi2+  Bi109  1  0.34169067  0.54608108  0.71137041  1
  Bi2+  Bi110  1  0.42939668  0.75645582  0.19681434  1
  Bi2+  Bi111  1  0.33561065  0.73874649  0.66382134  1
  Bi2+  Bi112  1  0.62153985  -0.00812176  0.20761193  1
  Bi2+  Bi113  1  0.62771037  0.02273658  0.71738206  1
  Bi2+  Bi114  1  0.64285666  0.20685157  0.22077113  1
  Bi2+  Bi115  1  0.61914133  0.23862338  0.71641166  1
  Bi2+  Bi116  1  0.62724534  0.52969791  0.21955619  1
  Bi2+  Bi117  1  0.61974828  0.62876040  0.69891452  1
  Bi2+  Bi118  1  0.67758554  0.73290766  0.22361088  1
  Bi2+  Bi119  1  0.50630890  0.79229983  0.71539637  1
  Bi2+  Bi120  1  0.81259072  0.03194130  0.19079564  1
  Bi2+  Bi121  1  0.87796376  0.00738710  0.70715432  1
  Bi2+  Bi122  1  0.88757762  0.25635484  0.21299095  1
  Bi2+  Bi123  1  0.86091181  0.27765407  0.70751527  1
  Bi2+  Bi124  1  0.86588992  0.51910002  0.20647439  1
  Bi2+  Bi125  1  0.89330569  0.47805387  0.72608916  1
  Bi2+  Bi126  1  0.91525588  0.76272543  0.21457894  1
  Bi2+  Bi127  1  0.86037487  0.72412898  0.69927761  1
  S2-  S128  1  0.00954439  0.21662785  0.14228468  1
  S2-  S129  1  -0.01334415  0.10134217  0.64026099  1
  S2-  S130  1  -0.10832440  0.38828176  0.15009562  1
  S2-  S131  1  0.09098059  0.37131524  0.63779505  1
  S2-  S132  1  0.03518875  0.55027641  0.17905248  1
  S2-  S133  1  0.00423622  0.66479003  0.65469477  1
  S2-  S134  1  0.04522291  0.76363340  0.15316839  1
  S2-  S135  1  -0.10778406  0.87872561  0.64822667  1
  S2-  S136  1  0.27353060  0.11731538  0.16884126  1
  S2-  S137  1  0.25034898  0.14784668  0.65534336  1
  S2-  S138  1  0.36195228  0.34860010  0.15531218  1
  S2-  S139  1  0.33581134  0.35564780  0.64510083  1
  S2-  S140  1  0.25863535  0.54759707  0.17007207  1
  S2-  S141  1  0.22390895  0.54732887  0.63588815  1
  S2-  S142  1  0.27007134  0.76463328  0.15231907  1
  S2-  S143  1  0.12699757  0.90996899  0.63425539  1
  S2-  S144  1  0.51394110  0.19065249  0.14898154  1
  S2-  S145  1  0.49463402  0.19271483  0.64468794  1
  S2-  S146  1  0.59477489  0.35792567  0.19979977  1
  S2-  S147  1  0.50025193  0.35865940  0.72351560  1
  S2-  S148  1  0.50465826  0.53559630  0.14555772  1
  S2-  S149  1  0.48440794  0.54519874  0.64849178  1
  S2-  S150  1  0.65078294  0.84807649  0.14697622  1
  S2-  S151  1  0.57171439  0.91623546  0.64479714  1
  S2-  S152  1  0.75120847  0.22539108  0.14472518  1
  S2-  S153  1  0.74609029  0.05509302  0.64159456  1
  S2-  S154  1  0.72953963  0.50661685  0.14236325  1
  S2-  S155  1  0.67255178  0.35626567  0.65011984  1
  S2-  S156  1  0.85915786  0.65654318  0.14431246  1
  S2-  S157  1  0.78613770  0.57423224  0.66565227  1
  S2-  S158  1  0.87365414  0.88436407  0.14670316  1
  S2-  S159  1  0.72750967  0.76670200  0.65402938  1
  S2-  S160  1  0.11388851  -0.10254521  0.35025742  1
  S2-  S161  1  0.11896292  -0.01400939  0.84807669  1
  S2-  S162  1  0.21406647  0.24950956  0.34836371  1
  S2-  S163  1  0.10243514  0.26300538  0.85211946  1
  S2-  S164  1  0.15425056  0.49440600  0.33663555  1
  S2-  S165  1  0.02050605  0.50128761  0.86398038  1
  S2-  S166  1  0.15172982  0.69960851  0.32583894  1
  S2-  S167  1  0.04104061  0.74492366  0.86236848  1
  S2-  S168  1  0.34084610  0.01676667  0.34705354  1
  S2-  S169  1  0.36920504  0.08766236  0.85962935  1
  S2-  S170  1  0.42720639  0.22079123  0.31505604  1
  S2-  S171  1  0.31131529  0.29168766  0.82753759  1
  S2-  S172  1  0.37842550  0.41440949  0.34461102  1
  S2-  S173  1  0.26536121  0.49813738  0.86438131  1
  S2-  S174  1  0.36783995  0.63621416  0.34693712  1
  S2-  S175  1  0.36956369  0.71881946  0.84743852  1
  S2-  S176  1  0.72302537  0.02867021  0.35286794  1
  S2-  S177  1  0.66742612  0.00231619  0.84156413  1
  S2-  S178  1  0.64179885  0.24835763  0.33004560  1
  S2-  S179  1  0.52868578  0.25174149  0.84842331  1
  S2-  S180  1  0.62616717  0.47870161  0.34552699  1
  S2-  S181  1  0.56226664  0.51767337  0.84075105  1
  S2-  S182  1  0.71124233  0.74877674  0.36416800  1
  S2-  S183  1  0.62444692  0.77701619  0.84699823  1
  S2-  S184  1  0.87789182  -0.10126477  0.35062528  1
  S2-  S185  1  0.88278543  -0.08739368  0.85716759  1
  S2-  S186  1  0.85910876  0.26950444  0.34511788  1
  S2-  S187  1  0.76111362  0.25732759  0.85635375  1
  S2-  S188  1  0.87304496  0.49192054  0.34029902  1
  S2-  S189  1  0.78374335  0.49903058  0.85870112  1
  S2-  S190  1  0.93244124  0.70036552  0.33119553  1
  S2-  S191  1  0.82912565  0.71513788  0.82655857  1
  S2-  S192  1  -0.01393431  0.14011221  0.43774678  1
  S2-  S193  1  0.01460685  0.12449297  0.95184565  1
  S2-  S194  1  -0.01144305  0.39182881  0.44799027  1
  S2-  S195  1  0.01633115  0.37255497  0.96342229  1
  S2-  S196  1  -0.01246277  0.64293765  0.44679025  1
  S2-  S197  1  0.01490274  0.62561802  0.96624072  1
  S2-  S198  1  -0.01234792  0.89279182  0.45500411  1
  S2-  S199  1  0.01522571  0.87937000  0.96451356  1
  S2-  S200  1  0.23681820  0.13656107  0.44746208  1
  S2-  S201  1  0.26055642  0.12657703  0.95952320  1
  S2-  S202  1  0.23185183  0.39382651  0.44972497  1
  S2-  S203  1  0.26442232  0.36986790  0.96178862  1
  S2-  S204  1  0.23512971  0.64687508  0.44744316  1
  S2-  S205  1  0.26308814  0.62943830  0.96541356  1
  S2-  S206  1  0.24362227  0.89021180  0.44947348  1
  S2-  S207  1  0.26248765  0.87598591  0.96093880  1
  S2-  S208  1  0.48780118  0.14070560  0.43985541  1
  S2-  S209  1  0.51581754  0.12040955  0.95221931  1
  S2-  S210  1  0.49010478  0.39133539  0.44387580  1
  S2-  S211  1  0.50545917  0.37962086  0.94318167  1
  S2-  S212  1  0.49237159  0.64265491  0.45289172  1
  S2-  S213  1  0.51111184  0.62376791  0.95218168  1
  S2-  S214  1  0.48607272  0.89490135  0.45317686  1
  S2-  S215  1  0.51637019  0.87423331  0.96470211  1
  S2-  S216  1  0.73675611  0.14555653  0.45227759  1
  S2-  S217  1  0.76838106  0.12110539  0.95290804  1
  S2-  S218  1  0.74023141  0.39152730  0.45443112  1
  S2-  S219  1  0.77043215  0.37642240  0.96104872  1
  S2-  S220  1  0.74121164  0.63568013  0.46287330  1
  S2-  S221  1  0.76950301  0.62911466  0.95569379  1
  S2-  S222  1  0.73341830  0.89441257  0.46013429  1
  S2-  S223  1  0.76596479  0.87357737  0.95938669  1
  S2-  S224  1  0.13961403  0.00163785  0.05520365  1
  S2-  S225  1  0.11676003  0.01953261  0.53179782  1
  S2-  S226  1  0.14410216  0.24980473  0.05215686  1
  S2-  S227  1  0.11196707  0.26325741  0.53415809  1
  S2-  S228  1  0.14000025  0.50064476  0.05485487  1
  S2-  S229  1  0.10892000  0.51884529  0.53606492  1
  S2-  S230  1  0.13986423  0.75367163  0.04895991  1
  S2-  S231  1  0.11454173  0.76770614  0.53707374  1
  S2-  S232  1  0.39299280  -0.00217763  0.05309295  1
  S2-  S233  1  0.36258000  0.01792152  0.55056871  1
  S2-  S234  1  0.39483960  0.25289992  0.04379522  1
  S2-  S235  1  0.35724262  0.26607185  0.53074892  1
  S2-  S236  1  0.38718574  0.49921851  0.04535916  1
  S2-  S237  1  0.35912661  0.51946841  0.53699320  1
  S2-  S238  1  0.39690806  0.74998253  0.05284987  1
  S2-  S239  1  0.36407341  0.76714330  0.53567175  1
  S2-  S240  1  0.64036712  0.00255318  0.05170106  1
  S2-  S241  1  0.60958336  0.02340677  0.53817026  1
  S2-  S242  1  0.63389914  0.25355418  0.04166168  1
  S2-  S243  1  0.61454483  0.26822503  0.53966093  1
  S2-  S244  1  0.63157452  0.49016644  0.04053804  1
  S2-  S245  1  0.61360900  0.51050843  0.55162014  1
  S2-  S246  1  0.63919208  0.74098649  0.04867960  1
  S2-  S247  1  0.60576597  0.76321622  0.55037006  1
  S2-  S248  1  0.88530200  0.00295430  0.04584656  1
  S2-  S249  1  0.86059553  0.02072765  0.53578343  1
  S2-  S250  1  0.88902684  0.24644885  0.03883822  1
  S2-  S251  1  0.86417744  0.26390982  0.55092256  1
  S2-  S252  1  0.89341582  0.49986637  0.04546169  1
  S2-  S253  1  0.86686094  0.51257663  0.54809902  1
  S2-  S254  1  0.88728613  0.75322578  0.03915595  1
  S2-  S255  1  0.86252371  0.77107711  0.54188657  1
