# generated using pymatgen
data_La9Ce10Pr6Nd4Sm3(BiS2)32
_symmetry_space_group_name_H-M   'P 1'
_cell_length_a   16.13459314
_cell_length_b   16.17249235
_cell_length_c   27.13150043
_cell_angle_alpha   89.79082933
_cell_angle_beta   90.18930543
_cell_angle_gamma   89.93447459
_symmetry_Int_Tables_number   1
_chemical_formula_structural   La9Ce10Pr6Nd4Sm3(BiS2)32
_chemical_formula_sum   'La18 Ce20 Pr12 Nd8 Sm6 Bi64 S128'
_cell_volume   7079.51049881
_cell_formula_units_Z   2
loop_
 _symmetry_equiv_pos_site_id
 _symmetry_equiv_pos_as_xyz
  1  'x, y, z'
loop_
 _atom_type_symbol
 _atom_type_oxidation_number
  La3+  3.0
  Ce3+  3.0
  Pr3+  3.0
  Nd3+  3.0
  Sm3+  3.0
  Bi2+  2.0
  S2-  -2.0
loop_
 _atom_site_type_symbol
 _atom_site_label
 _atom_site_symmetry_multiplicity
 _atom_site_fract_x
 _atom_site_fract_y
 _atom_site_fract_z
 _atom_site_occupancy
  La3+  La0  1  0.86881493  0.26189538  0.39458025  1
  La3+  La1  1  0.24677136  0.62514635  0.05996739  1
  La3+  La2  1  0.51540508  0.37386389  0.59747431  1
  La3+  La3  1  0.87751845  0.00126116  0.42554201  1
  La3+  La4  1  0.12687768  -0.00267043  0.90449795  1
  La3+  La5  1  0.00275735  0.37967962  0.10138881  1
  La3+  La6  1  0.37355523  0.75800428  0.93928982  1
  La3+  La7  1  0.25183288  0.37231044  0.58223363  1
  La3+  La8  1  0.87228064  0.75751367  0.92262021  1
  La3+  La9  1  0.37114056  -0.00349914  0.42031547  1
  La3+  La10  1  0.86477264  0.00524511  0.93323351  1
  La3+  La11  1  0.13085465  0.74998168  0.44861571  1
  La3+  La12  1  0.25898727  0.11318904  0.57668431  1
  La3+  La13  1  0.00324885  0.87328655  0.60359053  1
  La3+  La14  1  0.11644373  0.75131582  0.93215182  1
  La3+  La15  1  0.36880541  0.25401242  0.92092825  1
  La3+  La16  1  0.37119138  0.50468231  0.92018579  1
  La3+  La17  1  0.74733201  0.13292000  0.07832077  1
  Ce3+  Ce18  1  0.50570416  0.12720677  0.56486153  1
  Ce3+  Ce19  1  0.62765753  0.24923710  0.44500565  1
  Ce3+  Ce20  1  0.62517712  0.00179792  0.44004029  1
  Ce3+  Ce21  1  0.00747561  0.36796609  0.56149340  1
  Ce3+  Ce22  1  0.00389822  0.62836179  0.56152410  1
  Ce3+  Ce23  1  0.26813674  0.87148954  0.56895973  1
  Ce3+  Ce24  1  0.12094492  0.25390472  0.93993565  1
  Ce3+  Ce25  1  0.37473562  0.24882558  0.44566313  1
  Ce3+  Ce26  1  0.26028157  0.62020670  0.56776179  1
  Ce3+  Ce27  1  -0.00315266  0.87698553  0.05940643  1
  Ce3+  Ce28  1  -0.00478813  0.63377972  0.06305727  1
  Ce3+  Ce29  1  0.49283210  0.37873563  0.05916684  1
  Ce3+  Ce30  1  0.12103080  0.50028273  0.93877269  1
  Ce3+  Ce31  1  0.00458532  0.11590282  0.55364412  1
  Ce3+  Ce32  1  0.63242722  0.48984140  0.43664816  1
  Ce3+  Ce33  1  0.49957928  0.62765054  0.06658577  1
  Ce3+  Ce34  1  0.87066501  0.25430477  0.94898393  1
  Ce3+  Ce35  1  0.24751173  0.88170772  0.06047087  1
  Ce3+  Ce36  1  0.75936855  0.12107836  0.55193197  1
  Ce3+  Ce37  1  -0.00135109  0.12851623  0.05827033  1
  Pr3+  Pr38  1  0.62485818  0.00392443  0.95002519  1
  Pr3+  Pr39  1  0.13066579  0.24866854  0.43547544  1
  Pr3+  Pr40  1  0.37863880  0.74121078  0.43227012  1
  Pr3+  Pr41  1  0.49306984  0.87408471  0.09690164  1
  Pr3+  Pr42  1  0.63205566  0.74685836  0.42953771  1
  Pr3+  Pr43  1  0.75492017  0.87321257  0.56155147  1
  Pr3+  Pr44  1  0.24909678  0.12703627  0.05568913  1
  Pr3+  Pr45  1  0.75151302  0.86899850  0.07249243  1
  Pr3+  Pr46  1  0.61970747  0.50607018  0.93552633  1
  Pr3+  Pr47  1  0.88184142  0.49572935  0.44071443  1
  Pr3+  Pr48  1  0.87934469  0.75408868  0.43404165  1
  Pr3+  Pr49  1  0.37709761  0.49733018  0.43788690  1
  Nd3+  Nd50  1  0.62919885  0.25577805  0.93569563  1
  Nd3+  Nd51  1  0.76017155  0.37169891  0.56507319  1
  Nd3+  Nd52  1  0.50852397  0.61810382  0.55847983  1
  Nd3+  Nd53  1  0.37594490  0.00970365  0.93163747  1
  Nd3+  Nd54  1  0.25259066  0.37528647  0.06228800  1
  Nd3+  Nd55  1  0.13014754  -0.00089232  0.44359855  1
  Nd3+  Nd56  1  0.86808899  0.50228096  0.93905932  1
  Nd3+  Nd57  1  0.62554623  0.75533854  0.94031082  1
  Sm3+  Sm58  1  0.50513260  0.87171556  0.55464889  1
  Sm3+  Sm59  1  0.49692719  0.12708964  0.05796054  1
  Sm3+  Sm60  1  0.74628899  0.37795157  0.06831551  1
  Sm3+  Sm61  1  0.74807042  0.62645787  0.06079603  1
  Sm3+  Sm62  1  0.12815360  0.49497838  0.44723557  1
  Sm3+  Sm63  1  0.75558628  0.62350116  0.55127349  1
  Bi2+  Bi64  1  0.03923572  0.13365293  0.28493844  1
  Bi2+  Bi65  1  -0.04816686  0.25442860  0.78362893  1
  Bi2+  Bi66  1  -0.00474824  0.40445702  0.28358143  1
  Bi2+  Bi67  1  -0.00461893  0.44255391  0.81666229  1
  Bi2+  Bi68  1  -0.00792066  0.61433018  0.24441463  1
  Bi2+  Bi69  1  -0.09684094  0.60742042  0.78850240  1
  Bi2+  Bi70  1  0.01911390  0.93077463  0.27619220  1
  Bi2+  Bi71  1  -0.00608686  0.83480633  0.78778449  1
  Bi2+  Bi72  1  0.23462733  0.11763293  0.29201948  1
  Bi2+  Bi73  1  0.25163738  0.11664866  0.79871376  1
  Bi2+  Bi74  1  0.23670134  0.38749454  0.31412014  1
  Bi2+  Bi75  1  0.24473313  0.38613643  0.78781982  1
  Bi2+  Bi76  1  0.23246040  0.60484947  0.30759183  1
  Bi2+  Bi77  1  0.31629420  0.62163623  0.79269864  1
  Bi2+  Bi78  1  0.25549640  0.85525679  0.28534352  1
  Bi2+  Bi79  1  0.26026359  0.84766015  0.77879202  1
  Bi2+  Bi80  1  0.48818570  0.20767489  0.28887480  1
  Bi2+  Bi81  1  0.50922345  0.03570536  0.79389933  1
  Bi2+  Bi82  1  0.43530326  0.38557353  0.32779445  1
  Bi2+  Bi83  1  0.52204705  0.41463378  0.79064029  1
  Bi2+  Bi84  1  0.49643757  0.55918552  0.27967684  1
  Bi2+  Bi85  1  0.52731916  0.68305258  0.71042536  1
  Bi2+  Bi86  1  0.51710669  0.90734201  0.30356167  1
  Bi2+  Bi87  1  0.52495271  0.83892419  0.78803370  1
  Bi2+  Bi88  1  0.68686178  0.15333138  0.29168371  1
  Bi2+  Bi89  1  0.81009965  0.12167919  0.80301006  1
  Bi2+  Bi90  1  0.71786623  0.40872504  0.28248373  1
  Bi2+  Bi91  1  0.77672982  0.38691980  0.79400735  1
  Bi2+  Bi92  1  0.80210018  0.60717623  0.26772990  1
  Bi2+  Bi93  1  0.64415037  0.63226476  0.80396516  1
  Bi2+  Bi94  1  0.74238807  0.84985285  0.29683407  1
  Bi2+  Bi95  1  0.71873273  0.89139882  0.78777087  1
  Bi2+  Bi96  1  0.16283820  -0.04855889  0.19283422  1
  Bi2+  Bi97  1  0.11415461  0.02869701  0.70990853  1
  Bi2+  Bi98  1  0.13460863  0.26661867  0.22073340  1
  Bi2+  Bi99  1  0.12308595  0.27200397  0.73069531  1
  Bi2+  Bi100  1  0.15724746  0.54060507  0.20222068  1
  Bi2+  Bi101  1  0.10778138  0.49927105  0.71483092  1
  Bi2+  Bi102  1  0.11279618  0.76376727  0.21815887  1
  Bi2+  Bi103  1  0.15851753  0.68182428  0.73360716  1
  Bi2+  Bi104  1  0.39291568  0.02123776  0.20290949  1
  Bi2+  Bi105  1  0.37368937  -0.03002923  0.71159372  1
  Bi2+  Bi106  1  0.33363150  0.24257206  0.21398097  1
  Bi2+  Bi107  1  0.40380939  0.21752922  0.71191479  1
  Bi2+  Bi108  1  0.35620542  0.44998020  0.22506301  1
  Bi2+  Bi109  1  0.38704251  0.49474026  0.71557911  1
  Bi2+  Bi110  1  0.36477770  0.74313085  0.21537683  1
  Bi2+  Bi111  1  0.32690113  0.72139600  0.68348685  1
  Bi2+  Bi112  1  0.64915804  0.04077928  0.20336357  1
  Bi2+  Bi113  1  0.62264936  0.03759663  0.70025059  1
  Bi2+  Bi114  1  0.60590897  0.30367694  0.21149638  1
  Bi2+  Bi115  1  0.62834701  0.21113308  0.75463763  1
  Bi2+  Bi116  1  0.54697364  0.48674417  0.17453572  1
  Bi2+  Bi117  1  0.67188271  0.51891218  0.71491886  1
  Bi2+  Bi118  1  0.64766123  0.66590331  0.20209456  1
  Bi2+  Bi119  1  0.62954259  0.84532128  0.68426633  1
  Bi2+  Bi120  1  0.97724049  0.00369569  0.17244144  1
  Bi2+  Bi121  1  0.84978650  0.00846485  0.71658072  1
  Bi2+  Bi122  1  0.87233752  0.22269163  0.21378322  1
  Bi2+  Bi123  1  0.81717040  0.28694642  0.69650460  1
  Bi2+  Bi124  1  0.74476717  0.50281600  0.17523871  1
  Bi2+  Bi125  1  0.90968145  0.46315165  0.70643261  1
  Bi2+  Bi126  1  0.87798560  0.83815309  0.19306250  1
  Bi2+  Bi127  1  0.84701178  0.72682147  0.70618345  1
  S2-  S128  1  0.00956813  0.20656457  0.14782275  1
  S2-  S129  1  -0.01146421  0.05259027  0.64615588  1
  S2-  S130  1  -0.07998199  0.37561040  0.19733009  1
  S2-  S131  1  0.09907685  0.36337366  0.64542119  1
  S2-  S132  1  0.00556944  0.54446047  0.14823967  1
  S2-  S133  1  -0.01665364  0.70258550  0.64764954  1
  S2-  S134  1  0.00131018  0.76243657  0.13596158  1
  S2-  S135  1  0.08130044  0.87325009  0.69766468  1
  S2-  S136  1  0.25987846  0.11487883  0.15715110  1
  S2-  S137  1  0.21879397  0.18225749  0.67356603  1
  S2-  S138  1  0.15923480  0.38570473  0.14940549  1
  S2-  S139  1  0.37106529  0.34970995  0.65890163  1
  S2-  S140  1  0.29230905  0.63447406  0.15875983  1
  S2-  S141  1  0.25514508  0.52099415  0.64856084  1
  S2-  S142  1  0.33401089  0.88147548  0.14741996  1
  S2-  S143  1  0.23689447  0.97518857  0.64617462  1
  S2-  S144  1  0.50811197  0.12005612  0.15740110  1
  S2-  S145  1  0.40531687  0.09301447  0.64284252  1
  S2-  S146  1  0.38003934  0.35508555  0.13468578  1
  S2-  S147  1  0.53981433  0.22755833  0.65873034  1
  S2-  S148  1  0.50087256  0.72183234  0.15142048  1
  S2-  S149  1  0.51690594  0.53220758  0.64713643  1
  S2-  S150  1  0.52075236  0.92103936  0.19772393  1
  S2-  S151  1  0.40960532  0.85667248  0.63748686  1
  S2-  S152  1  0.81249575  0.07870501  0.16973060  1
  S2-  S153  1  0.75818770  0.10854686  0.65074895  1
  S2-  S154  1  0.73822663  0.26932928  0.14963282  1
  S2-  S155  1  0.67875621  0.38372573  0.65330582  1
  S2-  S156  1  0.77957826  0.72186934  0.14126560  1
  S2-  S157  1  0.74592711  0.63656611  0.64943075  1
  S2-  S158  1  0.71576267  0.90100577  0.17364718  1
  S2-  S159  1  0.84477072  0.87921865  0.64956227  1
  S2-  S160  1  0.21629970  -0.00566105  0.35612363  1
  S2-  S161  1  0.09106589  0.07203760  0.81266725  1
  S2-  S162  1  0.02883912  0.26943411  0.34912850  1
  S2-  S163  1  0.20604962  0.25627886  0.85386817  1
  S2-  S164  1  0.10176765  0.49958049  0.34853538  1
  S2-  S165  1  0.21636542  0.51573449  0.85580418  1
  S2-  S166  1  0.16631735  0.74246104  0.34931840  1
  S2-  S167  1  0.13315654  0.84898893  0.84625440  1
  S2-  S168  1  0.43151380  0.05934246  0.32568664  1
  S2-  S169  1  0.28308626  -0.02619068  0.84717316  1
  S2-  S170  1  0.26381668  0.24054901  0.36535617  1
  S2-  S171  1  0.40156981  0.12734368  0.85096782  1
  S2-  S172  1  0.37414098  0.61593954  0.35723156  1
  S2-  S173  1  0.38263032  0.37656133  0.84592233  1
  S2-  S174  1  0.38312590  0.85296470  0.35392428  1
  S2-  S175  1  0.38187682  0.76015526  0.83723323  1
  S2-  S176  1  0.65695884  -0.00686217  0.34178063  1
  S2-  S177  1  0.71826118  0.01557208  0.86352979  1
  S2-  S178  1  0.69055710  0.28804677  0.35585465  1
  S2-  S179  1  0.56684430  0.26980047  0.83863006  1
  S2-  S180  1  0.63352268  0.52696585  0.33976003  1
  S2-  S181  1  0.51047067  0.54345945  0.85429418  1
  S2-  S182  1  0.59428914  0.76844963  0.33055553  1
  S2-  S183  1  0.72650078  0.75450745  0.85533803  1
  S2-  S184  1  0.87277480  -0.07601417  0.33441149  1
  S2-  S185  1  0.90150683  -0.10190815  0.85360806  1
  S2-  S186  1  0.85330952  0.15261429  0.31369998  1
  S2-  S187  1  0.77260236  0.25646014  0.86857244  1
  S2-  S188  1  0.86649291  0.42369166  0.34814478  1
  S2-  S189  1  0.74839531  0.50523840  0.86223804  1
  S2-  S190  1  0.81852060  0.72263210  0.34081125  1
  S2-  S191  1  0.99831525  0.69955362  0.85270083  1
  S2-  S192  1  0.00350055  0.12291045  0.44588136  1
  S2-  S193  1  -0.00282415  0.12609434  0.94726901  1
  S2-  S194  1  0.00322728  0.37189989  0.45706786  1
  S2-  S195  1  -0.00605323  0.37805352  0.94488681  1
  S2-  S196  1  0.00311696  0.62343139  0.45232696  1
  S2-  S197  1  -0.00547430  0.61974428  0.95846955  1
  S2-  S198  1  0.00617764  0.87468096  0.43839599  1
  S2-  S199  1  0.00316868  0.88521437  0.95522502  1
  S2-  S200  1  0.25400513  0.12059903  0.46485876  1
  S2-  S201  1  0.24014841  0.12159335  0.94992141  1
  S2-  S202  1  0.25168026  0.37676643  0.46527489  1
  S2-  S203  1  0.24526418  0.37883642  0.95603727  1
  S2-  S204  1  0.24989574  0.61814914  0.46112929  1
  S2-  S205  1  0.24736474  0.63217907  0.95206305  1
  S2-  S206  1  0.25583828  0.87171346  0.46039961  1
  S2-  S207  1  0.24768182  0.88158390  0.95579704  1
  S2-  S208  1  0.50237961  0.12570144  0.45271390  1
  S2-  S209  1  0.50470675  0.13054311  0.95404626  1
  S2-  S210  1  0.50384550  0.37261231  0.45103936  1
  S2-  S211  1  0.49973568  0.37750561  0.95400809  1
  S2-  S212  1  0.51211438  0.61884722  0.45210165  1
  S2-  S213  1  0.49836403  0.63451614  0.95957012  1
  S2-  S214  1  0.50818456  0.87120887  0.45114956  1
  S2-  S215  1  0.50108657  0.88148362  0.94061649  1
  S2-  S216  1  0.75598657  0.12760826  0.44572607  1
  S2-  S217  1  0.74695447  0.13243332  0.97006412  1
  S2-  S218  1  0.76036424  0.37033628  0.45935197  1
  S2-  S219  1  0.74518541  0.38080398  0.96575350  1
  S2-  S220  1  0.75587897  0.62042810  0.44763122  1
  S2-  S221  1  0.74760851  0.63044200  0.95881800  1
  S2-  S222  1  0.75077077  0.87456913  0.45210864  1
  S2-  S223  1  0.74745011  0.87718445  0.96333843  1
  S2-  S224  1  0.12146964  0.00390945  0.05228774  1
  S2-  S225  1  0.12279633  -0.01379630  0.54725806  1
  S2-  S226  1  0.12390704  0.25392584  0.04445513  1
  S2-  S227  1  0.12836024  0.24081833  0.54563198  1
  S2-  S228  1  0.12079339  0.50007121  0.04342364  1
  S2-  S229  1  0.12438781  0.50206121  0.54994219  1
  S2-  S230  1  0.12872676  0.75390684  0.04173293  1
  S2-  S231  1  0.13400927  0.75028844  0.55764266  1
  S2-  S232  1  0.37907886  0.00211722  0.04295737  1
  S2-  S233  1  0.38642733  -0.00598700  0.53554293  1
  S2-  S234  1  0.37444057  0.24594266  0.03402228  1
  S2-  S235  1  0.38239841  0.25046082  0.54997990  1
  S2-  S236  1  0.37370481  0.50559085  0.04054507  1
  S2-  S237  1  0.38391439  0.49556573  0.54606428  1
  S2-  S238  1  0.37484862  0.75616657  0.04670274  1
  S2-  S239  1  0.38587370  0.74087062  0.53919994  1
  S2-  S240  1  0.61858943  -0.00190522  0.05742423  1
  S2-  S241  1  0.62776213  -0.00287858  0.54743703  1
  S2-  S242  1  0.61656553  0.25469788  0.04740926  1
  S2-  S243  1  0.63558758  0.24907526  0.54856074  1
  S2-  S244  1  0.62352701  0.50374891  0.04607596  1
  S2-  S245  1  0.63565754  0.49555158  0.54293768  1
  S2-  S246  1  0.61939636  0.75540885  0.04693996  1
  S2-  S247  1  0.62964218  0.74681594  0.54229984  1
  S2-  S248  1  0.87118611  0.00230625  0.04725463  1
  S2-  S249  1  0.88053734  -0.00639945  0.53661449  1
  S2-  S250  1  0.87718765  0.26191790  0.05238377  1
  S2-  S251  1  0.88318505  0.24469447  0.55650891  1
  S2-  S252  1  0.86952256  0.50028556  0.04870536  1
  S2-  S253  1  0.88121838  0.50034791  0.55046447  1
  S2-  S254  1  0.87370045  0.75286712  0.03388805  1
  S2-  S255  1  0.87785490  0.74926740  0.54043475  1
