# generated using pymatgen
data_La9Ce10Pr6Nd4Sm3(BiS2)32
_symmetry_space_group_name_H-M   'P 1'
_cell_length_a   16.22021250
_cell_length_b   16.21348047
_cell_length_c   27.09215786
_cell_angle_alpha   90.08780025
_cell_angle_beta   89.96453951
_cell_angle_gamma   90.00369787
_symmetry_Int_Tables_number   1
_chemical_formula_structural   La9Ce10Pr6Nd4Sm3(BiS2)32
_chemical_formula_sum   'La18 Ce20 Pr12 Nd8 Sm6 Bi64 S128'
_cell_volume   7124.85115429
_cell_formula_units_Z   2
loop_
 _symmetry_equiv_pos_site_id
 _symmetry_equiv_pos_as_xyz
  1  'x, y, z'
loop_
 _atom_type_symbol
 _atom_type_oxidation_number
  La3+  3.0
  Ce3+  3.0
  Pr3+  3.0
  Nd3+  3.0
  Sm3+  3.0
  Bi2+  2.0
  S2-  -2.0
loop_
 _atom_site_type_symbol
 _atom_site_label
 _atom_site_symmetry_multiplicity
 _atom_site_fract_x
 _atom_site_fract_y
 _atom_site_fract_z
 _atom_site_occupancy
  La3+  La0  1  0.23674639  0.63094709  0.57017898  1
  La3+  La1  1  0.50949476  0.61647403  0.07259311  1
  La3+  La2  1  0.23402578  0.13549128  0.57948826  1
  La3+  La3  1  0.86128816  0.26296135  0.41980681  1
  La3+  La4  1  0.11839590  -0.00077825  0.90049228  1
  La3+  La5  1  0.62578193  0.75147208  0.93364603  1
  La3+  La6  1  0.62736253  0.00752437  0.92589293  1
  La3+  La7  1  0.86318127  0.51340625  0.41747513  1
  La3+  La8  1  -0.01480339  0.14200937  0.57394509  1
  La3+  La9  1  0.37246077  -0.00558403  0.91998990  1
  La3+  La10  1  0.25352805  0.88033086  0.06093325  1
  La3+  La11  1  0.37711299  0.50177223  0.92644782  1
  La3+  La12  1  0.62953393  0.24732941  0.94140317  1
  La3+  La13  1  0.86666114  0.01158285  0.43088513  1
  La3+  La14  1  0.62549087  0.49929563  0.92980869  1
  La3+  La15  1  0.60506689  -0.00203844  0.42784192  1
  La3+  La16  1  0.12558115  0.49774854  0.39531910  1
  La3+  La17  1  0.12690216  0.74405845  0.93436357  1
  Ce3+  Ce18  1  0.74124243  0.13082983  0.55689307  1
  Ce3+  Ce19  1  0.00349988  0.87501504  0.05768954  1
  Ce3+  Ce20  1  0.50073074  0.11947815  0.06278504  1
  Ce3+  Ce21  1  0.37450802  0.74811833  0.93277674  1
  Ce3+  Ce22  1  0.75552818  0.62123366  0.05977252  1
  Ce3+  Ce23  1  0.26070256  0.63374985  0.06934029  1
  Ce3+  Ce24  1  0.61318820  0.50841137  0.42873631  1
  Ce3+  Ce25  1  0.00370512  0.37360695  0.05703467  1
  Ce3+  Ce26  1  0.50200784  0.87552577  0.05172602  1
  Ce3+  Ce27  1  0.25061583  0.11906589  0.05589129  1
  Ce3+  Ce28  1  0.25147195  0.38106698  0.05783967  1
  Ce3+  Ce29  1  0.88057480  0.00137338  0.94562062  1
  Ce3+  Ce30  1  0.87800229  0.74683741  0.94495692  1
  Ce3+  Ce31  1  0.74028263  0.63050398  0.55565025  1
  Ce3+  Ce32  1  -0.01061846  0.88456910  0.55277833  1
  Ce3+  Ce33  1  0.12584711  0.50137488  0.93511572  1
  Ce3+  Ce34  1  0.11841998  0.74975515  0.43955047  1
  Ce3+  Ce35  1  0.23981620  0.88106606  0.57002419  1
  Ce3+  Ce36  1  0.49815716  0.37386785  0.05714235  1
  Ce3+  Ce37  1  0.00422580  0.12135283  0.06634777  1
  Pr3+  Pr38  1  0.87987173  0.24661200  0.94719422  1
  Pr3+  Pr39  1  0.75393160  0.37471237  0.06595925  1
  Pr3+  Pr40  1  0.36682402  0.00456592  0.45534778  1
  Pr3+  Pr41  1  0.12018047  0.00468713  0.43933338  1
  Pr3+  Pr42  1  0.24135784  0.38637729  0.56290885  1
  Pr3+  Pr43  1  -0.00981517  0.63130832  0.56782405  1
  Pr3+  Pr44  1  0.75285154  0.87393470  0.05596284  1
  Pr3+  Pr45  1  0.87353651  0.50623004  0.92672641  1
  Pr3+  Pr46  1  0.11824860  0.24793077  0.43363149  1
  Pr3+  Pr47  1  0.74437751  0.11761481  0.07931193  1
  Pr3+  Pr48  1  0.48870142  0.12974832  0.57500644  1
  Pr3+  Pr49  1  0.12702604  0.24970637  0.93740780  1
  Nd3+  Nd50  1  0.36635628  0.50617945  0.43366626  1
  Nd3+  Nd51  1  0.00629746  0.62046751  0.06767436  1
  Nd3+  Nd52  1  0.49524734  0.38168066  0.55726918  1
  Nd3+  Nd53  1  0.36539472  0.25559422  0.45094882  1
  Nd3+  Nd54  1  -0.01119353  0.38372062  0.54720911  1
  Nd3+  Nd55  1  0.36587987  0.75460766  0.45299537  1
  Nd3+  Nd56  1  0.50423071  0.88097907  0.58964817  1
  Nd3+  Nd57  1  0.86712761  0.75268348  0.43926151  1
  Sm3+  Sm58  1  0.61116827  0.75671091  0.44196345  1
  Sm3+  Sm59  1  0.73843119  0.88177168  0.55659292  1
  Sm3+  Sm60  1  0.37255804  0.24441393  0.94375329  1
  Sm3+  Sm61  1  0.74058171  0.38291236  0.55005485  1
  Sm3+  Sm62  1  0.49209533  0.62292574  0.56484602  1
  Sm3+  Sm63  1  0.61664638  0.25230448  0.43805995  1
  Bi2+  Bi64  1  0.04551385  0.10600734  0.27329383  1
  Bi2+  Bi65  1  -0.02836685  0.14601936  0.79142796  1
  Bi2+  Bi66  1  0.00976640  0.32180947  0.28849879  1
  Bi2+  Bi67  1  0.08544232  0.36944747  0.81921910  1
  Bi2+  Bi68  1  0.00298497  0.64843136  0.27649092  1
  Bi2+  Bi69  1  -0.01696064  0.53857914  0.80848488  1
  Bi2+  Bi70  1  -0.02133693  0.85448610  0.28481196  1
  Bi2+  Bi71  1  -0.02787336  0.87200419  0.78985856  1
  Bi2+  Bi72  1  0.27887191  0.03397586  0.31249228  1
  Bi2+  Bi73  1  0.27226732  0.17239995  0.79882395  1
  Bi2+  Bi74  1  0.29971719  0.34973024  0.29521579  1
  Bi2+  Bi75  1  0.26741773  0.43299940  0.80657147  1
  Bi2+  Bi76  1  0.26510623  0.66000008  0.29342806  1
  Bi2+  Bi77  1  0.23073322  0.62077478  0.78135313  1
  Bi2+  Bi78  1  0.16204332  0.88116506  0.32701365  1
  Bi2+  Bi79  1  0.23841686  0.85202189  0.77868672  1
  Bi2+  Bi80  1  0.49067606  0.16162946  0.29758252  1
  Bi2+  Bi81  1  0.55196200  0.07031676  0.78297094  1
  Bi2+  Bi82  1  0.48454670  0.43296542  0.31398465  1
  Bi2+  Bi83  1  0.54450581  0.35511461  0.78409820  1
  Bi2+  Bi84  1  0.53853477  0.61720796  0.31580543  1
  Bi2+  Bi85  1  0.47869765  0.60129136  0.78456033  1
  Bi2+  Bi86  1  0.46919338  0.86184899  0.29439636  1
  Bi2+  Bi87  1  0.49822771  0.83462102  0.78505548  1
  Bi2+  Bi88  1  0.77551551  0.12659420  0.29495650  1
  Bi2+  Bi89  1  0.77614952  0.11782414  0.79062102  1
  Bi2+  Bi90  1  0.74915928  0.37636642  0.28313699  1
  Bi2+  Bi91  1  0.83741465  0.42637938  0.76729008  1
  Bi2+  Bi92  1  0.75775231  0.64078355  0.28254758  1
  Bi2+  Bi93  1  0.74968766  0.62984558  0.80186825  1
  Bi2+  Bi94  1  0.73848880  0.83526179  0.29691779  1
  Bi2+  Bi95  1  0.77906909  0.83689834  0.77402669  1
  Bi2+  Bi96  1  0.15700572  -0.02946521  0.21719495  1
  Bi2+  Bi97  1  0.11587065  -0.00346076  0.71304003  1
  Bi2+  Bi98  1  0.21866971  0.17571218  0.23907484  1
  Bi2+  Bi99  1  0.10903013  0.27815298  0.71083167  1
  Bi2+  Bi100  1  0.13605746  0.45625673  0.20836771  1
  Bi2+  Bi101  1  0.11826306  0.48316706  0.72276345  1
  Bi2+  Bi102  1  0.13946788  0.76756721  0.22703769  1
  Bi2+  Bi103  1  0.04312219  0.75424007  0.71093298  1
  Bi2+  Bi104  1  0.41385648  0.04138880  0.18425537  1
  Bi2+  Bi105  1  0.39136030  0.01091017  0.71509609  1
  Bi2+  Bi106  1  0.39589455  0.23475955  0.20284703  1
  Bi2+  Bi107  1  0.45823800  0.24501730  0.70315159  1
  Bi2+  Bi108  1  0.35324079  0.50949711  0.19154844  1
  Bi2+  Bi109  1  0.37753308  0.42400817  0.70797383  1
  Bi2+  Bi110  1  0.36474229  0.78900455  0.20978315  1
  Bi2+  Bi111  1  0.35943469  0.68960533  0.70528930  1
  Bi2+  Bi112  1  0.58338154  0.02666297  0.23239290  1
  Bi2+  Bi113  1  0.69374792  0.06637540  0.68632193  1
  Bi2+  Bi114  1  0.57332075  0.30798451  0.23937391  1
  Bi2+  Bi115  1  0.65155868  0.25298560  0.70701146  1
  Bi2+  Bi116  1  0.59453725  0.50953822  0.22267398  1
  Bi2+  Bi117  1  0.63881812  0.47322418  0.70809479  1
  Bi2+  Bi118  1  0.59516563  0.74537052  0.23734027  1
  Bi2+  Bi119  1  0.64448393  0.73852974  0.70566320  1
  Bi2+  Bi120  1  0.88453297  -0.01936496  0.19997147  1
  Bi2+  Bi121  1  0.86176019  -0.02612790  0.70938766  1
  Bi2+  Bi122  1  0.90758639  0.25661078  0.19336271  1
  Bi2+  Bi123  1  0.88487851  0.25782135  0.71295210  1
  Bi2+  Bi124  1  0.83094717  0.53501658  0.18760697  1
  Bi2+  Bi125  1  0.93738583  0.52038561  0.68621875  1
  Bi2+  Bi126  1  0.84926146  0.78932529  0.20377290  1
  Bi2+  Bi127  1  0.85803879  0.69767224  0.69773061  1
  S2-  S128  1  0.02597295  0.15359883  0.16339915  1
  S2-  S129  1  0.10451798  0.12110106  0.65160941  1
  S2-  S130  1  0.01314847  0.38935503  0.15579257  1
  S2-  S131  1  -0.01686677  0.30066241  0.63636557  1
  S2-  S132  1  -0.03727132  0.61955141  0.16718680  1
  S2-  S133  1  0.10839051  0.65810013  0.64488397  1
  S2-  S134  1  0.02092364  0.91416855  0.15243103  1
  S2-  S135  1  -0.01101889  0.90841963  0.65112733  1
  S2-  S136  1  0.26124060  0.01556353  0.13608245  1
  S2-  S137  1  0.33923734  0.13318618  0.66141217  1
  S2-  S138  1  0.26008180  0.36959430  0.15675405  1
  S2-  S139  1  0.23376018  0.33462764  0.66052496  1
  S2-  S140  1  0.19899131  0.57099662  0.15539066  1
  S2-  S141  1  0.30636057  0.55683338  0.65371148  1
  S2-  S142  1  0.24206769  0.77694832  0.14220316  1
  S2-  S143  1  0.21832855  0.89428613  0.66990715  1
  S2-  S144  1  0.59971362  0.10571856  0.14435153  1
  S2-  S145  1  0.52203841  0.02621263  0.65392896  1
  S2-  S146  1  0.49842359  0.46141810  0.14118032  1
  S2-  S147  1  0.50965045  0.46205107  0.64495698  1
  S2-  S148  1  0.40190814  0.64676417  0.15041308  1
  S2-  S149  1  0.51111521  0.66737834  0.65984404  1
  S2-  S150  1  0.47149467  0.88710109  0.14835190  1
  S2-  S151  1  0.43043824  0.85341013  0.68505762  1
  S2-  S152  1  0.80471848  0.13463740  0.17728489  1
  S2-  S153  1  0.84297351  0.13704501  0.63802478  1
  S2-  S154  1  0.77495522  0.37105017  0.16750481  1
  S2-  S155  1  0.73464974  0.37221997  0.64949133  1
  S2-  S156  1  0.67950029  0.60620235  0.14630147  1
  S2-  S157  1  0.72286596  0.60258842  0.65256008  1
  S2-  S158  1  0.74848548  0.90792121  0.15563672  1
  S2-  S159  1  0.65682147  0.86240650  0.64329657  1
  S2-  S160  1  0.13578654  0.11545981  0.36127801  1
  S2-  S161  1  0.21689159  0.00265646  0.80963678  1
  S2-  S162  1  0.13972115  0.33701509  0.34575241  1
  S2-  S163  1  0.11999645  0.16282688  0.84932270  1
  S2-  S164  1  0.04339431  0.49495751  0.29800520  1
  S2-  S165  1  0.11914584  0.61586745  0.85989042  1
  S2-  S166  1  0.12131034  0.66143021  0.35457168  1
  S2-  S167  1  0.12010418  0.83882787  0.84682747  1
  S2-  S168  1  0.42408335  -0.01244495  0.36034229  1
  S2-  S169  1  0.40962790  0.08846723  0.83491633  1
  S2-  S170  1  0.35252258  0.23196362  0.35254369  1
  S2-  S171  1  0.34533141  0.28604201  0.84825567  1
  S2-  S172  1  0.28206449  0.51321244  0.34519486  1
  S2-  S173  1  0.35908457  0.63683237  0.85553893  1
  S2-  S174  1  0.36719562  0.74806316  0.35144690  1
  S2-  S175  1  0.37326348  0.85483781  0.84847734  1
  S2-  S176  1  0.62307940  0.07509362  0.33526151  1
  S2-  S177  1  0.60236226  -0.07612377  0.83616380  1
  S2-  S178  1  0.71228811  0.26020095  0.35294069  1
  S2-  S179  1  0.63875358  0.14677988  0.85840544  1
  S2-  S180  1  0.71654522  0.50934596  0.34884557  1
  S2-  S181  1  0.50799973  0.48309507  0.85248058  1
  S2-  S182  1  0.60397194  0.85720849  0.36208884  1
  S2-  S183  1  0.59308074  0.69542489  0.83878890  1
  S2-  S184  1  0.81652108  -0.01518609  0.33418681  1
  S2-  S185  1  0.95496110  0.00645992  0.85604839  1
  S2-  S186  1  0.91855775  0.16958706  0.33822198  1
  S2-  S187  1  0.85661453  0.24254588  0.84675288  1
  S2-  S188  1  0.88073902  0.38900395  0.34255029  1
  S2-  S189  1  0.74677243  0.48601893  0.85412497  1
  S2-  S190  1  0.88502653  0.65736726  0.35447030  1
  S2-  S191  1  0.88478068  0.66663052  0.85752295  1
  S2-  S192  1  -0.00937214  0.12941206  0.45957673  1
  S2-  S193  1  0.00456842  0.12376313  0.95885605  1
  S2-  S194  1  -0.00173600  0.38755960  0.44340942  1
  S2-  S195  1  -0.00157025  0.37768958  0.95019797  1
  S2-  S196  1  -0.00721539  0.63023038  0.45999992  1
  S2-  S197  1  -0.00292115  0.62116662  0.96131445  1
  S2-  S198  1  -0.00984092  0.87954594  0.44477608  1
  S2-  S199  1  -0.00091566  0.87225922  0.95288694  1
  S2-  S200  1  0.24584708  0.12988080  0.46809917  1
  S2-  S201  1  0.24985809  0.12101079  0.94928195  1
  S2-  S202  1  0.24445642  0.38324588  0.45458734  1
  S2-  S203  1  0.25124492  0.37420629  0.95220009  1
  S2-  S204  1  0.24362936  0.62767669  0.46010604  1
  S2-  S205  1  0.25109392  0.62158156  0.96091089  1
  S2-  S206  1  0.24270172  0.87886824  0.46126993  1
  S2-  S207  1  0.24544180  0.87731257  0.95115065  1
  S2-  S208  1  0.49192140  0.13378939  0.46177709  1
  S2-  S209  1  0.49789774  0.12658662  0.95503936  1
  S2-  S210  1  0.49303039  0.37765185  0.45046942  1
  S2-  S211  1  0.49817635  0.36524723  0.95245700  1
  S2-  S212  1  0.49035650  0.63112432  0.45621313  1
  S2-  S213  1  0.50449697  0.62501068  0.95822992  1
  S2-  S214  1  0.48902128  0.87569145  0.47044866  1
  S2-  S215  1  0.50332798  0.87582730  0.94719272  1
  S2-  S216  1  0.73541052  0.12735602  0.45077321  1
  S2-  S217  1  0.75624035  0.12341981  0.96452422  1
  S2-  S218  1  0.73410281  0.38490207  0.44891676  1
  S2-  S219  1  0.75473936  0.37132867  0.95715998  1
  S2-  S220  1  0.73521665  0.63709194  0.45037800  1
  S2-  S221  1  0.75011454  0.62619852  0.95566512  1
  S2-  S222  1  0.74301155  0.87720220  0.45321285  1
  S2-  S223  1  0.75516206  0.87604261  0.94631264  1
  S2-  S224  1  0.12287169  0.00037430  0.04229415  1
  S2-  S225  1  0.11578171  0.00383685  0.54675792  1
  S2-  S226  1  0.12951840  0.24880265  0.04694516  1
  S2-  S227  1  0.11822774  0.26110107  0.54159663  1
  S2-  S228  1  0.12536907  0.49879599  0.04321892  1
  S2-  S229  1  0.11239170  0.50293071  0.55488667  1
  S2-  S230  1  0.12147286  0.74727033  0.04478920  1
  S2-  S231  1  0.11384504  0.76297899  0.54440698  1
  S2-  S232  1  0.38114841  0.00083117  0.03315125  1
  S2-  S233  1  0.36620714  0.00139160  0.56096688  1
  S2-  S234  1  0.37432365  0.24685217  0.04954951  1
  S2-  S235  1  0.36939530  0.25978188  0.55598156  1
  S2-  S236  1  0.37690159  0.49866671  0.03968089  1
  S2-  S237  1  0.37104229  0.50417066  0.54057782  1
  S2-  S238  1  0.38238521  0.75269705  0.03908595  1
  S2-  S239  1  0.36908450  0.75409654  0.55995116  1
  S2-  S240  1  0.62769456  -0.00359067  0.03792400  1
  S2-  S241  1  0.61824011  0.00643720  0.54176268  1
  S2-  S242  1  0.62737028  0.25063546  0.05087467  1
  S2-  S243  1  0.61637765  0.25594379  0.54591742  1
  S2-  S244  1  0.62936933  0.49247859  0.03931903  1
  S2-  S245  1  0.61732298  0.50680273  0.53773426  1
  S2-  S246  1  0.62829850  0.74977929  0.04562582  1
  S2-  S247  1  0.61365594  0.75096507  0.54535197  1
  S2-  S248  1  0.87636266  0.00070805  0.05162143  1
  S2-  S249  1  0.86197529  0.00279568  0.54081366  1
  S2-  S250  1  0.87589527  0.24593349  0.05488281  1
  S2-  S251  1  0.85876309  0.26134223  0.53139492  1
  S2-  S252  1  0.87830693  0.49810458  0.04471403  1
  S2-  S253  1  0.86315034  0.50628988  0.53978297  1
  S2-  S254  1  0.87870876  0.74777740  0.05227405  1
  S2-  S255  1  0.86370074  0.75819535  0.54765617  1
