# generated using pymatgen
data_La9Ce10Pr6Nd4Sm3(BiS2)32
_symmetry_space_group_name_H-M   'P 1'
_cell_length_a   16.20392303
_cell_length_b   16.23304440
_cell_length_c   27.07981754
_cell_angle_alpha   90.00336341
_cell_angle_beta   90.09582217
_cell_angle_gamma   90.03503575
_symmetry_Int_Tables_number   1
_chemical_formula_structural   La9Ce10Pr6Nd4Sm3(BiS2)32
_chemical_formula_sum   'La18 Ce20 Pr12 Nd8 Sm6 Bi64 S128'
_cell_volume   7123.03687333
_cell_formula_units_Z   2
loop_
 _symmetry_equiv_pos_site_id
 _symmetry_equiv_pos_as_xyz
  1  'x, y, z'
loop_
 _atom_type_symbol
 _atom_type_oxidation_number
  La3+  3.0
  Ce3+  3.0
  Pr3+  3.0
  Nd3+  3.0
  Sm3+  3.0
  Bi2+  2.0
  S2-  -2.0
loop_
 _atom_site_type_symbol
 _atom_site_label
 _atom_site_symmetry_multiplicity
 _atom_site_fract_x
 _atom_site_fract_y
 _atom_site_fract_z
 _atom_site_occupancy
  La3+  La0  1  0.22650174  0.62165098  0.07140635  1
  La3+  La1  1  0.22916827  0.12936370  0.07367621  1
  La3+  La2  1  0.26177078  0.86526645  0.57340345  1
  La3+  La3  1  0.10841581  0.74998280  0.92123815  1
  La3+  La4  1  0.36257679  0.74094160  0.92033281  1
  La3+  La5  1  -0.00044134  0.12788136  0.58636101  1
  La3+  La6  1  0.64285821  0.75360676  0.40329720  1
  La3+  La7  1  0.37576918  0.75602512  0.41326690  1
  La3+  La8  1  0.63534803  0.49100717  0.42218787  1
  La3+  La9  1  0.74950562  0.11034015  0.57670512  1
  La3+  La10  1  0.10141582  0.50140813  0.92619965  1
  La3+  La11  1  0.88147429  0.23200763  0.43268260  1
  La3+  La12  1  0.85124320  0.24158728  0.92457542  1
  La3+  La13  1  0.26479429  0.12753953  0.57490513  1
  La3+  La14  1  0.48864624  0.36758655  0.08881472  1
  La3+  La15  1  0.38724047  0.48512355  0.41362493  1
  La3+  La16  1  0.35498273  0.25202553  0.93749271  1
  La3+  La17  1  0.12572207  0.22903843  0.41151058  1
  Ce3+  Ce18  1  0.60533322  0.49956373  0.95340696  1
  Ce3+  Ce19  1  0.60751792  0.25202813  0.93894193  1
  Ce3+  Ce20  1  0.85381911  0.50174959  0.93682706  1
  Ce3+  Ce21  1  0.60388641  0.74813623  0.94061906  1
  Ce3+  Ce22  1  0.50477961  0.11968613  0.55236240  1
  Ce3+  Ce23  1  0.75625247  0.37043391  0.55446749  1
  Ce3+  Ce24  1  0.37579118  -0.00413265  0.44436247  1
  Ce3+  Ce25  1  0.85659204  0.75052264  0.93626773  1
  Ce3+  Ce26  1  0.50259627  0.62109301  0.53962710  1
  Ce3+  Ce27  1  0.35574080  0.50162045  0.94726154  1
  Ce3+  Ce28  1  0.63225803  0.24045223  0.44264939  1
  Ce3+  Ce29  1  0.47805706  0.87199532  0.05996299  1
  Ce3+  Ce30  1  0.47599561  0.63034570  0.07508487  1
  Ce3+  Ce31  1  0.63069562  -0.00930376  0.43849312  1
  Ce3+  Ce32  1  0.13120250  -0.00075114  0.45675434  1
  Ce3+  Ce33  1  0.75346627  0.61939918  0.55302030  1
  Ce3+  Ce34  1  0.26790477  0.61766326  0.56006640  1
  Ce3+  Ce35  1  0.00464326  0.36914936  0.55720570  1
  Ce3+  Ce36  1  0.73664976  0.12558998  0.06971468  1
  Ce3+  Ce37  1  0.88271763  0.74707937  0.44463254  1
  Pr3+  Pr38  1  0.72639325  0.62788706  0.06901174  1
  Pr3+  Pr39  1  0.88178474  0.49328033  0.43180511  1
  Pr3+  Pr40  1  0.35571524  0.00099578  0.94423793  1
  Pr3+  Pr41  1  -0.01465058  0.87306741  0.06225250  1
  Pr3+  Pr42  1  -0.02015259  0.37594348  0.06173513  1
  Pr3+  Pr43  1  0.23088674  0.37407390  0.06518248  1
  Pr3+  Pr44  1  0.10115494  0.25265533  0.93337771  1
  Pr3+  Pr45  1  0.50495549  0.86272317  0.55918494  1
  Pr3+  Pr46  1  0.13305726  0.49454206  0.43884343  1
  Pr3+  Pr47  1  0.75257044  0.86259208  0.56730507  1
  Pr3+  Pr48  1  0.48499314  0.12436122  0.06055657  1
  Pr3+  Pr49  1  0.10379792  0.00477297  0.94016105  1
  Nd3+  Nd50  1  0.00980104  0.86771635  0.56302524  1
  Nd3+  Nd51  1  0.50639757  0.37231148  0.55505889  1
  Nd3+  Nd52  1  -0.01645206  0.13344424  0.07731507  1
  Nd3+  Nd53  1  0.73336087  0.87464363  0.06081765  1
  Nd3+  Nd54  1  0.25472303  0.36992448  0.54755813  1
  Nd3+  Nd55  1  0.85545597  0.00113192  0.94478177  1
  Nd3+  Nd56  1  0.13218780  0.74473726  0.43897219  1
  Nd3+  Nd57  1  0.73531197  0.37370797  0.06510804  1
  Sm3+  Sm58  1  0.00998265  0.61992490  0.56038628  1
  Sm3+  Sm59  1  0.88259983  -0.00463072  0.45151306  1
  Sm3+  Sm60  1  0.37915053  0.24109220  0.43257563  1
  Sm3+  Sm61  1  0.60745520  -0.00061933  0.94624701  1
  Sm3+  Sm62  1  0.23057801  0.87117920  0.05202899  1
  Sm3+  Sm63  1  -0.01873922  0.62476334  0.05693706  1
  Bi2+  Bi64  1  -0.00816194  0.11197543  0.29635176  1
  Bi2+  Bi65  1  0.00249704  0.12719718  0.80401902  1
  Bi2+  Bi66  1  -0.04032383  0.40570229  0.29412188  1
  Bi2+  Bi67  1  0.05163339  0.37305353  0.79870310  1
  Bi2+  Bi68  1  0.02311191  0.69413124  0.31794835  1
  Bi2+  Bi69  1  -0.01529504  0.60992103  0.78653450  1
  Bi2+  Bi70  1  -0.02023965  0.87629852  0.28395349  1
  Bi2+  Bi71  1  -0.01965967  0.87964206  0.78799798  1
  Bi2+  Bi72  1  0.28562104  0.07157889  0.32352908  1
  Bi2+  Bi73  1  0.27470530  0.07105375  0.77310489  1
  Bi2+  Bi74  1  0.24634884  0.38762334  0.29667732  1
  Bi2+  Bi75  1  0.28609985  0.31778685  0.79833144  1
  Bi2+  Bi76  1  0.20182830  0.64365666  0.28528899  1
  Bi2+  Bi77  1  0.25790643  0.63614280  0.78790128  1
  Bi2+  Bi78  1  0.26517367  0.89102049  0.28229441  1
  Bi2+  Bi79  1  0.27563813  0.87804333  0.76961379  1
  Bi2+  Bi80  1  0.53877882  0.11990695  0.28474659  1
  Bi2+  Bi81  1  0.52776666  0.16287263  0.76508017  1
  Bi2+  Bi82  1  0.51138978  0.36190426  0.28009236  1
  Bi2+  Bi83  1  0.49748215  0.37179298  0.80743827  1
  Bi2+  Bi84  1  0.52207066  0.61097557  0.26649713  1
  Bi2+  Bi85  1  0.57459408  0.64377081  0.78592070  1
  Bi2+  Bi86  1  0.53265545  0.92873020  0.26037188  1
  Bi2+  Bi87  1  0.57830508  0.88396656  0.78159887  1
  Bi2+  Bi88  1  0.74147294  0.10542370  0.29102810  1
  Bi2+  Bi89  1  0.71521133  0.11597776  0.78696882  1
  Bi2+  Bi90  1  0.76752683  0.30712200  0.28875142  1
  Bi2+  Bi91  1  0.71005381  0.38633867  0.79369878  1
  Bi2+  Bi92  1  0.86667933  0.57953827  0.29695670  1
  Bi2+  Bi93  1  0.77155601  0.64574809  0.82838312  1
  Bi2+  Bi94  1  0.78053571  0.88470385  0.29075913  1
  Bi2+  Bi95  1  0.76613433  0.84225545  0.81434259  1
  Bi2+  Bi96  1  0.12190803  -0.03408610  0.21406384  1
  Bi2+  Bi97  1  0.09108531  -0.04014723  0.70893186  1
  Bi2+  Bi98  1  0.12924080  0.22535920  0.21584426  1
  Bi2+  Bi99  1  0.13291009  0.25038431  0.69795572  1
  Bi2+  Bi100  1  0.10404304  0.47118750  0.22531899  1
  Bi2+  Bi101  1  0.22604143  0.48598334  0.71901934  1
  Bi2+  Bi102  1  0.13480298  0.75877944  0.20234709  1
  Bi2+  Bi103  1  0.07953704  0.71805372  0.69239475  1
  Bi2+  Bi104  1  0.37964575  0.05446559  0.22344698  1
  Bi2+  Bi105  1  0.42419416  -0.02220015  0.72010213  1
  Bi2+  Bi106  1  0.37547844  0.25111756  0.21726100  1
  Bi2+  Bi107  1  0.37592142  0.26319015  0.69702938  1
  Bi2+  Bi108  1  0.32407744  0.52559864  0.21578491  1
  Bi2+  Bi109  1  0.40910803  0.52316148  0.75730933  1
  Bi2+  Bi110  1  0.39682497  0.77023189  0.21605491  1
  Bi2+  Bi111  1  0.45954705  0.72020451  0.69653912  1
  Bi2+  Bi112  1  0.66076858  0.01727012  0.19134602  1
  Bi2+  Bi113  1  0.60535856  0.03693446  0.68771446  1
  Bi2+  Bi114  1  0.64358560  0.20916803  0.19649949  1
  Bi2+  Bi115  1  0.61340345  0.31006153  0.70378840  1
  Bi2+  Bi116  1  0.74583733  0.45712401  0.21177474  1
  Bi2+  Bi117  1  0.63750348  0.52822216  0.70254802  1
  Bi2+  Bi118  1  0.66374514  0.74551136  0.21089549  1
  Bi2+  Bi119  1  0.62242004  0.81834818  0.67610056  1
  Bi2+  Bi120  1  0.88431274  0.01975715  0.21881894  1
  Bi2+  Bi121  1  0.83107701  -0.01868530  0.74386394  1
  Bi2+  Bi122  1  0.86314941  0.30236070  0.18859992  1
  Bi2+  Bi123  1  0.87665283  0.27301006  0.70878687  1
  Bi2+  Bi124  1  0.93104000  0.49520172  0.17477171  1
  Bi2+  Bi125  1  0.82162509  0.51992308  0.74011956  1
  Bi2+  Bi126  1  0.92852102  0.69557456  0.21104801  1
  Bi2+  Bi127  1  0.81602897  0.72259079  0.72439442  1
  S2-  S128  1  0.11028732  0.09922866  0.15050918  1
  S2-  S129  1  0.03188313  0.12525580  0.69352302  1
  S2-  S130  1  0.01611728  0.27960574  0.14606057  1
  S2-  S131  1  -0.00039751  0.34639616  0.65720780  1
  S2-  S132  1  0.08280489  0.65450579  0.13539843  1
  S2-  S133  1  -0.02422233  0.60960680  0.65731978  1
  S2-  S134  1  -0.01662686  0.89971019  0.16271105  1
  S2-  S135  1  -0.02073430  0.85857245  0.66180488  1
  S2-  S136  1  0.24344038  0.25973798  0.14834479  1
  S2-  S137  1  0.22628159  0.12134049  0.67479534  1
  S2-  S138  1  0.21080148  0.48359013  0.14463797  1
  S2-  S139  1  0.25099845  0.36404431  0.64898410  1
  S2-  S140  1  0.34969581  0.65650038  0.14568306  1
  S2-  S141  1  0.19646319  0.62389360  0.65249541  1
  S2-  S142  1  0.23629280  0.87726886  0.15148428  1
  S2-  S143  1  0.19388778  0.85381684  0.66997194  1
  S2-  S144  1  0.48410638  0.21494152  0.14713616  1
  S2-  S145  1  0.42213675  0.14580466  0.63583709  1
  S2-  S146  1  0.43582502  0.42021413  0.18568475  1
  S2-  S147  1  0.47900982  0.37904968  0.65441030  1
  S2-  S148  1  0.57067480  0.63527575  0.16071752  1
  S2-  S149  1  0.41190175  0.61601250  0.62420095  1
  S2-  S150  1  0.48915997  0.86749595  0.15944181  1
  S2-  S151  1  0.40012703  0.86057031  0.64239131  1
  S2-  S152  1  0.85145368  0.13279730  0.14525656  1
  S2-  S153  1  0.85617969  0.15205131  0.65139267  1
  S2-  S154  1  0.64110709  0.37131740  0.15117707  1
  S2-  S155  1  0.76610937  0.35188237  0.65286072  1
  S2-  S156  1  0.78212234  0.66083026  0.16419218  1
  S2-  S157  1  0.71357041  0.65843853  0.64728471  1
  S2-  S158  1  0.74378677  0.87505828  0.16102395  1
  S2-  S159  1  0.75233746  0.96756882  0.64926836  1
  S2-  S160  1  0.12084867  0.05803987  0.36435419  1
  S2-  S161  1  0.09145076  -0.00677493  0.83836300  1
  S2-  S162  1  0.20035457  0.23445194  0.31487598  1
  S2-  S163  1  0.14691418  0.22127744  0.83453705  1
  S2-  S164  1  0.10315174  0.45896549  0.34090595  1
  S2-  S165  1  0.19436758  0.43070709  0.84289099  1
  S2-  S166  1  0.22522250  0.77463883  0.35646173  1
  S2-  S167  1  0.11257768  0.62147439  0.84685652  1
  S2-  S168  1  0.38006940  -0.07452774  0.35600025  1
  S2-  S169  1  0.35382552  -0.01132795  0.84256561  1
  S2-  S170  1  0.38788636  0.32917380  0.34713765  1
  S2-  S171  1  0.42271730  0.22689873  0.84506561  1
  S2-  S172  1  0.31461684  0.54541953  0.32798772  1
  S2-  S173  1  0.36386203  0.59093219  0.86162295  1
  S2-  S174  1  0.44696388  0.72721629  0.31499122  1
  S2-  S175  1  0.23934655  0.78047914  0.84624349  1
  S2-  S176  1  0.63577267  -0.09267676  0.35006289  1
  S2-  S177  1  0.61295771  0.01331583  0.84747611  1
  S2-  S178  1  0.62831458  0.29586018  0.34894559  1
  S2-  S179  1  0.70693271  0.24646557  0.85814878  1
  S2-  S180  1  0.52571750  0.48761462  0.34044421  1
  S2-  S181  1  0.60592570  0.48350509  0.85434008  1
  S2-  S182  1  0.64863900  0.67495001  0.30887751  1
  S2-  S183  1  0.51135704  0.75541995  0.85652824  1
  S2-  S184  1  0.86803981  0.08145833  0.36584296  1
  S2-  S185  1  0.87165571  0.08672682  0.85817854  1
  S2-  S186  1  0.98608985  0.25357235  0.34980201  1
  S2-  S187  1  0.93540763  0.27701448  0.83301222  1
  S2-  S188  1  0.76757631  0.48755434  0.35375162  1
  S2-  S189  1  0.95565783  0.48586045  0.85514804  1
  S2-  S190  1  0.81206035  0.77201440  0.35696062  1
  S2-  S191  1  0.96420428  0.76446997  0.85649752  1
  S2-  S192  1  0.00574221  0.11840901  0.47016782  1
  S2-  S193  1  -0.01857930  0.12696246  0.96230564  1
  S2-  S194  1  0.00668688  0.36787010  0.45247144  1
  S2-  S195  1  -0.02517211  0.37118575  0.95480473  1
  S2-  S196  1  0.00581691  0.61957911  0.45242530  1
  S2-  S197  1  -0.02528442  0.62617388  0.95454154  1
  S2-  S198  1  0.00757191  0.87232532  0.45431855  1
  S2-  S199  1  -0.02038514  0.88055089  0.95512534  1
  S2-  S200  1  0.25614635  0.12493922  0.46175080  1
  S2-  S201  1  0.23106892  0.12690863  0.95530750  1
  S2-  S202  1  0.24804047  0.35905980  0.44232707  1
  S2-  S203  1  0.23090799  0.37344162  0.95729732  1
  S2-  S204  1  0.25565711  0.61921959  0.44915202  1
  S2-  S205  1  0.23042759  0.62059762  0.95898010  1
  S2-  S206  1  0.25101927  0.87611978  0.46325311  1
  S2-  S207  1  0.23022149  0.88077009  0.94884408  1
  S2-  S208  1  0.50387453  0.11863941  0.44412218  1
  S2-  S209  1  0.48497581  0.12274244  0.95386633  1
  S2-  S210  1  0.50857754  0.36195110  0.45001909  1
  S2-  S211  1  0.48270904  0.37462595  0.95772562  1
  S2-  S212  1  0.51050353  0.62709141  0.43519287  1
  S2-  S213  1  0.48594534  0.62309391  0.96598589  1
  S2-  S214  1  0.50708607  0.86927431  0.45092112  1
  S2-  S215  1  0.48216215  0.87950876  0.95391652  1
  S2-  S216  1  0.75113278  0.11349707  0.46519762  1
  S2-  S217  1  0.72779202  0.12007190  0.96185834  1
  S2-  S218  1  0.75986431  0.36201853  0.45095255  1
  S2-  S219  1  0.73251734  0.37740530  0.95815296  1
  S2-  S220  1  0.75734961  0.62380109  0.44874904  1
  S2-  S221  1  0.72953608  0.62661708  0.95974332  1
  S2-  S222  1  0.75928508  0.87450293  0.46089536  1
  S2-  S223  1  0.73018880  0.87587257  0.95372692  1
  S2-  S224  1  0.10938094  -0.00266789  0.04657232  1
  S2-  S225  1  0.13140921  -0.00197645  0.56350865  1
  S2-  S226  1  0.10726247  0.25000321  0.04040673  1
  S2-  S227  1  0.13031758  0.24531478  0.55519395  1
  S2-  S228  1  0.09824684  0.49905865  0.03876533  1
  S2-  S229  1  0.13084807  0.49572829  0.54658169  1
  S2-  S230  1  0.10682390  0.75390341  0.03389772  1
  S2-  S231  1  0.13207985  0.74207071  0.54611636  1
  S2-  S232  1  0.35439762  0.00170199  0.05254197  1
  S2-  S233  1  0.38174846  -0.00439822  0.54764682  1
  S2-  S234  1  0.36126352  0.24948226  0.04503058  1
  S2-  S235  1  0.38255097  0.25137753  0.53608228  1
  S2-  S236  1  0.36419811  0.49352128  0.05256086  1
  S2-  S237  1  0.38134086  0.48753478  0.52695710  1
  S2-  S238  1  0.35504917  0.75466079  0.03702591  1
  S2-  S239  1  0.37969792  0.74557766  0.52824911  1
  S2-  S240  1  0.60768179  -0.00231942  0.05210206  1
  S2-  S241  1  0.62392775  -0.00979439  0.54451102  1
  S2-  S242  1  0.61169611  0.24838431  0.04494925  1
  S2-  S243  1  0.62968207  0.24374833  0.55095011  1
  S2-  S244  1  0.60620296  0.50001424  0.05727207  1
  S2-  S245  1  0.63024345  0.49494153  0.53795677  1
  S2-  S246  1  0.60637273  0.75413356  0.04901147  1
  S2-  S247  1  0.62991221  0.74196306  0.53696119  1
  S2-  S248  1  0.85909003  -0.00237348  0.05042393  1
  S2-  S249  1  0.88521556  -0.00903793  0.55455841  1
  S2-  S250  1  0.85473995  0.25085000  0.04164576  1
  S2-  S251  1  0.87784978  0.24650678  0.54340267  1
  S2-  S252  1  0.85331552  0.50389917  0.04598956  1
  S2-  S253  1  0.88199714  0.49744116  0.54277564  1
  S2-  S254  1  0.85802517  0.74988482  0.04723667  1
  S2-  S255  1  0.88327755  0.74304955  0.55206577  1
