# generated using pymatgen
data_La9Ce10Pr6Nd4Sm3(BiS2)32
_symmetry_space_group_name_H-M   'P 1'
_cell_length_a   16.20968414
_cell_length_b   16.13933125
_cell_length_c   27.13565141
_cell_angle_alpha   89.83694069
_cell_angle_beta   89.95795907
_cell_angle_gamma   89.90622575
_symmetry_Int_Tables_number   1
_chemical_formula_structural   La9Ce10Pr6Nd4Sm3(BiS2)32
_chemical_formula_sum   'La18 Ce20 Pr12 Nd8 Sm6 Bi64 S128'
_cell_volume   7099.01156117
_cell_formula_units_Z   2
loop_
 _symmetry_equiv_pos_site_id
 _symmetry_equiv_pos_as_xyz
  1  'x, y, z'
loop_
 _atom_type_symbol
 _atom_type_oxidation_number
  La3+  3.0
  Ce3+  3.0
  Pr3+  3.0
  Nd3+  3.0
  Sm3+  3.0
  Bi2+  2.0
  S2-  -2.0
loop_
 _atom_site_type_symbol
 _atom_site_label
 _atom_site_symmetry_multiplicity
 _atom_site_fract_x
 _atom_site_fract_y
 _atom_site_fract_z
 _atom_site_occupancy
  La3+  La0  1  0.87702256  0.25837581  0.91524715  1
  La3+  La1  1  0.50290533  0.89092415  0.56955737  1
  La3+  La2  1  0.49825660  0.15213739  0.57267046  1
  La3+  La3  1  0.36830069  0.77682218  0.42797325  1
  La3+  La4  1  0.13727438  0.25835854  0.91450419  1
  La3+  La5  1  0.49569720  0.40239030  0.56039866  1
  La3+  La6  1  0.87955579  0.50726433  0.93476641  1
  La3+  La7  1  0.00180659  0.62616051  0.09566357  1
  La3+  La8  1  0.61921157  0.74207992  0.92401962  1
  La3+  La9  1  0.13771073  0.00038728  0.92677941  1
  La3+  La10  1  0.89700775  0.76348628  0.39899126  1
  La3+  La11  1  0.50443235  0.38100745  0.07174033  1
  La3+  La12  1  0.75228174  0.87649252  0.05877731  1
  La3+  La13  1  0.24477099  0.39648656  0.56825193  1
  La3+  La14  1  0.25373918  0.37414748  0.06564586  1
  La3+  La15  1  0.35879582  0.52312969  0.41355156  1
  La3+  La16  1  0.00594233  0.37046264  0.06293773  1
  La3+  La17  1  0.75762825  0.37373005  0.05956184  1
  Ce3+  Ce18  1  0.74567631  0.89235472  0.55857416  1
  Ce3+  Ce19  1  0.87142056  0.27409401  0.44027960  1
  Ce3+  Ce20  1  0.11677144  0.52517193  0.44374392  1
  Ce3+  Ce21  1  0.37761717  0.74881969  0.94529133  1
  Ce3+  Ce22  1  0.87431174  0.51309976  0.42954771  1
  Ce3+  Ce23  1  0.75228288  0.12509423  0.04547222  1
  Ce3+  Ce24  1  0.00530828  0.87540658  0.05947288  1
  Ce3+  Ce25  1  0.75566145  0.62924997  0.06449580  1
  Ce3+  Ce26  1  0.25258203  0.87840346  0.06067492  1
  Ce3+  Ce27  1  0.37918695  0.25261552  0.93869840  1
  Ce3+  Ce28  1  0.11894259  0.02123795  0.45596146  1
  Ce3+  Ce29  1  0.88027578  0.00017355  0.93795276  1
  Ce3+  Ce30  1  -0.00695825  0.64126752  0.56866284  1
  Ce3+  Ce31  1  0.00629307  0.13113133  0.04504245  1
  Ce3+  Ce32  1  0.62531175  0.25257009  0.94306862  1
  Ce3+  Ce33  1  -0.00342171  0.89370501  0.56931519  1
  Ce3+  Ce34  1  -0.00730433  0.39974546  0.56774717  1
  Ce3+  Ce35  1  0.50008782  0.62990803  0.07908691  1
  Ce3+  Ce36  1  0.62038796  0.01972979  0.43604812  1
  Ce3+  Ce37  1  0.87481686  0.01646628  0.44520408  1
  Pr3+  Pr38  1  0.61939151  0.26870105  0.43073422  1
  Pr3+  Pr39  1  0.74418421  0.40766365  0.56478988  1
  Pr3+  Pr40  1  0.25581521  0.89337990  0.57844171  1
  Pr3+  Pr41  1  0.25288351  0.64108812  0.56961551  1
  Pr3+  Pr42  1  0.50229559  0.87703642  0.06144547  1
  Pr3+  Pr43  1  0.25137870  0.62162866  0.08762790  1
  Pr3+  Pr44  1  0.74578002  0.14879221  0.55936415  1
  Pr3+  Pr45  1  0.88306117  0.75113823  0.93539915  1
  Pr3+  Pr46  1  0.24272531  0.14910687  0.57579881  1
  Pr3+  Pr47  1  0.62582852  -0.00404258  0.92083789  1
  Pr3+  Pr48  1  0.13124466  0.50215164  0.94108472  1
  Pr3+  Pr49  1  0.62296115  0.51893464  0.42275236  1
  Nd3+  Nd50  1  0.62936949  0.77292443  0.42296484  1
  Nd3+  Nd51  1  0.12019362  0.26859013  0.44512848  1
  Nd3+  Nd52  1  -0.01132609  0.15292970  0.58071804  1
  Nd3+  Nd53  1  0.36933366  0.27093698  0.44114314  1
  Nd3+  Nd54  1  0.25579002  0.13060339  0.06447724  1
  Nd3+  Nd55  1  0.38221508  0.00124696  0.93416855  1
  Nd3+  Nd56  1  0.12339264  0.77175467  0.45548152  1
  Nd3+  Nd57  1  0.50317908  0.11978626  0.06610555  1
  Sm3+  Sm58  1  0.49564743  0.64612271  0.53843623  1
  Sm3+  Sm59  1  0.37993899  0.50445083  0.94679217  1
  Sm3+  Sm60  1  0.37041526  0.02254733  0.45343976  1
  Sm3+  Sm61  1  0.62676374  0.50390140  0.94441874  1
  Sm3+  Sm62  1  0.13072325  0.74844770  0.94891443  1
  Sm3+  Sm63  1  0.74599038  0.64680323  0.54576899  1
  Bi2+  Bi64  1  0.00208132  0.15148172  0.31369467  1
  Bi2+  Bi65  1  -0.04505786  0.09124183  0.78803626  1
  Bi2+  Bi66  1  -0.01145615  0.39506662  0.24835161  1
  Bi2+  Bi67  1  0.00503763  0.42348727  0.77918830  1
  Bi2+  Bi68  1  0.06995167  0.63613666  0.29482984  1
  Bi2+  Bi69  1  0.04175899  0.65272725  0.80664391  1
  Bi2+  Bi70  1  0.03166979  0.90782078  0.29498474  1
  Bi2+  Bi71  1  -0.06578892  0.81673208  0.80097520  1
  Bi2+  Bi72  1  0.26173430  0.06122313  0.28865463  1
  Bi2+  Bi73  1  0.21351625  0.11120628  0.79975051  1
  Bi2+  Bi74  1  0.24279402  0.36812291  0.31171464  1
  Bi2+  Bi75  1  0.26957682  0.38641810  0.79092307  1
  Bi2+  Bi76  1  0.30248265  0.69543092  0.25199544  1
  Bi2+  Bi77  1  0.24897810  0.58545817  0.80231121  1
  Bi2+  Bi78  1  0.29562644  0.86601236  0.31002852  1
  Bi2+  Bi79  1  0.30024630  0.78761994  0.81051141  1
  Bi2+  Bi80  1  0.54905009  0.13372653  0.26654981  1
  Bi2+  Bi81  1  0.48641955  0.14194205  0.78281751  1
  Bi2+  Bi82  1  0.49450586  0.31636216  0.29749140  1
  Bi2+  Bi83  1  0.52108396  0.33455044  0.78627139  1
  Bi2+  Bi84  1  0.50643518  0.67055814  0.27607559  1
  Bi2+  Bi85  1  0.49509631  0.59973461  0.74106647  1
  Bi2+  Bi86  1  0.49315435  0.87208717  0.29076718  1
  Bi2+  Bi87  1  0.49322207  0.86514354  0.79339483  1
  Bi2+  Bi88  1  0.81199161  0.11626796  0.30537423  1
  Bi2+  Bi89  1  0.67745826  0.08803034  0.79000399  1
  Bi2+  Bi90  1  0.75247163  0.30452784  0.30319941  1
  Bi2+  Bi91  1  0.71551253  0.43642223  0.80599137  1
  Bi2+  Bi92  1  0.76991662  0.58186800  0.30919808  1
  Bi2+  Bi93  1  0.74531424  0.62841030  0.79269657  1
  Bi2+  Bi94  1  0.75954675  0.92338820  0.28998979  1
  Bi2+  Bi95  1  0.74337136  0.82831938  0.77074608  1
  Bi2+  Bi96  1  0.13323052  0.03693003  0.20439389  1
  Bi2+  Bi97  1  0.07525001  -0.05877058  0.72757097  1
  Bi2+  Bi98  1  0.10265626  0.23779040  0.21254360  1
  Bi2+  Bi99  1  0.10007812  0.23103463  0.70990978  1
  Bi2+  Bi100  1  0.13793834  0.50645369  0.21973991  1
  Bi2+  Bi101  1  0.15752228  0.47247806  0.70672561  1
  Bi2+  Bi102  1  0.17259826  0.84030329  0.21860452  1
  Bi2+  Bi103  1  0.13122471  0.66583795  0.70454877  1
  Bi2+  Bi104  1  0.41136342  -0.00716291  0.20948586  1
  Bi2+  Bi105  1  0.33079657  -0.05506107  0.72098355  1
  Bi2+  Bi106  1  0.33698302  0.22812914  0.21373435  1
  Bi2+  Bi107  1  0.36658215  0.20343294  0.69968727  1
  Bi2+  Bi108  1  0.39477389  0.47467757  0.21054962  1
  Bi2+  Bi109  1  0.43272330  0.42720197  0.69710110  1
  Bi2+  Bi110  1  0.48018598  0.79012740  0.18359738  1
  Bi2+  Bi111  1  0.32428156  0.69051524  0.71185267  1
  Bi2+  Bi112  1  0.67063750  0.00088378  0.20174868  1
  Bi2+  Bi113  1  0.59069037  -0.03301673  0.71103262  1
  Bi2+  Bi114  1  0.65766272  0.25056283  0.20552234  1
  Bi2+  Bi115  1  0.66431748  0.21880169  0.70837792  1
  Bi2+  Bi116  1  0.62943761  0.52386540  0.23396874  1
  Bi2+  Bi117  1  0.63000281  0.46541058  0.70215814  1
  Bi2+  Bi118  1  0.65234864  0.70557873  0.19345058  1
  Bi2+  Bi119  1  0.64384011  0.68761832  0.68081190  1
  Bi2+  Bi120  1  0.93789153  0.02096649  0.22064574  1
  Bi2+  Bi121  1  0.78738544  -0.00557454  0.71082534  1
  Bi2+  Bi122  1  0.89513957  0.22538747  0.21501979  1
  Bi2+  Bi123  1  0.86936381  0.30105437  0.73343957  1
  Bi2+  Bi124  1  0.82571718  0.49233541  0.21929990  1
  Bi2+  Bi125  1  0.88997131  0.54733021  0.72468999  1
  Bi2+  Bi126  1  0.87500922  0.75969096  0.21274381  1
  Bi2+  Bi127  1  0.87226704  0.73506779  0.70045621  1
  S2-  S128  1  -0.00487352  0.22761361  0.12758203  1
  S2-  S129  1  0.03317830  0.09447478  0.67542207  1
  S2-  S130  1  0.00783805  0.46316778  0.15115498  1
  S2-  S131  1  -0.01787960  0.29179215  0.65003712  1
  S2-  S132  1  0.13110953  0.64406817  0.16488036  1
  S2-  S133  1  -0.01694032  0.52074013  0.64062769  1
  S2-  S134  1  -0.01740461  0.81220876  0.15017950  1
  S2-  S135  1  -0.03697348  0.87213565  0.66502003  1
  S2-  S136  1  0.22043779  0.25344984  0.13957385  1
  S2-  S137  1  0.26558169  0.07967095  0.67239675  1
  S2-  S138  1  0.26456556  0.47181129  0.15281244  1
  S2-  S139  1  0.23715359  0.28057672  0.64946497  1
  S2-  S140  1  0.37858849  0.65146733  0.15672926  1
  S2-  S141  1  0.28219453  0.51476634  0.64215676  1
  S2-  S142  1  0.29964431  0.88899264  0.15517213  1
  S2-  S143  1  0.18974966  0.87657687  0.67451746  1
  S2-  S144  1  0.37731690  0.11858165  0.14148720  1
  S2-  S145  1  0.49212057  0.07317348  0.66454827  1
  S2-  S146  1  0.43735577  0.32623437  0.16584515  1
  S2-  S147  1  0.49162247  0.29291832  0.64225075  1
  S2-  S148  1  0.52762788  0.50427860  0.14957493  1
  S2-  S149  1  0.50184591  0.63707117  0.63781886  1
  S2-  S150  1  0.54210190  0.99157646  0.13683102  1
  S2-  S151  1  0.39359432  0.86391541  0.64761063  1
  S2-  S152  1  0.73803605  0.12488172  0.14372727  1
  S2-  S153  1  0.79427858  0.13579381  0.65749626  1
  S2-  S154  1  0.73949273  0.37887680  0.15982817  1
  S2-  S155  1  0.74360305  0.34216544  0.66173397  1
  S2-  S156  1  0.85091988  0.62956172  0.14997676  1
  S2-  S157  1  0.73030524  0.55811766  0.63174184  1
  S2-  S158  1  0.74753777  0.84906343  0.15961790  1
  S2-  S159  1  0.64025044  0.85188384  0.63433501  1
  S2-  S160  1  0.10996258  0.03016239  0.35713198  1
  S2-  S161  1  0.08693803  -0.00003302  0.82781671  1
  S2-  S162  1  0.11834853  0.28018996  0.34427305  1
  S2-  S163  1  0.07272734  0.20908844  0.81777882  1
  S2-  S164  1  0.17364107  0.52033012  0.34974186  1
  S2-  S165  1  0.12986640  0.41060430  0.85309943  1
  S2-  S166  1  0.07006146  0.76674228  0.35837885  1
  S2-  S167  1  0.14168711  0.77721375  0.85060281  1
  S2-  S168  1  0.37971957  0.00640299  0.35455508  1
  S2-  S169  1  0.27609705  -0.00330445  0.85310384  1
  S2-  S170  1  0.34967618  0.24727577  0.34132189  1
  S2-  S171  1  0.28953659  0.24408940  0.85292528  1
  S2-  S172  1  0.39842879  0.45570421  0.31828032  1
  S2-  S173  1  0.37402045  0.49016359  0.84671394  1
  S2-  S174  1  0.34332157  0.66772489  0.34801928  1
  S2-  S175  1  0.45663802  0.73965027  0.85775432  1
  S2-  S176  1  0.62408697  -0.09334483  0.35661775  1
  S2-  S177  1  0.49034280  0.01444772  0.85234361  1
  S2-  S178  1  0.60217643  0.13654147  0.36151504  1
  S2-  S179  1  0.64934888  0.29419342  0.84817484  1
  S2-  S180  1  0.61682373  0.38663597  0.35144952  1
  S2-  S181  1  0.62309049  0.59462977  0.86024397  1
  S2-  S182  1  0.62224092  0.64674373  0.35017472  1
  S2-  S183  1  0.63993379  0.86235046  0.85035615  1
  S2-  S184  1  0.89248531  -0.07052198  0.35884317  1
  S2-  S185  1  0.87323878  -0.03507357  0.84217778  1
  S2-  S186  1  0.87315257  0.37782967  0.36071908  1
  S2-  S187  1  0.85022377  0.20373423  0.81625354  1
  S2-  S188  1  0.93843886  0.59847112  0.35008642  1
  S2-  S189  1  0.87395011  0.40483724  0.85052057  1
  S2-  S190  1  0.80133435  0.75759049  0.31071357  1
  S2-  S191  1  0.88493364  0.63385655  0.85894209  1
  S2-  S192  1  -0.00609955  0.14662410  0.46445999  1
  S2-  S193  1  0.00401513  0.12710651  0.93939634  1
  S2-  S194  1  0.00128331  0.39561723  0.45920173  1
  S2-  S195  1  0.00354206  0.37611513  0.95265312  1
  S2-  S196  1  -0.00261235  0.65003681  0.46344932  1
  S2-  S197  1  0.01063734  0.62816772  0.95790315  1
  S2-  S198  1  -0.00240954  0.89223928  0.46416349  1
  S2-  S199  1  0.00863865  0.87579436  0.95198660  1
  S2-  S200  1  0.24556537  0.14500690  0.46132417  1
  S2-  S201  1  0.25799124  0.12713644  0.95660433  1
  S2-  S202  1  0.24350218  0.39464842  0.45517875  1
  S2-  S203  1  0.26075186  0.38061139  0.95674460  1
  S2-  S204  1  0.24394593  0.64724712  0.45953533  1
  S2-  S205  1  0.25466899  0.62580411  0.95572384  1
  S2-  S206  1  0.24613642  0.89855639  0.46351315  1
  S2-  S207  1  0.25491637  0.87270284  0.95643701  1
  S2-  S208  1  0.49040619  0.14642083  0.46292138  1
  S2-  S209  1  0.50397942  0.12992048  0.95581138  1
  S2-  S210  1  0.48957773  0.39691241  0.44997296  1
  S2-  S211  1  0.50397455  0.38110411  0.95631559  1
  S2-  S212  1  0.49168607  0.64547406  0.43818834  1
  S2-  S213  1  0.50100465  0.62301871  0.96748268  1
  S2-  S214  1  0.49276068  0.89735998  0.45794665  1
  S2-  S215  1  0.50275023  0.87382022  0.95617403  1
  S2-  S216  1  0.75170440  0.14518913  0.45295378  1
  S2-  S217  1  0.75160479  0.12516215  0.93880794  1
  S2-  S218  1  0.74367734  0.39525940  0.45666085  1
  S2-  S219  1  0.74834941  0.37966684  0.95281053  1
  S2-  S220  1  0.76136660  0.65173933  0.44332680  1
  S2-  S221  1  0.75135949  0.62960321  0.95944822  1
  S2-  S222  1  0.75301141  0.89286898  0.45492901  1
  S2-  S223  1  0.75658963  0.87303720  0.95078681  1
  S2-  S224  1  0.12961306  0.00436179  0.04489293  1
  S2-  S225  1  0.12020534  0.01985430  0.56147181  1
  S2-  S226  1  0.13098630  0.24977892  0.02823773  1
  S2-  S227  1  0.11522154  0.26946220  0.55003956  1
  S2-  S228  1  0.12855105  0.50414924  0.04818923  1
  S2-  S229  1  0.12271963  0.52354958  0.54813339  1
  S2-  S230  1  0.13061515  0.75108260  0.05366931  1
  S2-  S231  1  0.12499363  0.76689501  0.56113281  1
  S2-  S232  1  0.37689816  -0.00010914  0.04066627  1
  S2-  S233  1  0.37133216  0.02408663  0.55602930  1
  S2-  S234  1  0.38479403  0.25232850  0.04307481  1
  S2-  S235  1  0.36808698  0.27245146  0.54587445  1
  S2-  S236  1  0.37858645  0.50482043  0.05021607  1
  S2-  S237  1  0.37398178  0.52225978  0.53246477  1
  S2-  S238  1  0.37437960  0.75310506  0.04951319  1
  S2-  S239  1  0.37127710  0.76584349  0.53953345  1
  S2-  S240  1  0.63146874  0.00135700  0.03026052  1
  S2-  S241  1  0.62402697  0.02239642  0.54658109  1
  S2-  S242  1  0.62527854  0.24970388  0.04959741  1
  S2-  S243  1  0.62441304  0.27561755  0.54194409  1
  S2-  S244  1  0.63469754  0.50304902  0.04820199  1
  S2-  S245  1  0.61857537  0.52477168  0.52987959  1
  S2-  S246  1  0.62681740  0.75066636  0.04839420  1
  S2-  S247  1  0.62167205  0.76365586  0.52837324  1
  S2-  S248  1  0.88141299  0.00261227  0.04649129  1
  S2-  S249  1  0.87278130  0.01990703  0.55359742  1
  S2-  S250  1  0.87383253  0.24832237  0.02850339  1
  S2-  S251  1  0.86691173  0.27584108  0.54650177  1
  S2-  S252  1  0.87956019  0.50141159  0.04535747  1
  S2-  S253  1  0.87030260  0.52329023  0.53652068  1
  S2-  S254  1  0.88121834  0.75200278  0.04267187  1
  S2-  S255  1  0.86772235  0.76685226  0.55771671  1
