# generated using pymatgen
data_La9Ce10Pr6Nd4Sm3(BiS2)32
_symmetry_space_group_name_H-M   'P 1'
_cell_length_a   16.12584497
_cell_length_b   16.13233886
_cell_length_c   27.25553756
_cell_angle_alpha   89.80530507
_cell_angle_beta   89.84480704
_cell_angle_gamma   89.90589736
_symmetry_Int_Tables_number   1
_chemical_formula_structural   La9Ce10Pr6Nd4Sm3(BiS2)32
_chemical_formula_sum   'La18 Ce20 Pr12 Nd8 Sm6 Bi64 S128'
_cell_volume   7090.38615425
_cell_formula_units_Z   2
loop_
 _symmetry_equiv_pos_site_id
 _symmetry_equiv_pos_as_xyz
  1  'x, y, z'
loop_
 _atom_type_symbol
 _atom_type_oxidation_number
  La3+  3.0
  Ce3+  3.0
  Pr3+  3.0
  Nd3+  3.0
  Sm3+  3.0
  Bi2+  2.0
  S2-  -2.0
loop_
 _atom_site_type_symbol
 _atom_site_label
 _atom_site_symmetry_multiplicity
 _atom_site_fract_x
 _atom_site_fract_y
 _atom_site_fract_z
 _atom_site_occupancy
  La3+  La0  1  0.13426703  -0.01643312  0.42284645  1
  La3+  La1  1  0.38490087  0.74098736  0.42320165  1
  La3+  La2  1  0.36183178  -0.00203170  0.92496291  1
  La3+  La3  1  0.13340494  0.73553527  0.43815056  1
  La3+  La4  1  0.00601817  0.61414389  0.57728997  1
  La3+  La5  1  0.13374572  0.48861602  0.43684917  1
  La3+  La6  1  0.48717062  0.86832294  0.07799404  1
  La3+  La7  1  0.61307307  0.24157311  0.93181789  1
  La3+  La8  1  0.86113160  0.24558175  0.93199460  1
  La3+  La9  1  0.73502186  0.12548126  0.08381559  1
  La3+  La10  1  0.23895042  0.11688906  0.06404153  1
  La3+  La11  1  0.76221752  0.85654269  0.57296390  1
  La3+  La12  1  0.13451286  0.23927746  0.42633945  1
  La3+  La13  1  0.24800780  0.11139790  0.57599726  1
  La3+  La14  1  0.38662266  0.49119795  0.42156887  1
  La3+  La15  1  0.87693773  0.24453653  0.38217416  1
  La3+  La16  1  0.60988211  0.49216184  0.92566287  1
  La3+  La17  1  0.63553277  0.74218220  0.43157373  1
  Ce3+  Ce18  1  -0.01054941  0.61808259  0.06191446  1
  Ce3+  Ce19  1  0.50089409  0.36204400  0.55435915  1
  Ce3+  Ce20  1  0.25898120  0.86472928  0.56095093  1
  Ce3+  Ce21  1  -0.01208909  0.12118076  0.06204600  1
  Ce3+  Ce22  1  0.37865811  0.23950285  0.43033706  1
  Ce3+  Ce23  1  0.25680380  0.60892515  0.57068001  1
  Ce3+  Ce24  1  0.88417374  0.48820967  0.43702706  1
  Ce3+  Ce25  1  0.85899325  -0.00538098  0.95254903  1
  Ce3+  Ce26  1  0.38193620  -0.00963906  0.43556792  1
  Ce3+  Ce27  1  -0.01368412  0.36979464  0.05536379  1
  Ce3+  Ce28  1  0.50540434  0.61328443  0.55804200  1
  Ce3+  Ce29  1  0.11197599  0.74518506  0.93378105  1
  Ce3+  Ce30  1  0.23976592  0.86688514  0.05522633  1
  Ce3+  Ce31  1  0.10792958  0.24401374  0.93808871  1
  Ce3+  Ce32  1  0.86283218  0.49650471  0.94244071  1
  Ce3+  Ce33  1  0.50448534  0.11260001  0.55667125  1
  Ce3+  Ce34  1  0.72788859  0.61745481  0.05529037  1
  Ce3+  Ce35  1  0.00559788  0.36176894  0.55371161  1
  Ce3+  Ce36  1  0.86033284  0.74369105  0.94305724  1
  Ce3+  Ce37  1  0.88142316  -0.01182255  0.43154162  1
  Pr3+  Pr38  1  0.73358547  0.37174595  0.06498593  1
  Pr3+  Pr39  1  0.73682888  0.86687719  0.07002916  1
  Pr3+  Pr40  1  0.75664285  0.36194709  0.55776545  1
  Pr3+  Pr41  1  0.74830387  0.60954409  0.56615265  1
  Pr3+  Pr42  1  -0.01219717  0.86887186  0.06144205  1
  Pr3+  Pr43  1  0.23361029  0.62272397  0.06726000  1
  Pr3+  Pr44  1  0.47883399  0.61165662  0.09922111  1
  Pr3+  Pr45  1  0.23594697  0.37323233  0.06820723  1
  Pr3+  Pr46  1  0.48629049  0.11758785  0.06827071  1
  Pr3+  Pr47  1  0.88390989  0.73843541  0.43331486  1
  Pr3+  Pr48  1  0.25371012  0.36099942  0.56483526  1
  Pr3+  Pr49  1  0.63735222  -0.00743733  0.44123332  1
  Nd3+  Nd50  1  0.00810312  0.86453609  0.55671822  1
  Nd3+  Nd51  1  0.35763383  0.49492840  0.93434597  1
  Nd3+  Nd52  1  0.35359201  0.24718985  0.92363565  1
  Nd3+  Nd53  1  0.63590108  0.23805009  0.43952113  1
  Nd3+  Nd54  1  0.00664729  0.11384195  0.55127220  1
  Nd3+  Nd55  1  0.63509489  0.48800355  0.43244934  1
  Nd3+  Nd56  1  0.11880690  0.49836078  0.93169165  1
  Nd3+  Nd57  1  0.61130836  -0.00770218  0.94750909  1
  Sm3+  Sm58  1  0.60588420  0.74577319  0.94286949  1
  Sm3+  Sm59  1  0.48537570  0.37172228  0.05744391  1
  Sm3+  Sm60  1  0.50596810  0.86342877  0.55640412  1
  Sm3+  Sm61  1  0.11329256  -0.00583918  0.93560275  1
  Sm3+  Sm62  1  0.35837685  0.75090516  0.93130895  1
  Sm3+  Sm63  1  0.75703755  0.11282594  0.56115468  1
  Bi2+  Bi64  1  0.00288205  0.12926840  0.27136145  1
  Bi2+  Bi65  1  -0.01866994  0.15748200  0.77427663  1
  Bi2+  Bi66  1  0.03167345  0.40412075  0.29651477  1
  Bi2+  Bi67  1  -0.04468717  0.38431731  0.79316497  1
  Bi2+  Bi68  1  0.01333518  0.61349306  0.35236384  1
  Bi2+  Bi69  1  0.06686816  0.72228879  0.80200760  1
  Bi2+  Bi70  1  -0.00116036  0.79472857  0.28840388  1
  Bi2+  Bi71  1  -0.00945633  0.89902685  0.81729321  1
  Bi2+  Bi72  1  0.27275193  0.05668278  0.30084268  1
  Bi2+  Bi73  1  0.27304461  0.13411502  0.78534411  1
  Bi2+  Bi74  1  0.27843937  0.32702393  0.28198716  1
  Bi2+  Bi75  1  0.21111818  0.39163508  0.81128080  1
  Bi2+  Bi76  1  0.19877606  0.66685254  0.30917387  1
  Bi2+  Bi77  1  0.30151233  0.61922993  0.76820796  1
  Bi2+  Bi78  1  0.30274916  0.87461782  0.25528078  1
  Bi2+  Bi79  1  0.28081239  0.86232818  0.78772074  1
  Bi2+  Bi80  1  0.47456013  0.07395636  0.31549912  1
  Bi2+  Bi81  1  0.46876945  0.11716551  0.75728675  1
  Bi2+  Bi82  1  0.53367842  0.25994671  0.31542713  1
  Bi2+  Bi83  1  0.46747826  0.44574444  0.77813090  1
  Bi2+  Bi84  1  0.64136709  0.63616624  0.31008594  1
  Bi2+  Bi85  1  0.48460688  0.69888961  0.78185805  1
  Bi2+  Bi86  1  0.48894019  0.88019037  0.28848383  1
  Bi2+  Bi87  1  0.55829551  0.88094352  0.80091680  1
  Bi2+  Bi88  1  0.75497289  0.09197940  0.28357915  1
  Bi2+  Bi89  1  0.73547179  0.08522722  0.79222706  1
  Bi2+  Bi90  1  0.66207675  0.42006863  0.29833374  1
  Bi2+  Bi91  1  0.71832657  0.34242707  0.79016613  1
  Bi2+  Bi92  1  0.83335583  0.63831270  0.30865976  1
  Bi2+  Bi93  1  0.76894898  0.69588259  0.78781530  1
  Bi2+  Bi94  1  0.74395883  0.83034795  0.30094994  1
  Bi2+  Bi95  1  0.83075443  0.92687127  0.75283073  1
  Bi2+  Bi96  1  0.11954804  -0.00944998  0.19117908  1
  Bi2+  Bi97  1  0.12083862  0.01517623  0.76086130  1
  Bi2+  Bi98  1  0.12319036  0.26069236  0.18565322  1
  Bi2+  Bi99  1  0.12537530  0.23805661  0.70299049  1
  Bi2+  Bi100  1  0.07156119  0.56961984  0.23818466  1
  Bi2+  Bi101  1  0.11373637  0.50247722  0.69984969  1
  Bi2+  Bi102  1  0.21128502  0.73065860  0.19491452  1
  Bi2+  Bi103  1  0.10174132  0.83408244  0.70921667  1
  Bi2+  Bi104  1  0.38765402  0.12317085  0.21393531  1
  Bi2+  Bi105  1  0.37572974  -0.04582881  0.70399498  1
  Bi2+  Bi106  1  0.44309815  0.31248500  0.20920350  1
  Bi2+  Bi107  1  0.34432752  0.36120490  0.70486405  1
  Bi2+  Bi108  1  0.50252684  0.49881176  0.24463911  1
  Bi2+  Bi109  1  0.42573634  0.62580302  0.68113695  1
  Bi2+  Bi110  1  0.39085861  0.66817549  0.23829157  1
  Bi2+  Bi111  1  0.27783814  0.75373799  0.68118350  1
  Bi2+  Bi112  1  0.59370468  0.00648432  0.20442005  1
  Bi2+  Bi113  1  0.59883799  0.00951281  0.68327440  1
  Bi2+  Bi114  1  0.63906563  0.27509150  0.21255206  1
  Bi2+  Bi115  1  0.55568405  0.28327035  0.73436654  1
  Bi2+  Bi116  1  0.70763263  0.47032555  0.18812275  1
  Bi2+  Bi117  1  0.63010652  0.55824798  0.78895581  1
  Bi2+  Bi118  1  0.60597707  0.73854379  0.21307502  1
  Bi2+  Bi119  1  0.63580919  0.74643133  0.69029023  1
  Bi2+  Bi120  1  0.88306707  -0.06274831  0.21696585  1
  Bi2+  Bi121  1  0.86321079  0.09373336  0.69243887  1
  Bi2+  Bi122  1  0.88076498  0.35896994  0.20657783  1
  Bi2+  Bi123  1  0.85798811  0.29128500  0.71140103  1
  Bi2+  Bi124  1  0.88380851  0.56016711  0.19719786  1
  Bi2+  Bi125  1  0.78664939  0.53501071  0.71458966  1
  Bi2+  Bi126  1  0.83491767  0.75148465  0.20441341  1
  Bi2+  Bi127  1  0.92083553  0.71401458  0.70882913  1
  S2-  S128  1  0.00865428  0.12594653  0.16096751  1
  S2-  S129  1  0.08834012  0.11894407  0.64063014  1
  S2-  S130  1  0.03415959  0.38284500  0.14952306  1
  S2-  S131  1  0.05902611  0.36651086  0.64829511  1
  S2-  S132  1  0.09587759  0.63137316  0.13968793  1
  S2-  S133  1  -0.05041080  0.55215002  0.67238856  1
  S2-  S134  1  0.02552324  0.87248678  0.16045859  1
  S2-  S135  1  -0.04057832  0.85848644  0.65336646  1
  S2-  S136  1  0.23085442  0.12618967  0.16538557  1
  S2-  S137  1  0.26870046  0.24364483  0.64492006  1
  S2-  S138  1  0.24817744  0.36122632  0.17172930  1
  S2-  S139  1  0.26097940  0.47437215  0.64553577  1
  S2-  S140  1  0.32141262  0.60225288  0.15657698  1
  S2-  S141  1  0.13894665  0.63424009  0.64768786  1
  S2-  S142  1  0.24809762  0.89798486  0.15230274  1
  S2-  S143  1  0.25141911  0.96946645  0.64050820  1
  S2-  S144  1  0.59459590  0.14816882  0.14970454  1
  S2-  S145  1  0.45266182  0.10238973  0.64983329  1
  S2-  S146  1  0.48446831  0.45210959  0.14623043  1
  S2-  S147  1  0.49999930  0.36881387  0.65284300  1
  S2-  S148  1  0.46136992  0.75537306  0.15826015  1
  S2-  S149  1  0.60748284  0.60506880  0.63876535  1
  S2-  S150  1  0.45493110  1.00068681  0.14755148  1
  S2-  S151  1  0.50601134  0.85976021  0.65642239  1
  S2-  S152  1  0.77386513  0.03772909  0.17731605  1
  S2-  S153  1  0.70010202  0.13063084  0.65604637  1
  S2-  S154  1  0.77390617  0.26855152  0.14512175  1
  S2-  S155  1  0.75454171  0.40543473  0.65706676  1
  S2-  S156  1  0.64353786  0.61469998  0.14190222  1
  S2-  S157  1  0.78503107  0.71655751  0.64416731  1
  S2-  S158  1  0.63437306  0.86939401  0.15148005  1
  S2-  S159  1  0.72123422  0.90325227  0.67059961  1
  S2-  S160  1  0.11147728  0.03087530  0.32315184  1
  S2-  S161  1  0.21063952  0.00227343  0.85236335  1
  S2-  S162  1  0.03851619  0.24416765  0.33856730  1
  S2-  S163  1  0.20835811  0.24425669  0.85700019  1
  S2-  S164  1  0.17625665  0.42489967  0.34392021  1
  S2-  S165  1  0.06031172  0.48358786  0.83282603  1
  S2-  S166  1  0.12555506  0.82362775  0.34773475  1
  S2-  S167  1  0.22320722  0.74781190  0.85677800  1
  S2-  S168  1  0.35538244  -0.11825254  0.35606456  1
  S2-  S169  1  0.40010514  0.12731492  0.85290982  1
  S2-  S170  1  0.25937830  0.20921995  0.35279581  1
  S2-  S171  1  0.37072054  0.37691630  0.85246241  1
  S2-  S172  1  0.38892363  0.35650950  0.35062308  1
  S2-  S173  1  0.24910956  0.53319891  0.85582935  1
  S2-  S174  1  0.34119332  0.62039293  0.35012750  1
  S2-  S175  1  0.40433866  0.86927454  0.85679063  1
  S2-  S176  1  0.68035911  -0.02865530  0.34342434  1
  S2-  S177  1  0.60990548  0.02411937  0.84782588  1
  S2-  S178  1  0.70656784  0.21189928  0.34936410  1
  S2-  S179  1  0.74440307  0.21501895  0.85759601  1
  S2-  S180  1  0.53203122  0.50665443  0.35192807  1
  S2-  S181  1  0.59471083  0.36346699  0.85613375  1
  S2-  S182  1  0.52548560  0.74997596  0.35157205  1
  S2-  S183  1  0.66449612  0.79643904  0.85278802  1
  S2-  S184  1  0.88585695  0.07517502  0.34372508  1
  S2-  S185  1  0.85070839  -0.00766414  0.85462110  1
  S2-  S186  1  0.86374589  0.23051110  0.26751351  1
  S2-  S187  1  0.98930745  0.24670850  0.85979570  1
  S2-  S188  1  0.88119684  0.41337573  0.34806483  1
  S2-  S189  1  0.82607325  0.45029334  0.85063955  1
  S2-  S190  1  0.88557076  0.85924678  0.35642656  1
  S2-  S191  1  0.90747420  0.70544430  0.85093889  1
  S2-  S192  1  0.00788134  0.11110224  0.44665976  1
  S2-  S193  1  -0.01204606  0.11236271  0.95549862  1
  S2-  S194  1  0.00391827  0.36221817  0.44971690  1
  S2-  S195  1  -0.01065435  0.37777012  0.95253961  1
  S2-  S196  1  0.00559125  0.61308991  0.46503426  1
  S2-  S197  1  -0.01056797  0.61833390  0.95574640  1
  S2-  S198  1  0.00763793  0.86414471  0.45321436  1
  S2-  S199  1  -0.01332532  0.87007573  0.95407541  1
  S2-  S200  1  0.25709088  0.10679705  0.45688320  1
  S2-  S201  1  0.23398415  0.11967001  0.95705157  1
  S2-  S202  1  0.26091948  0.36604401  0.45702629  1
  S2-  S203  1  0.23447139  0.36990414  0.96036188  1
  S2-  S204  1  0.25740029  0.61267794  0.46053979  1
  S2-  S205  1  0.23819288  0.62644532  0.96028303  1
  S2-  S206  1  0.25705173  0.86203209  0.45696327  1
  S2-  S207  1  0.23407004  0.87175079  0.95289614  1
  S2-  S208  1  0.50857254  0.11516835  0.45045703  1
  S2-  S209  1  0.48701484  0.12060588  0.95970990  1
  S2-  S210  1  0.51193727  0.36203281  0.45122635  1
  S2-  S211  1  0.48013523  0.36786858  0.95585802  1
  S2-  S212  1  0.50999036  0.61629976  0.45500886  1
  S2-  S213  1  0.48317450  0.62385929  0.93013943  1
  S2-  S214  1  0.51001906  0.87054010  0.45307038  1
  S2-  S215  1  0.48897210  0.86854897  0.96242646  1
  S2-  S216  1  0.76284039  0.11589218  0.45769170  1
  S2-  S217  1  0.73630720  0.11643555  0.96643160  1
  S2-  S218  1  0.75855956  0.36252599  0.45046742  1
  S2-  S219  1  0.73710568  0.37133443  0.95884651  1
  S2-  S220  1  0.75755436  0.61264016  0.45241191  1
  S2-  S221  1  0.73269132  0.62024560  0.94764459  1
  S2-  S222  1  0.75824579  0.86411087  0.46068668  1
  S2-  S223  1  0.73643667  0.86704468  0.96306279  1
  S2-  S224  1  0.11132217  -0.00655635  0.04284750  1
  S2-  S225  1  0.12858337  -0.01378227  0.53610403  1
  S2-  S226  1  0.11249083  0.24503913  0.04725002  1
  S2-  S227  1  0.12916016  0.23960429  0.53623076  1
  S2-  S228  1  0.11166808  0.49438560  0.04090020  1
  S2-  S229  1  0.12728622  0.48875362  0.54419523  1
  S2-  S230  1  0.11068651  0.74861563  0.04004898  1
  S2-  S231  1  0.13261625  0.74276870  0.54628388  1
  S2-  S232  1  0.35981225  -0.00732692  0.03951063  1
  S2-  S233  1  0.38429644  -0.01277894  0.54155647  1
  S2-  S234  1  0.36238836  0.24782486  0.05578571  1
  S2-  S235  1  0.38208398  0.23537844  0.53948666  1
  S2-  S236  1  0.36197292  0.49638770  0.04346631  1
  S2-  S237  1  0.38452189  0.48920118  0.54082559  1
  S2-  S238  1  0.36264643  0.74243251  0.04233719  1
  S2-  S239  1  0.38339245  0.74015390  0.54458188  1
  S2-  S240  1  0.61644287  -0.00491022  0.05138834  1
  S2-  S241  1  0.63301989  -0.01295291  0.54850144  1
  S2-  S242  1  0.60880936  0.25073293  0.04331173  1
  S2-  S243  1  0.63153917  0.23708708  0.54688933  1
  S2-  S244  1  0.60477845  0.49551953  0.03644513  1
  S2-  S245  1  0.62945545  0.48350608  0.53828627  1
  S2-  S246  1  0.60755505  0.74227062  0.04514762  1
  S2-  S247  1  0.62999011  0.74196936  0.54088450  1
  S2-  S248  1  0.86212982  -0.00512571  0.05813642  1
  S2-  S249  1  0.88005401  -0.01068095  0.54672743  1
  S2-  S250  1  0.86625005  0.24471461  0.04139417  1
  S2-  S251  1  0.87989135  0.23557031  0.55885534  1
  S2-  S252  1  0.86008717  0.49632023  0.05006725  1
  S2-  S253  1  0.87879953  0.48951983  0.54697269  1
  S2-  S254  1  0.86131549  0.74117953  0.05155133  1
  S2-  S255  1  0.88564368  0.73556672  0.54124337  1
