# generated using pymatgen
data_La9Ce10Pr6Nd4Sm3(BiS2)32
_symmetry_space_group_name_H-M   'P 1'
_cell_length_a   16.15386088
_cell_length_b   16.18149165
_cell_length_c   27.21345527
_cell_angle_alpha   89.75687242
_cell_angle_beta   90.33350888
_cell_angle_gamma   90.06859714
_symmetry_Int_Tables_number   1
_chemical_formula_structural   La9Ce10Pr6Nd4Sm3(BiS2)32
_chemical_formula_sum   'La18 Ce20 Pr12 Nd8 Sm6 Bi64 S128'
_cell_volume   7113.23264893
_cell_formula_units_Z   2
loop_
 _symmetry_equiv_pos_site_id
 _symmetry_equiv_pos_as_xyz
  1  'x, y, z'
loop_
 _atom_type_symbol
 _atom_type_oxidation_number
  La3+  3.0
  Ce3+  3.0
  Pr3+  3.0
  Nd3+  3.0
  Sm3+  3.0
  Bi2+  2.0
  S2-  -2.0
loop_
 _atom_site_type_symbol
 _atom_site_label
 _atom_site_symmetry_multiplicity
 _atom_site_fract_x
 _atom_site_fract_y
 _atom_site_fract_z
 _atom_site_occupancy
  La3+  La0  1  0.12307898  0.48288680  0.92254113  1
  La3+  La1  1  0.74988582  0.36464657  0.06247536  1
  La3+  La2  1  0.86288876  0.75659330  0.41782854  1
  La3+  La3  1  0.00515841  0.35146270  0.06233283  1
  La3+  La4  1  -0.00996191  0.13062379  0.55522646  1
  La3+  La5  1  -0.00985077  0.87717205  0.56750253  1
  La3+  La6  1  0.61907498  0.25489608  0.43240743  1
  La3+  La7  1  0.36680902  0.00004584  0.42643526  1
  La3+  La8  1  0.61718589  0.50038455  0.43812881  1
  La3+  La9  1  0.36656777  0.25047788  0.38817205  1
  La3+  La10  1  0.24693852  0.12848286  0.55848290  1
  La3+  La11  1  0.62313347  0.22811901  0.93529577  1
  La3+  La12  1  0.10909450  0.74039033  0.90818124  1
  La3+  La13  1  0.73787309  0.87892542  0.59315252  1
  La3+  La14  1  0.25747186  0.63935052  0.58619730  1
  La3+  La15  1  0.74248703  0.63997883  0.12117294  1
  La3+  La16  1  0.61805711  0.75601107  0.43339133  1
  La3+  La17  1  0.25203262  0.35715357  0.05490358  1
  Ce3+  Ce18  1  0.74071534  0.37339401  0.57004356  1
  Ce3+  Ce19  1  0.50127630  0.85947422  0.05683327  1
  Ce3+  Ce20  1  0.86713512  0.26039803  0.42997989  1
  Ce3+  Ce21  1  0.49167932  0.37673758  0.56066692  1
  Ce3+  Ce22  1  0.11666468  0.00152598  0.43672045  1
  Ce3+  Ce23  1  0.24200253  0.60852939  0.05505791  1
  Ce3+  Ce24  1  0.75014683  0.86168465  0.06425018  1
  Ce3+  Ce25  1  0.74827380  0.11354467  0.07019170  1
  Ce3+  Ce26  1  0.50400444  0.60343920  0.05659659  1
  Ce3+  Ce27  1  0.00332024  0.10924526  0.06231546  1
  Ce3+  Ce28  1  -0.00737588  0.63154275  0.56427093  1
  Ce3+  Ce29  1  0.23802217  0.87932121  0.56499756  1
  Ce3+  Ce30  1  0.61926333  0.00648807  0.43886282  1
  Ce3+  Ce31  1  0.12094989  0.50693526  0.45589939  1
  Ce3+  Ce32  1  0.25044339  0.10434179  0.05359292  1
  Ce3+  Ce33  1  0.87565871  -0.01854864  0.95348889  1
  Ce3+  Ce34  1  0.36137297  0.75578396  0.43376581  1
  Ce3+  Ce35  1  0.62553997  0.73107693  0.94435814  1
  Ce3+  Ce36  1  0.36063977  0.50120985  0.44185315  1
  Ce3+  Ce37  1  0.37073496  0.73322571  0.94311339  1
  Pr3+  Pr38  1  0.25355929  0.37704258  0.57865038  1
  Pr3+  Pr39  1  0.12245768  0.25860263  0.43825636  1
  Pr3+  Pr40  1  0.24936710  0.85636887  0.05828160  1
  Pr3+  Pr41  1  0.86753426  0.00391458  0.43401904  1
  Pr3+  Pr42  1  0.49889814  0.35622187  0.05727593  1
  Pr3+  Pr43  1  0.87498324  0.48374580  0.93334487  1
  Pr3+  Pr44  1  -0.00384695  0.38025669  0.56292914  1
  Pr3+  Pr45  1  0.00022498  0.59896395  0.07087427  1
  Pr3+  Pr46  1  0.62611249  0.47925907  0.92354673  1
  Pr3+  Pr47  1  0.74142483  0.63000266  0.56642754  1
  Pr3+  Pr48  1  0.37370968  0.23027335  0.93055396  1
  Pr3+  Pr49  1  0.00088486  0.85546800  0.07298447  1
  Nd3+  Nd50  1  0.49430966  0.63072846  0.55061354  1
  Nd3+  Nd51  1  0.74261099  0.13246451  0.56339936  1
  Nd3+  Nd52  1  0.12226949  0.23243393  0.92867328  1
  Nd3+  Nd53  1  0.62746785  -0.02059991  0.93506119  1
  Nd3+  Nd54  1  0.37397369  0.48089326  0.91852678  1
  Nd3+  Nd55  1  0.37316228  -0.01617114  0.92803539  1
  Nd3+  Nd56  1  0.11619665  0.75240022  0.44322075  1
  Nd3+  Nd57  1  0.49882750  0.09986114  0.06699232  1
  Sm3+  Sm58  1  0.49414254  0.87962418  0.55771135  1
  Sm3+  Sm59  1  0.86881094  0.50451985  0.45124291  1
  Sm3+  Sm60  1  0.11997074  -0.01873222  0.93978651  1
  Sm3+  Sm61  1  0.87524558  0.72927948  0.95183767  1
  Sm3+  Sm62  1  0.49260272  0.12766924  0.55091218  1
  Sm3+  Sm63  1  0.87415901  0.22994909  0.94125258  1
  Bi2+  Bi64  1  -0.07468632  0.12052808  0.31938661  1
  Bi2+  Bi65  1  0.06121360  0.13040441  0.81412461  1
  Bi2+  Bi66  1  0.03424281  0.28018364  0.30702942  1
  Bi2+  Bi67  1  -0.01728969  0.38366906  0.79368040  1
  Bi2+  Bi68  1  -0.01046074  0.53764604  0.30493073  1
  Bi2+  Bi69  1  -0.01514567  0.65215733  0.78701974  1
  Bi2+  Bi70  1  0.02058294  0.92622218  0.29671045  1
  Bi2+  Bi71  1  0.00015906  0.95325126  0.78938534  1
  Bi2+  Bi72  1  0.24156005  0.05588793  0.25920881  1
  Bi2+  Bi73  1  0.24918596  0.14117073  0.79231360  1
  Bi2+  Bi74  1  0.22908942  0.41045658  0.29385333  1
  Bi2+  Bi75  1  0.24805426  0.37366636  0.78290698  1
  Bi2+  Bi76  1  0.29212551  0.63074697  0.32897026  1
  Bi2+  Bi77  1  0.29713320  0.62362597  0.78086371  1
  Bi2+  Bi78  1  0.23634834  0.81098548  0.29078618  1
  Bi2+  Bi79  1  0.26704101  0.94356885  0.79932207  1
  Bi2+  Bi80  1  0.48214833  0.12042721  0.27975787  1
  Bi2+  Bi81  1  0.52549960  0.16944811  0.79965137  1
  Bi2+  Bi82  1  0.49621657  0.38310748  0.28528411  1
  Bi2+  Bi83  1  0.49573331  0.39647424  0.78431026  1
  Bi2+  Bi84  1  0.46924729  0.67247673  0.28120138  1
  Bi2+  Bi85  1  0.56862346  0.65720075  0.79687184  1
  Bi2+  Bi86  1  0.50697375  0.86427765  0.29475139  1
  Bi2+  Bi87  1  0.51227335  0.95764736  0.80117919  1
  Bi2+  Bi88  1  0.72891700  0.10028800  0.30442950  1
  Bi2+  Bi89  1  0.76835225  0.07855872  0.78963960  1
  Bi2+  Bi90  1  0.76351940  0.34189126  0.27010347  1
  Bi2+  Bi91  1  0.72109677  0.38226867  0.77560559  1
  Bi2+  Bi92  1  0.75350908  0.59059487  0.32232940  1
  Bi2+  Bi93  1  0.75886209  0.61615278  0.78227134  1
  Bi2+  Bi94  1  0.76180719  0.91681103  0.27367224  1
  Bi2+  Bi95  1  0.70373352  0.89112808  0.78155447  1
  Bi2+  Bi96  1  0.07955574  -0.01638712  0.19016341  1
  Bi2+  Bi97  1  0.19090474  0.02565735  0.70236058  1
  Bi2+  Bi98  1  0.12498851  0.18874793  0.21631190  1
  Bi2+  Bi99  1  0.10013417  0.25245609  0.69299861  1
  Bi2+  Bi100  1  0.11537089  0.46450868  0.20679142  1
  Bi2+  Bi101  1  0.09366821  0.51343170  0.69640848  1
  Bi2+  Bi102  1  0.16043815  0.65389234  0.23568826  1
  Bi2+  Bi103  1  0.14787630  0.77096925  0.70434229  1
  Bi2+  Bi104  1  0.36143009  -0.07156835  0.20719413  1
  Bi2+  Bi105  1  0.38509051  -0.01341278  0.70747031  1
  Bi2+  Bi106  1  0.36293129  0.26843893  0.17495575  1
  Bi2+  Bi107  1  0.44132409  0.25162048  0.71056574  1
  Bi2+  Bi108  1  0.34909958  0.53529598  0.23147811  1
  Bi2+  Bi109  1  0.49899794  0.52554786  0.69781094  1
  Bi2+  Bi110  1  0.34168258  0.71955068  0.18978971  1
  Bi2+  Bi111  1  0.40983228  0.80617894  0.75495559  1
  Bi2+  Bi112  1  0.69233934  0.03627436  0.19342446  1
  Bi2+  Bi113  1  0.60470633  0.03213454  0.70633640  1
  Bi2+  Bi114  1  0.64127683  0.22812689  0.21137898  1
  Bi2+  Bi115  1  0.62487968  0.31109355  0.68260488  1
  Bi2+  Bi116  1  0.60664837  0.48451507  0.20729639  1
  Bi2+  Bi117  1  0.69157675  0.50361846  0.67686535  1
  Bi2+  Bi118  1  0.52150657  0.80717823  0.18851043  1
  Bi2+  Bi119  1  0.57226989  0.73841902  0.69460159  1
  Bi2+  Bi120  1  0.88895048  0.02955457  0.20883674  1
  Bi2+  Bi121  1  0.88963160  0.01547534  0.70402380  1
  Bi2+  Bi122  1  0.90498568  0.23591036  0.22106440  1
  Bi2+  Bi123  1  0.90290003  0.20799338  0.75769749  1
  Bi2+  Bi124  1  0.86722552  0.48348349  0.21510793  1
  Bi2+  Bi125  1  0.87663646  0.49518840  0.71671932  1
  Bi2+  Bi126  1  0.88125513  0.74445249  0.22401663  1
  Bi2+  Bi127  1  0.83196541  0.77506884  0.73193044  1
  S2-  S128  1  0.01677721  0.21620602  0.13934584  1
  S2-  S129  1  0.00006301  0.13290709  0.65559340  1
  S2-  S130  1  -0.02416875  0.43443739  0.14984872  1
  S2-  S131  1  -0.01770734  0.37922832  0.66371920  1
  S2-  S132  1  -0.09060969  0.62517123  0.15953244  1
  S2-  S133  1  0.02396683  0.66470745  0.66004122  1
  S2-  S134  1  -0.00471511  0.82513120  0.17498323  1
  S2-  S135  1  0.11127288  0.89707731  0.64584157  1
  S2-  S136  1  0.25976721  0.12922135  0.15101515  1
  S2-  S137  1  0.23151149  0.17946054  0.65510172  1
  S2-  S138  1  0.21050104  0.36133021  0.15336979  1
  S2-  S139  1  0.20395249  0.38885891  0.67898244  1
  S2-  S140  1  0.14457348  0.60206808  0.13836425  1
  S2-  S141  1  0.23162639  0.59431648  0.68604922  1
  S2-  S142  1  0.21698935  0.88758750  0.15619892  1
  S2-  S143  1  0.27468440  0.78857656  0.64661372  1
  S2-  S144  1  0.49315760  0.17350181  0.15908468  1
  S2-  S145  1  0.47361687  0.11189682  0.64963915  1
  S2-  S146  1  0.48424352  0.39328970  0.15685967  1
  S2-  S147  1  0.40702286  0.38920468  0.64620505  1
  S2-  S148  1  0.56855629  0.61082675  0.14876096  1
  S2-  S149  1  0.43609783  0.65029965  0.64339506  1
  S2-  S150  1  0.49140581  0.96020800  0.13656822  1
  S2-  S151  1  0.57752711  0.88528733  0.64543767  1
  S2-  S152  1  0.75352967  0.23889280  0.14052236  1
  S2-  S153  1  0.74276737  0.03252102  0.64725976  1
  S2-  S154  1  0.73462717  0.46593384  0.14581483  1
  S2-  S155  1  0.76446044  0.25324479  0.63891192  1
  S2-  S156  1  0.73649861  0.63234805  0.23096414  1
  S2-  S157  1  0.73209890  0.72538399  0.65157270  1
  S2-  S158  1  0.75911027  0.80743032  0.15756230  1
  S2-  S159  1  0.88843070  0.87082140  0.65134515  1
  S2-  S160  1  0.13993664  0.02275912  0.33942249  1
  S2-  S161  1  0.12001121  -0.10414168  0.85436893  1
  S2-  S162  1  0.20189752  0.26987753  0.34880403  1
  S2-  S163  1  0.12394337  0.34061340  0.84741952  1
  S2-  S164  1  0.14331792  0.52245820  0.35859975  1
  S2-  S165  1  0.24836359  0.51222252  0.84519998  1
  S2-  S166  1  0.09712077  0.79159653  0.34514847  1
  S2-  S167  1  0.14364275  0.69661225  0.80729191  1
  S2-  S168  1  0.35815730  0.09270213  0.33881641  1
  S2-  S169  1  0.39005399  0.11108079  0.85489140  1
  S2-  S170  1  0.37610425  0.25801565  0.26997003  1
  S2-  S171  1  0.36304173  0.34091803  0.84861534  1
  S2-  S172  1  0.37433232  0.42043846  0.35461103  1
  S2-  S173  1  0.50310670  0.52222872  0.85115569  1
  S2-  S174  1  0.36540631  0.86503754  0.35563298  1
  S2-  S175  1  0.36005740  0.74201205  0.84557059  1
  S2-  S176  1  0.56896134  0.00689717  0.34297754  1
  S2-  S177  1  0.64278369  0.10126269  0.86217249  1
  S2-  S178  1  0.52888632  0.24842003  0.34381067  1
  S2-  S179  1  0.61731505  0.32704101  0.84950334  1
  S2-  S180  1  0.61355979  0.48007608  0.33743747  1
  S2-  S181  1  0.75709006  0.49008693  0.85171286  1
  S2-  S182  1  0.71067557  0.74015275  0.35012249  1
  S2-  S183  1  0.63190928  0.79472428  0.85290270  1
  S2-  S184  1  0.87590674  -0.10199220  0.35105377  1
  S2-  S185  1  0.86788369  -0.01871863  0.85523902  1
  S2-  S186  1  0.74770722  0.25955521  0.35741442  1
  S2-  S187  1  0.86485421  0.27979641  0.84629478  1
  S2-  S188  1  0.86596282  0.45717489  0.35597624  1
  S2-  S189  1  0.99037587  0.51196553  0.85391209  1
  S2-  S190  1  0.91016968  0.67546740  0.32674916  1
  S2-  S191  1  0.94296091  0.74540729  0.85990145  1
  S2-  S192  1  -0.00581953  0.13245572  0.44768568  1
  S2-  S193  1  -0.00040518  0.10702111  0.95394832  1
  S2-  S194  1  -0.00480088  0.38234434  0.45550011  1
  S2-  S195  1  -0.00217245  0.35083860  0.95261128  1
  S2-  S196  1  -0.00957518  0.62892521  0.45640359  1
  S2-  S197  1  0.00277543  0.61498248  0.95999258  1
  S2-  S198  1  -0.00687545  0.87752395  0.45682339  1
  S2-  S199  1  -0.00118386  0.85926053  0.96424031  1
  S2-  S200  1  0.24361108  0.12904282  0.45021641  1
  S2-  S201  1  0.24338575  0.10329367  0.94683988  1
  S2-  S202  1  0.24119849  0.38188199  0.46542476  1
  S2-  S203  1  0.24977385  0.35624342  0.94963150  1
  S2-  S204  1  0.24320143  0.63237193  0.46405649  1
  S2-  S205  1  0.24236542  0.61760168  0.94957504  1
  S2-  S206  1  0.23774417  0.87819113  0.45627243  1
  S2-  S207  1  0.24724456  0.85971135  0.95106982  1
  S2-  S208  1  0.48886002  0.12920240  0.44817337  1
  S2-  S209  1  0.49909450  0.09975161  0.95850652  1
  S2-  S210  1  0.49038416  0.37767587  0.45471305  1
  S2-  S211  1  0.49391734  0.35727992  0.95097860  1
  S2-  S212  1  0.48970947  0.62886602  0.44334283  1
  S2-  S213  1  0.49568165  0.61327544  0.95333477  1
  S2-  S214  1  0.49533237  0.87974548  0.45376945  1
  S2-  S215  1  0.49719400  0.86079954  0.95032803  1
  S2-  S216  1  0.74541380  0.12787289  0.45524688  1
  S2-  S217  1  0.75428048  0.10552741  0.96296126  1
  S2-  S218  1  0.74472575  0.38224660  0.46173640  1
  S2-  S219  1  0.75197739  0.35113241  0.95480341  1
  S2-  S220  1  0.74456503  0.62557397  0.45763614  1
  S2-  S221  1  0.74971714  0.61373787  0.94738285  1
  S2-  S222  1  0.74028265  0.88193215  0.44963321  1
  S2-  S223  1  0.75202400  0.85662508  0.95719699  1
  S2-  S224  1  0.12334788  -0.01778284  0.04502107  1
  S2-  S225  1  0.11655064  0.00790148  0.54227797  1
  S2-  S226  1  0.13051962  0.22771326  0.03521151  1
  S2-  S227  1  0.12041842  0.25741520  0.54706272  1
  S2-  S228  1  0.12682960  0.47933694  0.03569264  1
  S2-  S229  1  0.12412645  0.50712570  0.56137695  1
  S2-  S230  1  0.12248468  0.73699043  0.04834857  1
  S2-  S231  1  0.11979010  0.74933879  0.54881012  1
  S2-  S232  1  0.37121963  -0.01879942  0.03600671  1
  S2-  S233  1  0.37017361  0.00007476  0.54368918  1
  S2-  S234  1  0.37573769  0.22736895  0.03978251  1
  S2-  S235  1  0.37159989  0.25047844  0.55046561  1
  S2-  S236  1  0.37241381  0.48711333  0.04360927  1
  S2-  S237  1  0.36762767  0.50819382  0.54697723  1
  S2-  S238  1  0.37609634  0.73221902  0.04966064  1
  S2-  S239  1  0.37300734  0.75955363  0.53831944  1
  S2-  S240  1  0.62911107  -0.01677357  0.04208422  1
  S2-  S241  1  0.61683701  0.00500109  0.54298351  1
  S2-  S242  1  0.61893845  0.22874369  0.04419363  1
  S2-  S243  1  0.61374123  0.25175278  0.54199584  1
  S2-  S244  1  0.61742506  0.47888318  0.03401951  1
  S2-  S245  1  0.61552160  0.50328592  0.54696152  1
  S2-  S246  1  0.62728978  0.73530774  0.04957027  1
  S2-  S247  1  0.61713718  0.75564355  0.54144186  1
  S2-  S248  1  0.87608132  -0.01440387  0.06049359  1
  S2-  S249  1  0.86574198  0.00470130  0.54256178  1
  S2-  S250  1  0.87645459  0.22886208  0.04371605  1
  S2-  S251  1  0.87164371  0.25857957  0.53789038  1
  S2-  S252  1  0.88086744  0.47826442  0.03931105  1
  S2-  S253  1  0.86764243  0.50354852  0.55653040  1
  S2-  S254  1  0.87206131  0.73384099  0.05425337  1
  S2-  S255  1  0.86560519  0.75073198  0.54453922  1
