# generated using pymatgen
data_La9Ce10Pr6Nd4Sm3(BiS2)32
_symmetry_space_group_name_H-M   'P 1'
_cell_length_a   16.16613439
_cell_length_b   16.15790813
_cell_length_c   27.31243303
_cell_angle_alpha   90.30491221
_cell_angle_beta   89.76610798
_cell_angle_gamma   90.16974976
_symmetry_Int_Tables_number   1
_chemical_formula_structural   La9Ce10Pr6Nd4Sm3(BiS2)32
_chemical_formula_sum   'La18 Ce20 Pr12 Nd8 Sm6 Bi64 S128'
_cell_volume   7134.11427867
_cell_formula_units_Z   2
loop_
 _symmetry_equiv_pos_site_id
 _symmetry_equiv_pos_as_xyz
  1  'x, y, z'
loop_
 _atom_type_symbol
 _atom_type_oxidation_number
  La3+  3.0
  Ce3+  3.0
  Pr3+  3.0
  Nd3+  3.0
  Sm3+  3.0
  Bi2+  2.0
  S2-  -2.0
loop_
 _atom_site_type_symbol
 _atom_site_label
 _atom_site_symmetry_multiplicity
 _atom_site_fract_x
 _atom_site_fract_y
 _atom_site_fract_z
 _atom_site_occupancy
  La3+  La0  1  0.75965765  0.63129629  0.57526617  1
  La3+  La1  1  0.62604150  0.51128754  0.92377349  1
  La3+  La2  1  -0.00943552  0.64161104  0.07974638  1
  La3+  La3  1  0.12800227  0.75194298  0.93753774  1
  La3+  La4  1  0.02899673  0.86842873  0.57758606  1
  La3+  La5  1  0.49883662  0.88303041  0.06391824  1
  La3+  La6  1  0.27943065  0.38515904  0.56427544  1
  La3+  La7  1  0.87746848  0.51668912  0.92552329  1
  La3+  La8  1  0.46851099  0.63235197  0.60903621  1
  La3+  La9  1  0.26392815  0.12730766  0.56208499  1
  La3+  La10  1  0.25145021  0.88587030  0.06627232  1
  La3+  La11  1  0.51371599  0.14003963  0.10184323  1
  La3+  La12  1  0.36111473  0.47449021  0.90393660  1
  La3+  La13  1  0.87750311  0.25704688  0.93310339  1
  La3+  La14  1  -0.01389035  0.13035646  0.61888936  1
  La3+  La15  1  0.24485890  0.37636623  0.08756850  1
  La3+  La16  1  0.27845799  0.86192289  0.56187618  1
  La3+  La17  1  0.64519590  0.24331957  0.43332413  1
  Ce3+  Ce18  1  0.77144740  0.36961314  0.55866852  1
  Ce3+  Ce19  1  0.39676136  0.74448620  0.42392451  1
  Ce3+  Ce20  1  0.24983965  0.13421095  0.06320667  1
  Ce3+  Ce21  1  0.75074613  0.38435246  0.05289537  1
  Ce3+  Ce22  1  0.53225644  0.38434848  0.56224647  1
  Ce3+  Ce23  1  0.40208002  0.24948608  0.43678591  1
  Ce3+  Ce24  1  0.00072906  0.13427510  0.05497370  1
  Ce3+  Ce25  1  0.87614119  0.75905339  0.93946536  1
  Ce3+  Ce26  1  0.37706581  0.00868328  0.94875975  1
  Ce3+  Ce27  1  0.51336709  0.12620362  0.56758964  1
  Ce3+  Ce28  1  0.01847886  0.36832107  0.55309538  1
  Ce3+  Ce29  1  0.50183688  0.38295777  0.06813021  1
  Ce3+  Ce30  1  0.12950515  0.00906784  0.94083924  1
  Ce3+  Ce31  1  0.75007686  0.63113602  0.05842253  1
  Ce3+  Ce32  1  0.26718722  0.62101126  0.53246911  1
  Ce3+  Ce33  1  0.62387472  0.00819034  0.94368405  1
  Ce3+  Ce34  1  0.64477324  -0.00531492  0.44170015  1
  Ce3+  Ce35  1  0.89002183  0.49992850  0.44280779  1
  Ce3+  Ce36  1  0.00074568  0.38266250  0.05737696  1
  Ce3+  Ce37  1  0.12574664  0.50595876  0.95004741  1
  Pr3+  Pr38  1  0.37615063  0.75256630  0.94032124  1
  Pr3+  Pr39  1  0.40376052  0.48861390  0.41633204  1
  Pr3+  Pr40  1  0.39478991  -0.00308129  0.43627450  1
  Pr3+  Pr41  1  0.62298061  0.25834140  0.94039344  1
  Pr3+  Pr42  1  0.65233765  0.49927911  0.43277250  1
  Pr3+  Pr43  1  0.02086630  0.62402840  0.55816263  1
  Pr3+  Pr44  1  0.89445404  0.24371846  0.43038342  1
  Pr3+  Pr45  1  0.90420879  -0.00577886  0.44433050  1
  Pr3+  Pr46  1  0.13526850  0.75909498  0.38090572  1
  Pr3+  Pr47  1  0.13965340  0.27005203  0.93347041  1
  Pr3+  Pr48  1  0.25156537  0.62775109  0.06238885  1
  Pr3+  Pr49  1  0.50028892  0.62816781  0.05818364  1
  Nd3+  Nd50  1  0.14775349  -0.00565560  0.44497117  1
  Nd3+  Nd51  1  0.76706485  0.12132436  0.55836148  1
  Nd3+  Nd52  1  0.62407553  0.75796905  0.93610174  1
  Nd3+  Nd53  1  -0.00159130  0.88532492  0.06004140  1
  Nd3+  Nd54  1  0.51773471  0.87000308  0.56042280  1
  Nd3+  Nd55  1  0.14309212  0.49576735  0.42288103  1
  Nd3+  Nd56  1  0.64067189  0.74533904  0.43706793  1
  Nd3+  Nd57  1  0.74584759  0.88475135  0.06091247  1
  Sm3+  Sm58  1  0.87710058  0.00571664  0.94376628  1
  Sm3+  Sm59  1  0.14853528  0.25278416  0.43622462  1
  Sm3+  Sm60  1  0.77006879  0.87248693  0.55287038  1
  Sm3+  Sm61  1  0.37932900  0.25534747  0.95827144  1
  Sm3+  Sm62  1  0.75042891  0.13470837  0.05644676  1
  Sm3+  Sm63  1  0.89912269  0.74675723  0.44077733  1
  Bi2+  Bi64  1  -0.04172584  0.14491142  0.31513400  1
  Bi2+  Bi65  1  -0.00796970  0.10801860  0.81831953  1
  Bi2+  Bi66  1  -0.01140609  0.34340242  0.30964070  1
  Bi2+  Bi67  1  -0.04088555  0.40458771  0.78411438  1
  Bi2+  Bi68  1  -0.02619802  0.53789117  0.30213648  1
  Bi2+  Bi69  1  0.03153706  0.56624930  0.83078956  1
  Bi2+  Bi70  1  -0.01107037  0.89977682  0.29212354  1
  Bi2+  Bi71  1  -0.09009466  0.90036670  0.75084094  1
  Bi2+  Bi72  1  0.15409031  0.13344907  0.30634668  1
  Bi2+  Bi73  1  0.25094744  0.08186984  0.78477648  1
  Bi2+  Bi74  1  0.26922954  0.40083955  0.28541282  1
  Bi2+  Bi75  1  0.24104091  0.32431576  0.79806227  1
  Bi2+  Bi76  1  0.26256592  0.64418631  0.27228274  1
  Bi2+  Bi77  1  0.19576798  0.65705583  0.79491937  1
  Bi2+  Bi78  1  0.25969436  0.89563391  0.28025030  1
  Bi2+  Bi79  1  0.30340635  0.87683161  0.79049051  1
  Bi2+  Bi80  1  0.49644634  0.09710718  0.28674842  1
  Bi2+  Bi81  1  0.45730622  0.14065041  0.78663067  1
  Bi2+  Bi82  1  0.50837872  0.34566992  0.29033666  1
  Bi2+  Bi83  1  0.51625326  0.36121552  0.77039362  1
  Bi2+  Bi84  1  0.57650154  0.61816258  0.29180347  1
  Bi2+  Bi85  1  0.48746119  0.62861871  0.80392997  1
  Bi2+  Bi86  1  0.53222769  0.89066728  0.29199603  1
  Bi2+  Bi87  1  0.52521822  0.87956478  0.78218612  1
  Bi2+  Bi88  1  0.76151140  0.09699724  0.29172426  1
  Bi2+  Bi89  1  0.65489667  0.12670889  0.78572403  1
  Bi2+  Bi90  1  0.75532425  0.37330634  0.29323906  1
  Bi2+  Bi91  1  0.76642268  0.33913958  0.78888054  1
  Bi2+  Bi92  1  0.74993592  0.67684421  0.33140792  1
  Bi2+  Bi93  1  0.76460758  0.61089715  0.78874527  1
  Bi2+  Bi94  1  0.73711026  0.82712371  0.25829268  1
  Bi2+  Bi95  1  0.72989791  0.86431319  0.79614659  1
  Bi2+  Bi96  1  0.08070809  0.00756158  0.20822233  1
  Bi2+  Bi97  1  0.13221829  -0.01052356  0.71044653  1
  Bi2+  Bi98  1  0.11778959  0.24794411  0.21505623  1
  Bi2+  Bi99  1  0.13053943  0.25515192  0.71011286  1
  Bi2+  Bi100  1  0.15256264  0.50114811  0.20400734  1
  Bi2+  Bi101  1  0.07468847  0.52682867  0.72165174  1
  Bi2+  Bi102  1  0.14078073  0.76385543  0.17499226  1
  Bi2+  Bi103  1  0.05371299  0.75314285  0.74002273  1
  Bi2+  Bi104  1  0.26835296  0.00805077  0.18254372  1
  Bi2+  Bi105  1  0.39285301  -0.00528574  0.71355891  1
  Bi2+  Bi106  1  0.30661986  0.17363796  0.24238989  1
  Bi2+  Bi107  1  0.38386472  0.26088072  0.70521909  1
  Bi2+  Bi108  1  0.47284423  0.45940240  0.20139408  1
  Bi2+  Bi109  1  0.33831052  0.50674071  0.70953065  1
  Bi2+  Bi110  1  0.47507661  0.74290173  0.22763440  1
  Bi2+  Bi111  1  0.29468432  0.75597997  0.69708279  1
  Bi2+  Bi112  1  0.63773479  -0.02223815  0.19517123  1
  Bi2+  Bi113  1  0.57834315  -0.00122238  0.66959203  1
  Bi2+  Bi114  1  0.65289998  0.26565206  0.21102783  1
  Bi2+  Bi115  1  0.57449344  0.20571855  0.69286230  1
  Bi2+  Bi116  1  0.66582461  0.49456212  0.21479104  1
  Bi2+  Bi117  1  0.60903192  0.48327796  0.70568580  1
  Bi2+  Bi118  1  0.68779941  0.68218402  0.18432401  1
  Bi2+  Bi119  1  0.63811269  0.81540258  0.70024059  1
  Bi2+  Bi120  1  0.88697212  0.03100776  0.20914298  1
  Bi2+  Bi121  1  0.75961839  0.00827763  0.71137137  1
  Bi2+  Bi122  1  0.87114108  0.22605584  0.21721567  1
  Bi2+  Bi123  1  0.83561812  0.31912083  0.68440313  1
  Bi2+  Bi124  1  0.89944185  0.42231499  0.21718412  1
  Bi2+  Bi125  1  0.87575618  0.51151326  0.69793501  1
  Bi2+  Bi126  1  0.86705872  0.67380394  0.24128712  1
  Bi2+  Bi127  1  0.87018522  0.70735310  0.70863770  1
  S2-  S128  1  0.01059482  0.14591387  0.15259716  1
  S2-  S129  1  0.00179608  0.14852114  0.72678301  1
  S2-  S130  1  0.08468886  0.37347333  0.14368549  1
  S2-  S131  1  0.00634443  0.30838721  0.64509792  1
  S2-  S132  1  0.05144761  0.61213052  0.17471152  1
  S2-  S133  1  0.01504412  0.72306744  0.64369804  1
  S2-  S134  1  -0.00650030  0.80500492  0.14630048  1
  S2-  S135  1  -0.01197435  0.96501290  0.66134689  1
  S2-  S136  1  0.24710622  0.22260779  0.14814815  1
  S2-  S137  1  0.15972626  0.13089804  0.64704244  1
  S2-  S138  1  0.31243232  0.41876617  0.18283353  1
  S2-  S139  1  0.25186459  0.37001352  0.66530097  1
  S2-  S140  1  0.25552497  0.62624907  0.16454792  1
  S2-  S141  1  0.28821115  0.60702678  0.63178735  1
  S2-  S142  1  0.30256349  0.84601357  0.16028061  1
  S2-  S143  1  0.18813700  0.87214594  0.65135054  1
  S2-  S144  1  0.47707751  0.05610999  0.18840786  1
  S2-  S145  1  0.38370048  0.12717587  0.63922906  1
  S2-  S146  1  0.51222624  0.29455873  0.15527498  1
  S2-  S147  1  0.46413282  0.45923308  0.64468336  1
  S2-  S148  1  0.48358371  0.62411726  0.15920615  1
  S2-  S149  1  0.43739840  0.65172978  0.71461218  1
  S2-  S150  1  0.54540264  0.85152401  0.15793102  1
  S2-  S151  1  0.41514033  0.81084620  0.63411892  1
  S2-  S152  1  0.68057121  0.13352368  0.14688057  1
  S2-  S153  1  0.81775216  0.15050223  0.65278934  1
  S2-  S154  1  0.75011289  0.37908948  0.14998060  1
  S2-  S155  1  0.67139649  0.37299179  0.63959796  1
  S2-  S156  1  0.84003440  0.62662976  0.14204380  1
  S2-  S157  1  0.63156708  0.61185338  0.64712489  1
  S2-  S158  1  0.77482038  0.90211362  0.15885140  1
  S2-  S159  1  0.77314997  0.78624223  0.63824699  1
  S2-  S160  1  0.13713198  -0.06955331  0.35077211  1
  S2-  S161  1  0.12265139  0.00887362  0.84259176  1
  S2-  S162  1  0.14819297  0.35868349  0.35549056  1
  S2-  S163  1  0.10169187  0.22950216  0.83709180  1
  S2-  S164  1  0.12151430  0.59341399  0.33814427  1
  S2-  S165  1  0.18418143  0.42160325  0.87275673  1
  S2-  S166  1  0.13484117  0.77432922  0.27136712  1
  S2-  S167  1  0.11564805  0.78787645  0.83974518  1
  S2-  S168  1  0.38636752  -0.01179585  0.33398527  1
  S2-  S169  1  0.36610890  0.01105016  0.85183089  1
  S2-  S170  1  0.36931473  0.33984570  0.35375265  1
  S2-  S171  1  0.35715963  0.30353054  0.86472704  1
  S2-  S172  1  0.35336494  0.54011890  0.31752977  1
  S2-  S173  1  0.33329588  0.54616199  0.81034865  1
  S2-  S174  1  0.30310738  0.76616769  0.33979503  1
  S2-  S175  1  0.41440957  0.77405352  0.84270604  1
  S2-  S176  1  0.62801914  0.01853346  0.34474505  1
  S2-  S177  1  0.62471528  -0.01870208  0.84693805  1
  S2-  S178  1  0.52476053  0.21565377  0.35821521  1
  S2-  S179  1  0.62370339  0.27690933  0.84030160  1
  S2-  S180  1  0.55353728  0.47026012  0.34833294  1
  S2-  S181  1  0.51439184  0.47660160  0.84829023  1
  S2-  S182  1  0.53086994  0.76489379  0.35405068  1
  S2-  S183  1  0.63540474  0.66754294  0.85087031  1
  S2-  S184  1  0.86919022  -0.01412129  0.34482233  1
  S2-  S185  1  0.88355801  -0.02979356  0.84859557  1
  S2-  S186  1  0.76526744  0.23912849  0.35582202  1
  S2-  S187  1  0.85447924  0.22087060  0.83556199  1
  S2-  S188  1  0.78919165  0.50510728  0.36226012  1
  S2-  S189  1  0.75545084  0.48559560  0.85011745  1
  S2-  S190  1  0.96533541  0.77125861  0.35005774  1
  S2-  S191  1  0.88845093  0.66612499  0.85732170  1
  S2-  S192  1  0.02681672  0.12519192  0.44443113  1
  S2-  S193  1  0.00197004  0.13137344  0.94984759  1
  S2-  S194  1  0.01466740  0.37361978  0.44986151  1
  S2-  S195  1  -0.00087513  0.38379499  0.94972304  1
  S2-  S196  1  0.01663269  0.62023801  0.45168067  1
  S2-  S197  1  0.00091137  0.63585218  0.96479199  1
  S2-  S198  1  0.02437262  0.86929164  0.45878537  1
  S2-  S199  1  0.00257325  0.88317640  0.95383118  1
  S2-  S200  1  0.27064438  0.12718845  0.44918201  1
  S2-  S201  1  0.25264188  0.13496477  0.95510180  1
  S2-  S202  1  0.27074419  0.37699015  0.45625208  1
  S2-  S203  1  0.25933772  0.38209731  0.97711897  1
  S2-  S204  1  0.27221170  0.61530649  0.43284213  1
  S2-  S205  1  0.25642000  0.62287231  0.95103607  1
  S2-  S206  1  0.27259228  0.87121788  0.45030787  1
  S2-  S207  1  0.25275156  0.88102595  0.95594809  1
  S2-  S208  1  0.52007213  0.11622031  0.46197635  1
  S2-  S209  1  0.50040925  0.13294107  0.94722881  1
  S2-  S210  1  0.52634830  0.37144023  0.45621218  1
  S2-  S211  1  0.49948892  0.38185833  0.96124163  1
  S2-  S212  1  0.52297588  0.61877483  0.43993199  1
  S2-  S213  1  0.49920868  0.62991589  0.95253448  1
  S2-  S214  1  0.51901065  0.87556808  0.45506975  1
  S2-  S215  1  0.50045384  0.88117413  0.95536446  1
  S2-  S216  1  0.77275967  0.11389603  0.45352616  1
  S2-  S217  1  0.75151964  0.12977302  0.95128003  1
  S2-  S218  1  0.77368854  0.36837059  0.45603604  1
  S2-  S219  1  0.75176874  0.38064355  0.94980715  1
  S2-  S220  1  0.77249416  0.63061549  0.46379985  1
  S2-  S221  1  0.75073047  0.63653686  0.95583676  1
  S2-  S222  1  0.77206837  0.87000073  0.44845433  1
  S2-  S223  1  0.74978614  0.88327461  0.95364687  1
  S2-  S224  1  0.12425661  0.00874165  0.04875362  1
  S2-  S225  1  0.15041912  -0.00766071  0.54705747  1
  S2-  S226  1  0.12247870  0.25532452  0.04057431  1
  S2-  S227  1  0.15239064  0.26020109  0.53929645  1
  S2-  S228  1  0.11997815  0.51198779  0.05297334  1
  S2-  S229  1  0.14044354  0.49672658  0.53943667  1
  S2-  S230  1  0.12847589  0.75735388  0.04606885  1
  S2-  S231  1  0.14923849  0.74240948  0.54492430  1
  S2-  S232  1  0.38138782  0.01563303  0.05515223  1
  S2-  S233  1  0.39417696  -0.00340257  0.54322414  1
  S2-  S234  1  0.38384210  0.25077715  0.05881992  1
  S2-  S235  1  0.40144301  0.25786144  0.54422303  1
  S2-  S236  1  0.37578971  0.50369266  0.06097543  1
  S2-  S237  1  0.40150218  0.50581142  0.53388407  1
  S2-  S238  1  0.37591699  0.75462344  0.04747551  1
  S2-  S239  1  0.39859663  0.73726218  0.52935902  1
  S2-  S240  1  0.62263598  0.01225911  0.04904596  1
  S2-  S241  1  0.64456278  -0.00526970  0.54768560  1
  S2-  S242  1  0.62700936  0.25610979  0.04578958  1
  S2-  S243  1  0.64415865  0.24248146  0.54319986  1
  S2-  S244  1  0.62668051  0.50667011  0.04695024  1
  S2-  S245  1  0.65708743  0.49680640  0.53813113  1
  S2-  S246  1  0.62534914  0.75732234  0.04346505  1
  S2-  S247  1  0.64123183  0.75445707  0.54080232  1
  S2-  S248  1  0.87265493  0.00921619  0.04947130  1
  S2-  S249  1  0.89375561  -0.00255073  0.55091563  1
  S2-  S250  1  0.87457367  0.25670599  0.04457409  1
  S2-  S251  1  0.89561582  0.24092155  0.53979494  1
  S2-  S252  1  0.87633538  0.50541234  0.03992424  1
  S2-  S253  1  0.89354758  0.49896785  0.55104913  1
  S2-  S254  1  0.86944886  0.76496447  0.04399842  1
  S2-  S255  1  0.89528671  0.75067787  0.54263763  1
