# generated using pymatgen
data_La9Ce10Pr6Nd4Sm3(BiS2)32
_symmetry_space_group_name_H-M   'P 1'
_cell_length_a   16.22796478
_cell_length_b   16.24954773
_cell_length_c   27.10246298
_cell_angle_alpha   89.97717947
_cell_angle_beta   90.05619746
_cell_angle_gamma   90.06267002
_symmetry_Int_Tables_number   1
_chemical_formula_structural   La9Ce10Pr6Nd4Sm3(BiS2)32
_chemical_formula_sum   'La18 Ce20 Pr12 Nd8 Sm6 Bi64 S128'
_cell_volume   7146.83229776
_cell_formula_units_Z   2
loop_
 _symmetry_equiv_pos_site_id
 _symmetry_equiv_pos_as_xyz
  1  'x, y, z'
loop_
 _atom_type_symbol
 _atom_type_oxidation_number
  La3+  3.0
  Ce3+  3.0
  Pr3+  3.0
  Nd3+  3.0
  Sm3+  3.0
  Bi2+  2.0
  S2-  -2.0
loop_
 _atom_site_type_symbol
 _atom_site_label
 _atom_site_symmetry_multiplicity
 _atom_site_fract_x
 _atom_site_fract_y
 _atom_site_fract_z
 _atom_site_occupancy
  La3+  La0  1  0.88282488  0.73911384  0.43097081  1
  La3+  La1  1  0.49572217  0.11944055  0.08211750  1
  La3+  La2  1  -0.00960108  0.60890142  0.57945229  1
  La3+  La3  1  -0.00209331  0.87449360  0.05716445  1
  La3+  La4  1  0.86994278  -0.00662095  0.89581447  1
  La3+  La5  1  0.74297021  0.61827675  0.56237657  1
  La3+  La6  1  -0.01216428  0.12206354  0.56952964  1
  La3+  La7  1  0.49872438  0.39091178  0.61520027  1
  La3+  La8  1  0.37346516  0.50911136  0.92222489  1
  La3+  La9  1  0.75128550  0.88474406  0.07322773  1
  La3+  La10  1  0.86796352  -0.00688958  0.39076553  1
  La3+  La11  1  -0.00520168  0.62186239  0.06900088  1
  La3+  La12  1  0.26022424  0.63400623  0.07779803  1
  La3+  La13  1  0.26139302  0.37572381  0.06871181  1
  La3+  La14  1  0.87571119  0.24746949  0.42437113  1
  La3+  La15  1  0.00178458  0.86183527  0.57887474  1
  La3+  La16  1  0.50144005  0.12061901  0.56940162  1
  La3+  La17  1  0.25365853  0.61525350  0.56779659  1
  Ce3+  Ce18  1  0.12226993  0.00025229  0.94052169  1
  Ce3+  Ce19  1  0.12630008  0.74801294  0.93837455  1
  Ce3+  Ce20  1  -0.00524017  0.37180210  0.55862466  1
  Ce3+  Ce21  1  0.12777948  0.25062244  0.94573336  1
  Ce3+  Ce22  1  0.11169198  -0.00634882  0.44494055  1
  Ce3+  Ce23  1  0.63436910  0.00242547  0.94417575  1
  Ce3+  Ce24  1  0.11927301  0.24342976  0.44888617  1
  Ce3+  Ce25  1  0.63450998  0.75099453  0.94788880  1
  Ce3+  Ce26  1  0.25618733  0.12236881  0.05799610  1
  Ce3+  Ce27  1  0.24541405  0.87041088  0.55894921  1
  Ce3+  Ce28  1  0.50174276  0.87725902  0.56221794  1
  Ce3+  Ce29  1  0.62066747  0.24229412  0.44070275  1
  Ce3+  Ce30  1  0.88014314  0.49798315  0.93313415  1
  Ce3+  Ce31  1  0.75345512  0.36895196  0.06129988  1
  Ce3+  Ce32  1  0.87979534  0.24888235  0.94080971  1
  Ce3+  Ce33  1  0.61965241  0.49211046  0.43905916  1
  Ce3+  Ce34  1  0.50380092  0.87804256  0.05927632  1
  Ce3+  Ce35  1  0.13148908  0.50157929  0.94959733  1
  Ce3+  Ce36  1  0.62147441  -0.00606692  0.42974941  1
  Ce3+  Ce37  1  0.49674680  0.37171269  0.05040933  1
  Pr3+  Pr38  1  0.37545673  0.23916896  0.92474483  1
  Pr3+  Pr39  1  0.00263336  0.12425022  0.06333154  1
  Pr3+  Pr40  1  0.75122219  0.61975561  0.06371806  1
  Pr3+  Pr41  1  0.62497012  0.74643209  0.43617591  1
  Pr3+  Pr42  1  0.12358185  0.49563897  0.44261842  1
  Pr3+  Pr43  1  0.37212651  0.74698834  0.44603241  1
  Pr3+  Pr44  1  0.25430510  0.87483036  0.05392483  1
  Pr3+  Pr45  1  0.87800702  0.74250552  0.93186775  1
  Pr3+  Pr46  1  0.36965777  -0.00395509  0.44148578  1
  Pr3+  Pr47  1  0.25470838  0.36609980  0.55974015  1
  Pr3+  Pr48  1  0.38069244  0.75267820  0.93341005  1
  Pr3+  Pr49  1  0.38126184  -0.00311091  0.93206552  1
  Nd3+  Nd50  1  0.75322356  0.87015972  0.55285907  1
  Nd3+  Nd51  1  0.37354621  0.49420949  0.43782144  1
  Nd3+  Nd52  1  0.24556066  0.11884121  0.56109915  1
  Nd3+  Nd53  1  0.50333410  0.62111365  0.05882607  1
  Nd3+  Nd54  1  0.74392021  0.36632742  0.55674286  1
  Nd3+  Nd55  1  0.00877031  0.37414956  0.06378349  1
  Nd3+  Nd56  1  0.49874886  0.62231865  0.55737104  1
  Nd3+  Nd57  1  0.62908387  0.24636428  0.94110405  1
  Sm3+  Sm58  1  0.87207485  0.49538596  0.43430766  1
  Sm3+  Sm59  1  0.12211379  0.74160711  0.45173801  1
  Sm3+  Sm60  1  0.62792427  0.49793223  0.94058509  1
  Sm3+  Sm61  1  0.75566912  0.11521738  0.54709861  1
  Sm3+  Sm62  1  0.37375617  0.24321943  0.44239518  1
  Sm3+  Sm63  1  0.75602033  0.13302766  0.07187799  1
  Bi2+  Bi64  1  0.02738249  0.12279939  0.28683159  1
  Bi2+  Bi65  1  0.01739568  0.12146217  0.79884803  1
  Bi2+  Bi66  1  0.04662586  0.37928307  0.29539938  1
  Bi2+  Bi67  1  -0.08055177  0.35684326  0.82084804  1
  Bi2+  Bi68  1  0.00486796  0.59446250  0.30061399  1
  Bi2+  Bi69  1  0.01426538  0.52279018  0.80514396  1
  Bi2+  Bi70  1  0.00260280  0.85619426  0.28932993  1
  Bi2+  Bi71  1  0.00595073  0.86477796  0.78922521  1
  Bi2+  Bi72  1  0.26890328  0.13553818  0.28838152  1
  Bi2+  Bi73  1  0.23118066  0.13692893  0.78429640  1
  Bi2+  Bi74  1  0.22756602  0.34292111  0.24967134  1
  Bi2+  Bi75  1  0.23471657  0.37548416  0.80486799  1
  Bi2+  Bi76  1  0.27201975  0.60789669  0.29749327  1
  Bi2+  Bi77  1  0.23980783  0.68746052  0.81670169  1
  Bi2+  Bi78  1  0.22985198  0.93990381  0.29328166  1
  Bi2+  Bi79  1  0.26993497  0.87220724  0.78587771  1
  Bi2+  Bi80  1  0.49022630  0.14922142  0.31003820  1
  Bi2+  Bi81  1  0.49217785  0.05904024  0.78849506  1
  Bi2+  Bi82  1  0.51414538  0.40412509  0.24747536  1
  Bi2+  Bi83  1  0.51426138  0.37461072  0.81758363  1
  Bi2+  Bi84  1  0.50713793  0.58986291  0.29413967  1
  Bi2+  Bi85  1  0.54394877  0.64722003  0.78401359  1
  Bi2+  Bi86  1  0.42337127  0.86660347  0.28500240  1
  Bi2+  Bi87  1  0.45363074  0.87475498  0.82455563  1
  Bi2+  Bi88  1  0.72899075  0.14428400  0.29058834  1
  Bi2+  Bi89  1  0.72834576  0.14849584  0.79536118  1
  Bi2+  Bi90  1  0.85778000  0.38173959  0.31518339  1
  Bi2+  Bi91  1  0.74039438  0.41860367  0.79823081  1
  Bi2+  Bi92  1  0.70265012  0.61346857  0.26616275  1
  Bi2+  Bi93  1  0.79149798  0.70269556  0.79040547  1
  Bi2+  Bi94  1  0.73141325  0.83497074  0.27575633  1
  Bi2+  Bi95  1  0.63513028  0.90526033  0.77524588  1
  Bi2+  Bi96  1  0.11443970  -0.00605658  0.19879479  1
  Bi2+  Bi97  1  0.16907807  0.01655745  0.70512802  1
  Bi2+  Bi98  1  0.14700396  0.18594153  0.20050681  1
  Bi2+  Bi99  1  0.08224344  0.26960070  0.72797461  1
  Bi2+  Bi100  1  0.07030265  0.51417329  0.20359812  1
  Bi2+  Bi101  1  0.12233199  0.45424565  0.71832566  1
  Bi2+  Bi102  1  0.16279607  0.75639387  0.26903000  1
  Bi2+  Bi103  1  0.15943813  0.73075293  0.71687060  1
  Bi2+  Bi104  1  0.29913176  -0.05573863  0.18424206  1
  Bi2+  Bi105  1  0.39120372  -0.03767409  0.70743929  1
  Bi2+  Bi106  1  0.42006191  0.23131241  0.20846216  1
  Bi2+  Bi107  1  0.37939624  0.24967775  0.71291448  1
  Bi2+  Bi108  1  0.34987731  0.48257239  0.20417452  1
  Bi2+  Bi109  1  0.36623788  0.51153249  0.71636985  1
  Bi2+  Bi110  1  0.37508076  0.74165667  0.20609110  1
  Bi2+  Bi111  1  0.42206589  0.77246598  0.71956615  1
  Bi2+  Bi112  1  0.59327460  0.01978971  0.21648118  1
  Bi2+  Bi113  1  0.63437981  0.06301457  0.70812817  1
  Bi2+  Bi114  1  0.69907658  0.34135965  0.23573690  1
  Bi2+  Bi115  1  0.69685690  0.28202985  0.71675939  1
  Bi2+  Bi116  1  0.63103438  0.50825416  0.17570887  1
  Bi2+  Bi117  1  0.68663408  0.58483165  0.70815284  1
  Bi2+  Bi118  1  0.56780988  0.75168394  0.23054573  1
  Bi2+  Bi119  1  0.61071028  0.75845261  0.69310264  1
  Bi2+  Bi120  1  0.86609278  -0.01925677  0.19303660  1
  Bi2+  Bi121  1  0.87708714  0.01412794  0.68991502  1
  Bi2+  Bi122  1  0.88781061  0.26009080  0.21024101  1
  Bi2+  Bi123  1  0.89204191  0.27308258  0.70445520  1
  Bi2+  Bi124  1  0.83138030  0.48921741  0.21580144  1
  Bi2+  Bi125  1  0.87948691  0.47152263  0.72259537  1
  Bi2+  Bi126  1  0.91371274  0.73365875  0.20263306  1
  Bi2+  Bi127  1  0.86524373  0.76048484  0.69069224  1
  S2-  S128  1  -0.07376552  0.13123923  0.15633711  1
  S2-  S129  1  0.03582556  0.08184495  0.66616670  1
  S2-  S130  1  -0.04767983  0.39906389  0.15708946  1
  S2-  S131  1  0.00357290  0.46311811  0.64249311  1
  S2-  S132  1  0.04909071  0.66964421  0.16326345  1
  S2-  S133  1  0.02135630  0.69790892  0.66467220  1
  S2-  S134  1  0.00199554  0.88025630  0.15910879  1
  S2-  S135  1  -0.02157151  0.88638588  0.68159038  1
  S2-  S136  1  0.34544061  0.12489795  0.14214158  1
  S2-  S137  1  0.27954257  0.13350741  0.65909306  1
  S2-  S138  1  0.16772902  0.34508905  0.15452634  1
  S2-  S139  1  0.32049865  0.37918375  0.65353604  1
  S2-  S140  1  0.21714997  0.55635620  0.16919927  1
  S2-  S141  1  0.24760210  0.61229936  0.66885513  1
  S2-  S142  1  0.25291089  0.78769903  0.14189973  1
  S2-  S143  1  0.19007724  0.86711313  0.65087974  1
  S2-  S144  1  0.56520669  0.16444924  0.17460573  1
  S2-  S145  1  0.49977397  0.22460182  0.65235773  1
  S2-  S146  1  0.40483360  0.36028927  0.13314390  1
  S2-  S147  1  0.48927590  0.38668440  0.72416682  1
  S2-  S148  1  0.40911618  0.60975267  0.14155001  1
  S2-  S149  1  0.47453649  0.55826965  0.64883414  1
  S2-  S150  1  0.50530535  0.95801501  0.14607953  1
  S2-  S151  1  0.51978532  0.98603154  0.63913481  1
  S2-  S152  1  0.72931652  0.02220194  0.14844772  1
  S2-  S153  1  0.83383773  0.15016404  0.63468394  1
  S2-  S154  1  0.75703491  0.26562572  0.14181238  1
  S2-  S155  1  0.67351838  0.39832541  0.64629882  1
  S2-  S156  1  0.85787691  0.61608175  0.14336386  1
  S2-  S157  1  0.83189591  0.60479171  0.64770810  1
  S2-  S158  1  0.77650973  0.82287136  0.17003224  1
  S2-  S159  1  0.76962512  0.89046918  0.65302292  1
  S2-  S160  1  0.03418008  -0.01153258  0.35568314  1
  S2-  S161  1  0.09300792  -0.01290109  0.84331426  1
  S2-  S162  1  0.08593501  0.23621892  0.35268461  1
  S2-  S163  1  0.13402808  0.24161907  0.84741866  1
  S2-  S164  1  0.14549081  0.51123084  0.34252809  1
  S2-  S165  1  0.17322752  0.51925173  0.85462007  1
  S2-  S166  1  0.06958808  0.73854742  0.35786675  1
  S2-  S167  1  0.07372780  0.74247951  0.84404019  1
  S2-  S168  1  0.40389842  0.01300725  0.34302863  1
  S2-  S169  1  0.35168551  0.09285288  0.84958360  1
  S2-  S170  1  0.35914006  0.24699582  0.34289590  1
  S2-  S171  1  0.37045304  0.28170550  0.82412618  1
  S2-  S172  1  0.37447286  0.49415117  0.33783921  1
  S2-  S173  1  0.37431967  0.47097129  0.82070334  1
  S2-  S174  1  0.35845239  0.74148643  0.34579795  1
  S2-  S175  1  0.39411023  0.65356345  0.85175161  1
  S2-  S176  1  0.61964250  0.03033664  0.33159211  1
  S2-  S177  1  0.70701612  -0.00076521  0.85454823  1
  S2-  S178  1  0.62649451  0.25112717  0.34192249  1
  S2-  S179  1  0.60129400  0.22545718  0.84233182  1
  S2-  S180  1  0.63795029  0.51649773  0.34262904  1
  S2-  S181  1  0.61075044  0.51508495  0.84270775  1
  S2-  S182  1  0.61820207  0.79888077  0.33952089  1
  S2-  S183  1  0.64801608  0.74176941  0.84924954  1
  S2-  S184  1  0.81016188  -0.00543887  0.28623960  1
  S2-  S185  1  0.90159503  0.00083209  0.78802312  1
  S2-  S186  1  0.87997027  0.15247461  0.33999843  1
  S2-  S187  1  0.87622722  0.16436286  0.85491456  1
  S2-  S188  1  0.87699580  0.60628007  0.35850228  1
  S2-  S189  1  0.87498590  0.61102733  0.85774890  1
  S2-  S190  1  0.86689911  0.83282938  0.34553669  1
  S2-  S191  1  0.86761946  0.83506848  0.84559920  1
  S2-  S192  1  -0.00604280  0.12052559  0.45855508  1
  S2-  S193  1  0.00285538  0.12466276  0.95592281  1
  S2-  S194  1  -0.00238479  0.37426091  0.45182849  1
  S2-  S195  1  0.00686119  0.37674536  0.95538231  1
  S2-  S196  1  0.00175787  0.61455271  0.46558498  1
  S2-  S197  1  0.00538370  0.62189646  0.95876506  1
  S2-  S198  1  0.00188226  0.86281896  0.46398897  1
  S2-  S199  1  -0.00358751  0.87826658  0.94959149  1
  S2-  S200  1  0.24414540  0.11981646  0.45255740  1
  S2-  S201  1  0.24723346  0.12180915  0.95280014  1
  S2-  S202  1  0.24935384  0.36753729  0.45093074  1
  S2-  S203  1  0.25581202  0.37281801  0.95316032  1
  S2-  S204  1  0.24989615  0.62015386  0.45763694  1
  S2-  S205  1  0.25331915  0.63083118  0.96059417  1
  S2-  S206  1  0.24308522  0.86952155  0.45107493  1
  S2-  S207  1  0.25105783  0.87552395  0.94549069  1
  S2-  S208  1  0.49614919  0.11888844  0.45557797  1
  S2-  S209  1  0.50506469  0.12173859  0.95046314  1
  S2-  S210  1  0.49434127  0.36711612  0.44122878  1
  S2-  S211  1  0.50065358  0.37502374  0.94380252  1
  S2-  S212  1  0.49732710  0.62182509  0.45002209  1
  S2-  S213  1  0.51010197  0.62490691  0.95337061  1
  S2-  S214  1  0.49722283  0.87182192  0.45303036  1
  S2-  S215  1  0.50989387  0.87541751  0.95325920  1
  S2-  S216  1  0.75078053  0.11568188  0.44291067  1
  S2-  S217  1  0.75458832  0.12884658  0.96149052  1
  S2-  S218  1  0.74662417  0.37148890  0.44862751  1
  S2-  S219  1  0.75077543  0.37418891  0.95114189  1
  S2-  S220  1  0.74398251  0.61896701  0.45413242  1
  S2-  S221  1  0.74940116  0.61863107  0.95746355  1
  S2-  S222  1  0.75056606  0.87283331  0.44610432  1
  S2-  S223  1  0.75583496  0.87649913  0.95965960  1
  S2-  S224  1  0.12841502  -0.00049267  0.04866170  1
  S2-  S225  1  0.12042451  -0.00461130  0.55042225  1
  S2-  S226  1  0.13020551  0.24713725  0.04968833  1
  S2-  S227  1  0.12139786  0.24666792  0.55720516  1
  S2-  S228  1  0.13045843  0.50207257  0.05396957  1
  S2-  S229  1  0.13027599  0.49091396  0.54937431  1
  S2-  S230  1  0.12453539  0.74988471  0.04468252  1
  S2-  S231  1  0.12626038  0.73724943  0.55407418  1
  S2-  S232  1  0.37804417  -0.00221384  0.03845971  1
  S2-  S233  1  0.36836822  -0.00511827  0.54801172  1
  S2-  S234  1  0.37786894  0.24341815  0.03336356  1
  S2-  S235  1  0.37188332  0.23963979  0.54567162  1
  S2-  S236  1  0.37917931  0.50202731  0.03447269  1
  S2-  S237  1  0.37831842  0.49139224  0.54391920  1
  S2-  S238  1  0.38626644  0.75329626  0.04107004  1
  S2-  S239  1  0.37561182  0.74858950  0.55459464  1
  S2-  S240  1  0.62529397  0.00794066  0.04657188  1
  S2-  S241  1  0.63171321  -0.00421711  0.53752180  1
  S2-  S242  1  0.62055419  0.24891054  0.04753565  1
  S2-  S243  1  0.63285801  0.23531837  0.54654290  1
  S2-  S244  1  0.62583797  0.49406569  0.04508040  1
  S2-  S245  1  0.61619529  0.49433841  0.54473203  1
  S2-  S246  1  0.62787874  0.74855579  0.05720868  1
  S2-  S247  1  0.62186386  0.74882033  0.54503661  1
  S2-  S248  1  0.87721823  0.00418851  0.05322409  1
  S2-  S249  1  0.87750078  -0.01115258  0.54970517  1
  S2-  S250  1  0.88391986  0.25232599  0.04486415  1
  S2-  S251  1  0.87155005  0.25151586  0.53407796  1
  S2-  S252  1  0.87494210  0.49130647  0.04133024  1
  S2-  S253  1  0.86616604  0.49004610  0.53991901  1
  S2-  S254  1  0.87216298  0.75001724  0.04363917  1
  S2-  S255  1  0.87324667  0.74298698  0.54578386  1
