# generated using pymatgen
data_La9Ce10Pr6Nd4Sm3(BiS2)32
_symmetry_space_group_name_H-M   'P 1'
_cell_length_a   16.17813204
_cell_length_b   16.13571789
_cell_length_c   27.18644295
_cell_angle_alpha   89.82295251
_cell_angle_beta   89.89595458
_cell_angle_gamma   89.98125948
_symmetry_Int_Tables_number   1
_chemical_formula_structural   La9Ce10Pr6Nd4Sm3(BiS2)32
_chemical_formula_sum   'La18 Ce20 Pr12 Nd8 Sm6 Bi64 S128'
_cell_volume   7096.86010793
_cell_formula_units_Z   2
loop_
 _symmetry_equiv_pos_site_id
 _symmetry_equiv_pos_as_xyz
  1  'x, y, z'
loop_
 _atom_type_symbol
 _atom_type_oxidation_number
  La3+  3.0
  Ce3+  3.0
  Pr3+  3.0
  Nd3+  3.0
  Sm3+  3.0
  Bi2+  2.0
  S2-  -2.0
loop_
 _atom_site_type_symbol
 _atom_site_label
 _atom_site_symmetry_multiplicity
 _atom_site_fract_x
 _atom_site_fract_y
 _atom_site_fract_z
 _atom_site_occupancy
  La3+  La0  1  -0.00487192  0.10367705  0.57913384  1
  La3+  La1  1  0.88440559  0.23968567  0.43033292  1
  La3+  La2  1  0.74541719  0.62613246  0.08395272  1
  La3+  La3  1  0.50228061  0.10390787  0.57590108  1
  La3+  La4  1  0.37039194  0.47831939  0.42282976  1
  La3+  La5  1  0.50470631  0.35883201  0.58176510  1
  La3+  La6  1  0.63084721  0.73420442  0.40994352  1
  La3+  La7  1  0.73658086  0.61774991  0.56983209  1
  La3+  La8  1  0.61950114  0.75672705  0.95158107  1
  La3+  La9  1  0.12406329  0.26084111  0.90365329  1
  La3+  La10  1  0.24446047  0.13602422  0.05358199  1
  La3+  La11  1  0.00042198  0.36036014  0.58663950  1
  La3+  La12  1  0.37087484  0.51302850  0.93875304  1
  La3+  La13  1  0.11976699  0.50917996  0.92779597  1
  La3+  La14  1  0.48877079  0.62529074  0.08533650  1
  La3+  La15  1  0.49233371  0.13366087  0.05300270  1
  La3+  La16  1  0.85693163  0.51509781  0.91149154  1
  La3+  La17  1  0.12316367  0.73455020  0.43839192  1
  Ce3+  Ce18  1  0.25181744  0.60865289  0.55548586  1
  Ce3+  Ce19  1  0.86968700  0.00582856  0.94344391  1
  Ce3+  Ce20  1  0.75431609  0.11131812  0.55590550  1
  Ce3+  Ce21  1  0.74474912  0.88171914  0.06879940  1
  Ce3+  Ce22  1  0.74717109  0.37953994  0.06627469  1
  Ce3+  Ce23  1  0.37709817  0.23994312  0.44944420  1
  Ce3+  Ce24  1  0.74579327  0.13648859  0.06638875  1
  Ce3+  Ce25  1  0.37639108  0.73758114  0.43460057  1
  Ce3+  Ce26  1  0.49302301  0.38304585  0.06159526  1
  Ce3+  Ce27  1  0.86605463  0.75595939  0.94638799  1
  Ce3+  Ce28  1  0.25072623  0.11054503  0.56053290  1
  Ce3+  Ce29  1  0.62649289  0.26050905  0.93608609  1
  Ce3+  Ce30  1  0.37427837  0.26634410  0.92771943  1
  Ce3+  Ce31  1  0.75447192  0.36089813  0.56753665  1
  Ce3+  Ce32  1  0.62813880  0.48747050  0.43549119  1
  Ce3+  Ce33  1  0.74968881  0.85938555  0.54760309  1
  Ce3+  Ce34  1  0.37317704  0.00409787  0.92413465  1
  Ce3+  Ce35  1  -0.00607881  0.62916585  0.05631421  1
  Ce3+  Ce36  1  0.11878682  0.00957549  0.93613539  1
  Ce3+  Ce37  1  -0.00808114  0.60909532  0.56975243  1
  Pr3+  Pr38  1  0.12130666  0.48174509  0.44546627  1
  Pr3+  Pr39  1  -0.00224489  0.85809528  0.56425511  1
  Pr3+  Pr40  1  0.12244827  -0.01251547  0.44074552  1
  Pr3+  Pr41  1  0.50612485  0.85909861  0.56065700  1
  Pr3+  Pr42  1  -0.00478931  0.13839255  0.05065276  1
  Pr3+  Pr43  1  0.11626382  0.75553671  0.93257006  1
  Pr3+  Pr44  1  0.25169798  0.36952242  0.58070249  1
  Pr3+  Pr45  1  0.23558381  0.37890194  0.06236108  1
  Pr3+  Pr46  1  -0.00447773  0.88287008  0.06071478  1
  Pr3+  Pr47  1  0.87595311  0.48543446  0.44106867  1
  Pr3+  Pr48  1  0.62386091  0.23734981  0.44753277  1
  Pr3+  Pr49  1  0.62078888  0.51215572  0.94434588  1
  Nd3+  Nd50  1  0.12443156  0.23710699  0.45165715  1
  Nd3+  Nd51  1  0.24991475  0.85833789  0.55639759  1
  Nd3+  Nd52  1  0.49952453  0.61094713  0.54803109  1
  Nd3+  Nd53  1  0.86544267  0.25534535  0.92589691  1
  Nd3+  Nd54  1  0.48444435  0.88272287  0.06947876  1
  Nd3+  Nd55  1  0.37153587  0.75838713  0.93927719  1
  Nd3+  Nd56  1  0.62091978  0.00813788  0.94673632  1
  Nd3+  Nd57  1  0.62386410  -0.00942236  0.43365228  1
  Sm3+  Sm58  1  0.87381870  0.72821233  0.43336398  1
  Sm3+  Sm59  1  -0.00904058  0.38203509  0.03902269  1
  Sm3+  Sm60  1  0.87580719  -0.00930438  0.43242758  1
  Sm3+  Sm61  1  0.24362045  0.62543365  0.07002927  1
  Sm3+  Sm62  1  0.37644034  -0.01094904  0.44248274  1
  Sm3+  Sm63  1  0.24249533  0.87975037  0.04865185  1
  Bi2+  Bi64  1  0.03322505  0.15090040  0.29851844  1
  Bi2+  Bi65  1  -0.00770778  0.08862816  0.79573107  1
  Bi2+  Bi66  1  0.01004143  0.42814847  0.31517096  1
  Bi2+  Bi67  1  0.02212587  0.35534658  0.77432063  1
  Bi2+  Bi68  1  0.02752632  0.71413156  0.30125825  1
  Bi2+  Bi69  1  -0.01462023  0.62657942  0.78965531  1
  Bi2+  Bi70  1  -0.01418070  0.90890974  0.31141998  1
  Bi2+  Bi71  1  0.02784173  0.82025550  0.79893387  1
  Bi2+  Bi72  1  0.23360821  0.17475213  0.27959221  1
  Bi2+  Bi73  1  0.28729280  0.02275263  0.79262054  1
  Bi2+  Bi74  1  0.24767961  0.36985431  0.29206499  1
  Bi2+  Bi75  1  0.28107227  0.38759205  0.78687652  1
  Bi2+  Bi76  1  0.27025537  0.63391303  0.30399994  1
  Bi2+  Bi77  1  0.25819263  0.62658140  0.78760591  1
  Bi2+  Bi78  1  0.22719122  0.90682206  0.24406111  1
  Bi2+  Bi79  1  0.26627023  0.82835792  0.78698612  1
  Bi2+  Bi80  1  0.46169952  0.14417810  0.32384581  1
  Bi2+  Bi81  1  0.45190994  0.12311671  0.81581949  1
  Bi2+  Bi82  1  0.57132560  0.34853258  0.27761000  1
  Bi2+  Bi83  1  0.53342614  0.30379281  0.81436239  1
  Bi2+  Bi84  1  0.51442064  0.65203229  0.28978995  1
  Bi2+  Bi85  1  0.50620787  0.56321497  0.81754883  1
  Bi2+  Bi86  1  0.45931460  0.98429112  0.25683788  1
  Bi2+  Bi87  1  0.53092371  0.83907313  0.79532801  1
  Bi2+  Bi88  1  0.79896633  0.17634214  0.27923778  1
  Bi2+  Bi89  1  0.70302878  0.09784183  0.80977552  1
  Bi2+  Bi90  1  0.76952680  0.37279232  0.27218144  1
  Bi2+  Bi91  1  0.67605289  0.33790210  0.73939592  1
  Bi2+  Bi92  1  0.78255743  0.62586421  0.29115407  1
  Bi2+  Bi93  1  0.70761190  0.62331181  0.78865233  1
  Bi2+  Bi94  1  0.79792975  0.90473209  0.28926326  1
  Bi2+  Bi95  1  0.83256909  0.84268977  0.81909567  1
  Bi2+  Bi96  1  0.05040751  -0.00779328  0.21119796  1
  Bi2+  Bi97  1  0.17100964  -0.03497228  0.70223464  1
  Bi2+  Bi98  1  0.13519960  0.31001883  0.20680752  1
  Bi2+  Bi99  1  0.16320606  0.21080984  0.71133386  1
  Bi2+  Bi100  1  0.09888938  0.55350207  0.21863051  1
  Bi2+  Bi101  1  0.12195182  0.55766404  0.71594118  1
  Bi2+  Bi102  1  0.15605867  0.73674824  0.20681659  1
  Bi2+  Bi103  1  0.12960769  0.75891173  0.69813075  1
  Bi2+  Bi104  1  0.28762980  0.06916381  0.18944217  1
  Bi2+  Bi105  1  0.44982976  -0.01356531  0.73310641  1
  Bi2+  Bi106  1  0.40375854  0.26449541  0.23501981  1
  Bi2+  Bi107  1  0.40856219  0.25821542  0.73052831  1
  Bi2+  Bi108  1  0.34434534  0.51747974  0.20944979  1
  Bi2+  Bi109  1  0.38835761  0.52184849  0.71026089  1
  Bi2+  Bi110  1  0.37259692  0.79529257  0.20907792  1
  Bi2+  Bi111  1  0.36455231  0.72185518  0.70288170  1
  Bi2+  Bi112  1  0.62808475  0.08205495  0.25525318  1
  Bi2+  Bi113  1  0.70399310  -0.12611777  0.73380979  1
  Bi2+  Bi114  1  0.57494479  0.22301411  0.18206262  1
  Bi2+  Bi115  1  0.65751020  0.14851380  0.70601718  1
  Bi2+  Bi116  1  0.61738810  0.49883697  0.21009133  1
  Bi2+  Bi117  1  0.59012472  0.51499455  0.71878168  1
  Bi2+  Bi118  1  0.64280150  0.80085953  0.21302306  1
  Bi2+  Bi119  1  0.55088940  0.76543756  0.68732245  1
  Bi2+  Bi120  1  0.85461269  0.03412488  0.20346587  1
  Bi2+  Bi121  1  0.89644900  -0.08179372  0.71603015  1
  Bi2+  Bi122  1  0.90222825  0.26389505  0.19288080  1
  Bi2+  Bi123  1  0.86053528  0.20614541  0.71439681  1
  Bi2+  Bi124  1  0.90884682  0.49238287  0.22661270  1
  Bi2+  Bi125  1  0.86170940  0.48176993  0.71232163  1
  Bi2+  Bi126  1  0.90591380  0.77103258  0.21903966  1
  Bi2+  Bi127  1  0.93814413  0.73240875  0.68784696  1
  S2-  S128  1  -0.01189182  0.12495001  0.15160018  1
  S2-  S129  1  0.00679006  0.17794962  0.67378569  1
  S2-  S130  1  0.01117715  0.34914825  0.13682074  1
  S2-  S131  1  -0.14148283  0.34244803  0.64967065  1
  S2-  S132  1  -0.02380433  0.59823517  0.15268862  1
  S2-  S133  1  -0.00135452  0.50651699  0.65055784  1
  S2-  S134  1  0.03492583  0.84108126  0.15586083  1
  S2-  S135  1  0.01531883  0.96257769  0.64602063  1
  S2-  S136  1  0.22661248  0.24734013  0.13286035  1
  S2-  S137  1  0.26254620  0.09954664  0.65874674  1
  S2-  S138  1  0.22781301  0.49539681  0.14337857  1
  S2-  S139  1  0.13821039  0.34160490  0.65980158  1
  S2-  S140  1  0.35339961  0.65882641  0.14987672  1
  S2-  S141  1  0.24838217  0.53863214  0.64462059  1
  S2-  S142  1  0.29219773  0.90716640  0.14122514  1
  S2-  S143  1  0.28012623  0.86162189  0.65445096  1
  S2-  S144  1  0.43986046  0.11874183  0.14860365  1
  S2-  S145  1  0.51431914  0.20772025  0.65735435  1
  S2-  S146  1  0.47427336  0.46333007  0.14891467  1
  S2-  S147  1  0.38048270  0.37351508  0.65424308  1
  S2-  S148  1  0.57590526  0.65465799  0.17563402  1
  S2-  S149  1  0.58955008  0.62103709  0.63330526  1
  S2-  S150  1  0.50711110  0.88547630  0.16895538  1
  S2-  S151  1  0.50907705  0.96853102  0.64230745  1
  S2-  S152  1  0.74902250  0.25058742  0.13998708  1
  S2-  S153  1  0.79952789  0.08620961  0.64980196  1
  S2-  S154  1  0.74393921  0.48349844  0.14715940  1
  S2-  S155  1  0.64205942  0.38999757  0.64418963  1
  S2-  S156  1  0.77419814  0.71153618  0.17461756  1
  S2-  S157  1  0.81597903  0.61002059  0.66257347  1
  S2-  S158  1  0.73601522  0.93004614  0.16300797  1
  S2-  S159  1  0.70388076  0.81277546  0.63713791  1
  S2-  S160  1  0.11834266  0.01396034  0.34173276  1
  S2-  S161  1  0.08399733  -0.03675391  0.84371561  1
  S2-  S162  1  0.05272306  0.27475670  0.36197756  1
  S2-  S163  1  0.12300853  0.16928274  0.81265939  1
  S2-  S164  1  0.16335440  0.50310911  0.34691968  1
  S2-  S165  1  0.13069947  0.40808649  0.84125277  1
  S2-  S166  1  0.17464148  0.76304316  0.34351516  1
  S2-  S167  1  0.12103450  0.63900416  0.85624257  1
  S2-  S168  1  0.37514005  -0.00322487  0.34386815  1
  S2-  S169  1  0.38988051  -0.13161224  0.85850813  1
  S2-  S170  1  0.35710691  0.32644715  0.36621493  1
  S2-  S171  1  0.28251038  0.25860351  0.84673539  1
  S2-  S172  1  0.40045210  0.52756765  0.32324381  1
  S2-  S173  1  0.40903585  0.42260981  0.85167803  1
  S2-  S174  1  0.38857811  0.74207559  0.33582414  1
  S2-  S175  1  0.37702504  0.63999599  0.86449572  1
  S2-  S176  1  0.68562069  -0.00494695  0.34029680  1
  S2-  S177  1  0.61437511  -0.03109969  0.84953895  1
  S2-  S178  1  0.61636673  0.23038561  0.34669339  1
  S2-  S179  1  0.73108520  0.24619864  0.85856242  1
  S2-  S180  1  0.63889915  0.57713023  0.34878120  1
  S2-  S181  1  0.70548174  0.50260900  0.85351079  1
  S2-  S182  1  0.58542824  0.79069890  0.31076656  1
  S2-  S183  1  0.60063300  0.70680077  0.85471523  1
  S2-  S184  1  0.89419112  0.10963485  0.35743441  1
  S2-  S185  1  0.85026640  0.02223163  0.84586138  1
  S2-  S186  1  0.86694660  0.37267996  0.35940010  1
  S2-  S187  1  0.94669778  0.24605987  0.83412742  1
  S2-  S188  1  0.89488797  0.59828272  0.35917904  1
  S2-  S189  1  0.91680832  0.46302012  0.81417778  1
  S2-  S190  1  0.78039555  0.75721499  0.34872036  1
  S2-  S191  1  0.84555690  0.67598267  0.85814829  1
  S2-  S192  1  0.00225646  0.10971890  0.46430095  1
  S2-  S193  1  -0.00570528  0.13184278  0.94387853  1
  S2-  S194  1  -0.00011126  0.36213922  0.47120125  1
  S2-  S195  1  -0.01500491  0.38710744  0.93706101  1
  S2-  S196  1  0.00132445  0.61197919  0.46066409  1
  S2-  S197  1  -0.01190895  0.63088257  0.95216598  1
  S2-  S198  1  -0.00454938  0.86011477  0.45256908  1
  S2-  S199  1  -0.00669170  0.87989878  0.95379378  1
  S2-  S200  1  0.25099816  0.11280092  0.45159219  1
  S2-  S201  1  0.24793701  0.12809712  0.94475775  1
  S2-  S202  1  0.24551276  0.36066536  0.46787175  1
  S2-  S203  1  0.24610241  0.38392214  0.95175548  1
  S2-  S204  1  0.25213833  0.61008716  0.45014783  1
  S2-  S205  1  0.24219058  0.63660885  0.96358637  1
  S2-  S206  1  0.25225107  0.86514350  0.44998150  1
  S2-  S207  1  0.23959758  0.88151299  0.94584209  1
  S2-  S208  1  0.49930391  0.10983843  0.46165441  1
  S2-  S209  1  0.49719440  0.13371508  0.94561676  1
  S2-  S210  1  0.50327992  0.36370369  0.45658699  1
  S2-  S211  1  0.50243013  0.38303915  0.95725713  1
  S2-  S212  1  0.49709552  0.61000477  0.44327616  1
  S2-  S213  1  0.49656199  0.63335339  0.97033868  1
  S2-  S214  1  0.50025551  0.86629867  0.44606275  1
  S2-  S215  1  0.49737480  0.88446157  0.96229845  1
  S2-  S216  1  0.75146264  0.11242709  0.45039368  1
  S2-  S217  1  0.74485479  0.12871237  0.96076613  1
  S2-  S218  1  0.74747443  0.36025831  0.45748094  1
  S2-  S219  1  0.74733295  0.38558545  0.95711010  1
  S2-  S220  1  0.74946031  0.61168502  0.45712223  1
  S2-  S221  1  0.74503426  0.63322028  0.96889563  1
  S2-  S222  1  0.75323991  0.86817724  0.44479733  1
  S2-  S223  1  0.74439960  0.88356399  0.96055845  1
  S2-  S224  1  0.12044521  0.00752929  0.04539518  1
  S2-  S225  1  0.12821949  -0.01736719  0.54651120  1
  S2-  S226  1  0.11523368  0.25887294  0.02392140  1
  S2-  S227  1  0.12471304  0.22994825  0.55596505  1
  S2-  S228  1  0.11455577  0.50547644  0.03802058  1
  S2-  S229  1  0.12304010  0.48948989  0.54925994  1
  S2-  S230  1  0.12142140  0.75455612  0.04392014  1
  S2-  S231  1  0.12397741  0.73380095  0.54797527  1
  S2-  S232  1  0.36618450  0.00519019  0.03414530  1
  S2-  S233  1  0.37334638  -0.01809074  0.54623731  1
  S2-  S234  1  0.37132781  0.26103588  0.03749594  1
  S2-  S235  1  0.37521594  0.23383416  0.55343049  1
  S2-  S236  1  0.36416762  0.50417653  0.04516040  1
  S2-  S237  1  0.37861330  0.48676796  0.54047701  1
  S2-  S238  1  0.36573526  0.75854353  0.04549711  1
  S2-  S239  1  0.37758556  0.73763191  0.54347733  1
  S2-  S240  1  0.61766339  0.00781006  0.05490662  1
  S2-  S241  1  0.63049956  -0.01370862  0.54039454  1
  S2-  S242  1  0.61876716  0.25879658  0.04176852  1
  S2-  S243  1  0.62970729  0.23319903  0.55218630  1
  S2-  S244  1  0.61686556  0.50644119  0.05080152  1
  S2-  S245  1  0.62286944  0.48562224  0.53845124  1
  S2-  S246  1  0.61627186  0.76091438  0.06023032  1
  S2-  S247  1  0.62189199  0.74111608  0.52503154  1
  S2-  S248  1  0.87056872  0.00903779  0.05092796  1
  S2-  S249  1  0.87506315  -0.01813932  0.53893426  1
  S2-  S250  1  0.86958298  0.25692844  0.03464861  1
  S2-  S251  1  0.87767685  0.23228000  0.54573116  1
  S2-  S252  1  0.87174608  0.50456683  0.04450844  1
  S2-  S253  1  0.86827020  0.49105062  0.54828192  1
  S2-  S254  1  0.87003962  0.75746568  0.05391192  1
  S2-  S255  1  0.87339570  0.73587035  0.54249491  1
