# generated using pymatgen
data_La9Ce10Pr6Nd4Sm3(BiS2)32
_symmetry_space_group_name_H-M   'P 1'
_cell_length_a   16.18714119
_cell_length_b   16.16236052
_cell_length_c   27.14105873
_cell_angle_alpha   89.87832075
_cell_angle_beta   89.95994200
_cell_angle_gamma   89.72163564
_symmetry_Int_Tables_number   1
_chemical_formula_structural   La9Ce10Pr6Nd4Sm3(BiS2)32
_chemical_formula_sum   'La18 Ce20 Pr12 Nd8 Sm6 Bi64 S128'
_cell_volume   7100.60774362
_cell_formula_units_Z   2
loop_
 _symmetry_equiv_pos_site_id
 _symmetry_equiv_pos_as_xyz
  1  'x, y, z'
loop_
 _atom_type_symbol
 _atom_type_oxidation_number
  La3+  3.0
  Ce3+  3.0
  Pr3+  3.0
  Nd3+  3.0
  Sm3+  3.0
  Bi2+  2.0
  S2-  -2.0
loop_
 _atom_site_type_symbol
 _atom_site_label
 _atom_site_symmetry_multiplicity
 _atom_site_fract_x
 _atom_site_fract_y
 _atom_site_fract_z
 _atom_site_occupancy
  La3+  La0  1  0.25208769  0.89263154  0.61041415  1
  La3+  La1  1  0.86441335  0.23326366  0.91221213  1
  La3+  La2  1  0.01310700  0.13078758  0.56728113  1
  La3+  La3  1  0.01127625  0.39655336  0.57909085  1
  La3+  La4  1  0.39550846  0.75897700  0.42710724  1
  La3+  La5  1  0.51730574  0.38521799  0.58071800  1
  La3+  La6  1  0.88428559  0.49542974  0.42035416  1
  La3+  La7  1  0.89035141  0.01117943  0.42911648  1
  La3+  La8  1  0.51595803  0.87525525  0.57099881  1
  La3+  La9  1  0.23294969  0.85205421  0.08055537  1
  La3+  La10  1  0.23074357  0.60415270  0.07575130  1
  La3+  La11  1  0.64281927  0.02393445  0.41317812  1
  La3+  La12  1  0.51149837  0.13295933  0.57557484  1
  La3+  La13  1  0.14305904  0.00799260  0.43986186  1
  La3+  La14  1  0.48601571  0.87866368  0.11525400  1
  La3+  La15  1  0.39167047  0.25947757  0.44058519  1
  La3+  La16  1  0.26771681  0.63979787  0.56334098  1
  La3+  La17  1  0.60861054  0.23649313  0.91461070  1
  Ce3+  Ce18  1  0.26014387  0.38911978  0.56406865  1
  Ce3+  Ce19  1  0.11522508  0.23735334  0.94724264  1
  Ce3+  Ce20  1  0.38988809  0.00651608  0.44658093  1
  Ce3+  Ce21  1  0.51460190  0.63283372  0.55396954  1
  Ce3+  Ce22  1  0.00992998  0.88091562  0.55728166  1
  Ce3+  Ce23  1  0.11388716  0.48589951  0.94220168  1
  Ce3+  Ce24  1  0.76289638  0.13172379  0.56559075  1
  Ce3+  Ce25  1  0.35847473  0.22837137  0.92819757  1
  Ce3+  Ce26  1  -0.01362251  0.11441403  0.05539527  1
  Ce3+  Ce27  1  0.86365024  -0.01439255  0.93570354  1
  Ce3+  Ce28  1  0.88269781  0.75729960  0.43701690  1
  Ce3+  Ce29  1  0.38694514  0.50773866  0.43187539  1
  Ce3+  Ce30  1  0.64128850  0.26097286  0.45322789  1
  Ce3+  Ce31  1  0.36463361  0.48691114  0.94561538  1
  Ce3+  Ce32  1  0.24328100  0.11180945  0.06661208  1
  Ce3+  Ce33  1  0.63292366  0.50307662  0.43620233  1
  Ce3+  Ce34  1  0.13845784  0.51001152  0.43184977  1
  Ce3+  Ce35  1  0.48923545  0.62226486  0.06246233  1
  Ce3+  Ce36  1  0.49431840  0.36299639  0.05924058  1
  Ce3+  Ce37  1  0.76474099  0.39301525  0.58487203  1
  Pr3+  Pr38  1  0.26428694  0.13531755  0.56189687  1
  Pr3+  Pr39  1  0.74091104  0.36274123  0.04385012  1
  Pr3+  Pr40  1  0.73896556  0.87041634  0.07192765  1
  Pr3+  Pr41  1  0.61348490  0.74003711  0.94503069  1
  Pr3+  Pr42  1  0.87539600  0.49551675  0.91324123  1
  Pr3+  Pr43  1  0.36133222  0.74320258  0.93825154  1
  Pr3+  Pr44  1  -0.01791757  0.60901983  0.06406607  1
  Pr3+  Pr45  1  -0.02261787  0.35938764  0.06070107  1
  Pr3+  Pr46  1  0.13622460  0.26263902  0.44427442  1
  Pr3+  Pr47  1  0.73896053  0.11419464  0.05375123  1
  Pr3+  Pr48  1  0.64352120  0.75844233  0.42960757  1
  Pr3+  Pr49  1  0.75907997  0.88308304  0.55985000  1
  Nd3+  Nd50  1  0.60940750  -0.01594695  0.94389868  1
  Nd3+  Nd51  1  0.24155759  0.36163658  0.06351111  1
  Nd3+  Nd52  1  0.74165796  0.61045771  0.06042994  1
  Nd3+  Nd53  1  0.36474966  -0.01595532  0.94536860  1
  Nd3+  Nd54  1  0.86341858  0.73928660  0.93751631  1
  Nd3+  Nd55  1  0.11636006  0.73677466  0.93873409  1
  Nd3+  Nd56  1  0.48825283  0.12078630  0.06329480  1
  Nd3+  Nd57  1  0.61427543  0.48994511  0.93128850  1
  Sm3+  Sm58  1  0.13945127  0.75902662  0.44052146  1
  Sm3+  Sm59  1  0.88902402  0.26398408  0.45374270  1
  Sm3+  Sm60  1  -0.00875630  0.86173541  0.05948076  1
  Sm3+  Sm61  1  0.76319074  0.63072228  0.55559222  1
  Sm3+  Sm62  1  0.01193624  0.63336906  0.55105902  1
  Sm3+  Sm63  1  0.11610016  -0.01457790  0.94893235  1
  Bi2+  Bi64  1  -0.08503263  0.09007887  0.29655569  1
  Bi2+  Bi65  1  0.03693317  0.13208846  0.81421870  1
  Bi2+  Bi66  1  -0.00936664  0.36710861  0.29784471  1
  Bi2+  Bi67  1  -0.00771262  0.41864004  0.77435034  1
  Bi2+  Bi68  1  -0.05815226  0.60458562  0.27515899  1
  Bi2+  Bi69  1  0.01948809  0.66919446  0.81019948  1
  Bi2+  Bi70  1  -0.03388707  0.80030359  0.29244377  1
  Bi2+  Bi71  1  0.01610308  0.86680313  0.80038439  1
  Bi2+  Bi72  1  0.19674731  0.12199454  0.30099756  1
  Bi2+  Bi73  1  0.25364243  0.18387253  0.76761853  1
  Bi2+  Bi74  1  0.26377187  0.36379465  0.28655413  1
  Bi2+  Bi75  1  0.23438940  0.42570644  0.77640134  1
  Bi2+  Bi76  1  0.34616893  0.54298927  0.27168831  1
  Bi2+  Bi77  1  0.21473631  0.63627833  0.79064479  1
  Bi2+  Bi78  1  0.22041696  0.88359582  0.31621750  1
  Bi2+  Bi79  1  0.25526030  0.89730304  0.80421466  1
  Bi2+  Bi80  1  0.50436208  0.17683062  0.29372696  1
  Bi2+  Bi81  1  0.47011709  0.10664187  0.80045921  1
  Bi2+  Bi82  1  0.53131362  0.36841610  0.28373773  1
  Bi2+  Bi83  1  0.48992449  0.39757492  0.78966527  1
  Bi2+  Bi84  1  0.52972223  0.61503430  0.27967546  1
  Bi2+  Bi85  1  0.41305748  0.60463401  0.77637948  1
  Bi2+  Bi86  1  0.46595588  0.89608657  0.32242055  1
  Bi2+  Bi87  1  0.51525798  0.86720570  0.79549734  1
  Bi2+  Bi88  1  0.75856155  0.20879116  0.28233347  1
  Bi2+  Bi89  1  0.80022470  0.03552448  0.76880437  1
  Bi2+  Bi90  1  0.72362640  0.41194731  0.26496376  1
  Bi2+  Bi91  1  0.70245798  0.38624095  0.76539983  1
  Bi2+  Bi92  1  0.74591852  0.62527158  0.28470446  1
  Bi2+  Bi93  1  0.72663174  0.70369663  0.79432014  1
  Bi2+  Bi94  1  0.77866818  0.86839834  0.27764281  1
  Bi2+  Bi95  1  0.82597241  0.86212681  0.82453675  1
  Bi2+  Bi96  1  0.07386517  0.02374839  0.23390961  1
  Bi2+  Bi97  1  0.01413486  0.01554317  0.71893411  1
  Bi2+  Bi98  1  0.11977480  0.25879439  0.23493092  1
  Bi2+  Bi99  1  0.11406330  0.29211740  0.72079481  1
  Bi2+  Bi100  1  0.13170087  0.49050658  0.21335740  1
  Bi2+  Bi101  1  0.14871563  0.55402168  0.69735490  1
  Bi2+  Bi102  1  0.10723117  0.74421266  0.21376600  1
  Bi2+  Bi103  1  0.03032305  0.75082402  0.70545807  1
  Bi2+  Bi104  1  0.37629284  0.02852133  0.21873997  1
  Bi2+  Bi105  1  0.38523695  0.03873389  0.70816154  1
  Bi2+  Bi106  1  0.35415807  0.29679276  0.19144255  1
  Bi2+  Bi107  1  0.36411707  0.31715923  0.71103302  1
  Bi2+  Bi108  1  0.45626298  0.47002237  0.18737895  1
  Bi2+  Bi109  1  0.33538233  0.50586068  0.67001295  1
  Bi2+  Bi110  1  0.35871286  0.76065144  0.21962060  1
  Bi2+  Bi111  1  0.38769757  0.75723735  0.71232589  1
  Bi2+  Bi112  1  0.64513928  0.00465244  0.21087046  1
  Bi2+  Bi113  1  0.64428481  -0.05628065  0.72699351  1
  Bi2+  Bi114  1  0.63223416  0.26343108  0.19989719  1
  Bi2+  Bi115  1  0.61160269  0.19925534  0.72116550  1
  Bi2+  Bi116  1  0.64321640  0.45385103  0.15152539  1
  Bi2+  Bi117  1  0.52885657  0.51548910  0.69296087  1
  Bi2+  Bi118  1  0.64082228  0.64016394  0.18582237  1
  Bi2+  Bi119  1  0.65579405  0.66594206  0.69024400  1
  Bi2+  Bi120  1  0.89423155  -0.03852325  0.20271427  1
  Bi2+  Bi121  1  0.85312278  -0.04531940  0.66935374  1
  Bi2+  Bi122  1  0.90780869  0.22831892  0.20933103  1
  Bi2+  Bi123  1  0.87520709  0.23672997  0.71678419  1
  Bi2+  Bi124  1  0.88228365  0.45350445  0.19625382  1
  Bi2+  Bi125  1  0.88196982  0.53234398  0.71491474  1
  Bi2+  Bi126  1  0.85543167  0.74087285  0.19898811  1
  Bi2+  Bi127  1  0.83639103  0.76622810  0.70209580  1
  S2-  S128  1  -0.00459029  0.11016967  0.15373380  1
  S2-  S129  1  0.01515556  0.16845320  0.66640699  1
  S2-  S130  1  0.03607925  0.39707090  0.15744335  1
  S2-  S131  1  -0.10980170  0.37018707  0.65879878  1
  S2-  S132  1  0.08035873  0.61493752  0.14983223  1
  S2-  S133  1  0.00508604  0.55680536  0.64124761  1
  S2-  S134  1  0.08040621  0.85469389  0.14532220  1
  S2-  S135  1  0.07975243  0.88997168  0.64710499  1
  S2-  S136  1  0.28767850  0.14401848  0.16073135  1
  S2-  S137  1  0.26709029  0.13984574  0.66268022  1
  S2-  S138  1  0.24521181  0.46450876  0.14617532  1
  S2-  S139  1  0.15224014  0.38378896  0.64298944  1
  S2-  S140  1  0.25074573  0.71366582  0.15587591  1
  S2-  S141  1  0.26120712  0.73148674  0.65112394  1
  S2-  S142  1  0.32044972  0.90704487  0.16371189  1
  S2-  S143  1  0.24416100  0.94536558  0.71498494  1
  S2-  S144  1  0.50481368  0.04443996  0.15581469  1
  S2-  S145  1  0.55797987  0.06981423  0.67201159  1
  S2-  S146  1  0.49191308  0.25217668  0.13556196  1
  S2-  S147  1  0.49325906  0.25539055  0.65480973  1
  S2-  S148  1  0.47843674  0.70716152  0.14985777  1
  S2-  S149  1  0.50975728  0.71077775  0.64135597  1
  S2-  S150  1  0.48141341  0.88336629  0.22724537  1
  S2-  S151  1  0.41342816  0.89781913  0.65403580  1
  S2-  S152  1  0.76196719  0.04525134  0.14786439  1
  S2-  S153  1  0.75505441  0.17583267  0.66328166  1
  S2-  S154  1  0.83906206  0.32736519  0.12816067  1
  S2-  S155  1  0.64537086  0.39158347  0.66040237  1
  S2-  S156  1  0.85603722  0.59519937  0.13704982  1
  S2-  S157  1  0.77286593  0.55230075  0.64501491  1
  S2-  S158  1  0.64929365  0.86835467  0.15885751  1
  S2-  S159  1  0.65137527  0.87041143  0.64126688  1
  S2-  S160  1  0.08812033  -0.00229712  0.34396242  1
  S2-  S161  1  0.13157661  -0.01377146  0.84984498  1
  S2-  S162  1  0.10132125  0.24395886  0.34533937  1
  S2-  S163  1  0.16420907  0.23427840  0.85289580  1
  S2-  S164  1  0.26060544  0.50143164  0.35729284  1
  S2-  S165  1  0.03744546  0.49758805  0.85487087  1
  S2-  S166  1  0.12393521  0.75760813  0.34007367  1
  S2-  S167  1  0.23161889  0.75068493  0.86333733  1
  S2-  S168  1  0.33501557  0.00926385  0.35044282  1
  S2-  S169  1  0.34463086  0.08826232  0.86146028  1
  S2-  S170  1  0.37528693  0.24975119  0.33937720  1
  S2-  S171  1  0.46877223  0.25551981  0.85158306  1
  S2-  S172  1  0.50799049  0.49554460  0.35871163  1
  S2-  S173  1  0.35741954  0.47792595  0.84698303  1
  S2-  S174  1  0.33107381  0.76685683  0.32759217  1
  S2-  S175  1  0.39252045  0.87195311  0.86410576  1
  S2-  S176  1  0.57777055  0.01304202  0.31508286  1
  S2-  S177  1  0.59756933  0.00373961  0.84330887  1
  S2-  S178  1  0.64087670  0.19606005  0.36150204  1
  S2-  S179  1  0.68771102  0.24367012  0.81888477  1
  S2-  S180  1  0.73810174  0.50009937  0.35722909  1
  S2-  S181  1  0.61100148  0.48929925  0.83072924  1
  S2-  S182  1  0.53693359  0.74692434  0.34818583  1
  S2-  S183  1  0.57878408  0.73406789  0.84488211  1
  S2-  S184  1  0.78569501  0.00307278  0.34900038  1
  S2-  S185  1  0.87956077  0.08134065  0.85353706  1
  S2-  S186  1  0.87761732  0.33558514  0.36376718  1
  S2-  S187  1  0.93902310  0.26255216  0.81887009  1
  S2-  S188  1  1.02609618  0.50674018  0.35307064  1
  S2-  S189  1  0.82678020  0.44765363  0.81396448  1
  S2-  S190  1  0.77463559  0.75749046  0.35828667  1
  S2-  S191  1  0.86258870  0.64353569  0.85374302  1
  S2-  S192  1  0.01199593  0.13592505  0.45621787  1
  S2-  S193  1  -0.00546355  0.11051024  0.95158354  1
  S2-  S194  1  0.01496145  0.38475364  0.46462455  1
  S2-  S195  1  -0.01190074  0.35868878  0.94855918  1
  S2-  S196  1  0.01113049  0.63881927  0.44796088  1
  S2-  S197  1  -0.00846503  0.61679308  0.95681031  1
  S2-  S198  1  0.01149118  0.88078208  0.44957303  1
  S2-  S199  1  -0.00860569  0.86211848  0.95339933  1
  S2-  S200  1  0.26316359  0.13628392  0.45445564  1
  S2-  S201  1  0.23410305  0.10916654  0.96238762  1
  S2-  S202  1  0.26295451  0.38194915  0.45741140  1
  S2-  S203  1  0.24038190  0.36214916  0.95559795  1
  S2-  S204  1  0.26389221  0.63864237  0.45233184  1
  S2-  S205  1  0.23697290  0.60738427  0.95865711  1
  S2-  S206  1  0.26289151  0.87983136  0.44784671  1
  S2-  S207  1  0.23523659  0.86559042  0.96802168  1
  S2-  S208  1  0.51305400  0.13234570  0.46003916  1
  S2-  S209  1  0.49046220  0.11189616  0.95578073  1
  S2-  S210  1  0.51348167  0.38000795  0.46364206  1
  S2-  S211  1  0.49168869  0.36607673  0.95229411  1
  S2-  S212  1  0.51493064  0.63161733  0.45150523  1
  S2-  S213  1  0.48767107  0.61417882  0.95161765  1
  S2-  S214  1  0.52135738  0.89197950  0.45029655  1
  S2-  S215  1  0.49207369  0.86126878  0.96399771  1
  S2-  S216  1  0.76925567  0.13784629  0.45813918  1
  S2-  S217  1  0.73445898  0.11047857  0.94557492  1
  S2-  S218  1  0.76054900  0.38175053  0.46857671  1
  S2-  S219  1  0.73916432  0.36401588  0.93626480  1
  S2-  S220  1  0.76468446  0.62765279  0.45376889  1
  S2-  S221  1  0.73868738  0.61252326  0.95228201  1
  S2-  S222  1  0.76167751  0.89006136  0.45417410  1
  S2-  S223  1  0.73905349  0.86349476  0.95888947  1
  S2-  S224  1  0.11264928  -0.00895383  0.05345824  1
  S2-  S225  1  0.14216916  0.00723895  0.54903122  1
  S2-  S226  1  0.11446423  0.23940014  0.05560182  1
  S2-  S227  1  0.13564722  0.25681044  0.55022719  1
  S2-  S228  1  0.10795129  0.47962332  0.04458558  1
  S2-  S229  1  0.14165234  0.51690286  0.54015264  1
  S2-  S230  1  0.10768812  0.73360042  0.04270443  1
  S2-  S231  1  0.13394410  0.75879389  0.54520991  1
  S2-  S232  1  0.36769436  -0.00979749  0.05265602  1
  S2-  S233  1  0.38443059  0.00685569  0.55214268  1
  S2-  S234  1  0.36052795  0.23945551  0.03780760  1
  S2-  S235  1  0.38491317  0.26277474  0.54954929  1
  S2-  S236  1  0.37054069  0.48723342  0.04919618  1
  S2-  S237  1  0.39017080  0.50811449  0.54318289  1
  S2-  S238  1  0.35639222  0.73071862  0.04520676  1
  S2-  S239  1  0.39173323  0.75915344  0.53724633  1
  S2-  S240  1  0.61318736  -0.00929404  0.04893906  1
  S2-  S241  1  0.63857186  0.01313401  0.54670650  1
  S2-  S242  1  0.61866087  0.23871955  0.03297217  1
  S2-  S243  1  0.64066549  0.25703057  0.55632541  1
  S2-  S244  1  0.61412012  0.49246930  0.03787538  1
  S2-  S245  1  0.63772247  0.50968568  0.54555846  1
  S2-  S246  1  0.62231461  0.73749189  0.05089274  1
  S2-  S247  1  0.64239046  0.75232467  0.53663314  1
  S2-  S248  1  0.86822833  -0.01430746  0.04256889  1
  S2-  S249  1  0.88880307  0.00844511  0.54148207  1
  S2-  S250  1  0.86322578  0.23097892  0.02497559  1
  S2-  S251  1  0.88870221  0.25777483  0.55573063  1
  S2-  S252  1  0.86341926  0.48657520  0.02843724  1
  S2-  S253  1  0.88851001  0.51179837  0.53829166  1
  S2-  S254  1  0.86346540  0.74530703  0.04525730  1
  S2-  S255  1  0.88633496  0.75558739  0.54651345  1
