# generated using pymatgen
data_La9Ce10Pr6Nd4Sm3(BiS2)32
_symmetry_space_group_name_H-M   'P 1'
_cell_length_a   16.23859773
_cell_length_b   16.24750075
_cell_length_c   27.03311791
_cell_angle_alpha   90.03895022
_cell_angle_beta   89.88382668
_cell_angle_gamma   89.91480288
_symmetry_Int_Tables_number   1
_chemical_formula_structural   La9Ce10Pr6Nd4Sm3(BiS2)32
_chemical_formula_sum   'La18 Ce20 Pr12 Nd8 Sm6 Bi64 S128'
_cell_volume   7132.30248720
_cell_formula_units_Z   2
loop_
 _symmetry_equiv_pos_site_id
 _symmetry_equiv_pos_as_xyz
  1  'x, y, z'
loop_
 _atom_type_symbol
 _atom_type_oxidation_number
  La3+  3.0
  Ce3+  3.0
  Pr3+  3.0
  Nd3+  3.0
  Sm3+  3.0
  Bi2+  2.0
  S2-  -2.0
loop_
 _atom_site_type_symbol
 _atom_site_label
 _atom_site_symmetry_multiplicity
 _atom_site_fract_x
 _atom_site_fract_y
 _atom_site_fract_z
 _atom_site_occupancy
  La3+  La0  1  0.74161185  0.62566585  0.56863237  1
  La3+  La1  1  0.74009805  0.12177249  0.56624922  1
  La3+  La2  1  0.63315377  0.00742687  0.93231852  1
  La3+  La3  1  0.11346636  -0.00231961  0.43091203  1
  La3+  La4  1  -0.00691546  0.37759725  0.57975950  1
  La3+  La5  1  -0.01306882  0.11220974  0.58249805  1
  La3+  La6  1  0.75023239  0.11590095  0.08641077  1
  La3+  La7  1  0.11999533  0.26101267  0.89410202  1
  La3+  La8  1  0.13990758  -0.00680274  0.92236517  1
  La3+  La9  1  0.24405555  0.36972242  0.56738688  1
  La3+  La10  1  0.62469258  0.26000033  0.38918240  1
  La3+  La11  1  0.12187958  0.73886998  0.39901309  1
  La3+  La12  1  0.25876851  0.88354894  0.08420121  1
  La3+  La13  1  0.48338103  0.63347766  0.58645274  1
  La3+  La14  1  0.87762552  0.50737801  0.93128950  1
  La3+  La15  1  0.00008265  0.37836047  0.06399735  1
  La3+  La16  1  0.49558400  0.37180368  0.56142242  1
  La3+  La17  1  0.37848086  0.74268072  0.42485279  1
  Ce3+  Ce18  1  0.50292193  0.88070145  0.06225177  1
  Ce3+  Ce19  1  0.87461145  0.24634108  0.44123495  1
  Ce3+  Ce20  1  0.74263146  0.36993549  0.55983212  1
  Ce3+  Ce21  1  -0.00470307  0.62414387  0.56843356  1
  Ce3+  Ce22  1  0.49152810  0.87237396  0.55429185  1
  Ce3+  Ce23  1  0.61898161  0.74244518  0.43685195  1
  Ce3+  Ce24  1  0.37597428  0.50328288  0.93744381  1
  Ce3+  Ce25  1  0.00644500  0.12808633  0.05263051  1
  Ce3+  Ce26  1  0.87060509  0.74382547  0.43699481  1
  Ce3+  Ce27  1  0.37170534  0.25383182  0.93627651  1
  Ce3+  Ce28  1  0.37043388  -0.00229982  0.43742370  1
  Ce3+  Ce29  1  0.37369842  0.24764246  0.44035790  1
  Ce3+  Ce30  1  0.87179163  0.49551026  0.45133965  1
  Ce3+  Ce31  1  0.88393362  0.00923196  0.93693763  1
  Ce3+  Ce32  1  0.86838667  0.00001064  0.44032549  1
  Ce3+  Ce33  1  0.87909176  0.75176700  0.94130033  1
  Ce3+  Ce34  1  0.37051414  0.49834655  0.44469443  1
  Ce3+  Ce35  1  0.12533717  0.50083964  0.94007831  1
  Ce3+  Ce36  1  0.24830251  0.13267317  0.05608070  1
  Ce3+  Ce37  1  0.13049380  0.75492403  0.95108529  1
  Pr3+  Pr38  1  0.00342913  0.63203117  0.06697179  1
  Pr3+  Pr39  1  0.50241607  0.37999856  0.05368305  1
  Pr3+  Pr40  1  0.50360592  0.13265226  0.06195716  1
  Pr3+  Pr41  1  0.24250239  0.62640465  0.55935548  1
  Pr3+  Pr42  1  0.24164942  0.87065341  0.54602219  1
  Pr3+  Pr43  1  0.75144479  0.38004822  0.06244598  1
  Pr3+  Pr44  1  0.37854423  0.00647274  0.94729700  1
  Pr3+  Pr45  1  0.11655287  0.25039695  0.44115309  1
  Pr3+  Pr46  1  0.62593599  0.50848958  0.93501555  1
  Pr3+  Pr47  1  0.50167207  0.62881608  0.06095281  1
  Pr3+  Pr48  1  0.00325021  0.88450678  0.06074840  1
  Pr3+  Pr49  1  0.37554923  0.75523490  0.93991438  1
  Nd3+  Nd50  1  0.75180764  0.63106642  0.06429875  1
  Nd3+  Nd51  1  -0.00672611  0.86817274  0.55729504  1
  Nd3+  Nd52  1  0.24082033  0.12047417  0.55328683  1
  Nd3+  Nd53  1  0.87014633  0.25339108  0.93739470  1
  Nd3+  Nd54  1  0.74015652  0.87011455  0.54751295  1
  Nd3+  Nd55  1  0.62031555  0.49734263  0.44734238  1
  Nd3+  Nd56  1  0.49533307  0.12043296  0.56510823  1
  Nd3+  Nd57  1  0.62955591  0.25440041  0.93775340  1
  Sm3+  Sm58  1  0.75205254  0.88060028  0.05277204  1
  Sm3+  Sm59  1  0.62570513  0.75481406  0.94593908  1
  Sm3+  Sm60  1  0.25220482  0.62768261  0.06132883  1
  Sm3+  Sm61  1  0.25057755  0.37952885  0.05539953  1
  Sm3+  Sm62  1  0.11869078  0.49753295  0.44193229  1
  Sm3+  Sm63  1  0.62020206  0.00540600  0.43642845  1
  Bi2+  Bi64  1  0.04614052  0.18698435  0.26367385  1
  Bi2+  Bi65  1  -0.02805398  0.12126810  0.78502006  1
  Bi2+  Bi66  1  0.02319611  0.37063151  0.30570415  1
  Bi2+  Bi67  1  0.00182167  0.37188945  0.78356908  1
  Bi2+  Bi68  1  -0.00235700  0.59330243  0.29511278  1
  Bi2+  Bi69  1  0.01874737  0.65038355  0.79463537  1
  Bi2+  Bi70  1  -0.00802175  0.89683904  0.30967885  1
  Bi2+  Bi71  1  -0.01366520  0.84203050  0.77045380  1
  Bi2+  Bi72  1  0.24600431  0.17716821  0.29665162  1
  Bi2+  Bi73  1  0.31272074  0.10684110  0.78732609  1
  Bi2+  Bi74  1  0.21095844  0.35994619  0.33068916  1
  Bi2+  Bi75  1  0.30537012  0.37678093  0.77577153  1
  Bi2+  Bi76  1  0.27751248  0.60043144  0.28645879  1
  Bi2+  Bi77  1  0.21662900  0.70009205  0.79401753  1
  Bi2+  Bi78  1  0.25655588  0.89411896  0.28670709  1
  Bi2+  Bi79  1  0.22340826  0.89823420  0.78014112  1
  Bi2+  Bi80  1  0.51504432  0.13366789  0.27826168  1
  Bi2+  Bi81  1  0.50119456  0.15459710  0.81218368  1
  Bi2+  Bi82  1  0.39027406  0.36540819  0.28639245  1
  Bi2+  Bi83  1  0.49439604  0.34060523  0.78220031  1
  Bi2+  Bi84  1  0.56760399  0.58589381  0.31150141  1
  Bi2+  Bi85  1  0.49493955  0.62077723  0.80669140  1
  Bi2+  Bi86  1  0.53203575  0.88453527  0.29303091  1
  Bi2+  Bi87  1  0.48963530  0.87837342  0.77694893  1
  Bi2+  Bi88  1  0.77296008  0.11642209  0.28768775  1
  Bi2+  Bi89  1  0.70161809  0.09285822  0.79877859  1
  Bi2+  Bi90  1  0.75712136  0.38342847  0.29108380  1
  Bi2+  Bi91  1  0.73732996  0.36993829  0.79293678  1
  Bi2+  Bi92  1  0.73195601  0.69057163  0.32233702  1
  Bi2+  Bi93  1  0.74216664  0.63297574  0.79676308  1
  Bi2+  Bi94  1  0.72988018  0.88305655  0.29169906  1
  Bi2+  Bi95  1  0.79334374  0.82235916  0.78471539  1
  Bi2+  Bi96  1  0.08881198  -0.00062212  0.19440789  1
  Bi2+  Bi97  1  0.14451206  -0.00376357  0.69572804  1
  Bi2+  Bi98  1  0.19273565  0.24304969  0.19243784  1
  Bi2+  Bi99  1  0.15173432  0.24917489  0.69299530  1
  Bi2+  Bi100  1  0.11713847  0.48885214  0.21419178  1
  Bi2+  Bi101  1  0.13965305  0.57728646  0.71469418  1
  Bi2+  Bi102  1  0.12531348  0.73374425  0.19863574  1
  Bi2+  Bi103  1  0.09719157  0.74994483  0.67606766  1
  Bi2+  Bi104  1  0.36271637  0.04594900  0.23819450  1
  Bi2+  Bi105  1  0.42698759  0.00885210  0.69743296  1
  Bi2+  Bi106  1  0.39210756  0.22734603  0.20090338  1
  Bi2+  Bi107  1  0.40402356  0.20248084  0.70469654  1
  Bi2+  Bi108  1  0.35929701  0.49926950  0.20789815  1
  Bi2+  Bi109  1  0.38002676  0.50659747  0.70301277  1
  Bi2+  Bi110  1  0.46275748  0.75881200  0.21981462  1
  Bi2+  Bi111  1  0.35554957  0.79328750  0.70884105  1
  Bi2+  Bi112  1  0.59099149  -0.05680297  0.18597093  1
  Bi2+  Bi113  1  0.61959670  -0.01361364  0.70014035  1
  Bi2+  Bi114  1  0.64910131  0.26324784  0.18238839  1
  Bi2+  Bi115  1  0.62889151  0.22991110  0.72687091  1
  Bi2+  Bi116  1  0.59848629  0.51349163  0.20903545  1
  Bi2+  Bi117  1  0.62904572  0.47827137  0.70009016  1
  Bi2+  Bi118  1  0.65438524  0.76026488  0.20453494  1
  Bi2+  Bi119  1  0.63752856  0.79620258  0.71701036  1
  Bi2+  Bi120  1  0.87248389  -0.06894050  0.21549194  1
  Bi2+  Bi121  1  0.86231519  -0.04065547  0.70795165  1
  Bi2+  Bi122  1  0.90228438  0.28487216  0.21258752  1
  Bi2+  Bi123  1  0.83946486  0.24968238  0.70697610  1
  Bi2+  Bi124  1  0.82015825  0.55191827  0.25229029  1
  Bi2+  Bi125  1  0.88266627  0.56040177  0.72373264  1
  Bi2+  Bi126  1  0.84784536  0.73978043  0.22368534  1
  Bi2+  Bi127  1  0.90754798  0.73597912  0.68029139  1
  S2-  S128  1  -0.01741404  0.08654484  0.14704696  1
  S2-  S129  1  0.04872384  0.12812796  0.68091084  1
  S2-  S130  1  0.00722673  0.39334402  0.16512117  1
  S2-  S131  1  -0.00602306  0.32303687  0.67766960  1
  S2-  S132  1  0.02189550  0.60605409  0.16732514  1
  S2-  S133  1  0.00812768  0.52385585  0.64965432  1
  S2-  S134  1  0.00599580  0.84825140  0.16006106  1
  S2-  S135  1  -0.00115209  0.95327241  0.64477433  1
  S2-  S136  1  0.21493985  0.08182330  0.14822024  1
  S2-  S137  1  0.24981313  0.11920165  0.65339993  1
  S2-  S138  1  0.24559968  0.41176328  0.15371333  1
  S2-  S139  1  0.24766071  0.39563463  0.66820026  1
  S2-  S140  1  0.24991625  0.65821918  0.15909981  1
  S2-  S141  1  0.32976477  0.63241792  0.64761660  1
  S2-  S142  1  0.21511030  0.87469521  0.18341844  1
  S2-  S143  1  0.23117196  0.86401919  0.64748078  1
  S2-  S144  1  0.59243107  0.11068742  0.14721511  1
  S2-  S145  1  0.61218392  0.12719928  0.64185930  1
  S2-  S146  1  0.53412538  0.38284991  0.15302994  1
  S2-  S147  1  0.49559175  0.39005730  0.66248232  1
  S2-  S148  1  0.48137531  0.60844971  0.16054734  1
  S2-  S149  1  0.52519133  0.59650007  0.68921706  1
  S2-  S150  1  0.41768945  0.86805408  0.14714191  1
  S2-  S151  1  0.48179656  0.79208563  0.64117002  1
  S2-  S152  1  0.78666843  0.15749993  0.18846237  1
  S2-  S153  1  0.84282102  0.11244185  0.65024543  1
  S2-  S154  1  0.77999981  0.36727372  0.16244357  1
  S2-  S155  1  0.75880366  0.37298548  0.65900185  1
  S2-  S156  1  0.73260221  0.57719920  0.15784412  1
  S2-  S157  1  0.73776753  0.59970974  0.66954716  1
  S2-  S158  1  0.75223785  0.95626092  0.14120838  1
  S2-  S159  1  0.74059316  0.87847367  0.64782872  1
  S2-  S160  1  0.13088020  -0.00450345  0.32946068  1
  S2-  S161  1  0.06429224  0.02634533  0.83273977  1
  S2-  S162  1  0.00167245  0.22994303  0.36604177  1
  S2-  S163  1  0.11010901  0.23153213  0.78584914  1
  S2-  S164  1  0.12917634  0.58056023  0.35319475  1
  S2-  S165  1  0.10914618  0.42657120  0.85094064  1
  S2-  S166  1  0.11837220  0.79649048  0.29766292  1
  S2-  S167  1  0.15170073  0.82570971  0.86388634  1
  S2-  S168  1  0.39038331  -0.03180743  0.34052135  1
  S2-  S169  1  0.29778956  -0.01096750  0.85880053  1
  S2-  S170  1  0.45544708  0.24177786  0.35374411  1
  S2-  S171  1  0.28743682  0.25689059  0.84936095  1
  S2-  S172  1  0.39561039  0.53672652  0.34899992  1
  S2-  S173  1  0.37718374  0.50335339  0.83811842  1
  S2-  S174  1  0.29210950  0.74427029  0.33610275  1
  S2-  S175  1  0.38241209  0.72317305  0.83917780  1
  S2-  S176  1  0.63157830  0.09232659  0.35010668  1
  S2-  S177  1  0.59044116  -0.03088021  0.83734537  1
  S2-  S178  1  0.62481939  0.27690298  0.27915685  1
  S2-  S179  1  0.73790120  0.24586733  0.85990654  1
  S2-  S180  1  0.63270759  0.43619774  0.35327810  1
  S2-  S181  1  0.63186478  0.50446969  0.83304017  1
  S2-  S182  1  0.51672766  0.73570560  0.35722783  1
  S2-  S183  1  0.61304459  0.71876963  0.84960408  1
  S2-  S184  1  0.88548641  0.03140781  0.34308239  1
  S2-  S185  1  0.83311466  0.03579052  0.84427564  1
  S2-  S186  1  0.79057997  0.24859211  0.35183425  1
  S2-  S187  1  0.95615706  0.24701641  0.85016182  1
  S2-  S188  1  0.90024378  0.48188347  0.35481004  1
  S2-  S189  1  0.86727545  0.43202713  0.83714920  1
  S2-  S190  1  0.95597007  0.73832177  0.35168296  1
  S2-  S191  1  0.87444976  0.64575670  0.86263477  1
  S2-  S192  1  -0.00651937  0.11785348  0.46554473  1
  S2-  S193  1  0.00859577  0.13184747  0.94826350  1
  S2-  S194  1  -0.00176373  0.37594992  0.46606707  1
  S2-  S195  1  -0.00129170  0.37799200  0.95563131  1
  S2-  S196  1  -0.00398136  0.61913425  0.45931517  1
  S2-  S197  1  0.00747757  0.62999586  0.95907964  1
  S2-  S198  1  -0.00680427  0.86976808  0.44976902  1
  S2-  S199  1  0.00083036  0.87736630  0.95213972  1
  S2-  S200  1  0.24329654  0.12395836  0.44577352  1
  S2-  S201  1  0.24881791  0.13194219  0.95124474  1
  S2-  S202  1  0.24542046  0.37205229  0.45846433  1
  S2-  S203  1  0.25035379  0.38023691  0.95130451  1
  S2-  S204  1  0.24434667  0.62164339  0.45251295  1
  S2-  S205  1  0.25165277  0.62731057  0.95310315  1
  S2-  S206  1  0.24066983  0.87026454  0.43953020  1
  S2-  S207  1  0.25889236  0.87664174  0.96994992  1
  S2-  S208  1  0.49234071  0.11854804  0.45781856  1
  S2-  S209  1  0.50347770  0.13212771  0.95338485  1
  S2-  S210  1  0.49531344  0.37353860  0.45290978  1
  S2-  S211  1  0.50317895  0.37776991  0.94516873  1
  S2-  S212  1  0.49696999  0.61821195  0.46477482  1
  S2-  S213  1  0.50100340  0.63051842  0.95378099  1
  S2-  S214  1  0.49945177  0.87888592  0.44935452  1
  S2-  S215  1  0.50230280  0.87849484  0.95295764  1
  S2-  S216  1  0.74588828  0.12165441  0.45673501  1
  S2-  S217  1  0.75350814  0.12674650  0.96245591  1
  S2-  S218  1  0.74529000  0.37215495  0.45540874  1
  S2-  S219  1  0.74987357  0.38478769  0.95537274  1
  S2-  S220  1  0.74590090  0.61954605  0.45846643  1
  S2-  S221  1  0.74706426  0.63205427  0.95782975  1
  S2-  S222  1  0.74189526  0.87321588  0.44167423  1
  S2-  S223  1  0.75340311  0.87568097  0.94682883  1
  S2-  S224  1  0.12972083  0.00209193  0.04026703  1
  S2-  S225  1  0.11877906  -0.00333994  0.54067165  1
  S2-  S226  1  0.12749597  0.25790866  0.05431674  1
  S2-  S227  1  0.11625207  0.24493838  0.55289174  1
  S2-  S228  1  0.12832224  0.50566494  0.04841576  1
  S2-  S229  1  0.12386116  0.49796403  0.54736933  1
  S2-  S230  1  0.13066359  0.75545488  0.05621012  1
  S2-  S231  1  0.11669110  0.74669711  0.54326361  1
  S2-  S232  1  0.37907517  0.01054433  0.05360541  1
  S2-  S233  1  0.36733068  -0.00201776  0.54584908  1
  S2-  S234  1  0.37526141  0.25723192  0.04605583  1
  S2-  S235  1  0.36962429  0.24327826  0.54988395  1
  S2-  S236  1  0.37451249  0.50393931  0.04595314  1
  S2-  S237  1  0.36820398  0.49748375  0.55159788  1
  S2-  S238  1  0.37554173  0.74925486  0.04823907  1
  S2-  S239  1  0.36757358  0.74989120  0.53533173  1
  S2-  S240  1  0.62599630  0.00117412  0.03985797  1
  S2-  S241  1  0.61621238  -0.00627910  0.54155537  1
  S2-  S242  1  0.62921761  0.25465862  0.04473313  1
  S2-  S243  1  0.61707711  0.24997486  0.54797107  1
  S2-  S244  1  0.62771624  0.50630700  0.04411809  1
  S2-  S245  1  0.61718570  0.50116380  0.55577770  1
  S2-  S246  1  0.62795751  0.75632043  0.05192091  1
  S2-  S247  1  0.61613288  0.74650094  0.54538896  1
  S2-  S248  1  0.87703880  0.00317428  0.04277663  1
  S2-  S249  1  0.86511837  -0.01019204  0.54462823  1
  S2-  S250  1  0.87467704  0.24993901  0.05011720  1
  S2-  S251  1  0.87060581  0.25048651  0.55108985  1
  S2-  S252  1  0.87691121  0.50863877  0.04842293  1
  S2-  S253  1  0.86541108  0.49965009  0.55647948  1
  S2-  S254  1  0.87538158  0.75628816  0.05096465  1
  S2-  S255  1  0.86734938  0.74783854  0.54476026  1
