# generated using pymatgen
data_La9Ce10Pr6Nd4Sm3(BiS2)32
_symmetry_space_group_name_H-M   'P 1'
_cell_length_a   16.18102330
_cell_length_b   16.14155512
_cell_length_c   27.16361817
_cell_angle_alpha   89.79966797
_cell_angle_beta   89.97902952
_cell_angle_gamma   89.99399288
_symmetry_Int_Tables_number   1
_chemical_formula_structural   La9Ce10Pr6Nd4Sm3(BiS2)32
_chemical_formula_sum   'La18 Ce20 Pr12 Nd8 Sm6 Bi64 S128'
_cell_volume   7094.73678218
_cell_formula_units_Z   2
loop_
 _symmetry_equiv_pos_site_id
 _symmetry_equiv_pos_as_xyz
  1  'x, y, z'
loop_
 _atom_type_symbol
 _atom_type_oxidation_number
  La3+  3.0
  Ce3+  3.0
  Pr3+  3.0
  Nd3+  3.0
  Sm3+  3.0
  Bi2+  2.0
  S2-  -2.0
loop_
 _atom_site_type_symbol
 _atom_site_label
 _atom_site_symmetry_multiplicity
 _atom_site_fract_x
 _atom_site_fract_y
 _atom_site_fract_z
 _atom_site_occupancy
  La3+  La0  1  0.74641861  0.62081546  0.08284724  1
  La3+  La1  1  0.49210644  0.63095390  0.09557039  1
  La3+  La2  1  0.10487372  0.25182863  0.41508923  1
  La3+  La3  1  0.11032120  0.74674784  0.42365900  1
  La3+  La4  1  0.23744414  0.87706303  0.56775109  1
  La3+  La5  1  0.49890341  0.37536278  0.06435963  1
  La3+  La6  1  0.35907004  0.25231070  0.42093899  1
  La3+  La7  1  0.72888365  0.86602114  0.57663093  1
  La3+  La8  1  0.87461892  0.50851393  0.93357432  1
  La3+  La9  1  0.13755668  0.49886977  0.88393829  1
  La3+  La10  1  0.24976210  0.37584301  0.06271851  1
  La3+  La11  1  0.36264963  0.74900140  0.41815135  1
  La3+  La12  1  0.73608249  0.11696537  0.57557959  1
  La3+  La13  1  0.10974299  0.49844281  0.43287950  1
  La3+  La14  1  0.35547553  -0.00312328  0.42342519  1
  La3+  La15  1  0.62219696  0.74754445  0.39769395  1
  La3+  La16  1  0.50551594  0.88099343  0.06855039  1
  La3+  La17  1  0.62260871  0.75200815  0.94314564  1
  Ce3+  Ce18  1  0.48661532  0.37346118  0.55988754  1
  Ce3+  Ce19  1  0.37471293  0.75417745  0.94316737  1
  Ce3+  Ce20  1  0.61360284  0.49202899  0.43342184  1
  Ce3+  Ce21  1  0.37598628  0.25146406  0.93456836  1
  Ce3+  Ce22  1  0.00368769  0.62381045  0.06398270  1
  Ce3+  Ce23  1  0.48368744  0.12091854  0.55491407  1
  Ce3+  Ce24  1  0.48305191  0.87113490  0.56058922  1
  Ce3+  Ce25  1  0.36669319  0.49985849  0.43081847  1
  Ce3+  Ce26  1  0.87279169  0.25267590  0.94606920  1
  Ce3+  Ce27  1  0.48605491  0.62715766  0.54721080  1
  Ce3+  Ce28  1  0.86964133  0.00151895  0.94717966  1
  Ce3+  Ce29  1  0.74588187  0.87118639  0.06919137  1
  Ce3+  Ce30  1  0.87199067  0.74939126  0.94678027  1
  Ce3+  Ce31  1  0.61427023  0.24740037  0.43654178  1
  Ce3+  Ce32  1  0.37168418  0.50447295  0.94198181  1
  Ce3+  Ce33  1  0.12549665  0.00038487  0.94137525  1
  Ce3+  Ce34  1  0.62614836  0.25295167  0.93694056  1
  Ce3+  Ce35  1  0.61078131  -0.00666828  0.44287302  1
  Ce3+  Ce36  1  0.23662157  0.12141026  0.55160033  1
  Ce3+  Ce37  1  0.12467917  0.25571799  0.93872200  1
  Pr3+  Pr38  1  0.86143307  -0.00451038  0.43863338  1
  Pr3+  Pr39  1  0.74993052  0.37556306  0.06850545  1
  Pr3+  Pr40  1  0.62434828  0.50215724  0.93963725  1
  Pr3+  Pr41  1  0.72732672  0.37605069  0.57594700  1
  Pr3+  Pr42  1  -0.00162741  0.87605303  0.05516138  1
  Pr3+  Pr43  1  0.23831181  0.37312202  0.55993875  1
  Pr3+  Pr44  1  -0.01060786  0.87086553  0.56300072  1
  Pr3+  Pr45  1  0.24635775  0.62718643  0.06564484  1
  Pr3+  Pr46  1  0.50009349  0.12398516  0.05535950  1
  Pr3+  Pr47  1  0.63513005  0.00962101  0.90902056  1
  Pr3+  Pr48  1  -0.01221074  0.37236386  0.56617729  1
  Pr3+  Pr49  1  0.00072156  0.37619941  0.05888196  1
  Nd3+  Nd50  1  0.25015360  0.87488482  0.06346407  1
  Nd3+  Nd51  1  0.37661533  0.00650878  0.92785858  1
  Nd3+  Nd52  1  0.12561400  0.75051403  0.93596590  1
  Nd3+  Nd53  1  0.74507192  0.12729159  0.06913876  1
  Nd3+  Nd54  1  0.10919645  -0.00288886  0.43212439  1
  Nd3+  Nd55  1  0.00076313  0.12423961  0.05502526  1
  Nd3+  Nd56  1  0.85668370  0.49769858  0.44647580  1
  Nd3+  Nd57  1  0.85887793  0.24916805  0.44710995  1
  Sm3+  Sm58  1  0.25139377  0.12461364  0.05734198  1
  Sm3+  Sm59  1  -0.01232105  0.12268750  0.55909519  1
  Sm3+  Sm60  1  -0.01220988  0.62382578  0.55662238  1
  Sm3+  Sm61  1  0.23734018  0.62483150  0.55217823  1
  Sm3+  Sm62  1  0.85439238  0.74715734  0.44577990  1
  Sm3+  Sm63  1  0.73125268  0.62204838  0.56590651  1
  Bi2+  Bi64  1  -0.00347239  0.13290223  0.29283381  1
  Bi2+  Bi65  1  -0.01036628  0.13362730  0.76785768  1
  Bi2+  Bi66  1  -0.02588055  0.38880979  0.29196397  1
  Bi2+  Bi67  1  0.01789480  0.36669419  0.78150258  1
  Bi2+  Bi68  1  -0.01810768  0.65709887  0.28485098  1
  Bi2+  Bi69  1  -0.00122134  0.62638113  0.79143222  1
  Bi2+  Bi70  1  0.02380030  0.85949646  0.30019207  1
  Bi2+  Bi71  1  0.00358305  0.85633589  0.78138142  1
  Bi2+  Bi72  1  0.21014935  0.11008868  0.26795421  1
  Bi2+  Bi73  1  0.18021449  0.10494786  0.79584877  1
  Bi2+  Bi74  1  0.23900139  0.36198126  0.28488333  1
  Bi2+  Bi75  1  0.35061225  0.35084198  0.80080515  1
  Bi2+  Bi76  1  0.24099381  0.62089463  0.28983650  1
  Bi2+  Bi77  1  0.36285809  0.55614888  0.75439984  1
  Bi2+  Bi78  1  0.26528238  0.88912172  0.28109799  1
  Bi2+  Bi79  1  0.24682373  0.81964737  0.81044713  1
  Bi2+  Bi80  1  0.44514616  0.12575417  0.32002964  1
  Bi2+  Bi81  1  0.49339515  0.14111070  0.78929078  1
  Bi2+  Bi82  1  0.49104202  0.31041607  0.29471534  1
  Bi2+  Bi83  1  0.54008637  0.37235163  0.83029236  1
  Bi2+  Bi84  1  0.51804786  0.58926159  0.27566770  1
  Bi2+  Bi85  1  0.54066727  0.56536764  0.80448325  1
  Bi2+  Bi86  1  0.50783267  0.94543177  0.28212771  1
  Bi2+  Bi87  1  0.49508171  0.84386493  0.80487985  1
  Bi2+  Bi88  1  0.64857991  0.09749872  0.32727428  1
  Bi2+  Bi89  1  0.78098209  0.14534246  0.79404322  1
  Bi2+  Bi90  1  0.75004752  0.25892661  0.32119178  1
  Bi2+  Bi91  1  0.73464143  0.38043011  0.79093986  1
  Bi2+  Bi92  1  0.77767423  0.62587102  0.29051530  1
  Bi2+  Bi93  1  0.73047842  0.64825118  0.80157664  1
  Bi2+  Bi94  1  0.83470590  0.90108891  0.29070910  1
  Bi2+  Bi95  1  0.81068283  0.89261237  0.77648079  1
  Bi2+  Bi96  1  0.06967235  0.00290209  0.21600197  1
  Bi2+  Bi97  1  0.15455656  -0.03494582  0.71525675  1
  Bi2+  Bi98  1  0.08221076  0.26035435  0.21683778  1
  Bi2+  Bi99  1  0.14220844  0.23438987  0.71398395  1
  Bi2+  Bi100  1  0.07925530  0.51816208  0.21930375  1
  Bi2+  Bi101  1  0.10989943  0.52768027  0.67669906  1
  Bi2+  Bi102  1  0.14390783  0.75798409  0.20522581  1
  Bi2+  Bi103  1  0.16085306  0.76114200  0.71616119  1
  Bi2+  Bi104  1  0.40086059  0.06104079  0.21185043  1
  Bi2+  Bi105  1  0.36771826  -0.01904063  0.70227183  1
  Bi2+  Bi106  1  0.37349041  0.27442208  0.19602570  1
  Bi2+  Bi107  1  0.33593643  0.20606471  0.72044020  1
  Bi2+  Bi108  1  0.38631623  0.48080175  0.21727154  1
  Bi2+  Bi109  1  0.36923954  0.39709847  0.68839568  1
  Bi2+  Bi110  1  0.35927955  0.74519249  0.21828733  1
  Bi2+  Bi111  1  0.41779106  0.72924478  0.71243219  1
  Bi2+  Bi112  1  0.66218520  0.03540818  0.21404893  1
  Bi2+  Bi113  1  0.62674934  0.01650624  0.70268910  1
  Bi2+  Bi114  1  0.62790129  0.23181699  0.22398617  1
  Bi2+  Bi115  1  0.59391228  0.27471988  0.73025167  1
  Bi2+  Bi116  1  0.78670786  0.44138039  0.25010728  1
  Bi2+  Bi117  1  0.60701558  0.50956656  0.70304481  1
  Bi2+  Bi118  1  0.62400856  0.77129186  0.20718307  1
  Bi2+  Bi119  1  0.61262552  0.74848462  0.70802751  1
  Bi2+  Bi120  1  0.85597916  0.04792678  0.21459753  1
  Bi2+  Bi121  1  0.92592214  -0.01759209  0.69907939  1
  Bi2+  Bi122  1  0.85364549  0.24821036  0.22062360  1
  Bi2+  Bi123  1  0.85984918  0.28647239  0.71966961  1
  Bi2+  Bi124  1  0.89895903  0.57363225  0.18596661  1
  Bi2+  Bi125  1  0.85535937  0.48480445  0.72343396  1
  Bi2+  Bi126  1  0.90015210  0.78742483  0.20725902  1
  Bi2+  Bi127  1  0.88209941  0.75026666  0.71298649  1
  S2-  S128  1  0.02768101  0.13891295  0.15235461  1
  S2-  S129  1  -0.01098809  0.12665142  0.65839824  1
  S2-  S130  1  0.01608258  0.38698160  0.16024178  1
  S2-  S131  1  -0.02487071  0.40956226  0.66484151  1
  S2-  S132  1  0.11959427  0.63471299  0.14286097  1
  S2-  S133  1  -0.00933319  0.64535637  0.65489638  1
  S2-  S134  1  0.03357971  0.86709940  0.15316531  1
  S2-  S135  1  0.10547818  0.85567310  0.63829475  1
  S2-  S136  1  0.27571104  0.14380554  0.15440297  1
  S2-  S137  1  0.24193706  0.03281142  0.63586535  1
  S2-  S138  1  0.26064495  0.38773057  0.16426335  1
  S2-  S139  1  0.19726699  0.37689762  0.65900467  1
  S2-  S140  1  0.34402511  0.61196833  0.15338156  1
  S2-  S141  1  0.23323232  0.63509469  0.65185437  1
  S2-  S142  1  0.26718976  0.86900062  0.16375857  1
  S2-  S143  1  0.36717179  0.85423650  0.64094897  1
  S2-  S144  1  0.53042108  0.13075507  0.15546245  1
  S2-  S145  1  0.48283030  0.07176561  0.65138551  1
  S2-  S146  1  0.50271154  0.39529018  0.16499620  1
  S2-  S147  1  0.58435591  0.37081655  0.64253412  1
  S2-  S148  1  0.59990756  0.61899340  0.17722820  1
  S2-  S149  1  0.50804600  0.62686212  0.64698850  1
  S2-  S150  1  0.47588860  0.78554703  0.15464307  1
  S2-  S151  1  0.58506034  0.87556585  0.64763572  1
  S2-  S152  1  0.73954129  0.24962077  0.14387784  1
  S2-  S153  1  0.68659931  0.16894294  0.67092228  1
  S2-  S154  1  0.76097842  0.48242679  0.14912895  1
  S2-  S155  1  0.74444268  0.50947194  0.64531563  1
  S2-  S156  1  0.76357310  0.75729915  0.14912651  1
  S2-  S157  1  0.74473205  0.72945325  0.64733726  1
  S2-  S158  1  0.63474818  0.91408248  0.14435171  1
  S2-  S159  1  0.76131580  0.98721348  0.65070874  1
  S2-  S160  1  0.21798904  0.00494452  0.34941844  1
  S2-  S161  1  0.13779772  -0.04713539  0.84798681  1
  S2-  S162  1  0.11345351  0.39449937  0.34988671  1
  S2-  S163  1  0.13244145  0.32632280  0.84923183  1
  S2-  S164  1  0.09999448  0.61062959  0.35262215  1
  S2-  S165  1  0.12316708  0.50545588  0.77256907  1
  S2-  S166  1  0.22756289  0.76759336  0.34504380  1
  S2-  S167  1  0.13041701  0.66988543  0.84784066  1
  S2-  S168  1  0.39327203  -0.11785142  0.34798834  1
  S2-  S169  1  0.36111327  -0.06404429  0.83414786  1
  S2-  S170  1  0.23513520  0.22818926  0.34189968  1
  S2-  S171  1  0.37709893  0.14377739  0.85689701  1
  S2-  S172  1  0.36726123  0.39141217  0.35205847  1
  S2-  S173  1  0.30492300  0.50277541  0.85032746  1
  S2-  S174  1  0.37350671  0.60773086  0.34634921  1
  S2-  S175  1  0.37477481  0.72694544  0.84549587  1
  S2-  S176  1  0.62826774  -0.08275937  0.35532267  1
  S2-  S177  1  0.57704785  -0.01741398  0.80916536  1
  S2-  S178  1  0.62006815  0.36330882  0.36153191  1
  S2-  S179  1  0.64280646  0.16373587  0.85249841  1
  S2-  S180  1  0.63638601  0.58367934  0.34871599  1
  S2-  S181  1  0.74164359  0.50878567  0.86219680  1
  S2-  S182  1  0.54385095  0.74257107  0.30001574  1
  S2-  S183  1  0.64538991  0.77809761  0.84351392  1
  S2-  S184  1  0.98027698  -0.00127614  0.36184589  1
  S2-  S185  1  0.79444326  -0.00023098  0.85820640  1
  S2-  S186  1  0.94976956  0.25340604  0.35945658  1
  S2-  S187  1  0.85971218  0.26185440  0.84904391  1
  S2-  S188  1  0.86002117  0.49101499  0.34601061  1
  S2-  S189  1  0.96936655  0.48831643  0.84808599  1
  S2-  S190  1  0.78741831  0.75674689  0.35302637  1
  S2-  S191  1  0.86951647  0.68689955  0.85521338  1
  S2-  S192  1  -0.01489368  0.12701186  0.45718169  1
  S2-  S193  1  -0.00098673  0.12534334  0.94724592  1
  S2-  S194  1  -0.01677686  0.37445054  0.45990894  1
  S2-  S195  1  -0.00082356  0.37420297  0.95315993  1
  S2-  S196  1  -0.02214314  0.62434169  0.45208983  1
  S2-  S197  1  0.00208048  0.63087561  0.95786757  1
  S2-  S198  1  -0.01837862  0.86481337  0.45621514  1
  S2-  S199  1  -0.00281913  0.87639392  0.94788938  1
  S2-  S200  1  0.23079256  0.12892730  0.44941415  1
  S2-  S201  1  0.24650565  0.12616562  0.95278581  1
  S2-  S202  1  0.23543021  0.37194907  0.45415918  1
  S2-  S203  1  0.25092171  0.37566264  0.95396013  1
  S2-  S204  1  0.23904390  0.62084050  0.44924827  1
  S2-  S205  1  0.24911158  0.62865486  0.95662140  1
  S2-  S206  1  0.22997325  0.87400438  0.45443845  1
  S2-  S207  1  0.25094371  0.87908574  0.95549536  1
  S2-  S208  1  0.48514992  0.12468173  0.44867557  1
  S2-  S209  1  0.50591187  0.12380670  0.95018912  1
  S2-  S210  1  0.48517117  0.36978983  0.45679284  1
  S2-  S211  1  0.49727420  0.37667265  0.95528599  1
  S2-  S212  1  0.49553913  0.62635165  0.44355434  1
  S2-  S213  1  0.49773550  0.62563762  0.94926513  1
  S2-  S214  1  0.49165891  0.86774413  0.45295184  1
  S2-  S215  1  0.50129317  0.88509401  0.95114152  1
  S2-  S216  1  0.73966530  0.12096704  0.46049935  1
  S2-  S217  1  0.75064592  0.12861586  0.96159855  1
  S2-  S218  1  0.73838066  0.37173629  0.46719760  1
  S2-  S219  1  0.74822456  0.37441304  0.96011016  1
  S2-  S220  1  0.73559362  0.62328163  0.45933631  1
  S2-  S221  1  0.74653482  0.62910061  0.96681092  1
  S2-  S222  1  0.73821871  0.87254049  0.46209638  1
  S2-  S223  1  0.74880078  0.87648197  0.95960051  1
  S2-  S224  1  0.12743293  0.00148580  0.04913151  1
  S2-  S225  1  0.10595397  0.00083850  0.53825908  1
  S2-  S226  1  0.12672147  0.24708779  0.04687742  1
  S2-  S227  1  0.11029309  0.24632736  0.55027160  1
  S2-  S228  1  0.12583485  0.49751090  0.05064322  1
  S2-  S229  1  0.11142325  0.50006999  0.54415128  1
  S2-  S230  1  0.12539467  0.75611088  0.04234864  1
  S2-  S231  1  0.11158213  0.74161647  0.53642880  1
  S2-  S232  1  0.37292500  0.00100816  0.04560977  1
  S2-  S233  1  0.36268859  -0.00036521  0.53292921  1
  S2-  S234  1  0.37417036  0.24782635  0.04369483  1
  S2-  S235  1  0.36130641  0.24699147  0.54720953  1
  S2-  S236  1  0.37626786  0.50258816  0.04885479  1
  S2-  S237  1  0.36108567  0.49931077  0.54315891  1
  S2-  S238  1  0.37492538  0.75328459  0.04789307  1
  S2-  S239  1  0.35798027  0.74534782  0.53440626  1
  S2-  S240  1  0.62859972  0.00623451  0.04000260  1
  S2-  S241  1  0.60951140  -0.00074926  0.54632280  1
  S2-  S242  1  0.62192167  0.25099327  0.04367052  1
  S2-  S243  1  0.61000054  0.24302011  0.54475091  1
  S2-  S244  1  0.61783921  0.50342569  0.04946485  1
  S2-  S245  1  0.60839555  0.49956603  0.54091988  1
  S2-  S246  1  0.61838841  0.74612589  0.05086692  1
  S2-  S247  1  0.60907738  0.74389383  0.54589726  1
  S2-  S248  1  0.87139106  0.00216238  0.05530417  1
  S2-  S249  1  0.86776738  -0.00269665  0.54541440  1
  S2-  S250  1  0.87739338  0.24774196  0.05150731  1
  S2-  S251  1  0.86019352  0.24756494  0.55702686  1
  S2-  S252  1  0.87843050  0.50101735  0.04472573  1
  S2-  S253  1  0.86458699  0.49986653  0.55082998  1
  S2-  S254  1  0.87867579  0.74829088  0.05053856  1
  S2-  S255  1  0.86474727  0.74512929  0.54909371  1
