# generated using pymatgen
data_La9Ce10Pr6Nd4Sm3(BiS2)32
_symmetry_space_group_name_H-M   'P 1'
_cell_length_a   16.18430513
_cell_length_b   16.14203699
_cell_length_c   27.14270326
_cell_angle_alpha   89.81995729
_cell_angle_beta   89.99409045
_cell_angle_gamma   90.03584045
_symmetry_Int_Tables_number   1
_chemical_formula_structural   La9Ce10Pr6Nd4Sm3(BiS2)32
_chemical_formula_sum   'La18 Ce20 Pr12 Nd8 Sm6 Bi64 S128'
_cell_volume   7090.93106420
_cell_formula_units_Z   2
loop_
 _symmetry_equiv_pos_site_id
 _symmetry_equiv_pos_as_xyz
  1  'x, y, z'
loop_
 _atom_type_symbol
 _atom_type_oxidation_number
  La3+  3.0
  Ce3+  3.0
  Pr3+  3.0
  Nd3+  3.0
  Sm3+  3.0
  Bi2+  2.0
  S2-  -2.0
loop_
 _atom_site_type_symbol
 _atom_site_label
 _atom_site_symmetry_multiplicity
 _atom_site_fract_x
 _atom_site_fract_y
 _atom_site_fract_z
 _atom_site_occupancy
  La3+  La0  1  0.12246457  0.27472333  0.40870439  1
  La3+  La1  1  0.77598141  0.86592253  0.08302673  1
  La3+  La2  1  0.52488780  0.36960537  0.07241597  1
  La3+  La3  1  0.01743119  0.13025704  0.07731429  1
  La3+  La4  1  0.74465971  0.13943602  0.56313465  1
  La3+  La5  1  0.49318444  0.14390713  0.57647297  1
  La3+  La6  1  -0.00214690  0.64455445  0.57810481  1
  La3+  La7  1  0.62708711  -0.00833405  0.89050147  1
  La3+  La8  1  0.77392240  0.11816453  0.07292827  1
  La3+  La9  1  0.62996289  0.27219861  0.42176745  1
  La3+  La10  1  0.27219818  0.61515657  0.06901756  1
  La3+  La11  1  0.02091246  0.86316202  0.07283044  1
  La3+  La12  1  0.52426555  0.87258848  0.07344399  1
  La3+  La13  1  0.13807311  0.24538536  0.92950376  1
  La3+  La14  1  0.00176646  0.89223076  0.56133238  1
  La3+  La15  1  0.37847028  0.27496289  0.42927311  1
  La3+  La16  1  0.25445279  0.64202510  0.61022004  1
  La3+  La17  1  0.26780029  0.86637270  0.06947382  1
  Ce3+  Ce18  1  0.39757974  0.49292648  0.93618864  1
  Ce3+  Ce19  1  0.25447449  0.88450854  0.55755789  1
  Ce3+  Ce20  1  -0.00010294  0.13182920  0.55253856  1
  Ce3+  Ce21  1  0.25418801  0.14062638  0.55094983  1
  Ce3+  Ce22  1  0.64617794  0.75291507  0.94613543  1
  Ce3+  Ce23  1  0.14554701  0.74324564  0.93710436  1
  Ce3+  Ce24  1  0.39357475  -0.00266430  0.95153855  1
  Ce3+  Ce25  1  0.89218293  0.24294474  0.93858636  1
  Ce3+  Ce26  1  0.64167097  0.23685112  0.93989152  1
  Ce3+  Ce27  1  0.87750066  0.01075025  0.42108831  1
  Ce3+  Ce28  1  0.63852254  0.49585215  0.93278471  1
  Ce3+  Ce29  1  0.50625303  0.39177635  0.56302598  1
  Ce3+  Ce30  1  0.88637294  0.76709066  0.43029140  1
  Ce3+  Ce31  1  0.39666790  0.75017063  0.94348348  1
  Ce3+  Ce32  1  0.62846900  0.76449034  0.43902344  1
  Ce3+  Ce33  1  0.75398921  0.64489470  0.56866699  1
  Ce3+  Ce34  1  0.37352521  0.51543644  0.44986109  1
  Ce3+  Ce35  1  0.87744119  0.51751771  0.44631054  1
  Ce3+  Ce36  1  0.26279887  0.11449568  0.07378400  1
  Ce3+  Ce37  1  0.39406129  0.24208829  0.95139332  1
  Pr3+  Pr38  1  0.52148874  0.61887673  0.05887315  1
  Pr3+  Pr39  1  0.75245521  0.89742701  0.55661549  1
  Pr3+  Pr40  1  0.12471778  0.51766040  0.44528642  1
  Pr3+  Pr41  1  0.00106104  0.38626254  0.56278422  1
  Pr3+  Pr42  1  0.26688146  0.37187004  0.06301430  1
  Pr3+  Pr43  1  0.14908533  0.50184096  0.91705979  1
  Pr3+  Pr44  1  0.13748226  -0.00364474  0.93967696  1
  Pr3+  Pr45  1  0.25010048  0.38665458  0.56711681  1
  Pr3+  Pr46  1  0.50344940  0.63799161  0.56594849  1
  Pr3+  Pr47  1  0.02050799  0.61514193  0.06116877  1
  Pr3+  Pr48  1  0.89148403  0.74550081  0.94299740  1
  Pr3+  Pr49  1  0.52298975  0.12129218  0.07261449  1
  Nd3+  Nd50  1  0.88927152  -0.00606611  0.93914011  1
  Nd3+  Nd51  1  0.12853060  0.01536187  0.43543984  1
  Nd3+  Nd52  1  0.37682016  0.01951596  0.43156907  1
  Nd3+  Nd53  1  0.87650235  0.26378731  0.43113904  1
  Nd3+  Nd54  1  0.76817820  0.61745186  0.06666741  1
  Nd3+  Nd55  1  0.62931172  0.51887210  0.43649118  1
  Nd3+  Nd56  1  0.62551375  0.01649247  0.42920040  1
  Nd3+  Nd57  1  0.50052067  0.88821907  0.55289819  1
  Sm3+  Sm58  1  0.75042481  0.38284100  0.56072388  1
  Sm3+  Sm59  1  0.76535070  0.37009408  0.05356667  1
  Sm3+  Sm60  1  0.12862649  0.76474027  0.44124815  1
  Sm3+  Sm61  1  0.89105673  0.49672886  0.94370270  1
  Sm3+  Sm62  1  0.02066954  0.37188765  0.05245277  1
  Sm3+  Sm63  1  0.37693988  0.76382960  0.43949956  1
  Bi2+  Bi64  1  -0.02541752  0.17413508  0.26196351  1
  Bi2+  Bi65  1  -0.04281939  0.09865740  0.78225189  1
  Bi2+  Bi66  1  -0.00405925  0.41506535  0.28897849  1
  Bi2+  Bi67  1  -0.04436509  0.38112661  0.80268123  1
  Bi2+  Bi68  1  -0.00700464  0.62524419  0.29055727  1
  Bi2+  Bi69  1  -0.00716833  0.63642727  0.78902795  1
  Bi2+  Bi70  1  0.00971211  0.87578841  0.29034025  1
  Bi2+  Bi71  1  0.01684560  0.89642794  0.78329703  1
  Bi2+  Bi72  1  0.15993389  0.14682190  0.29680949  1
  Bi2+  Bi73  1  0.22658172  0.05876522  0.81565530  1
  Bi2+  Bi74  1  0.21496750  0.33820000  0.28604947  1
  Bi2+  Bi75  1  0.31771905  0.34868770  0.79474000  1
  Bi2+  Bi76  1  0.18813030  0.62096387  0.27117303  1
  Bi2+  Bi77  1  0.27650622  0.62796757  0.79526102  1
  Bi2+  Bi78  1  0.21288133  0.81885803  0.30489771  1
  Bi2+  Bi79  1  0.21403322  0.86487544  0.79534933  1
  Bi2+  Bi80  1  0.49397244  0.09420054  0.29489865  1
  Bi2+  Bi81  1  0.49379285  0.12638079  0.79548609  1
  Bi2+  Bi82  1  0.46677138  0.34508213  0.29573858  1
  Bi2+  Bi83  1  0.51486538  0.37024874  0.77822886  1
  Bi2+  Bi84  1  0.55775911  0.58471269  0.30704506  1
  Bi2+  Bi85  1  0.52174926  0.62082944  0.79173618  1
  Bi2+  Bi86  1  0.46823056  0.84593964  0.27967352  1
  Bi2+  Bi87  1  0.49503764  0.86335722  0.79230723  1
  Bi2+  Bi88  1  0.73506212  0.15073777  0.28890797  1
  Bi2+  Bi89  1  0.82328692  0.23607455  0.80866565  1
  Bi2+  Bi90  1  0.74090526  0.40555066  0.28531849  1
  Bi2+  Bi91  1  0.71062296  0.40107264  0.78165588  1
  Bi2+  Bi92  1  0.75737414  0.60591334  0.29559478  1
  Bi2+  Bi93  1  0.70810306  0.58874475  0.81530882  1
  Bi2+  Bi94  1  0.74202203  0.80090418  0.29366279  1
  Bi2+  Bi95  1  0.77954847  0.84365806  0.80170642  1
  Bi2+  Bi96  1  0.09928717  0.01969979  0.20397900  1
  Bi2+  Bi97  1  0.13663811  0.00489754  0.70330721  1
  Bi2+  Bi98  1  0.15334830  0.37779507  0.18134565  1
  Bi2+  Bi99  1  0.12044107  0.18154355  0.74704819  1
  Bi2+  Bi100  1  0.05787401  0.55295259  0.18727296  1
  Bi2+  Bi101  1  0.13525637  0.46767754  0.72010001  1
  Bi2+  Bi102  1  0.13577211  0.81454090  0.20145328  1
  Bi2+  Bi103  1  0.10299893  0.74666434  0.71955879  1
  Bi2+  Bi104  1  0.28376303  0.01173672  0.24420091  1
  Bi2+  Bi105  1  0.33235751  0.00499884  0.72312305  1
  Bi2+  Bi106  1  0.27888458  0.21507559  0.20707368  1
  Bi2+  Bi107  1  0.35058471  0.24943885  0.70389932  1
  Bi2+  Bi108  1  0.36883924  0.54420089  0.28343193  1
  Bi2+  Bi109  1  0.46699881  0.51211250  0.69958045  1
  Bi2+  Bi110  1  0.36705949  0.70626529  0.22067382  1
  Bi2+  Bi111  1  0.37201792  0.80717355  0.71217224  1
  Bi2+  Bi112  1  0.58444188  0.00609010  0.20073666  1
  Bi2+  Bi113  1  0.64526647  -0.05300319  0.68565415  1
  Bi2+  Bi114  1  0.57761724  0.25561841  0.19639339  1
  Bi2+  Bi115  1  0.62331292  0.25189840  0.70417370  1
  Bi2+  Bi116  1  0.58102585  0.48657931  0.19675946  1
  Bi2+  Bi117  1  0.64846502  0.49048292  0.65876009  1
  Bi2+  Bi118  1  0.61015987  0.67660435  0.20824444  1
  Bi2+  Bi119  1  0.62695388  0.67111338  0.69969265  1
  Bi2+  Bi120  1  0.85044279  -0.00444893  0.21638829  1
  Bi2+  Bi121  1  0.88616988  -0.08750193  0.68225701  1
  Bi2+  Bi122  1  0.87445359  0.35399589  0.20480975  1
  Bi2+  Bi123  1  0.90049261  0.26354366  0.70266068  1
  Bi2+  Bi124  1  0.85420528  0.54893622  0.18920519  1
  Bi2+  Bi125  1  0.83593145  0.45669090  0.69531258  1
  Bi2+  Bi126  1  0.87841759  0.74386763  0.21933178  1
  Bi2+  Bi127  1  0.81845228  0.68073604  0.73803220  1
  S2-  S128  1  -0.10266472  0.10868560  0.15315213  1
  S2-  S129  1  -0.00170689  0.02556889  0.63339939  1
  S2-  S130  1  0.00114540  0.30445140  0.14329103  1
  S2-  S131  1  -0.00205401  0.39820293  0.66463603  1
  S2-  S132  1  0.03941157  0.72021984  0.14296609  1
  S2-  S133  1  0.10075193  0.60803780  0.65986183  1
  S2-  S134  1  -0.08656800  0.88778267  0.15524018  1
  S2-  S135  1  -0.00902755  0.79250722  0.64650204  1
  S2-  S136  1  0.15054198  0.15111992  0.14748520  1
  S2-  S137  1  0.33913357  0.12035622  0.63809729  1
  S2-  S138  1  0.25829911  0.48778554  0.13981383  1
  S2-  S139  1  0.22845486  0.35313184  0.66674525  1
  S2-  S140  1  0.26607625  0.73973192  0.14502493  1
  S2-  S141  1  0.27154303  0.55604923  0.70789495  1
  S2-  S142  1  0.26334297  0.97782984  0.14996705  1
  S2-  S143  1  0.24110758  0.80776778  0.64713554  1
  S2-  S144  1  0.46615203  0.13212463  0.17110259  1
  S2-  S145  1  0.59846755  0.10768154  0.65424864  1
  S2-  S146  1  0.45856688  0.37544910  0.16894152  1
  S2-  S147  1  0.48842395  0.29168711  0.64300921  1
  S2-  S148  1  0.46614247  0.61604792  0.15493255  1
  S2-  S149  1  0.41728750  0.66483475  0.65281229  1
  S2-  S150  1  0.48562245  0.87626224  0.17373327  1
  S2-  S151  1  0.49776395  0.89426233  0.65303346  1
  S2-  S152  1  0.68226583  0.14355812  0.16503127  1
  S2-  S153  1  0.78272975  0.02136976  0.63691499  1
  S2-  S154  1  0.67348838  0.37118116  0.13910346  1
  S2-  S155  1  0.75649453  0.26730511  0.63895021  1
  S2-  S156  1  0.75162954  0.71379570  0.15022796  1
  S2-  S157  1  0.86187679  0.61499350  0.64596029  1
  S2-  S158  1  0.71130667  0.91718975  0.17893994  1
  S2-  S159  1  0.75046490  0.81515023  0.64785897  1
  S2-  S160  1  0.12237402  -0.03294021  0.33915212  1
  S2-  S161  1  0.01490366  0.00352640  0.86402064  1
  S2-  S162  1  -0.01907301  0.27147018  0.34668733  1
  S2-  S163  1  0.21255956  0.23396634  0.83631649  1
  S2-  S164  1  0.12857594  0.43173386  0.35544555  1
  S2-  S165  1  0.10503726  0.43245959  0.82168904  1
  S2-  S166  1  0.02480607  0.74167864  0.36162584  1
  S2-  S167  1  0.13505028  0.64839265  0.85397456  1
  S2-  S168  1  0.38496168  -0.02359449  0.33404242  1
  S2-  S169  1  0.45107288  -0.00955825  0.85770771  1
  S2-  S170  1  0.38417449  0.21247336  0.33272396  1
  S2-  S171  1  0.42607083  0.24563267  0.85259992  1
  S2-  S172  1  0.37297670  0.42793954  0.36368926  1
  S2-  S173  1  0.29835786  0.49697491  0.85375182  1
  S2-  S174  1  0.36463514  0.75846044  0.33995283  1
  S2-  S175  1  0.39854099  0.73278224  0.84433837  1
  S2-  S176  1  0.64403377  0.02144781  0.32727532  1
  S2-  S177  1  0.60484062  -0.00861696  0.77646845  1
  S2-  S178  1  0.58493872  0.22239753  0.32165395  1
  S2-  S179  1  0.62758128  0.15738121  0.85209973  1
  S2-  S180  1  0.60942102  0.42333047  0.35309399  1
  S2-  S181  1  0.51700246  0.48423999  0.86134819  1
  S2-  S182  1  0.59423925  0.80113772  0.34389982  1
  S2-  S183  1  0.63358143  0.81867243  0.85386849  1
  S2-  S184  1  0.88160956  0.08197975  0.32505754  1
  S2-  S185  1  0.79067944  -0.02043925  0.85312082  1
  S2-  S186  1  0.76770436  0.27384601  0.35103364  1
  S2-  S187  1  0.99537513  0.23352705  0.85932866  1
  S2-  S188  1  0.86488932  0.48488163  0.34943211  1
  S2-  S189  1  0.89522793  0.52964053  0.84636286  1
  S2-  S190  1  0.86545182  0.87716929  0.35290353  1
  S2-  S191  1  0.92564175  0.77074049  0.84428008  1
  S2-  S192  1  0.00692028  0.13969651  0.44604238  1
  S2-  S193  1  0.01539314  0.12236389  0.96546084  1
  S2-  S194  1  0.00077651  0.38924533  0.45636263  1
  S2-  S195  1  0.01600438  0.37831419  0.94898969  1
  S2-  S196  1  0.00195372  0.63876695  0.46427561  1
  S2-  S197  1  0.01488785  0.61806457  0.95467292  1
  S2-  S198  1  0.00783944  0.89194309  0.45359410  1
  S2-  S199  1  0.02047040  0.86423609  0.96046150  1
  S2-  S200  1  0.24885574  0.14521777  0.44267474  1
  S2-  S201  1  0.26596154  0.11848231  0.96010525  1
  S2-  S202  1  0.24424754  0.38733485  0.45975435  1
  S2-  S203  1  0.26925803  0.36693127  0.95369932  1
  S2-  S204  1  0.25144009  0.64083869  0.44007579  1
  S2-  S205  1  0.27484240  0.62447834  0.95754360  1
  S2-  S206  1  0.25396377  0.88788592  0.44905584  1
  S2-  S207  1  0.26761657  0.87232261  0.95488263  1
  S2-  S208  1  0.50139092  0.14149096  0.44484134  1
  S2-  S209  1  0.51961565  0.11632347  0.96381561  1
  S2-  S210  1  0.50417439  0.39633196  0.45919704  1
  S2-  S211  1  0.52152475  0.36299208  0.96130569  1
  S2-  S212  1  0.49977623  0.63926568  0.45378913  1
  S2-  S213  1  0.52182828  0.62658070  0.95297024  1
  S2-  S214  1  0.49768697  0.88999248  0.44658608  1
  S2-  S215  1  0.52111695  0.87521386  0.96197790  1
  S2-  S216  1  0.75033890  0.13657801  0.44812549  1
  S2-  S217  1  0.77069428  0.12154377  0.95886894  1
  S2-  S218  1  0.75325464  0.39400932  0.45721883  1
  S2-  S219  1  0.76606745  0.37194710  0.94773201  1
  S2-  S220  1  0.75392112  0.64291751  0.45147887  1
  S2-  S221  1  0.76636091  0.61955916  0.95717175  1
  S2-  S222  1  0.74686500  0.89092456  0.44948144  1
  S2-  S223  1  0.77041339  0.86799092  0.96561143  1
  S2-  S224  1  0.13840064  -0.00680191  0.04709694  1
  S2-  S225  1  0.13587625  0.01355835  0.54106259  1
  S2-  S226  1  0.14328806  0.25080132  0.03954819  1
  S2-  S227  1  0.12440829  0.25779657  0.55341080  1
  S2-  S228  1  0.14151722  0.49385985  0.03449242  1
  S2-  S229  1  0.12915593  0.51432124  0.55202074  1
  S2-  S230  1  0.14649106  0.74034715  0.04049421  1
  S2-  S231  1  0.13233630  0.75964076  0.54420204  1
  S2-  S232  1  0.39659525  -0.00381171  0.05551290  1
  S2-  S233  1  0.37687138  0.01128429  0.53782784  1
  S2-  S234  1  0.38961375  0.24261554  0.05718610  1
  S2-  S235  1  0.37477045  0.26773749  0.53832893  1
  S2-  S236  1  0.40023766  0.49155195  0.04364629  1
  S2-  S237  1  0.37167880  0.51570217  0.55625056  1
  S2-  S238  1  0.40005988  0.74724958  0.04847027  1
  S2-  S239  1  0.37607572  0.76053292  0.54333301  1
  S2-  S240  1  0.64723848  -0.00427640  0.06404979  1
  S2-  S241  1  0.61746660  0.01611145  0.53707701  1
  S2-  S242  1  0.64708866  0.24168694  0.04466185  1
  S2-  S243  1  0.62231117  0.26637224  0.53704754  1
  S2-  S244  1  0.64613890  0.49760127  0.04041204  1
  S2-  S245  1  0.63199620  0.51693911  0.54291277  1
  S2-  S246  1  0.64435619  0.74531447  0.05103789  1
  S2-  S247  1  0.62410872  0.76368702  0.54515114  1
  S2-  S248  1  0.89704770  -0.00775535  0.04673445  1
  S2-  S249  1  0.87709189  0.01662174  0.52766988  1
  S2-  S250  1  0.88939246  0.25297250  0.04378808  1
  S2-  S251  1  0.88010355  0.26073456  0.53988990  1
  S2-  S252  1  0.89099236  0.49107305  0.04915146  1
  S2-  S253  1  0.87274734  0.50706513  0.54899291  1
  S2-  S254  1  0.89348642  0.73749961  0.04920225  1
  S2-  S255  1  0.87268366  0.76723730  0.53838964  1
