# generated using pymatgen
data_La9Ce10Pr6Nd4Sm3(BiS2)32
_symmetry_space_group_name_H-M   'P 1'
_cell_length_a   16.16402873
_cell_length_b   16.21624296
_cell_length_c   27.11045406
_cell_angle_alpha   90.12977239
_cell_angle_beta   89.95554315
_cell_angle_gamma   89.93175908
_symmetry_Int_Tables_number   1
_chemical_formula_structural   La9Ce10Pr6Nd4Sm3(BiS2)32
_chemical_formula_sum   'La18 Ce20 Pr12 Nd8 Sm6 Bi64 S128'
_cell_volume   7106.16183958
_cell_formula_units_Z   2
loop_
 _symmetry_equiv_pos_site_id
 _symmetry_equiv_pos_as_xyz
  1  'x, y, z'
loop_
 _atom_type_symbol
 _atom_type_oxidation_number
  La3+  3.0
  Ce3+  3.0
  Pr3+  3.0
  Nd3+  3.0
  Sm3+  3.0
  Bi2+  2.0
  S2-  -2.0
loop_
 _atom_site_type_symbol
 _atom_site_label
 _atom_site_symmetry_multiplicity
 _atom_site_fract_x
 _atom_site_fract_y
 _atom_site_fract_z
 _atom_site_occupancy
  La3+  La0  1  0.25293459  0.37278099  0.57159269  1
  La3+  La1  1  0.73636062  0.38690690  0.08974265  1
  La3+  La2  1  0.00290724  0.11751759  0.58618127  1
  La3+  La3  1  0.73453412  0.11738321  0.08636286  1
  La3+  La4  1  0.63420391  0.49864974  0.42254101  1
  La3+  La5  1  0.63422096  -0.00022331  0.42998072  1
  La3+  La6  1  0.51005704  0.62055669  0.56376980  1
  La3+  La7  1  0.87910304  0.23549262  0.40698995  1
  La3+  La8  1  0.26245745  0.12308365  0.59523577  1
  La3+  La9  1  0.24018351  0.62507728  0.09944237  1
  La3+  La10  1  0.37180958  0.49686593  0.43005640  1
  La3+  La11  1  0.35987053  -0.00369905  0.93386264  1
  La3+  La12  1  0.25911699  0.87291713  0.56647760  1
  La3+  La13  1  0.36777662  -0.00442541  0.41803398  1
  La3+  La14  1  0.86048760  0.00968706  0.92632650  1
  La3+  La15  1  0.62361974  0.50265982  0.92332258  1
  La3+  La16  1  0.11473921  0.50344465  0.93405377  1
  La3+  La17  1  0.74318643  0.87039745  0.57642920  1
  Ce3+  Ce18  1  0.50471314  0.87097806  0.54036331  1
  Ce3+  Ce19  1  0.87994063  0.49102129  0.43085953  1
  Ce3+  Ce20  1  0.37999875  0.73960812  0.43477849  1
  Ce3+  Ce21  1  0.12652351  0.49250337  0.43942232  1
  Ce3+  Ce22  1  0.24039062  0.37907970  0.06019490  1
  Ce3+  Ce23  1  0.73898997  0.87586949  0.06267300  1
  Ce3+  Ce24  1  0.49242974  0.38194713  0.05671870  1
  Ce3+  Ce25  1  0.49170917  0.12520698  0.06143867  1
  Ce3+  Ce26  1  0.35938127  0.74932684  0.94668008  1
  Ce3+  Ce27  1  0.87773779  0.74451676  0.44649809  1
  Ce3+  Ce28  1  0.00852508  0.61894689  0.55650354  1
  Ce3+  Ce29  1  0.36523067  0.25129701  0.93997430  1
  Ce3+  Ce30  1  0.75557998  0.37119150  0.55781550  1
  Ce3+  Ce31  1  0.00274543  0.36774662  0.55791668  1
  Ce3+  Ce32  1  -0.00701378  0.88131014  0.05717289  1
  Ce3+  Ce33  1  -0.00467754  0.62797073  0.06164678  1
  Ce3+  Ce34  1  0.61748930  0.00219962  0.93918491  1
  Ce3+  Ce35  1  0.36403524  0.50100121  0.93760082  1
  Ce3+  Ce36  1  0.73847173  0.63043094  0.05885044  1
  Ce3+  Ce37  1  0.49046647  0.62534905  0.05380635  1
  Pr3+  Pr38  1  0.50132024  0.11923462  0.55442300  1
  Pr3+  Pr39  1  0.13360741  0.74547057  0.43802432  1
  Pr3+  Pr40  1  0.61568085  0.25073669  0.94863449  1
  Pr3+  Pr41  1  0.12603568  0.00203880  0.44536082  1
  Pr3+  Pr42  1  0.23915041  0.12822816  0.05640480  1
  Pr3+  Pr43  1  0.64057147  0.74446618  0.42771085  1
  Pr3+  Pr44  1  0.86031318  0.24991673  0.94915514  1
  Pr3+  Pr45  1  0.87963327  -0.00159584  0.44627373  1
  Pr3+  Pr46  1  0.12743339  0.24289200  0.44508239  1
  Pr3+  Pr47  1  0.00286518  0.87026359  0.55985004  1
  Pr3+  Pr48  1  0.10697297  -0.00691103  0.91434865  1
  Pr3+  Pr49  1  0.25683604  0.62077432  0.57785387  1
  Nd3+  Nd50  1  0.61545990  0.75415909  0.93996394  1
  Nd3+  Nd51  1  0.75366063  0.61357563  0.56725529  1
  Nd3+  Nd52  1  0.23097670  0.88517716  0.07082759  1
  Nd3+  Nd53  1  0.37573060  0.24594550  0.44109410  1
  Nd3+  Nd54  1  0.63084718  0.24715242  0.44088692  1
  Nd3+  Nd55  1  0.75195034  0.12160631  0.57071419  1
  Nd3+  Nd56  1  0.11575120  0.25700437  0.92599555  1
  Nd3+  Nd57  1  0.86447407  0.50184743  0.94502822  1
  Sm3+  Sm58  1  0.48437471  0.87322484  0.05604946  1
  Sm3+  Sm59  1  0.11384504  0.75148009  0.94003398  1
  Sm3+  Sm60  1  0.50386069  0.37411950  0.55075363  1
  Sm3+  Sm61  1  -0.00858474  0.37697301  0.05838543  1
  Sm3+  Sm62  1  -0.01105967  0.12864502  0.05296582  1
  Sm3+  Sm63  1  0.86473671  0.75500601  0.94752112  1
  Bi2+  Bi64  1  0.00251995  0.06850373  0.29752629  1
  Bi2+  Bi65  1  -0.03429150  0.11550343  0.78524215  1
  Bi2+  Bi66  1  0.02098882  0.45280952  0.31860366  1
  Bi2+  Bi67  1  -0.02229348  0.43916876  0.79822910  1
  Bi2+  Bi68  1  -0.02486765  0.63531007  0.29159553  1
  Bi2+  Bi69  1  0.05322831  0.61545835  0.82310438  1
  Bi2+  Bi70  1  0.00715541  0.87406366  0.29343742  1
  Bi2+  Bi71  1  0.00145362  0.80099024  0.79067630  1
  Bi2+  Bi72  1  0.20689760  0.17027772  0.31777711  1
  Bi2+  Bi73  1  0.25376511  0.16251823  0.81009088  1
  Bi2+  Bi74  1  0.21082989  0.37116429  0.29564744  1
  Bi2+  Bi75  1  0.26006660  0.41418310  0.79207679  1
  Bi2+  Bi76  1  0.25335355  0.65886864  0.30515440  1
  Bi2+  Bi77  1  0.23871575  0.64457226  0.78198070  1
  Bi2+  Bi78  1  0.27225197  0.91636181  0.28117070  1
  Bi2+  Bi79  1  0.27578220  0.89614021  0.80174341  1
  Bi2+  Bi80  1  0.50764848  0.12074014  0.28739972  1
  Bi2+  Bi81  1  0.52132247  0.14800568  0.79882194  1
  Bi2+  Bi82  1  0.41366217  0.36384872  0.31124472  1
  Bi2+  Bi83  1  0.54107747  0.32037420  0.72956636  1
  Bi2+  Bi84  1  0.49942445  0.57476041  0.28406678  1
  Bi2+  Bi85  1  0.48361520  0.75421760  0.77305157  1
  Bi2+  Bi86  1  0.62332629  0.81028787  0.27022623  1
  Bi2+  Bi87  1  0.54233105  0.93884066  0.78992585  1
  Bi2+  Bi88  1  0.75249604  0.12442872  0.27938969  1
  Bi2+  Bi89  1  0.73947460  0.13209389  0.78741683  1
  Bi2+  Bi90  1  0.73490486  0.37663423  0.28992681  1
  Bi2+  Bi91  1  0.70949027  0.38641091  0.79727357  1
  Bi2+  Bi92  1  0.77227063  0.62942279  0.28094981  1
  Bi2+  Bi93  1  0.68673862  0.58560700  0.78267197  1
  Bi2+  Bi94  1  0.80277679  0.87778734  0.29605820  1
  Bi2+  Bi95  1  0.72094564  0.85192184  0.80564927  1
  Bi2+  Bi96  1  0.12175541  0.04381661  0.20741560  1
  Bi2+  Bi97  1  0.13213616  -0.01248014  0.71419175  1
  Bi2+  Bi98  1  0.15545877  0.23887895  0.21542664  1
  Bi2+  Bi99  1  0.13008468  0.27412815  0.71735966  1
  Bi2+  Bi100  1  0.10407318  0.50612642  0.21688838  1
  Bi2+  Bi101  1  0.12774926  0.52187613  0.71531818  1
  Bi2+  Bi102  1  0.14726307  0.77593106  0.20406292  1
  Bi2+  Bi103  1  0.13680396  0.76644453  0.70849801  1
  Bi2+  Bi104  1  0.36906612  0.04229841  0.21836180  1
  Bi2+  Bi105  1  0.42874052  -0.06785122  0.69216036  1
  Bi2+  Bi106  1  0.34141335  0.22035983  0.17704873  1
  Bi2+  Bi107  1  0.37895197  0.20327744  0.72482046  1
  Bi2+  Bi108  1  0.37039074  0.41168334  0.20350596  1
  Bi2+  Bi109  1  0.37991269  0.50836916  0.71585064  1
  Bi2+  Bi110  1  0.41568506  0.75568659  0.20738141  1
  Bi2+  Bi111  1  0.32685331  0.76361996  0.69161633  1
  Bi2+  Bi112  1  0.61089375  -0.02309563  0.20432809  1
  Bi2+  Bi113  1  0.61121251  0.06752135  0.70512020  1
  Bi2+  Bi114  1  0.51907581  0.27996490  0.22290577  1
  Bi2+  Bi115  1  0.70530908  0.24385819  0.68421339  1
  Bi2+  Bi116  1  0.60862469  0.51938660  0.20181227  1
  Bi2+  Bi117  1  0.61286644  0.50118363  0.69198259  1
  Bi2+  Bi118  1  0.71617285  0.72756228  0.18298076  1
  Bi2+  Bi119  1  0.65232537  0.78385260  0.70705016  1
  Bi2+  Bi120  1  0.89503387  -0.03946576  0.20773232  1
  Bi2+  Bi121  1  0.86553042  -0.04604688  0.70571260  1
  Bi2+  Bi122  1  0.91525659  0.24843510  0.20749788  1
  Bi2+  Bi123  1  0.86598006  0.31264654  0.73705479  1
  Bi2+  Bi124  1  0.91026780  0.49296565  0.21675072  1
  Bi2+  Bi125  1  0.90710024  0.49068670  0.69322021  1
  Bi2+  Bi126  1  0.90399267  0.76097107  0.20734348  1
  Bi2+  Bi127  1  0.89181277  0.65112486  0.75463868  1
  S2-  S128  1  -0.00927725  0.12327800  0.15220419  1
  S2-  S129  1  -0.08387807  0.09999012  0.68070691  1
  S2-  S130  1  0.00627365  0.37958248  0.15730568  1
  S2-  S131  1  0.05500548  0.36320250  0.65308449  1
  S2-  S132  1  0.08222572  0.63680713  0.14781301  1
  S2-  S133  1  0.09469923  0.63749997  0.64260988  1
  S2-  S134  1  0.08648047  0.87830694  0.13994797  1
  S2-  S135  1  0.00985673  0.90357890  0.65930438  1
  S2-  S136  1  0.24483856  0.02713620  0.13918214  1
  S2-  S137  1  0.12312476  0.12667672  0.66321129  1
  S2-  S138  1  0.23284987  0.46533216  0.14578869  1
  S2-  S139  1  0.26686968  0.27188378  0.65710518  1
  S2-  S140  1  0.28699440  0.64660243  0.20483730  1
  S2-  S141  1  0.25925616  0.49147022  0.64916498  1
  S2-  S142  1  0.29277422  0.82390356  0.15966905  1
  S2-  S143  1  0.26237385  0.97000945  0.65280167  1
  S2-  S144  1  0.57899792  0.10846461  0.14606438  1
  S2-  S145  1  0.42384579  0.10849192  0.64493709  1
  S2-  S146  1  0.58132202  0.38195254  0.14323480  1
  S2-  S147  1  0.47677152  0.40410846  0.64751202  1
  S2-  S148  1  0.49327146  0.62693349  0.15263207  1
  S2-  S149  1  0.40556538  0.63017877  0.64784030  1
  S2-  S150  1  0.50524577  0.87636574  0.15463179  1
  S2-  S151  1  0.55231484  0.86854922  0.63452568  1
  S2-  S152  1  0.77849854  0.17298850  0.18491075  1
  S2-  S153  1  0.73645419  0.00567543  0.64669130  1
  S2-  S154  1  0.79649643  0.36733550  0.18924202  1
  S2-  S155  1  0.75659788  0.47672441  0.63791862  1
  S2-  S156  1  0.73863378  0.54849800  0.14357460  1
  S2-  S157  1  0.63211257  0.64530474  0.64038401  1
  S2-  S158  1  0.75432353  0.96640990  0.14587130  1
  S2-  S159  1  0.80327360  0.80235941  0.66529421  1
  S2-  S160  1  0.21408115  0.00287550  0.35686542  1
  S2-  S161  1  0.16444365  0.02428143  0.81599112  1
  S2-  S162  1  0.04564587  0.20334444  0.35708037  1
  S2-  S163  1  0.09158565  0.20513051  0.82839069  1
  S2-  S164  1  0.22440256  0.51167801  0.35877607  1
  S2-  S165  1  0.12193653  0.39508454  0.85482520  1
  S2-  S166  1  0.10928998  0.74362275  0.33658553  1
  S2-  S167  1  0.13490710  0.83774195  0.85497079  1
  S2-  S168  1  0.42338716  -0.01650368  0.31903256  1
  S2-  S169  1  0.36904478  0.03596846  0.83525210  1
  S2-  S170  1  0.37457865  0.19995220  0.34363740  1
  S2-  S171  1  0.35619900  0.29836541  0.84568647  1
  S2-  S172  1  0.39389440  0.61819768  0.35795943  1
  S2-  S173  1  0.34028916  0.53949937  0.84139656  1
  S2-  S174  1  0.32679849  0.79903232  0.34541421  1
  S2-  S175  1  0.37350890  0.80095427  0.85322206  1
  S2-  S176  1  0.63591559  0.02987140  0.33011390  1
  S2-  S177  1  0.72240226  0.00592359  0.85964688  1
  S2-  S178  1  0.70605149  0.24062747  0.35028584  1
  S2-  S179  1  0.63779060  0.24356564  0.84808352  1
  S2-  S180  1  0.57927110  0.43544640  0.33009214  1
  S2-  S181  1  0.56966841  0.47957024  0.82682184  1
  S2-  S182  1  0.59881377  0.67245601  0.33613323  1
  S2-  S183  1  0.61227664  0.71517476  0.84223227  1
  S2-  S184  1  0.85686006  0.08041671  0.35747551  1
  S2-  S185  1  0.96530137  -0.00920961  0.84544518  1
  S2-  S186  1  0.88395068  0.34242369  0.32573439  1
  S2-  S187  1  0.85909804  0.17980088  0.85580587  1
  S2-  S188  1  0.77020889  0.50955565  0.35396493  1
  S2-  S189  1  0.77787794  0.50852661  0.85879014  1
  S2-  S190  1  0.79310672  0.74690788  0.36149369  1
  S2-  S191  1  0.84939163  0.77276434  0.84894719  1
  S2-  S192  1  -0.00124109  0.12184758  0.46850763  1
  S2-  S193  1  -0.00470328  0.13106014  0.94943891  1
  S2-  S194  1  -0.00063114  0.36507576  0.45174520  1
  S2-  S195  1  -0.01437326  0.37496826  0.95320449  1
  S2-  S196  1  0.00398688  0.62107751  0.44899712  1
  S2-  S197  1  -0.01360591  0.62960131  0.95466650  1
  S2-  S198  1  0.00455878  0.87125040  0.45153357  1
  S2-  S199  1  -0.01192993  0.87381455  0.95293504  1
  S2-  S200  1  0.25499091  0.12285518  0.45874092  1
  S2-  S201  1  0.23641589  0.12811428  0.94735828  1
  S2-  S202  1  0.25082587  0.36757535  0.45674779  1
  S2-  S203  1  0.24238978  0.37573570  0.95558197  1
  S2-  S204  1  0.25081428  0.62242845  0.46436483  1
  S2-  S205  1  0.23716647  0.62816804  0.94658118  1
  S2-  S206  1  0.25111612  0.87189916  0.45732698  1
  S2-  S207  1  0.23625077  0.87647710  0.96012549  1
  S2-  S208  1  0.50367880  0.12197864  0.44603428  1
  S2-  S209  1  0.48917183  0.12462842  0.95224934  1
  S2-  S210  1  0.50338292  0.36977522  0.44678533  1
  S2-  S211  1  0.49148084  0.37817650  0.94993615  1
  S2-  S212  1  0.51168461  0.61968770  0.45496824  1
  S2-  S213  1  0.49043630  0.62742214  0.94632676  1
  S2-  S214  1  0.50847206  0.86968913  0.43381161  1
  S2-  S215  1  0.49111527  0.87640225  0.95061958  1
  S2-  S216  1  0.75451340  0.12585286  0.46338227  1
  S2-  S217  1  0.73662484  0.12634150  0.96815628  1
  S2-  S218  1  0.75977766  0.36484704  0.45263378  1
  S2-  S219  1  0.74089349  0.37647475  0.96027439  1
  S2-  S220  1  0.75890957  0.61814008  0.46049230  1
  S2-  S221  1  0.74237961  0.63293126  0.95448769  1
  S2-  S222  1  0.75627198  0.87520834  0.45871105  1
  S2-  S223  1  0.74106327  0.87527795  0.95779659  1
  S2-  S224  1  0.11044975  0.00869701  0.03520318  1
  S2-  S225  1  0.12827968  -0.00372840  0.55132940  1
  S2-  S226  1  0.11387082  0.25349811  0.04424316  1
  S2-  S227  1  0.12890192  0.24257232  0.55137330  1
  S2-  S228  1  0.11381684  0.50091933  0.04288815  1
  S2-  S229  1  0.12638894  0.49376703  0.54405982  1
  S2-  S230  1  0.12089266  0.74801111  0.04342882  1
  S2-  S231  1  0.13110719  0.75003280  0.54557193  1
  S2-  S232  1  0.36827713  0.00115115  0.04289479  1
  S2-  S233  1  0.38089381  -0.00613876  0.53442620  1
  S2-  S234  1  0.36807581  0.25379537  0.04638661  1
  S2-  S235  1  0.38215429  0.25009465  0.54663632  1
  S2-  S236  1  0.36347501  0.50497211  0.04608272  1
  S2-  S237  1  0.38072178  0.49513137  0.53956050  1
  S2-  S238  1  0.36119382  0.74677841  0.05109283  1
  S2-  S239  1  0.38082467  0.74752963  0.54275852  1
  S2-  S240  1  0.60963136  -0.00697550  0.04353317  1
  S2-  S241  1  0.62678305  -0.00055865  0.53827621  1
  S2-  S242  1  0.61722258  0.25202434  0.05337924  1
  S2-  S243  1  0.62548973  0.24747426  0.54827436  1
  S2-  S244  1  0.61619814  0.50551150  0.03731483  1
  S2-  S245  1  0.62979111  0.49022489  0.53486969  1
  S2-  S246  1  0.61188074  0.75348067  0.04713196  1
  S2-  S247  1  0.63326913  0.74807939  0.53525300  1
  S2-  S248  1  0.86897395  0.00366351  0.04243572  1
  S2-  S249  1  0.87700340  -0.00510792  0.55239557  1
  S2-  S250  1  0.86405431  0.25522291  0.05679258  1
  S2-  S251  1  0.87669893  0.24592334  0.56713869  1
  S2-  S252  1  0.87021149  0.50144693  0.05046823  1
  S2-  S253  1  0.88505685  0.49574622  0.53984504  1
  S2-  S254  1  0.86891239  0.75321520  0.05341873  1
  S2-  S255  1  0.87990603  0.74111718  0.55181621  1
