# generated using pymatgen
data_La9Ce10Pr6Nd4Sm3(BiS2)32
_symmetry_space_group_name_H-M   'P 1'
_cell_length_a   16.12090892
_cell_length_b   16.16686545
_cell_length_c   27.28273379
_cell_angle_alpha   89.99332657
_cell_angle_beta   90.35608524
_cell_angle_gamma   89.88425777
_symmetry_Int_Tables_number   1
_chemical_formula_structural   La9Ce10Pr6Nd4Sm3(BiS2)32
_chemical_formula_sum   'La18 Ce20 Pr12 Nd8 Sm6 Bi64 S128'
_cell_volume   7110.39875106
_cell_formula_units_Z   2
loop_
 _symmetry_equiv_pos_site_id
 _symmetry_equiv_pos_as_xyz
  1  'x, y, z'
loop_
 _atom_type_symbol
 _atom_type_oxidation_number
  La3+  3.0
  Ce3+  3.0
  Pr3+  3.0
  Nd3+  3.0
  Sm3+  3.0
  Bi2+  2.0
  S2-  -2.0
loop_
 _atom_site_type_symbol
 _atom_site_label
 _atom_site_symmetry_multiplicity
 _atom_site_fract_x
 _atom_site_fract_y
 _atom_site_fract_z
 _atom_site_occupancy
  La3+  La0  1  0.85961381  0.50100373  0.92172041  1
  La3+  La1  1  0.63055077  0.50942417  0.41686800  1
  La3+  La2  1  0.11857315  0.73906762  0.92256023  1
  La3+  La3  1  -0.00551915  0.12244912  0.57527122  1
  La3+  La4  1  0.36318460  0.74577941  0.42157955  1
  La3+  La5  1  -0.00299006  0.61704387  0.06217781  1
  La3+  La6  1  0.36236292  0.00307138  0.92407609  1
  La3+  La7  1  0.87726270  0.24911200  0.42497942  1
  La3+  La8  1  -0.00025534  0.38370896  0.57947391  1
  La3+  La9  1  0.85660624  -0.00795719  0.92806083  1
  La3+  La10  1  0.25517846  0.37876147  0.57640170  1
  La3+  La11  1  0.74722760  0.11693036  0.07290219  1
  La3+  La12  1  0.48983571  0.61515876  0.07185370  1
  La3+  La13  1  0.26098866  0.63247114  0.57894465  1
  La3+  La14  1  0.89174210  0.50716247  0.41225409  1
  La3+  La15  1  0.49560253  0.36600659  0.06921811  1
  La3+  La16  1  0.24119116  0.84990046  0.11110367  1
  La3+  La17  1  0.26112797  0.88654784  0.58098809  1
  Ce3+  Ce18  1  0.74382822  0.86591769  0.06478563  1
  Ce3+  Ce19  1  0.12879675  0.75290761  0.45359018  1
  Ce3+  Ce20  1  0.00088803  0.86793640  0.05154347  1
  Ce3+  Ce21  1  -0.00395622  0.11465284  0.04867956  1
  Ce3+  Ce22  1  0.12297035  0.50474489  0.45648370  1
  Ce3+  Ce23  1  0.49938156  0.87604727  0.55199053  1
  Ce3+  Ce24  1  0.36484355  0.24352653  0.94112389  1
  Ce3+  Ce25  1  0.23905680  0.36048284  0.05757186  1
  Ce3+  Ce26  1  0.49178131  0.12100617  0.06660290  1
  Ce3+  Ce27  1  0.61720586  0.48865194  0.94123212  1
  Ce3+  Ce28  1  0.36556660  0.48963933  0.93768019  1
  Ce3+  Ce29  1  -0.00735738  0.36643519  0.05006297  1
  Ce3+  Ce30  1  0.12538444  0.00269154  0.44380595  1
  Ce3+  Ce31  1  0.75424183  0.12885990  0.55822814  1
  Ce3+  Ce32  1  0.24188777  0.61586669  0.05357996  1
  Ce3+  Ce33  1  0.86080756  0.24490283  0.93207011  1
  Ce3+  Ce34  1  0.50046327  0.62968760  0.55247322  1
  Ce3+  Ce35  1  0.63191107  0.26053201  0.43187842  1
  Ce3+  Ce36  1  -0.00593229  0.63097030  0.57678583  1
  Ce3+  Ce37  1  0.87669144  0.00190017  0.43705096  1
  Pr3+  Pr38  1  0.74225302  0.61193344  0.06946853  1
  Pr3+  Pr39  1  0.61377767  0.74155753  0.94455390  1
  Pr3+  Pr40  1  0.11701478  0.48157574  0.90124423  1
  Pr3+  Pr41  1  0.75423454  0.38121817  0.55822913  1
  Pr3+  Pr42  1  0.50279584  0.13113815  0.55074200  1
  Pr3+  Pr43  1  0.86638939  0.74112188  0.94393225  1
  Pr3+  Pr44  1  0.37285498  0.50098115  0.43738369  1
  Pr3+  Pr45  1  0.37441158  0.00236190  0.43095184  1
  Pr3+  Pr46  1  0.25289520  0.12899393  0.56016448  1
  Pr3+  Pr47  1  0.37561262  0.25770834  0.43810949  1
  Pr3+  Pr48  1  0.10568116  0.24146882  0.92287958  1
  Pr3+  Pr49  1  0.74930658  0.87399439  0.56047250  1
  Nd3+  Nd50  1  0.62582747  0.00306212  0.44087677  1
  Nd3+  Nd51  1  0.00181436  0.87472783  0.56786748  1
  Nd3+  Nd52  1  0.88131413  0.75336979  0.43556979  1
  Nd3+  Nd53  1  0.62532807  0.75374435  0.42992723  1
  Nd3+  Nd54  1  0.36509708  0.74492757  0.94297120  1
  Nd3+  Nd55  1  0.24188070  0.11488545  0.06369625  1
  Nd3+  Nd56  1  0.12166757  0.25427123  0.44827601  1
  Nd3+  Nd57  1  0.75302631  0.62582953  0.54911831  1
  Sm3+  Sm58  1  0.62223373  0.24309959  0.94361810  1
  Sm3+  Sm59  1  0.12059107  -0.00874811  0.93466201  1
  Sm3+  Sm60  1  0.61518994  -0.00665434  0.94807359  1
  Sm3+  Sm61  1  0.48568773  0.87203657  0.05921010  1
  Sm3+  Sm62  1  0.50553666  0.38168230  0.56126665  1
  Sm3+  Sm63  1  0.75513434  0.36308917  0.07035258  1
  Bi2+  Bi64  1  0.00407971  0.15055264  0.28729138  1
  Bi2+  Bi65  1  0.05107062  0.13203340  0.76311946  1
  Bi2+  Bi66  1  0.03486410  0.38910448  0.28895989  1
  Bi2+  Bi67  1  0.01591918  0.34094448  0.77838031  1
  Bi2+  Bi68  1  0.02878521  0.60762001  0.27938282  1
  Bi2+  Bi69  1  -0.05292987  0.60774688  0.78334246  1
  Bi2+  Bi70  1  0.00262115  0.89953752  0.28782310  1
  Bi2+  Bi71  1  -0.05464518  0.85044050  0.78488131  1
  Bi2+  Bi72  1  0.23967295  0.10750512  0.28887573  1
  Bi2+  Bi73  1  0.24753662  0.14567604  0.79333483  1
  Bi2+  Bi74  1  0.31358591  0.40335164  0.31971719  1
  Bi2+  Bi75  1  0.33543964  0.38427287  0.78630366  1
  Bi2+  Bi76  1  0.23680019  0.57023095  0.28090409  1
  Bi2+  Bi77  1  0.23896211  0.65308998  0.79941658  1
  Bi2+  Bi78  1  0.25226186  0.87235595  0.31488844  1
  Bi2+  Bi79  1  0.31093423  0.88504376  0.80138664  1
  Bi2+  Bi80  1  0.48840549  0.20355891  0.29250416  1
  Bi2+  Bi81  1  0.52544629  0.22240849  0.80514780  1
  Bi2+  Bi82  1  0.49778207  0.40122198  0.27501048  1
  Bi2+  Bi83  1  0.51673094  0.42778978  0.82323109  1
  Bi2+  Bi84  1  0.48862400  0.60196102  0.28184723  1
  Bi2+  Bi85  1  0.48425289  0.61911456  0.79232831  1
  Bi2+  Bi86  1  0.49924414  0.92331998  0.27802980  1
  Bi2+  Bi87  1  0.55669965  0.91546439  0.75681784  1
  Bi2+  Bi88  1  0.74919510  0.07690254  0.29665656  1
  Bi2+  Bi89  1  0.80100195  0.12064780  0.80543365  1
  Bi2+  Bi90  1  0.75144137  0.36181114  0.29616478  1
  Bi2+  Bi91  1  0.75429416  0.37296369  0.78913698  1
  Bi2+  Bi92  1  0.76859370  0.66409264  0.29629160  1
  Bi2+  Bi93  1  0.67377006  0.65385339  0.76549882  1
  Bi2+  Bi94  1  0.82081910  0.87430877  0.33091156  1
  Bi2+  Bi95  1  0.75831736  0.86674911  0.80955234  1
  Bi2+  Bi96  1  0.09032197  0.00522855  0.19673906  1
  Bi2+  Bi97  1  0.14788669  -0.01500466  0.71313124  1
  Bi2+  Bi98  1  0.16337616  0.25425907  0.22756327  1
  Bi2+  Bi99  1  0.19107891  0.20384667  0.69192772  1
  Bi2+  Bi100  1  0.14788457  0.44835220  0.20328198  1
  Bi2+  Bi101  1  0.11551300  0.48991846  0.72142018  1
  Bi2+  Bi102  1  0.11815224  0.72119270  0.20817693  1
  Bi2+  Bi103  1  0.09405700  0.75108910  0.72186892  1
  Bi2+  Bi104  1  0.42187640  0.02841519  0.18402975  1
  Bi2+  Bi105  1  0.41270650  0.02317271  0.70808487  1
  Bi2+  Bi106  1  0.36685221  0.21133785  0.20345279  1
  Bi2+  Bi107  1  0.39920508  0.24669758  0.71345954  1
  Bi2+  Bi108  1  0.34673464  0.46100707  0.20470566  1
  Bi2+  Bi109  1  0.35846343  0.51162132  0.70284530  1
  Bi2+  Bi110  1  0.39009941  0.72644187  0.21079986  1
  Bi2+  Bi111  1  0.43996252  0.76182960  0.71227427  1
  Bi2+  Bi112  1  0.61757883  0.01169842  0.19723275  1
  Bi2+  Bi113  1  0.63691203  0.09794154  0.74154539  1
  Bi2+  Bi114  1  0.63145276  0.20051772  0.21734675  1
  Bi2+  Bi115  1  0.63818740  0.28967664  0.71359203  1
  Bi2+  Bi116  1  0.62244940  0.56321100  0.19995885  1
  Bi2+  Bi117  1  0.57679035  0.49917017  0.71732038  1
  Bi2+  Bi118  1  0.66929089  0.82221860  0.26134724  1
  Bi2+  Bi119  1  0.62765985  0.78276863  0.67941149  1
  Bi2+  Bi120  1  0.88344306  0.02155848  0.21596067  1
  Bi2+  Bi121  1  0.88261583  -0.00020838  0.70947745  1
  Bi2+  Bi122  1  0.89853988  0.23521781  0.20400537  1
  Bi2+  Bi123  1  0.88585333  0.23254526  0.72099123  1
  Bi2+  Bi124  1  0.86542793  0.50181803  0.19157657  1
  Bi2+  Bi125  1  0.83395954  0.48304054  0.70065860  1
  Bi2+  Bi126  1  0.86519726  0.82184585  0.21943149  1
  Bi2+  Bi127  1  0.82550025  0.76145010  0.70545866  1
  S2-  S128  1  0.01298214  0.13847864  0.14500701  1
  S2-  S129  1  0.01300925  -0.01196977  0.64657096  1
  S2-  S130  1  -0.06122385  0.37242387  0.14494978  1
  S2-  S131  1  -0.13888625  0.35117481  0.64182823  1
  S2-  S132  1  -0.00426540  0.61058260  0.16346607  1
  S2-  S133  1  -0.01013287  0.51964969  0.65585455  1
  S2-  S134  1  0.06751406  0.85226173  0.14235122  1
  S2-  S135  1  -0.01178635  0.75941578  0.64689945  1
  S2-  S136  1  0.23478430  0.01663615  0.14822477  1
  S2-  S137  1  0.26403054  0.03784568  0.64617587  1
  S2-  S138  1  0.23282519  0.24799481  0.13434595  1
  S2-  S139  1  0.13985628  0.36281251  0.65497231  1
  S2-  S140  1  0.25167757  0.67485021  0.14601551  1
  S2-  S141  1  0.20141345  0.60698801  0.67788032  1
  S2-  S142  1  0.24454449  0.83492502  0.22161447  1
  S2-  S143  1  0.20851488  0.83378806  0.67656996  1
  S2-  S144  1  0.50674358  0.23954799  0.14306801  1
  S2-  S145  1  0.48767935  0.13064466  0.65162896  1
  S2-  S146  1  0.49021192  0.48517163  0.14488969  1
  S2-  S147  1  0.39451547  0.37993417  0.64293585  1
  S2-  S148  1  0.52498217  0.69633974  0.16281494  1
  S2-  S149  1  0.41380937  0.64064283  0.63882574  1
  S2-  S150  1  0.41108708  0.86656661  0.14797241  1
  S2-  S151  1  0.41898004  0.88500537  0.63854934  1
  S2-  S152  1  0.76019939  0.23613450  0.14605278  1
  S2-  S153  1  0.84888528  0.12598832  0.64149952  1
  S2-  S154  1  0.72238215  0.44603335  0.15666228  1
  S2-  S155  1  0.62605042  0.39805072  0.63316361  1
  S2-  S156  1  0.76616085  0.64002872  0.16905167  1
  S2-  S157  1  0.79832044  0.61585869  0.64623717  1
  S2-  S158  1  0.71880146  0.87468057  0.16152091  1
  S2-  S159  1  0.76092511  0.90869823  0.65953378  1
  S2-  S160  1  0.12923251  -0.00487667  0.34423856  1
  S2-  S161  1  0.21495008  0.00518944  0.85095570  1
  S2-  S162  1  0.09284430  0.25481167  0.34933871  1
  S2-  S163  1  0.14511323  0.33860563  0.84112750  1
  S2-  S164  1  0.06410460  0.50889850  0.36364457  1
  S2-  S165  1  0.09531352  0.62064137  0.84170594  1
  S2-  S166  1  0.19544711  0.74571454  0.36351265  1
  S2-  S167  1  0.16217114  0.79778792  0.82447711  1
  S2-  S168  1  0.35828576  0.01847078  0.33014769  1
  S2-  S169  1  0.44542266  -0.04896519  0.83807883  1
  S2-  S170  1  0.33151863  0.23330058  0.34113402  1
  S2-  S171  1  0.37964263  0.15698399  0.85744088  1
  S2-  S172  1  0.36195026  0.59982440  0.35386639  1
  S2-  S173  1  0.27936374  0.50656204  0.85115622  1
  S2-  S174  1  0.41372723  0.80846027  0.32878238  1
  S2-  S175  1  0.37570320  0.73785222  0.84278433  1
  S2-  S176  1  0.61397055  0.01101740  0.34184456  1
  S2-  S177  1  0.70463868  0.00233876  0.86367039  1
  S2-  S178  1  0.73590295  0.22906237  0.35200262  1
  S2-  S179  1  0.72946280  0.24750995  0.86331647  1
  S2-  S180  1  0.60209127  0.37364910  0.35324317  1
  S2-  S181  1  0.71195434  0.48760983  0.85937760  1
  S2-  S182  1  0.61211316  0.65897702  0.34595197  1
  S2-  S183  1  0.64008800  0.76337874  0.84505984  1
  S2-  S184  1  0.90080171  0.10384171  0.35884387  1
  S2-  S185  1  0.93348859  -0.00616671  0.83529892  1
  S2-  S186  1  0.89648305  0.36541175  0.34612459  1
  S2-  S187  1  0.96072194  0.22900404  0.85248984  1
  S2-  S188  1  0.75905174  0.51118165  0.34031141  1
  S2-  S189  1  0.95731946  0.46814994  0.83802301  1
  S2-  S190  1  0.91319117  0.66109066  0.35085333  1
  S2-  S191  1  0.86066718  0.65885710  0.85572516  1
  S2-  S192  1  0.00460826  0.12470856  0.46358524  1
  S2-  S193  1  -0.00950960  0.10874003  0.94620114  1
  S2-  S194  1  0.00242886  0.37831965  0.46359326  1
  S2-  S195  1  -0.00979793  0.37362505  0.94728445  1
  S2-  S196  1  0.00335835  0.63368146  0.46677823  1
  S2-  S197  1  -0.00495781  0.61413754  0.95436632  1
  S2-  S198  1  0.00324137  0.87794323  0.45548499  1
  S2-  S199  1  -0.00649909  0.86764471  0.94468583  1
  S2-  S200  1  0.25073055  0.13009373  0.45274903  1
  S2-  S201  1  0.23399758  0.12442282  0.95485478  1
  S2-  S202  1  0.24782503  0.37761437  0.46208552  1
  S2-  S203  1  0.23968005  0.36720868  0.95275656  1
  S2-  S204  1  0.24929824  0.62367690  0.46654691  1
  S2-  S205  1  0.24220614  0.61639044  0.95066718  1
  S2-  S206  1  0.25163462  0.88182252  0.45759979  1
  S2-  S207  1  0.24342729  0.86763012  0.94411527  1
  S2-  S208  1  0.50159993  0.13078312  0.44405865  1
  S2-  S209  1  0.50078157  0.12060513  0.95792540  1
  S2-  S210  1  0.49932548  0.37980371  0.45672438  1
  S2-  S211  1  0.49360835  0.36307965  0.95717077  1
  S2-  S212  1  0.49875791  0.62967186  0.44904711  1
  S2-  S213  1  0.48962185  0.61544365  0.95626185  1
  S2-  S214  1  0.50022534  0.87676109  0.44536790  1
  S2-  S215  1  0.49226714  0.87009374  0.95469456  1
  S2-  S216  1  0.74911748  0.12241175  0.45549215  1
  S2-  S217  1  0.74029279  0.11642156  0.96518750  1
  S2-  S218  1  0.75635608  0.38234126  0.45122569  1
  S2-  S219  1  0.74198096  0.36963000  0.96431506  1
  S2-  S220  1  0.75581782  0.63391879  0.44589575  1
  S2-  S221  1  0.73793661  0.62073759  0.96205023  1
  S2-  S222  1  0.74795523  0.87604536  0.45264846  1
  S2-  S223  1  0.73923168  0.86555610  0.95984184  1
  S2-  S224  1  0.12080815  -0.00867103  0.03796474  1
  S2-  S225  1  0.12846687  0.00172849  0.54765907  1
  S2-  S226  1  0.11297782  0.24226825  0.03250042  1
  S2-  S227  1  0.12266714  0.24873585  0.55306887  1
  S2-  S228  1  0.11998921  0.48910554  0.05464110  1
  S2-  S229  1  0.13115348  0.50877713  0.55913745  1
  S2-  S230  1  0.12252261  0.74306231  0.03822826  1
  S2-  S231  1  0.13437668  0.75674140  0.55691462  1
  S2-  S232  1  0.37243040  -0.00077052  0.03894517  1
  S2-  S233  1  0.38020102  0.00702164  0.53701120  1
  S2-  S234  1  0.36865931  0.24102942  0.04313949  1
  S2-  S235  1  0.37756099  0.25353096  0.54510204  1
  S2-  S236  1  0.36205985  0.48796741  0.04430230  1
  S2-  S237  1  0.38010322  0.50238436  0.54331213  1
  S2-  S238  1  0.36661450  0.74474356  0.04711795  1
  S2-  S239  1  0.37618190  0.75610287  0.53674052  1
  S2-  S240  1  0.61636518  -0.00787529  0.05254928  1
  S2-  S241  1  0.62552703  0.00230552  0.54883079  1
  S2-  S242  1  0.62506686  0.24340053  0.04585941  1
  S2-  S243  1  0.62920569  0.25213184  0.54080106  1
  S2-  S244  1  0.61992904  0.49076583  0.04600856  1
  S2-  S245  1  0.62595412  0.51029492  0.53069001  1
  S2-  S246  1  0.61518742  0.74542006  0.05132712  1
  S2-  S247  1  0.62560942  0.75129222  0.53704474  1
  S2-  S248  1  0.86926514  -0.01090346  0.04762711  1
  S2-  S249  1  0.87327290  -0.00407774  0.54237638  1
  S2-  S250  1  0.87205025  0.23920660  0.03924550  1
  S2-  S251  1  0.87666306  0.24828462  0.53739451  1
  S2-  S252  1  0.86744733  0.49351050  0.04413865  1
  S2-  S253  1  0.87806158  0.50592889  0.54090986  1
  S2-  S254  1  0.86944619  0.74338235  0.05182716  1
  S2-  S255  1  0.87339194  0.75492350  0.54174345  1
