# generated using pymatgen
data_La9Ce10Pr6Nd4Sm3(BiS2)32
_symmetry_space_group_name_H-M   'P 1'
_cell_length_a   16.17511620
_cell_length_b   16.21242855
_cell_length_c   27.20395688
_cell_angle_alpha   90.23344316
_cell_angle_beta   89.94205183
_cell_angle_gamma   90.00429450
_symmetry_Int_Tables_number   1
_chemical_formula_structural   La9Ce10Pr6Nd4Sm3(BiS2)32
_chemical_formula_sum   'La18 Ce20 Pr12 Nd8 Sm6 Bi64 S128'
_cell_volume   7133.84607301
_cell_formula_units_Z   2
loop_
 _symmetry_equiv_pos_site_id
 _symmetry_equiv_pos_as_xyz
  1  'x, y, z'
loop_
 _atom_type_symbol
 _atom_type_oxidation_number
  La3+  3.0
  Ce3+  3.0
  Pr3+  3.0
  Nd3+  3.0
  Sm3+  3.0
  Bi2+  2.0
  S2-  -2.0
loop_
 _atom_site_type_symbol
 _atom_site_label
 _atom_site_symmetry_multiplicity
 _atom_site_fract_x
 _atom_site_fract_y
 _atom_site_fract_z
 _atom_site_occupancy
  La3+  La0  1  0.12315091  0.51100793  0.40324562  1
  La3+  La1  1  0.74410187  0.62840171  0.08608267  1
  La3+  La2  1  0.24924664  0.37812166  0.07927922  1
  La3+  La3  1  0.36836010  0.00560306  0.43343871  1
  La3+  La4  1  0.62338043  0.75011360  0.42247292  1
  La3+  La5  1  0.87542825  0.25812536  0.40451847  1
  La3+  La6  1  0.24591106  0.87635699  0.57438907  1
  La3+  La7  1  0.89667035  0.26222031  0.88699159  1
  La3+  La8  1  0.87089665  0.75629841  0.41986635  1
  La3+  La9  1  0.00500781  0.13079261  0.07404662  1
  La3+  La10  1  0.73955856  0.39070467  0.58295560  1
  La3+  La11  1  0.24983474  0.63166167  0.07920562  1
  La3+  La12  1  0.62846872  0.50087419  0.43213566  1
  La3+  La13  1  0.62212616  0.00721859  0.42798545  1
  La3+  La14  1  0.87612958  0.00373810  0.42724074  1
  La3+  La15  1  0.63426434  0.25713003  0.93768778  1
  La3+  La16  1  0.13324131  0.25324695  0.93707879  1
  La3+  La17  1  0.74868870  0.13426307  0.55949933  1
  Ce3+  Ce18  1  0.36634719  0.25702319  0.42885132  1
  Ce3+  Ce19  1  0.37362930  0.75713676  0.94916906  1
  Ce3+  Ce20  1  -0.00326107  0.13541977  0.55712777  1
  Ce3+  Ce21  1  0.12627854  0.75471569  0.94524140  1
  Ce3+  Ce22  1  0.49982219  0.88308854  0.06484863  1
  Ce3+  Ce23  1  0.87519594  0.75537839  0.95121042  1
  Ce3+  Ce24  1  0.12402033  0.75836640  0.43426385  1
  Ce3+  Ce25  1  0.87687106  0.01436684  0.94421947  1
  Ce3+  Ce26  1  0.24633016  0.63240724  0.54938699  1
  Ce3+  Ce27  1  -0.00051941  0.87983060  0.05927159  1
  Ce3+  Ce28  1  0.87651922  0.50660607  0.94264800  1
  Ce3+  Ce29  1  -0.00319793  0.63284730  0.55220746  1
  Ce3+  Ce30  1  0.62726188  0.25859533  0.43596170  1
  Ce3+  Ce31  1  0.12108641  0.00569786  0.44667573  1
  Ce3+  Ce32  1  0.62934773  0.75812172  0.94844551  1
  Ce3+  Ce33  1  -0.00107232  0.38194980  0.55364253  1
  Ce3+  Ce34  1  0.12508809  0.00878777  0.94654720  1
  Ce3+  Ce35  1  0.75399295  0.13402084  0.06639739  1
  Ce3+  Ce36  1  0.49676626  0.13376641  0.54867615  1
  Ce3+  Ce37  1  0.37235008  0.50963476  0.94421238  1
  Pr3+  Pr38  1  0.37584335  0.00745140  0.94210334  1
  Pr3+  Pr39  1  0.50173675  0.13362157  0.06069374  1
  Pr3+  Pr40  1  -0.00054046  0.63116646  0.06932965  1
  Pr3+  Pr41  1  0.25500022  0.13459506  0.07234859  1
  Pr3+  Pr42  1  0.74681499  0.63574250  0.56077198  1
  Pr3+  Pr43  1  0.37726651  0.26458501  0.93226935  1
  Pr3+  Pr44  1  0.50303392  0.38429195  0.05396362  1
  Pr3+  Pr45  1  0.37486956  0.75740938  0.42809160  1
  Pr3+  Pr46  1  0.49603958  0.63451492  0.55287429  1
  Pr3+  Pr47  1  0.37172289  0.50263289  0.42678864  1
  Pr3+  Pr48  1  0.12514899  0.50192490  0.94657915  1
  Pr3+  Pr49  1  0.49627888  0.38142997  0.55749591  1
  Nd3+  Nd50  1  0.49692783  0.88327091  0.56235882  1
  Nd3+  Nd51  1  0.75227591  0.38221003  0.06271499  1
  Nd3+  Nd52  1  0.63068647  0.51382909  0.93497740  1
  Nd3+  Nd53  1  0.00018720  0.38597309  0.07034501  1
  Nd3+  Nd54  1  0.24517823  0.38143991  0.55405535  1
  Nd3+  Nd55  1  -0.00574216  0.88187578  0.56442669  1
  Nd3+  Nd56  1  0.74627248  0.88242328  0.56019337  1
  Nd3+  Nd57  1  0.24853912  0.13588142  0.56145501  1
  Sm3+  Sm58  1  0.87451639  0.50523078  0.43561447  1
  Sm3+  Sm59  1  0.62686061  0.00653435  0.95100347  1
  Sm3+  Sm60  1  0.50319647  0.63451279  0.05909413  1
  Sm3+  Sm61  1  0.12297619  0.25365873  0.42963431  1
  Sm3+  Sm62  1  0.25082413  0.88267409  0.05957187  1
  Sm3+  Sm63  1  0.75237111  0.88406987  0.06724577  1
  Bi2+  Bi64  1  0.01374796  0.10474569  0.28625072  1
  Bi2+  Bi65  1  -0.00669540  0.04884059  0.75343667  1
  Bi2+  Bi66  1  -0.04541149  0.34243976  0.27093994  1
  Bi2+  Bi67  1  0.00495604  0.40644062  0.78261705  1
  Bi2+  Bi68  1  -0.00250817  0.61363364  0.28166821  1
  Bi2+  Bi69  1  -0.00470262  0.66098545  0.78947249  1
  Bi2+  Bi70  1  0.08190333  0.82558080  0.30306469  1
  Bi2+  Bi71  1  -0.00354667  0.86544472  0.78729148  1
  Bi2+  Bi72  1  0.28651494  0.08375728  0.30382933  1
  Bi2+  Bi73  1  0.25831839  0.09160520  0.79776674  1
  Bi2+  Bi74  1  0.32256639  0.34638934  0.28973055  1
  Bi2+  Bi75  1  0.20612762  0.36817554  0.81049417  1
  Bi2+  Bi76  1  0.33116722  0.63777236  0.30610650  1
  Bi2+  Bi77  1  0.28154518  0.61522426  0.77333336  1
  Bi2+  Bi78  1  0.27902169  0.82991654  0.31489187  1
  Bi2+  Bi79  1  0.25323538  0.84689223  0.81094641  1
  Bi2+  Bi80  1  0.49990189  0.27024242  0.32083421  1
  Bi2+  Bi81  1  0.52513640  0.10178397  0.79709559  1
  Bi2+  Bi82  1  0.51040357  0.46834158  0.31950006  1
  Bi2+  Bi83  1  0.47885515  0.28960494  0.79070081  1
  Bi2+  Bi84  1  0.46886176  0.66797502  0.22436657  1
  Bi2+  Bi85  1  0.47828327  0.60832512  0.78006192  1
  Bi2+  Bi86  1  0.46548300  0.87123626  0.27891480  1
  Bi2+  Bi87  1  0.51578262  0.81148338  0.78421834  1
  Bi2+  Bi88  1  0.77150566  0.16030061  0.26747936  1
  Bi2+  Bi89  1  0.74612200  0.10906167  0.79997989  1
  Bi2+  Bi90  1  0.70603843  0.40239718  0.30428805  1
  Bi2+  Bi91  1  0.75879015  0.37824430  0.78116904  1
  Bi2+  Bi92  1  0.75192521  0.64828787  0.28483314  1
  Bi2+  Bi93  1  0.73073164  0.61822170  0.80907200  1
  Bi2+  Bi94  1  0.79695623  0.90195534  0.28371197  1
  Bi2+  Bi95  1  0.80154856  0.83946936  0.78502304  1
  Bi2+  Bi96  1  0.17876846  -0.04081827  0.23806957  1
  Bi2+  Bi97  1  0.15896777  -0.04999107  0.73312756  1
  Bi2+  Bi98  1  0.15728696  0.21583406  0.20520314  1
  Bi2+  Bi99  1  0.12535665  0.24179592  0.68930206  1
  Bi2+  Bi100  1  0.13392593  0.48011624  0.21103619  1
  Bi2+  Bi101  1  0.11764097  0.54710786  0.72266888  1
  Bi2+  Bi102  1  0.10062633  0.67120250  0.18280127  1
  Bi2+  Bi103  1  0.14169048  0.73743668  0.69895356  1
  Bi2+  Bi104  1  0.39549389  -0.02223156  0.19342841  1
  Bi2+  Bi105  1  0.41462381  0.02595933  0.71289766  1
  Bi2+  Bi106  1  0.39397996  0.18443207  0.22637244  1
  Bi2+  Bi107  1  0.35265668  0.23345392  0.70295856  1
  Bi2+  Bi108  1  0.40203393  0.47754010  0.21921800  1
  Bi2+  Bi109  1  0.37949937  0.44876318  0.74953440  1
  Bi2+  Bi110  1  0.28566988  0.72089485  0.20363161  1
  Bi2+  Bi111  1  0.39256754  0.76227257  0.70248905  1
  Bi2+  Bi112  1  0.58171063  0.10489926  0.27549373  1
  Bi2+  Bi113  1  0.59707634  -0.03952677  0.72355204  1
  Bi2+  Bi114  1  0.60497636  0.27590827  0.21335525  1
  Bi2+  Bi115  1  0.60018102  0.23793000  0.70578397  1
  Bi2+  Bi116  1  0.60854150  0.49236317  0.21408639  1
  Bi2+  Bi117  1  0.60245419  0.51981154  0.70646509  1
  Bi2+  Bi118  1  0.65852999  0.77634672  0.19775016  1
  Bi2+  Bi119  1  0.64294452  0.74957234  0.70077058  1
  Bi2+  Bi120  1  0.90131778  0.03320099  0.20064853  1
  Bi2+  Bi121  1  0.81435794  -0.00329893  0.71543847  1
  Bi2+  Bi122  1  0.79854493  0.31534184  0.19354834  1
  Bi2+  Bi123  1  0.88137080  0.22868117  0.68343221  1
  Bi2+  Bi124  1  0.86946751  0.49445576  0.21934128  1
  Bi2+  Bi125  1  0.85601937  0.56772660  0.72753579  1
  Bi2+  Bi126  1  0.95020152  0.78302809  0.21843220  1
  Bi2+  Bi127  1  0.83417206  0.74304662  0.68580667  1
  S2-  S128  1  -0.00628154  0.16663686  0.17570856  1
  S2-  S129  1  0.01160592  0.11037837  0.65590904  1
  S2-  S130  1  0.10937076  0.35502289  0.15069473  1
  S2-  S131  1  0.01896250  0.34507681  0.65200767  1
  S2-  S132  1  -0.01872698  0.51427427  0.14653305  1
  S2-  S133  1  0.02289411  0.63550492  0.64978526  1
  S2-  S134  1  0.00045211  0.90983220  0.15571086  1
  S2-  S135  1  -0.13403260  0.89303767  0.63715423  1
  S2-  S136  1  0.18013702  0.07703462  0.16113367  1
  S2-  S137  1  0.24175377  0.11994383  0.66136303  1
  S2-  S138  1  0.29387076  0.25283928  0.14860070  1
  S2-  S139  1  0.25028907  0.34015110  0.65254865  1
  S2-  S140  1  0.26816262  0.50564933  0.15249063  1
  S2-  S141  1  0.27874030  0.68818948  0.64040626  1
  S2-  S142  1  0.25946954  0.87492722  0.15728715  1
  S2-  S143  1  0.10846435  0.87370345  0.64220705  1
  S2-  S144  1  0.50293145  0.09737019  0.15957475  1
  S2-  S145  1  0.48611352  0.14729484  0.64705294  1
  S2-  S146  1  0.50884985  0.37908142  0.15500223  1
  S2-  S147  1  0.58002499  0.37799387  0.64675781  1
  S2-  S148  1  0.58554062  0.63602286  0.14574936  1
  S2-  S149  1  0.51938359  0.63628940  0.65348522  1
  S2-  S150  1  0.51412726  0.86621965  0.16255232  1
  S2-  S151  1  0.37888103  0.89477480  0.64288013  1
  S2-  S152  1  0.75870405  0.11290603  0.16301655  1
  S2-  S153  1  0.73089628  0.14076242  0.66143593  1
  S2-  S154  1  0.74069569  0.47915484  0.14565664  1
  S2-  S155  1  0.78618574  0.35508065  0.68122215  1
  S2-  S156  1  0.79687369  0.68778783  0.18083293  1
  S2-  S157  1  0.74002022  0.54248192  0.64647973  1
  S2-  S158  1  0.74966235  0.89708768  0.16731891  1
  S2-  S159  1  0.62174810  0.87745248  0.63435585  1
  S2-  S160  1  0.13052749  0.03220556  0.34973382  1
  S2-  S161  1  0.13106696  0.05213928  0.85258948  1
  S2-  S162  1  0.02675901  0.24644247  0.34458218  1
  S2-  S163  1  0.05920646  0.28449910  0.84671322  1
  S2-  S164  1  0.06769829  0.45325126  0.30945585  1
  S2-  S165  1  0.11695938  0.50306452  0.84514738  1
  S2-  S166  1  0.11647685  0.66939314  0.34873990  1
  S2-  S167  1  0.10786927  0.76098804  0.84739344  1
  S2-  S168  1  0.43369959  0.01521420  0.33923132  1
  S2-  S169  1  0.35896332  -0.03211244  0.84404378  1
  S2-  S170  1  0.24722843  0.24072889  0.35556609  1
  S2-  S171  1  0.26532676  0.22984696  0.85854187  1
  S2-  S172  1  0.26912305  0.49234384  0.34363157  1
  S2-  S173  1  0.34763327  0.43429841  0.85801985  1
  S2-  S174  1  0.49564957  0.77234709  0.35197481  1
  S2-  S175  1  0.33643767  0.71991209  0.85618635  1
  S2-  S176  1  0.67027899  -0.00281897  0.32987562  1
  S2-  S177  1  0.63853505  0.00508172  0.85303247  1
  S2-  S178  1  0.71696075  0.25448652  0.35107857  1
  S2-  S179  1  0.72523633  0.25600123  0.85143871  1
  S2-  S180  1  0.63601661  0.60011140  0.34736217  1
  S2-  S181  1  0.64459542  0.47922900  0.83654075  1
  S2-  S182  1  0.73456361  0.78502868  0.34323520  1
  S2-  S183  1  0.62424940  0.73224702  0.85213155  1
  S2-  S184  1  0.91616433  -0.11547845  0.34829478  1
  S2-  S185  1  0.88382561  0.09063648  0.85602582  1
  S2-  S186  1  0.87600887  0.10698444  0.34308225  1
  S2-  S187  1  0.89578463  0.27164123  0.77662121  1
  S2-  S188  1  0.85999658  0.40839932  0.35061785  1
  S2-  S189  1  0.87910432  0.43454717  0.85183391  1
  S2-  S190  1  0.87433977  0.61857437  0.35345755  1
  S2-  S191  1  0.86586358  0.70874643  0.85633375  1
  S2-  S192  1  -0.00192229  0.13385868  0.45279685  1
  S2-  S193  1  0.00116185  0.13477559  0.96140922  1
  S2-  S194  1  0.00529816  0.38510929  0.44738653  1
  S2-  S195  1  -0.00176597  0.37966918  0.96040351  1
  S2-  S196  1  0.00168291  0.62743171  0.44945012  1
  S2-  S197  1  0.00179329  0.63142812  0.95980245  1
  S2-  S198  1  0.00128339  0.87946083  0.45827987  1
  S2-  S199  1  -0.00055530  0.88269976  0.95216797  1
  S2-  S200  1  0.24531312  0.13000220  0.45596788  1
  S2-  S201  1  0.25554487  0.12798728  0.96439095  1
  S2-  S202  1  0.24143181  0.38453512  0.44961689  1
  S2-  S203  1  0.25324943  0.38319739  0.96622972  1
  S2-  S204  1  0.25009542  0.63088753  0.44641771  1
  S2-  S205  1  0.24885401  0.63114874  0.96434928  1
  S2-  S206  1  0.24616519  0.88063466  0.45500143  1
  S2-  S207  1  0.24934853  0.88233234  0.95526151  1
  S2-  S208  1  0.49646205  0.13600156  0.44383293  1
  S2-  S209  1  0.50262550  0.13305391  0.95218384  1
  S2-  S210  1  0.49523649  0.37927800  0.45096427  1
  S2-  S211  1  0.50650130  0.38585124  0.94720074  1
  S2-  S212  1  0.49394478  0.62503990  0.44771055  1
  S2-  S213  1  0.50121887  0.63330123  0.95401297  1
  S2-  S214  1  0.49778412  0.88585841  0.45458881  1
  S2-  S215  1  0.50184410  0.88218238  0.95606242  1
  S2-  S216  1  0.75029307  0.13158849  0.45099513  1
  S2-  S217  1  0.74819572  0.12828257  0.96070046  1
  S2-  S218  1  0.75126702  0.37935897  0.45918926  1
  S2-  S219  1  0.74925472  0.38749144  0.95751493  1
  S2-  S220  1  0.75117147  0.62836657  0.45501532  1
  S2-  S221  1  0.75134753  0.63302836  0.96342058  1
  S2-  S222  1  0.74687216  0.88518240  0.45312479  1
  S2-  S223  1  0.75255878  0.88452068  0.95899480  1
  S2-  S224  1  0.12661701  0.00212600  0.05092862  1
  S2-  S225  1  0.12449257  0.01055121  0.55024558  1
  S2-  S226  1  0.12573274  0.25284057  0.04705129  1
  S2-  S227  1  0.12369792  0.25675471  0.53872787  1
  S2-  S228  1  0.12662683  0.50951372  0.05146306  1
  S2-  S229  1  0.12425153  0.50779130  0.54988969  1
  S2-  S230  1  0.12743671  0.75872840  0.05207564  1
  S2-  S231  1  0.12214374  0.75470046  0.53923889  1
  S2-  S232  1  0.37551310  0.00578290  0.05044838  1
  S2-  S233  1  0.37005435  0.01067603  0.54213423  1
  S2-  S234  1  0.38257705  0.25798337  0.04001951  1
  S2-  S235  1  0.37134491  0.25868383  0.53924378  1
  S2-  S236  1  0.38199987  0.51212823  0.04990472  1
  S2-  S237  1  0.37151114  0.50561515  0.54280220  1
  S2-  S238  1  0.37617577  0.75646973  0.05616510  1
  S2-  S239  1  0.37331541  0.75885606  0.53575849  1
  S2-  S240  1  0.62802807  0.00623461  0.05584322  1
  S2-  S241  1  0.62143561  0.01074308  0.53884197  1
  S2-  S242  1  0.62789602  0.25739004  0.04874180  1
  S2-  S243  1  0.62265709  0.25855526  0.54323139  1
  S2-  S244  1  0.62392622  0.50991011  0.04239527  1
  S2-  S245  1  0.61912615  0.50837451  0.54053848  1
  S2-  S246  1  0.62820724  0.76159935  0.05231257  1
  S2-  S247  1  0.62225374  0.75494816  0.53552319  1
  S2-  S248  1  0.87561303  0.00628869  0.05172166  1
  S2-  S249  1  0.87400750  0.01057788  0.53935954  1
  S2-  S250  1  0.87825346  0.25975805  0.06264792  1
  S2-  S251  1  0.87155473  0.26177523  0.55689069  1
  S2-  S252  1  0.87245950  0.50981612  0.04634928  1
  S2-  S253  1  0.87398237  0.50685936  0.54475860  1
  S2-  S254  1  0.87257882  0.75638758  0.05785512  1
  S2-  S255  1  0.87222596  0.75547238  0.53767424  1
