# generated using pymatgen
data_La9Ce10Pr6Nd4Sm3(BiS2)32
_symmetry_space_group_name_H-M   'P 1'
_cell_length_a   16.20367982
_cell_length_b   16.20734183
_cell_length_c   27.20409413
_cell_angle_alpha   89.82856528
_cell_angle_beta   89.68467840
_cell_angle_gamma   89.91395820
_symmetry_Int_Tables_number   1
_chemical_formula_structural   La9Ce10Pr6Nd4Sm3(BiS2)32
_chemical_formula_sum   'La18 Ce20 Pr12 Nd8 Sm6 Bi64 S128'
_cell_volume   7144.15245788
_cell_formula_units_Z   2
loop_
 _symmetry_equiv_pos_site_id
 _symmetry_equiv_pos_as_xyz
  1  'x, y, z'
loop_
 _atom_type_symbol
 _atom_type_oxidation_number
  La3+  3.0
  Ce3+  3.0
  Pr3+  3.0
  Nd3+  3.0
  Sm3+  3.0
  Bi2+  2.0
  S2-  -2.0
loop_
 _atom_site_type_symbol
 _atom_site_label
 _atom_site_symmetry_multiplicity
 _atom_site_fract_x
 _atom_site_fract_y
 _atom_site_fract_z
 _atom_site_occupancy
  La3+  La0  1  0.15099861  0.23758405  0.41947373  1
  La3+  La1  1  0.61507520  -0.00312454  0.38560869  1
  La3+  La2  1  0.26669156  0.61053085  0.59051472  1
  La3+  La3  1  0.64377045  0.24194943  0.43787255  1
  La3+  La4  1  0.25188385  0.36780556  0.06708518  1
  La3+  La5  1  0.48579877  0.86325494  0.07415189  1
  La3+  La6  1  0.77353438  0.11407303  0.57446233  1
  La3+  La7  1  0.37791922  -0.00262373  0.93384966  1
  La3+  La8  1  0.12327247  0.73736869  0.89841740  1
  La3+  La9  1  -0.01009131  0.62183397  0.10361689  1
  La3+  La10  1  0.89447139  0.74309664  0.44053076  1
  La3+  La11  1  0.12014504  -0.00743397  0.93616056  1
  La3+  La12  1  0.52500720  0.11380391  0.58401373  1
  La3+  La13  1  0.12145477  0.24897655  0.93152809  1
  La3+  La14  1  0.86915515  0.49826187  0.93887633  1
  La3+  La15  1  0.74054840  0.12221860  0.07470832  1
  La3+  La16  1  0.37633337  0.74910775  0.91899539  1
  La3+  La17  1  -0.00347899  0.11748627  0.06310000  1
  Ce3+  Ce18  1  0.64105963  0.49666025  0.43876803  1
  Ce3+  Ce19  1  0.14415963  -0.00644886  0.44994019  1
  Ce3+  Ce20  1  0.76577531  0.61841902  0.56273920  1
  Ce3+  Ce21  1  0.74328060  0.61933838  0.06599427  1
  Ce3+  Ce22  1  0.63968878  0.74789578  0.43875841  1
  Ce3+  Ce23  1  0.24108683  0.61765622  0.05155004  1
  Ce3+  Ce24  1  0.76714120  0.36759789  0.55820829  1
  Ce3+  Ce25  1  0.14641757  0.74414000  0.45634569  1
  Ce3+  Ce26  1  0.61938631  0.74466780  0.93879448  1
  Ce3+  Ce27  1  0.86945695  0.24446700  0.94837042  1
  Ce3+  Ce28  1  0.11554712  0.49473827  0.93186576  1
  Ce3+  Ce29  1  -0.00474061  0.86062202  0.05617742  1
  Ce3+  Ce30  1  0.49376756  0.62192330  0.05729776  1
  Ce3+  Ce31  1  0.01346212  0.12270602  0.55196567  1
  Ce3+  Ce32  1  0.02087786  0.37008282  0.54524142  1
  Ce3+  Ce33  1  0.26336139  0.12284539  0.57008301  1
  Ce3+  Ce34  1  0.51717055  0.36634058  0.55654060  1
  Ce3+  Ce35  1  0.88204641  -0.00498952  0.43547526  1
  Ce3+  Ce36  1  0.39104390  0.24087439  0.44858910  1
  Ce3+  Ce37  1  0.38658851  0.49628775  0.44522936  1
  Pr3+  Pr38  1  0.37445638  0.24206627  0.93135346  1
  Pr3+  Pr39  1  0.24702645  0.11711390  0.05889569  1
  Pr3+  Pr40  1  0.89509919  0.24439736  0.43139451  1
  Pr3+  Pr41  1  0.26070798  0.36374197  0.56635384  1
  Pr3+  Pr42  1  0.74507637  0.37326938  0.06463077  1
  Pr3+  Pr43  1  0.63261537  0.24116080  0.93057879  1
  Pr3+  Pr44  1  0.01079589  0.61142865  0.57101040  1
  Pr3+  Pr45  1  0.89449192  0.49329299  0.43186580  1
  Pr3+  Pr46  1  0.87131769  -0.00808635  0.93929797  1
  Pr3+  Pr47  1  0.49658690  0.36795151  0.05351521  1
  Pr3+  Pr48  1  0.51802545  0.61666984  0.56528704  1
  Pr3+  Pr49  1  0.01423433  0.87011316  0.56542940  1
  Nd3+  Nd50  1  0.24286675  0.86145303  0.05130942  1
  Nd3+  Nd51  1  0.36853867  0.49521659  0.93618304  1
  Nd3+  Nd52  1  0.15058586  0.50880849  0.42285895  1
  Nd3+  Nd53  1  0.87174550  0.74138700  0.94201839  1
  Nd3+  Nd54  1  0.74640535  0.86495450  0.05949431  1
  Nd3+  Nd55  1  0.26528768  0.86586803  0.57601662  1
  Nd3+  Nd56  1  0.52199727  0.87057501  0.56816746  1
  Nd3+  Nd57  1  -0.00202752  0.36967450  0.07035856  1
  Sm3+  Sm58  1  0.76500854  0.87100313  0.56044147  1
  Sm3+  Sm59  1  0.39233668  0.74638893  0.45425161  1
  Sm3+  Sm60  1  0.62342420  -0.00475841  0.94680428  1
  Sm3+  Sm61  1  0.49753621  0.11518362  0.06747893  1
  Sm3+  Sm62  1  0.62248913  0.49453871  0.93820170  1
  Sm3+  Sm63  1  0.39431051  -0.00657614  0.45345804  1
  Bi2+  Bi64  1  0.00780902  0.05903291  0.27084552  1
  Bi2+  Bi65  1  0.03506244  0.16918909  0.79172072  1
  Bi2+  Bi66  1  -0.03690953  0.38785954  0.28914439  1
  Bi2+  Bi67  1  -0.00152576  0.36229012  0.78190455  1
  Bi2+  Bi68  1  0.00185025  0.62871674  0.30923505  1
  Bi2+  Bi69  1  -0.01377263  0.62174286  0.79683758  1
  Bi2+  Bi70  1  0.03372080  0.87136264  0.29980577  1
  Bi2+  Bi71  1  -0.03326885  0.89435938  0.79732612  1
  Bi2+  Bi72  1  0.20712290  0.17106328  0.28725814  1
  Bi2+  Bi73  1  0.22923335  0.18421639  0.81668347  1
  Bi2+  Bi74  1  0.31333896  0.38630612  0.29267068  1
  Bi2+  Bi75  1  0.27834355  0.37543828  0.80667827  1
  Bi2+  Bi76  1  0.26945976  0.69269451  0.30287456  1
  Bi2+  Bi77  1  0.25597990  0.62295247  0.77537650  1
  Bi2+  Bi78  1  0.23048603  0.91381369  0.30696448  1
  Bi2+  Bi79  1  0.31505169  0.88880997  0.75725803  1
  Bi2+  Bi80  1  0.40646497  0.12342566  0.27937847  1
  Bi2+  Bi81  1  0.50236430  0.11132702  0.78660796  1
  Bi2+  Bi82  1  0.50578561  0.38537078  0.28735977  1
  Bi2+  Bi83  1  0.54114680  0.42466219  0.77741182  1
  Bi2+  Bi84  1  0.49286754  0.60689598  0.28501228  1
  Bi2+  Bi85  1  0.55102011  0.61816826  0.78557725  1
  Bi2+  Bi86  1  0.49158551  0.87290167  0.29144315  1
  Bi2+  Bi87  1  0.51546981  0.87496031  0.78803107  1
  Bi2+  Bi88  1  0.84808185  0.13744330  0.31248664  1
  Bi2+  Bi89  1  0.72868970  0.12013137  0.80962867  1
  Bi2+  Bi90  1  0.67463038  0.28207961  0.28746517  1
  Bi2+  Bi91  1  0.72960415  0.38344721  0.78882023  1
  Bi2+  Bi92  1  0.67999013  0.59741919  0.30701939  1
  Bi2+  Bi93  1  0.73765491  0.66399003  0.81685100  1
  Bi2+  Bi94  1  0.76908668  0.85231450  0.28801834  1
  Bi2+  Bi95  1  0.71358243  0.83721758  0.76354149  1
  Bi2+  Bi96  1  0.15390719  -0.01189003  0.20090881  1
  Bi2+  Bi97  1  0.17748180  0.03436293  0.74824073  1
  Bi2+  Bi98  1  0.07317687  0.29308464  0.20933714  1
  Bi2+  Bi99  1  0.06058612  0.23719190  0.68397320  1
  Bi2+  Bi100  1  0.15654420  0.51779105  0.22307769  1
  Bi2+  Bi101  1  0.11337384  0.47161221  0.71141149  1
  Bi2+  Bi102  1  0.16012848  0.79319987  0.22521165  1
  Bi2+  Bi103  1  0.11551012  0.77542325  0.69524657  1
  Bi2+  Bi104  1  0.35305154  -0.02366779  0.21503775  1
  Bi2+  Bi105  1  0.38545338  0.04957120  0.70379326  1
  Bi2+  Bi106  1  0.33097183  0.22891425  0.20108009  1
  Bi2+  Bi107  1  0.33099566  0.25921663  0.72414673  1
  Bi2+  Bi108  1  0.37022283  0.51563471  0.21077026  1
  Bi2+  Bi109  1  0.38964403  0.47033655  0.71037555  1
  Bi2+  Bi110  1  0.36708861  0.73245745  0.20757487  1
  Bi2+  Bi111  1  0.47009867  0.74248768  0.70895712  1
  Bi2+  Bi112  1  0.64023449  -0.00641679  0.18302023  1
  Bi2+  Bi113  1  0.65687437  0.00135227  0.70905881  1
  Bi2+  Bi114  1  0.56168892  0.31214959  0.18532369  1
  Bi2+  Bi115  1  0.61354017  0.28274003  0.70058602  1
  Bi2+  Bi116  1  0.55745713  0.51283559  0.16917361  1
  Bi2+  Bi117  1  0.63287512  0.56287499  0.68225539  1
  Bi2+  Bi118  1  0.62507482  0.69684842  0.21103528  1
  Bi2+  Bi119  1  0.65315797  0.75218815  0.65766558  1
  Bi2+  Bi120  1  0.90492443  -0.07573283  0.20986835  1
  Bi2+  Bi121  1  0.90468757  0.01575394  0.71243383  1
  Bi2+  Bi122  1  0.83839383  0.20862809  0.20922469  1
  Bi2+  Bi123  1  0.85124464  0.26602208  0.73172571  1
  Bi2+  Bi124  1  0.73240974  0.49813395  0.21375928  1
  Bi2+  Bi125  1  0.80633953  0.54388405  0.73177574  1
  Bi2+  Bi126  1  0.85655426  0.73555381  0.21617027  1
  Bi2+  Bi127  1  0.84240498  0.73464144  0.70359634  1
  S2-  S128  1  -0.01926316  0.18747914  0.15455230  1
  S2-  S129  1  -0.07334680  0.13136367  0.63856513  1
  S2-  S130  1  -0.01981705  0.40956648  0.16846349  1
  S2-  S131  1  0.00967214  0.38754714  0.64340959  1
  S2-  S132  1  0.03246026  0.61147744  0.20525171  1
  S2-  S133  1  0.08539706  0.61219862  0.66448881  1
  S2-  S134  1  -0.02621046  0.79576081  0.14676050  1
  S2-  S135  1  -0.00843284  0.89715387  0.66596119  1
  S2-  S136  1  0.20292886  0.13340326  0.15555923  1
  S2-  S137  1  0.22444309  0.23707878  0.64159191  1
  S2-  S138  1  0.18410221  0.37855232  0.16083402  1
  S2-  S139  1  0.25273570  0.46429845  0.65019927  1
  S2-  S140  1  0.24819484  0.60095409  0.15072803  1
  S2-  S141  1  0.25890065  0.71562987  0.67512369  1
  S2-  S142  1  0.32006065  0.85167209  0.14076566  1
  S2-  S143  1  0.21671584  0.91604176  0.66797018  1
  S2-  S144  1  0.60675036  0.15540890  0.14382734  1
  S2-  S145  1  0.46619031  0.19659206  0.67027884  1
  S2-  S146  1  0.39800328  0.34197226  0.13667349  1
  S2-  S147  1  0.52568482  0.40771914  0.65140679  1
  S2-  S148  1  0.49536446  0.72391629  0.13938087  1
  S2-  S149  1  0.42229643  0.60636942  0.65097456  1
  S2-  S150  1  0.48435414  0.99148818  0.14490953  1
  S2-  S151  1  0.51507627  0.97051742  0.65207514  1
  S2-  S152  1  0.80035280  0.06036368  0.16451681  1
  S2-  S153  1  0.66423676  0.13949597  0.65580782  1
  S2-  S154  1  0.75235615  0.34418192  0.16459767  1
  S2-  S155  1  0.76586246  0.34103677  0.65639583  1
  S2-  S156  1  0.83154586  0.60846546  0.15220557  1
  S2-  S157  1  0.87357201  0.60486567  0.64032338  1
  S2-  S158  1  0.70065496  0.83780791  0.15579114  1
  S2-  S159  1  0.78583369  0.96533513  0.64465419  1
  S2-  S160  1  0.17531081  0.05522821  0.36126148  1
  S2-  S161  1  0.10477721  -0.03132897  0.83639534  1
  S2-  S162  1  0.07227682  0.26024813  0.32763024  1
  S2-  S163  1  0.12738855  0.37287679  0.85980516  1
  S2-  S164  1  0.09063199  0.48323090  0.32505550  1
  S2-  S165  1  0.12895820  0.58601306  0.84258426  1
  S2-  S166  1  0.13473752  0.67383458  0.36815718  1
  S2-  S167  1  0.07745323  0.77569688  0.79565420  1
  S2-  S168  1  0.43986296  0.00172607  0.35729784  1
  S2-  S169  1  0.37735682  -0.09583168  0.84878582  1
  S2-  S170  1  0.30714662  0.25111889  0.36250938  1
  S2-  S171  1  0.38570115  0.12119201  0.85839491  1
  S2-  S172  1  0.29775862  0.50869745  0.36243419  1
  S2-  S173  1  0.35527496  0.52797413  0.83752425  1
  S2-  S174  1  0.38882562  0.76887289  0.35571643  1
  S2-  S175  1  0.27131295  0.73886016  0.83704740  1
  S2-  S176  1  0.60493564  -0.01088423  0.27610565  1
  S2-  S177  1  0.60860724  0.00766007  0.84818545  1
  S2-  S178  1  0.62212944  0.16645950  0.34864898  1
  S2-  S179  1  0.57901543  0.22802200  0.83378691  1
  S2-  S180  1  0.64827201  0.43159065  0.34769488  1
  S2-  S181  1  0.73320196  0.50041124  0.86275222  1
  S2-  S182  1  0.62428361  0.82513420  0.35094680  1
  S2-  S183  1  0.52214265  0.74486732  0.85728625  1
  S2-  S184  1  0.78629566  -0.01397292  0.35264365  1
  S2-  S185  1  0.84735486  0.01151133  0.83944285  1
  S2-  S186  1  0.84421689  0.30756181  0.34057906  1
  S2-  S187  1  0.79234198  0.24182997  0.86147847  1
  S2-  S188  1  0.88202078  0.52062184  0.33117911  1
  S2-  S189  1  0.94710567  0.49131527  0.84724242  1
  S2-  S190  1  0.87354645  0.74501753  0.33957331  1
  S2-  S191  1  0.88461194  0.75431885  0.84200404  1
  S2-  S192  1  0.01508007  0.11537335  0.44596302  1
  S2-  S193  1  -0.00475043  0.11997746  0.95192424  1
  S2-  S194  1  0.02350643  0.37212293  0.44054472  1
  S2-  S195  1  -0.00841351  0.36717098  0.96083926  1
  S2-  S196  1  0.01608733  0.61671266  0.46151476  1
  S2-  S197  1  -0.00100054  0.62527971  0.94638297  1
  S2-  S198  1  0.01898079  0.86988277  0.45536246  1
  S2-  S199  1  -0.00230352  0.86353963  0.94887132  1
  S2-  S200  1  0.27176504  0.11451155  0.46486192  1
  S2-  S201  1  0.24270567  0.11907293  0.95256460  1
  S2-  S202  1  0.26539483  0.37109839  0.45901340  1
  S2-  S203  1  0.25270542  0.36735743  0.95774086  1
  S2-  S204  1  0.27180911  0.62507647  0.46981597  1
  S2-  S205  1  0.24420855  0.61870065  0.94733225  1
  S2-  S206  1  0.26925378  0.87011274  0.46635564  1
  S2-  S207  1  0.23989181  0.86487358  0.94650894  1
  S2-  S208  1  0.51455414  0.11647332  0.46139666  1
  S2-  S209  1  0.50595927  0.12113460  0.96108982  1
  S2-  S210  1  0.51281680  0.36914353  0.44979162  1
  S2-  S211  1  0.49846390  0.37037070  0.94345529  1
  S2-  S212  1  0.51453662  0.62130606  0.45340616  1
  S2-  S213  1  0.49845041  0.61290402  0.95089029  1
  S2-  S214  1  0.51549193  0.87045014  0.46174367  1
  S2-  S215  1  0.50265563  0.87285371  0.96003730  1
  S2-  S216  1  0.77194499  0.12417950  0.45802745  1
  S2-  S217  1  0.74840174  0.11445979  0.96327149  1
  S2-  S218  1  0.76692261  0.37252951  0.45214516  1
  S2-  S219  1  0.74511272  0.37058928  0.95884199  1
  S2-  S220  1  0.76606258  0.61854405  0.45220749  1
  S2-  S221  1  0.74277102  0.62247697  0.96021752  1
  S2-  S222  1  0.76755703  0.86454153  0.45696200  1
  S2-  S223  1  0.74555902  0.86859110  0.95055989  1
  S2-  S224  1  0.12051289  -0.01024665  0.04621463  1
  S2-  S225  1  0.13952760  -0.00346386  0.55628107  1
  S2-  S226  1  0.12152179  0.24422285  0.04413519  1
  S2-  S227  1  0.13732916  0.24066173  0.53205480  1
  S2-  S228  1  0.11529332  0.49598776  0.04828726  1
  S2-  S229  1  0.14069059  0.49596614  0.54229368  1
  S2-  S230  1  0.11791717  0.73828772  0.05692498  1
  S2-  S231  1  0.13909924  0.74338703  0.55983908  1
  S2-  S232  1  0.36736891  -0.00613035  0.04176099  1
  S2-  S233  1  0.38555098  -0.00658457  0.55724899  1
  S2-  S234  1  0.37536755  0.23495375  0.03789431  1
  S2-  S235  1  0.39232849  0.24239400  0.55262474  1
  S2-  S236  1  0.37267225  0.49676750  0.04319921  1
  S2-  S237  1  0.39349705  0.48972203  0.54834734  1
  S2-  S238  1  0.36707776  0.73946943  0.03233929  1
  S2-  S239  1  0.39340251  0.74811144  0.55835771  1
  S2-  S240  1  0.62287544  -0.01027142  0.04981877  1
  S2-  S241  1  0.64465482  -0.00903621  0.55097653  1
  S2-  S242  1  0.62260292  0.24907783  0.03898801  1
  S2-  S243  1  0.64198459  0.24426091  0.54655704  1
  S2-  S244  1  0.61997167  0.49477294  0.04249270  1
  S2-  S245  1  0.64247510  0.49283038  0.54485256  1
  S2-  S246  1  0.62256563  0.74303787  0.04299110  1
  S2-  S247  1  0.64236083  0.74365910  0.54279936  1
  S2-  S248  1  0.87271864  -0.01100723  0.04763855  1
  S2-  S249  1  0.89463674  -0.00955284  0.53957773  1
  S2-  S250  1  0.86893565  0.24601099  0.05247723  1
  S2-  S251  1  0.89327807  0.24951563  0.53841712  1
  S2-  S252  1  0.87385329  0.49531640  0.04978660  1
  S2-  S253  1  0.88876063  0.48925417  0.53921856  1
  S2-  S254  1  0.86956994  0.73857920  0.04691542  1
  S2-  S255  1  0.88977576  0.74743063  0.54859349  1
