# generated using pymatgen
data_La9Ce10Pr6Nd4Sm3(BiS2)32
_symmetry_space_group_name_H-M   'P 1'
_cell_length_a   16.25436585
_cell_length_b   16.20212631
_cell_length_c   27.24542505
_cell_angle_alpha   90.13448271
_cell_angle_beta   90.28233265
_cell_angle_gamma   90.01391943
_symmetry_Int_Tables_number   1
_chemical_formula_structural   La9Ce10Pr6Nd4Sm3(BiS2)32
_chemical_formula_sum   'La18 Ce20 Pr12 Nd8 Sm6 Bi64 S128'
_cell_volume   7175.11967120
_cell_formula_units_Z   2
loop_
 _symmetry_equiv_pos_site_id
 _symmetry_equiv_pos_as_xyz
  1  'x, y, z'
loop_
 _atom_type_symbol
 _atom_type_oxidation_number
  La3+  3.0
  Ce3+  3.0
  Pr3+  3.0
  Nd3+  3.0
  Sm3+  3.0
  Bi2+  2.0
  S2-  -2.0
loop_
 _atom_site_type_symbol
 _atom_site_label
 _atom_site_symmetry_multiplicity
 _atom_site_fract_x
 _atom_site_fract_y
 _atom_site_fract_z
 _atom_site_occupancy
  La3+  La0  1  0.76897910  0.11758888  0.07102246  1
  La3+  La1  1  0.51773284  0.36403052  0.08821936  1
  La3+  La2  1  0.61189299  0.50613569  0.42074895  1
  La3+  La3  1  0.36298676  0.51178368  0.42227062  1
  La3+  La4  1  0.88718883  0.23754166  0.93343947  1
  La3+  La5  1  0.00121995  0.63510380  0.61245659  1
  La3+  La6  1  0.14397353  0.23336423  0.92714087  1
  La3+  La7  1  0.87561755  0.48559573  0.91472378  1
  La3+  La8  1  0.26621763  0.11911801  0.07373545  1
  La3+  La9  1  0.01697214  0.13177885  0.08806633  1
  La3+  La10  1  0.74624953  0.88260371  0.55969762  1
  La3+  La11  1  0.25397593  0.63329690  0.57040109  1
  La3+  La12  1  -0.00625746  0.13419974  0.56092965  1
  La3+  La13  1  0.14617640  0.49174748  0.92508591  1
  La3+  La14  1  0.62043476  0.75565515  0.43990663  1
  La3+  La15  1  0.11935494  0.25556632  0.43579433  1
  La3+  La16  1  0.02033535  0.86191325  0.08237899  1
  La3+  La17  1  0.87235158  0.26280462  0.42242091  1
  Ce3+  Ce18  1  0.24310421  0.13380129  0.55540514  1
  Ce3+  Ce19  1  0.26649393  0.86690393  0.06200862  1
  Ce3+  Ce20  1  0.89362345  -0.00019406  0.94705002  1
  Ce3+  Ce21  1  0.39137878  0.49106428  0.94713560  1
  Ce3+  Ce22  1  0.24557011  0.38467024  0.55928722  1
  Ce3+  Ce23  1  0.36978596  0.25731764  0.44156323  1
  Ce3+  Ce24  1  0.74759530  0.13542607  0.55264129  1
  Ce3+  Ce25  1  0.26500345  0.61679229  0.06154213  1
  Ce3+  Ce26  1  0.86911159  0.51370005  0.42582470  1
  Ce3+  Ce27  1  0.49533225  0.63057827  0.56234261  1
  Ce3+  Ce28  1  0.11263537  0.00339497  0.43596017  1
  Ce3+  Ce29  1  0.74715083  0.38461040  0.54916498  1
  Ce3+  Ce30  1  0.76413731  0.61821215  0.05698697  1
  Ce3+  Ce31  1  0.49716554  0.88488342  0.55581330  1
  Ce3+  Ce32  1  0.13801235  -0.00313493  0.95152947  1
  Ce3+  Ce33  1  0.51709165  0.86810353  0.06243746  1
  Ce3+  Ce34  1  0.87212547  0.75050752  0.43907212  1
  Ce3+  Ce35  1  0.63838553  0.74240337  0.94131573  1
  Ce3+  Ce36  1  0.01372785  0.36933767  0.04917976  1
  Ce3+  Ce37  1  0.86048310  0.01214886  0.40449034  1
  Pr3+  Pr38  1  0.74875495  0.62431661  0.56330251  1
  Pr3+  Pr39  1  0.36722935  0.00674101  0.44139102  1
  Pr3+  Pr40  1  0.76617420  0.37456781  0.06598186  1
  Pr3+  Pr41  1  -0.00578602  0.87882920  0.55807619  1
  Pr3+  Pr42  1  0.01090878  0.61526825  0.05626338  1
  Pr3+  Pr43  1  0.63180670  0.48909371  0.93915143  1
  Pr3+  Pr44  1  0.39140644  -0.00629973  0.94363111  1
  Pr3+  Pr45  1  0.26370357  0.37027371  0.06371234  1
  Pr3+  Pr46  1  0.52301256  0.62601429  0.08124812  1
  Pr3+  Pr47  1  0.49484192  0.38308462  0.55887523  1
  Pr3+  Pr48  1  0.13939465  0.74442247  0.93725539  1
  Pr3+  Pr49  1  0.88884921  0.74433042  0.93312214  1
  Nd3+  Nd50  1  0.39093069  0.24434540  0.94402978  1
  Nd3+  Nd51  1  0.63843897  -0.00476669  0.94363788  1
  Nd3+  Nd52  1  0.38916027  0.74239231  0.94529590  1
  Nd3+  Nd53  1  0.62183396  0.00755404  0.43337705  1
  Nd3+  Nd54  1  0.24457218  0.88337935  0.55895733  1
  Nd3+  Nd55  1  0.12227252  0.51204098  0.44098844  1
  Nd3+  Nd56  1  0.61923952  0.25620836  0.43786066  1
  Nd3+  Nd57  1  0.36905418  0.75710760  0.43599374  1
  Sm3+  Sm58  1  0.63615595  0.24364528  0.94993787  1
  Sm3+  Sm59  1  0.76877192  0.86938196  0.05168544  1
  Sm3+  Sm60  1  0.49591588  0.13234383  0.55095961  1
  Sm3+  Sm61  1  -0.00528199  0.39350698  0.55594968  1
  Sm3+  Sm62  1  0.51640266  0.11652815  0.06618057  1
  Sm3+  Sm63  1  0.11801255  0.75598676  0.44697878  1
  Bi2+  Bi64  1  0.00159855  0.10256338  0.28861846  1
  Bi2+  Bi65  1  0.02041606  0.13916201  0.79510792  1
  Bi2+  Bi66  1  0.01327232  0.39676118  0.28147234  1
  Bi2+  Bi67  1  -0.02137564  0.38976499  0.78825387  1
  Bi2+  Bi68  1  -0.01428780  0.61174783  0.29419755  1
  Bi2+  Bi69  1  0.01726670  0.65136342  0.81712179  1
  Bi2+  Bi70  1  -0.04528226  0.82850094  0.26170805  1
  Bi2+  Bi71  1  -0.00290683  0.94834485  0.76891867  1
  Bi2+  Bi72  1  0.27187178  0.07550569  0.27857513  1
  Bi2+  Bi73  1  0.26588304  0.10834246  0.79878580  1
  Bi2+  Bi74  1  0.20928617  0.33238214  0.30166226  1
  Bi2+  Bi75  1  0.32228466  0.36920302  0.79182899  1
  Bi2+  Bi76  1  0.18289470  0.59402385  0.28555571  1
  Bi2+  Bi77  1  0.27077314  0.64372846  0.80396683  1
  Bi2+  Bi78  1  0.18350021  0.87056052  0.30705159  1
  Bi2+  Bi79  1  0.25670975  0.93925602  0.73915793  1
  Bi2+  Bi80  1  0.51971061  0.08337003  0.27859859  1
  Bi2+  Bi81  1  0.53051539  0.19172649  0.82111888  1
  Bi2+  Bi82  1  0.47491877  0.34575909  0.28611824  1
  Bi2+  Bi83  1  0.50121209  0.38744134  0.84549575  1
  Bi2+  Bi84  1  0.47482202  0.62403719  0.29049070  1
  Bi2+  Bi85  1  0.49838066  0.56900554  0.79131601  1
  Bi2+  Bi86  1  0.49822166  0.88582291  0.30006423  1
  Bi2+  Bi87  1  0.49327398  0.92238669  0.79591260  1
  Bi2+  Bi88  1  0.70449843  0.13490638  0.29824160  1
  Bi2+  Bi89  1  0.77013632  0.04369894  0.79671648  1
  Bi2+  Bi90  1  0.75132344  0.39187574  0.28098785  1
  Bi2+  Bi91  1  0.67989610  0.36358177  0.78766109  1
  Bi2+  Bi92  1  0.80338328  0.58809610  0.25722373  1
  Bi2+  Bi93  1  0.68648269  0.62826760  0.78545330  1
  Bi2+  Bi94  1  0.76359154  0.85151088  0.25769819  1
  Bi2+  Bi95  1  0.73222129  0.85361291  0.79109597  1
  Bi2+  Bi96  1  0.13223696  -0.02124982  0.21453780  1
  Bi2+  Bi97  1  0.10401578  0.03345917  0.68675855  1
  Bi2+  Bi98  1  0.13476094  0.25533253  0.21216654  1
  Bi2+  Bi99  1  0.21715492  0.25883471  0.71809815  1
  Bi2+  Bi100  1  0.06117861  0.52290763  0.19844748  1
  Bi2+  Bi101  1  0.12529261  0.50490708  0.71655899  1
  Bi2+  Bi102  1  0.13008298  0.73202740  0.20975311  1
  Bi2+  Bi103  1  0.13627544  0.77846279  0.71142695  1
  Bi2+  Bi104  1  0.34069533  -0.06635119  0.18307084  1
  Bi2+  Bi105  1  0.42808468  0.01055329  0.70110425  1
  Bi2+  Bi106  1  0.38442091  0.12541567  0.19120188  1
  Bi2+  Bi107  1  0.40681898  0.21374149  0.73120848  1
  Bi2+  Bi108  1  0.32326239  0.49058478  0.20713840  1
  Bi2+  Bi109  1  0.37644787  0.49823638  0.70620775  1
  Bi2+  Bi110  1  0.34048285  0.79224605  0.26325303  1
  Bi2+  Bi111  1  0.45886781  0.74849718  0.74825803  1
  Bi2+  Bi112  1  0.53063121  -0.03657295  0.18708315  1
  Bi2+  Bi113  1  0.65119406  -0.03077009  0.70914706  1
  Bi2+  Bi114  1  0.63620212  0.25546040  0.21721460  1
  Bi2+  Bi115  1  0.63228831  0.18584583  0.71897036  1
  Bi2+  Bi116  1  0.59412954  0.51338466  0.20456377  1
  Bi2+  Bi117  1  0.61214319  0.47458905  0.69905238  1
  Bi2+  Bi118  1  0.60107502  0.75837499  0.23438950  1
  Bi2+  Bi119  1  0.59841741  0.66761532  0.68567142  1
  Bi2+  Bi120  1  0.83372380  0.01416196  0.20313060  1
  Bi2+  Bi121  1  0.89585776  0.06003472  0.69010332  1
  Bi2+  Bi122  1  0.88034180  0.34375699  0.19997236  1
  Bi2+  Bi123  1  0.81881858  0.21600941  0.74561702  1
  Bi2+  Bi124  1  0.88138923  0.51485130  0.14952199  1
  Bi2+  Bi125  1  0.85497498  0.50849592  0.70604850  1
  Bi2+  Bi126  1  0.83541021  0.72343638  0.17697532  1
  Bi2+  Bi127  1  0.88119156  0.81049591  0.72673346  1
  S2-  S128  1  -0.05597196  0.12705682  0.18847139  1
  S2-  S129  1  0.00972190  0.17578712  0.65952527  1
  S2-  S130  1  0.02149207  0.29975662  0.13903104  1
  S2-  S131  1  -0.00559743  0.45812580  0.64940491  1
  S2-  S132  1  0.00009524  0.71528414  0.14039925  1
  S2-  S133  1  0.01251565  0.62986724  0.72155090  1
  S2-  S134  1  -0.02027784  0.92809953  0.17471750  1
  S2-  S135  1  0.00359246  0.80528356  0.64995879  1
  S2-  S136  1  0.15658044  0.12200443  0.15316060  1
  S2-  S137  1  0.24226412  0.12594373  0.65237787  1
  S2-  S138  1  0.23598281  0.36850119  0.16383404  1
  S2-  S139  1  0.23349890  0.40401064  0.65722229  1
  S2-  S140  1  0.24217731  0.62587603  0.15828309  1
  S2-  S141  1  0.16525732  0.63200323  0.65720619  1
  S2-  S142  1  0.17490278  0.85582948  0.14430617  1
  S2-  S143  1  0.25708958  0.83460557  0.65480159  1
  S2-  S144  1  0.51867846  0.21032566  0.14788629  1
  S2-  S145  1  0.50272051  0.14287679  0.64828998  1
  S2-  S146  1  0.44509009  0.38953968  0.18694736  1
  S2-  S147  1  0.48292633  0.38724050  0.66008731  1
  S2-  S148  1  0.45798415  0.58980070  0.17579957  1
  S2-  S149  1  0.39041553  0.62261439  0.63945112  1
  S2-  S150  1  0.52601520  0.78401278  0.14572816  1
  S2-  S151  1  0.52414943  0.88956040  0.65198374  1
  S2-  S152  1  0.72917100  0.13362127  0.16885203  1
  S2-  S153  1  0.76236391  0.17563885  0.64767233  1
  S2-  S154  1  0.66290938  0.38333414  0.14882642  1
  S2-  S155  1  0.76063030  0.42952596  0.64385803  1
  S2-  S156  1  0.66878783  0.61234429  0.14170471  1
  S2-  S157  1  0.83650628  0.63820669  0.65090606  1
  S2-  S158  1  0.75770531  0.87783335  0.14977151  1
  S2-  S159  1  0.77445714  0.87949508  0.65938441  1
  S2-  S160  1  0.14006747  0.05499104  0.34388526  1
  S2-  S161  1  0.13265662  0.07547333  0.86485207  1
  S2-  S162  1  0.06160056  0.25318584  0.34036424  1
  S2-  S163  1  0.07818893  0.27824991  0.83115664  1
  S2-  S164  1  0.21924097  0.48265936  0.35755005  1
  S2-  S165  1  0.10501834  0.50118499  0.82375002  1
  S2-  S166  1  0.12423803  0.73001093  0.34909201  1
  S2-  S167  1  0.16141650  0.75721890  0.83610862  1
  S2-  S168  1  0.38723327  0.00572414  0.34171099  1
  S2-  S169  1  0.35197288  -0.01868716  0.84556686  1
  S2-  S170  1  0.35151754  0.26455528  0.34286126  1
  S2-  S171  1  0.28853427  0.24321803  0.86223391  1
  S2-  S172  1  0.47737551  0.47762176  0.34521427  1
  S2-  S173  1  0.29914540  0.50294530  0.86258728  1
  S2-  S174  1  0.36027357  0.65935453  0.35362485  1
  S2-  S175  1  0.37987393  0.73971440  0.84480990  1
  S2-  S176  1  0.71288768  -0.00949452  0.34953363  1
  S2-  S177  1  0.58965419  0.02567286  0.84948602  1
  S2-  S178  1  0.61002021  0.27763638  0.33892377  1
  S2-  S179  1  0.68798045  0.23526457  0.85606451  1
  S2-  S180  1  0.68339763  0.51849737  0.32751761  1
  S2-  S181  1  0.71598892  0.49609013  0.85159030  1
  S2-  S182  1  0.58664619  0.73414955  0.34161427  1
  S2-  S183  1  0.62208605  0.75931751  0.84454604  1
  S2-  S184  1  0.95553475  -0.04559772  0.32930579  1
  S2-  S185  1  0.89107901  0.09796375  0.86560112  1
  S2-  S186  1  0.86141714  0.15372645  0.34146277  1
  S2-  S187  1  0.87597527  0.34166857  0.85275374  1
  S2-  S188  1  0.87631670  0.39521964  0.35213959  1
  S2-  S189  1  0.89934679  0.54089128  0.81549102  1
  S2-  S190  1  0.85799833  0.65776623  0.35613108  1
  S2-  S191  1  0.89633353  0.77138392  0.83345731  1
  S2-  S192  1  -0.00982128  0.12727038  0.45082661  1
  S2-  S193  1  0.01532159  0.11941238  0.96999064  1
  S2-  S194  1  0.00162584  0.38637659  0.45159854  1
  S2-  S195  1  0.01929811  0.36722939  0.94605682  1
  S2-  S196  1  0.00002342  0.63236360  0.44987388  1
  S2-  S197  1  0.01335350  0.61631995  0.94555585  1
  S2-  S198  1  -0.00800546  0.87858573  0.45083312  1
  S2-  S199  1  0.01442736  0.87098845  0.94998254  1
  S2-  S200  1  0.24387172  0.13097395  0.44929340  1
  S2-  S201  1  0.26941659  0.11461515  0.96560925  1
  S2-  S202  1  0.24536686  0.37829456  0.45580906  1
  S2-  S203  1  0.26688543  0.36912191  0.95850865  1
  S2-  S204  1  0.24354082  0.63771530  0.45961347  1
  S2-  S205  1  0.26403280  0.62125065  0.95709945  1
  S2-  S206  1  0.24290456  0.88087452  0.45112882  1
  S2-  S207  1  0.26425381  0.86885173  0.95541153  1
  S2-  S208  1  0.49587959  0.13035115  0.44553881  1
  S2-  S209  1  0.51387378  0.11908544  0.96204855  1
  S2-  S210  1  0.49349972  0.37847502  0.45219090  1
  S2-  S211  1  0.51305784  0.36356685  0.96982824  1
  S2-  S212  1  0.49371897  0.63291475  0.45480902  1
  S2-  S213  1  0.51286522  0.61913929  0.95393201  1
  S2-  S214  1  0.49562319  0.88341238  0.44873281  1
  S2-  S215  1  0.51478347  0.86778704  0.95426223  1
  S2-  S216  1  0.74434751  0.13339443  0.44881104  1
  S2-  S217  1  0.75866029  0.11693463  0.96292819  1
  S2-  S218  1  0.73884202  0.38316471  0.44494995  1
  S2-  S219  1  0.75710809  0.36473184  0.95950941  1
  S2-  S220  1  0.73943112  0.62901144  0.45513752  1
  S2-  S221  1  0.76339757  0.62140624  0.94909553  1
  S2-  S222  1  0.74846978  0.87952127  0.45096706  1
  S2-  S223  1  0.76584633  0.87416015  0.94662675  1
  S2-  S224  1  0.13789270  -0.00693934  0.05365986  1
  S2-  S225  1  0.11929752  0.00563315  0.54438997  1
  S2-  S226  1  0.14354075  0.24602846  0.04207487  1
  S2-  S227  1  0.11770128  0.26254346  0.54608856  1
  S2-  S228  1  0.13830889  0.49464254  0.04238773  1
  S2-  S229  1  0.12163326  0.50973416  0.54614942  1
  S2-  S230  1  0.13946497  0.73918566  0.04226936  1
  S2-  S231  1  0.12240651  0.75709530  0.54955812  1
  S2-  S232  1  0.39263937  -0.00678601  0.05141691  1
  S2-  S233  1  0.37058640  0.00921314  0.54812181  1
  S2-  S234  1  0.38887349  0.24333784  0.05152104  1
  S2-  S235  1  0.37062690  0.25526868  0.54920343  1
  S2-  S236  1  0.39309934  0.49412129  0.05557109  1
  S2-  S237  1  0.37066146  0.50292138  0.53778409  1
  S2-  S238  1  0.38947961  0.74156516  0.05118525  1
  S2-  S239  1  0.37384384  0.76425142  0.54200236  1
  S2-  S240  1  0.64105459  -0.00711740  0.05065425  1
  S2-  S241  1  0.62130146  0.01137429  0.54133061  1
  S2-  S242  1  0.64236535  0.23960622  0.05195805  1
  S2-  S243  1  0.61928844  0.25683918  0.54440515  1
  S2-  S244  1  0.63621516  0.49623250  0.04453430  1
  S2-  S245  1  0.61823121  0.50654374  0.54140960  1
  S2-  S246  1  0.64553812  0.74793812  0.04425392  1
  S2-  S247  1  0.62180945  0.75534628  0.54829317  1
  S2-  S248  1  0.89451968  -0.00823389  0.05372937  1
  S2-  S249  1  0.87067467  0.00751526  0.55050989  1
  S2-  S250  1  0.88587749  0.24589879  0.04722789  1
  S2-  S251  1  0.87439092  0.26422998  0.53803709  1
  S2-  S252  1  0.88818451  0.49280797  0.03044549  1
  S2-  S253  1  0.87089506  0.50582655  0.53500833  1
  S2-  S254  1  0.88786387  0.74623456  0.03883151  1
  S2-  S255  1  0.86953006  0.75452127  0.54444667  1
