# generated using pymatgen
data_La9Ce10Pr6Nd4Sm3(BiS2)32
_symmetry_space_group_name_H-M   'P 1'
_cell_length_a   16.29001443
_cell_length_b   16.29118799
_cell_length_c   27.14194979
_cell_angle_alpha   90.00266687
_cell_angle_beta   89.91766260
_cell_angle_gamma   90.02919106
_symmetry_Int_Tables_number   1
_chemical_formula_structural   La9Ce10Pr6Nd4Sm3(BiS2)32
_chemical_formula_sum   'La18 Ce20 Pr12 Nd8 Sm6 Bi64 S128'
_cell_volume   7203.02233884
_cell_formula_units_Z   2
loop_
 _symmetry_equiv_pos_site_id
 _symmetry_equiv_pos_as_xyz
  1  'x, y, z'
loop_
 _atom_type_symbol
 _atom_type_oxidation_number
  La3+  3.0
  Ce3+  3.0
  Pr3+  3.0
  Nd3+  3.0
  Sm3+  3.0
  Bi2+  2.0
  S2-  -2.0
loop_
 _atom_site_type_symbol
 _atom_site_label
 _atom_site_symmetry_multiplicity
 _atom_site_fract_x
 _atom_site_fract_y
 _atom_site_fract_z
 _atom_site_occupancy
  La3+  La0  1  0.36399465  0.50582261  0.42752744  1
  La3+  La1  1  0.24408343  0.88417655  0.57653065  1
  La3+  La2  1  0.63610851  0.49714468  0.93604980  1
  La3+  La3  1  0.74154990  0.87920458  0.55978477  1
  La3+  La4  1  0.13771268  0.74018327  0.93523319  1
  La3+  La5  1  0.76527719  0.11317931  0.08171680  1
  La3+  La6  1  0.73749108  0.13006592  0.56664265  1
  La3+  La7  1  0.14120038  -0.00736808  0.93457280  1
  La3+  La8  1  0.85973373  0.00373710  0.42775865  1
  La3+  La9  1  0.25430606  0.61030030  0.07141099  1
  La3+  La10  1  0.51364002  0.36794501  0.06994479  1
  La3+  La11  1  0.25953652  0.11696024  0.06555893  1
  La3+  La12  1  0.62809639  0.51188123  0.40776936  1
  La3+  La13  1  0.14213185  0.24330126  0.93038584  1
  La3+  La14  1  0.39425714  0.73076044  0.92362950  1
  La3+  La15  1  0.25470561  0.62047487  0.58371277  1
  La3+  La16  1  0.75938067  0.61780342  0.07263809  1
  La3+  La17  1  0.50208115  0.86625070  0.06396769  1
  Ce3+  Ce18  1  0.38350735  0.24391358  0.94362144  1
  Ce3+  Ce19  1  0.12410663  0.75164719  0.44838660  1
  Ce3+  Ce20  1  0.11934878  0.00402432  0.44200476  1
  Ce3+  Ce21  1  0.49839796  0.62286514  0.55884627  1
  Ce3+  Ce22  1  0.88050996  0.74317550  0.94394111  1
  Ce3+  Ce23  1  0.00695985  0.11606110  0.05543723  1
  Ce3+  Ce24  1  0.00925509  0.86779132  0.05217914  1
  Ce3+  Ce25  1  0.25768399  0.86449968  0.05441553  1
  Ce3+  Ce26  1  -0.00640859  0.87832676  0.55177668  1
  Ce3+  Ce27  1  0.25484313  0.36811718  0.06224385  1
  Ce3+  Ce28  1  0.88171679  0.24271748  0.94275477  1
  Ce3+  Ce29  1  0.36873556  0.25280106  0.44480422  1
  Ce3+  Ce30  1  0.49373120  0.12844681  0.55388519  1
  Ce3+  Ce31  1  0.76034695  0.87112269  0.06322321  1
  Ce3+  Ce32  1  -0.00809362  0.12562914  0.55471024  1
  Ce3+  Ce33  1  0.61611005  0.00395770  0.43734582  1
  Ce3+  Ce34  1  -0.00342185  0.62754098  0.56038502  1
  Ce3+  Ce35  1  0.86731379  0.25310622  0.44490594  1
  Ce3+  Ce36  1  0.00713272  0.36494591  0.05449139  1
  Ce3+  Ce37  1  0.00802323  0.61775298  0.05322019  1
  Pr3+  Pr38  1  0.24552678  0.37725444  0.56190544  1
  Pr3+  Pr39  1  0.11850232  0.25142471  0.44411136  1
  Pr3+  Pr40  1  0.36053942  0.75141752  0.43502233  1
  Pr3+  Pr41  1  0.50735692  0.61825592  0.07076242  1
  Pr3+  Pr42  1  0.87010906  0.75195917  0.44636517  1
  Pr3+  Pr43  1  0.36365171  0.00264735  0.43822607  1
  Pr3+  Pr44  1  0.87291275  0.50405140  0.43701617  1
  Pr3+  Pr45  1  -0.00787692  0.37975523  0.56353408  1
  Pr3+  Pr46  1  0.13307160  0.49170606  0.93423503  1
  Pr3+  Pr47  1  0.63528737  0.24208824  0.94771980  1
  Pr3+  Pr48  1  0.24320718  0.12986318  0.56875589  1
  Pr3+  Pr49  1  0.88279227  -0.00627461  0.93477949  1
  Nd3+  Nd50  1  0.38330810  0.49324667  0.94508524  1
  Nd3+  Nd51  1  0.63738660  0.74457035  0.94748924  1
  Nd3+  Nd52  1  0.61974971  0.25479408  0.43513670  1
  Nd3+  Nd53  1  0.74032088  0.38164328  0.55334503  1
  Nd3+  Nd54  1  0.12040051  0.50283299  0.44228149  1
  Nd3+  Nd55  1  0.74089390  0.62479015  0.56168576  1
  Nd3+  Nd56  1  0.50906653  0.11692285  0.05581308  1
  Nd3+  Nd57  1  0.63570568  -0.00648094  0.93814260  1
  Sm3+  Sm58  1  0.49682248  0.38157812  0.54600580  1
  Sm3+  Sm59  1  0.38640420  -0.00958467  0.94154883  1
  Sm3+  Sm60  1  0.49173014  0.87633031  0.54925492  1
  Sm3+  Sm61  1  0.75789310  0.36735623  0.05918717  1
  Sm3+  Sm62  1  0.61572128  0.75007457  0.44022236  1
  Sm3+  Sm63  1  0.88118296  0.49355830  0.94793732  1
  Bi2+  Bi64  1  0.02204047  0.12315001  0.27776647  1
  Bi2+  Bi65  1  0.02369199  0.13540027  0.75245804  1
  Bi2+  Bi66  1  0.01515057  0.46226290  0.32716304  1
  Bi2+  Bi67  1  -0.00063257  0.40188024  0.77877419  1
  Bi2+  Bi68  1  0.01836540  0.65602523  0.30858400  1
  Bi2+  Bi69  1  -0.03697515  0.58887395  0.76108386  1
  Bi2+  Bi70  1  0.01064030  0.83681711  0.26473794  1
  Bi2+  Bi71  1  -0.02950374  0.85974312  0.75446404  1
  Bi2+  Bi72  1  0.25675997  0.11748291  0.31827381  1
  Bi2+  Bi73  1  0.22228640  0.11422666  0.80427488  1
  Bi2+  Bi74  1  0.19149566  0.36521950  0.29960964  1
  Bi2+  Bi75  1  0.21845859  0.34740190  0.78806014  1
  Bi2+  Bi76  1  0.27422430  0.64072815  0.30249788  1
  Bi2+  Bi77  1  0.26220764  0.63202451  0.80070673  1
  Bi2+  Bi78  1  0.21099705  0.86053787  0.27614158  1
  Bi2+  Bi79  1  0.23328157  0.87526086  0.80269274  1
  Bi2+  Bi80  1  0.48256738  0.12303216  0.26768231  1
  Bi2+  Bi81  1  0.52419188  0.15159084  0.79258837  1
  Bi2+  Bi82  1  0.46984660  0.36655870  0.28685106  1
  Bi2+  Bi83  1  0.47464807  0.34132182  0.76928462  1
  Bi2+  Bi84  1  0.51527157  0.62750516  0.28860275  1
  Bi2+  Bi85  1  0.50273674  0.60928883  0.78025719  1
  Bi2+  Bi86  1  0.49742561  0.90794782  0.26573158  1
  Bi2+  Bi87  1  0.52613779  0.88410915  0.75625699  1
  Bi2+  Bi88  1  0.76307426  0.15318006  0.30200389  1
  Bi2+  Bi89  1  0.74269571  0.13450398  0.79856853  1
  Bi2+  Bi90  1  0.84916950  0.39813748  0.27941400  1
  Bi2+  Bi91  1  0.75261266  0.39199108  0.79855642  1
  Bi2+  Bi92  1  0.77314438  0.64295858  0.28624835  1
  Bi2+  Bi93  1  0.71520455  0.62667105  0.81608906  1
  Bi2+  Bi94  1  0.79216321  0.90658782  0.29698504  1
  Bi2+  Bi95  1  0.74675231  0.88121297  0.80224679  1
  Bi2+  Bi96  1  0.11571299  -0.00861813  0.21320633  1
  Bi2+  Bi97  1  0.11978650  -0.01112963  0.70595998  1
  Bi2+  Bi98  1  0.11689037  0.26309652  0.20997798  1
  Bi2+  Bi99  1  0.17136471  0.22632235  0.69778443  1
  Bi2+  Bi100  1  0.10563308  0.46975279  0.21816589  1
  Bi2+  Bi101  1  0.11421483  0.49668387  0.69262794  1
  Bi2+  Bi102  1  0.13838814  0.71206138  0.21490614  1
  Bi2+  Bi103  1  0.10741758  0.75610785  0.70350778  1
  Bi2+  Bi104  1  0.36360080  0.01721764  0.20206648  1
  Bi2+  Bi105  1  0.38224551  0.04890638  0.74685036  1
  Bi2+  Bi106  1  0.31951261  0.25390656  0.24108978  1
  Bi2+  Bi107  1  0.35773392  0.22889374  0.70604342  1
  Bi2+  Bi108  1  0.36598152  0.50906248  0.20044976  1
  Bi2+  Bi109  1  0.40188024  0.49411123  0.71031640  1
  Bi2+  Bi110  1  0.40227040  0.77141021  0.20119601  1
  Bi2+  Bi111  1  0.40271853  0.76437634  0.70482009  1
  Bi2+  Bi112  1  0.62095979  0.03007210  0.20831048  1
  Bi2+  Bi113  1  0.63020272  -0.00246336  0.69049596  1
  Bi2+  Bi114  1  0.64973915  0.28251865  0.22996079  1
  Bi2+  Bi115  1  0.61496484  0.25227829  0.70945177  1
  Bi2+  Bi116  1  0.62106203  0.49310548  0.20061183  1
  Bi2+  Bi117  1  0.64615897  0.48487710  0.69326235  1
  Bi2+  Bi118  1  0.65952871  0.80482439  0.24083072  1
  Bi2+  Bi119  1  0.63250190  0.72128505  0.72331327  1
  Bi2+  Bi120  1  0.88495369  -0.00994848  0.20265191  1
  Bi2+  Bi121  1  0.87121935  0.00068387  0.69952314  1
  Bi2+  Bi122  1  0.92192277  0.25417236  0.21612402  1
  Bi2+  Bi123  1  0.87342634  0.26011933  0.74468139  1
  Bi2+  Bi124  1  0.92107997  0.55593592  0.22248671  1
  Bi2+  Bi125  1  0.84759167  0.46318902  0.70074201  1
  Bi2+  Bi126  1  0.84237337  0.79318047  0.20157428  1
  Bi2+  Bi127  1  0.83086650  0.72506741  0.73258967  1
  S2-  S128  1  -0.07755560  0.11957546  0.14164560  1
  S2-  S129  1  -0.02072634  0.11191848  0.65153903  1
  S2-  S130  1  0.00221677  0.36951448  0.15271553  1
  S2-  S131  1  -0.00433928  0.37411839  0.66381146  1
  S2-  S132  1  0.02151346  0.63216656  0.14992522  1
  S2-  S133  1  -0.00240671  0.62641515  0.65787769  1
  S2-  S134  1  0.01536542  0.89971175  0.14796335  1
  S2-  S135  1  0.00738207  0.87846597  0.64992712  1
  S2-  S136  1  0.22707491  0.09791820  0.16332077  1
  S2-  S137  1  0.24391308  0.02296063  0.64820750  1
  S2-  S138  1  0.24404450  0.46092794  0.14484675  1
  S2-  S139  1  0.26291715  0.45654952  0.64987903  1
  S2-  S140  1  0.28954120  0.65571193  0.16740563  1
  S2-  S141  1  0.20420018  0.63257166  0.68658888  1
  S2-  S142  1  0.30888337  0.87506760  0.14760714  1
  S2-  S143  1  0.26156451  0.81866949  0.67029101  1
  S2-  S144  1  0.48444036  0.11100561  0.15411198  1
  S2-  S145  1  0.55085049  0.13269603  0.64575808  1
  S2-  S146  1  0.47658550  0.38615120  0.16874367  1
  S2-  S147  1  0.51008511  0.41887822  0.64263842  1
  S2-  S148  1  0.49936558  0.61480172  0.17264605  1
  S2-  S149  1  0.40276503  0.63389008  0.64082187  1
  S2-  S150  1  0.54080244  0.84588687  0.16153065  1
  S2-  S151  1  0.50185867  0.88358339  0.64791204  1
  S2-  S152  1  0.70730372  0.16746518  0.17611227  1
  S2-  S153  1  0.76091894  0.10422305  0.66585512  1
  S2-  S154  1  0.71614754  0.38076104  0.15441491  1
  S2-  S155  1  0.73331523  0.34633331  0.65149197  1
  S2-  S156  1  0.72548077  0.60239433  0.17123157  1
  S2-  S157  1  0.62703138  0.61686298  0.63673423  1
  S2-  S158  1  0.74481082  0.97017165  0.14298063  1
  S2-  S159  1  0.75190446  0.89188310  0.65996699  1
  S2-  S160  1  0.17424491  -0.01333360  0.35045617  1
  S2-  S161  1  0.10916189  -0.00818554  0.83608918  1
  S2-  S162  1  0.11472455  0.21845010  0.34524971  1
  S2-  S163  1  0.08449172  0.29478151  0.83942017  1
  S2-  S164  1  0.22108697  0.52188174  0.36158595  1
  S2-  S165  1  0.19399708  0.50202931  0.83914111  1
  S2-  S166  1  0.21697253  0.75716948  0.36546921  1
  S2-  S167  1  0.14024264  0.73907965  0.83392280  1
  S2-  S168  1  0.39699826  0.02336482  0.33946923  1
  S2-  S169  1  0.33749038  -0.00195737  0.84752840  1
  S2-  S170  1  0.36127092  0.26627225  0.34799519  1
  S2-  S171  1  0.29113552  0.24551178  0.86098851  1
  S2-  S172  1  0.41069345  0.50488865  0.32693656  1
  S2-  S173  1  0.39344832  0.57855505  0.85910352  1
  S2-  S174  1  0.41709347  0.72464774  0.33611039  1
  S2-  S175  1  0.35162431  0.77934043  0.82835387  1
  S2-  S176  1  0.69220774  0.01607248  0.35117708  1
  S2-  S177  1  0.61440386  -0.05506936  0.84289617  1
  S2-  S178  1  0.63865762  0.24269696  0.33545914  1
  S2-  S179  1  0.64024081  0.24402018  0.84742056  1
  S2-  S180  1  0.59775419  0.45861246  0.30667981  1
  S2-  S181  1  0.62277073  0.47693084  0.83580205  1
  S2-  S182  1  0.63392181  0.66943611  0.35414423  1
  S2-  S183  1  0.57931515  0.70600071  0.85725564  1
  S2-  S184  1  0.91938647  0.01088208  0.33315277  1
  S2-  S185  1  0.83889869  0.00891534  0.83696550  1
  S2-  S186  1  0.86754496  0.25158240  0.34681305  1
  S2-  S187  1  0.85484877  0.23856737  0.84662968  1
  S2-  S188  1  0.78303195  0.50954559  0.35108503  1
  S2-  S189  1  0.83689746  0.50432545  0.85363186  1
  S2-  S190  1  0.87047571  0.72929584  0.34647124  1
  S2-  S191  1  0.83470176  0.75087266  0.85057499  1
  S2-  S192  1  -0.00882126  0.12661041  0.44913395  1
  S2-  S193  1  0.01043612  0.11900749  0.94634757  1
  S2-  S194  1  -0.00555048  0.37703274  0.45613639  1
  S2-  S195  1  0.00414145  0.37076185  0.94879386  1
  S2-  S196  1  -0.00292454  0.62825503  0.45406786  1
  S2-  S197  1  0.00535701  0.61624377  0.94498631  1
  S2-  S198  1  -0.00525643  0.87741139  0.44487959  1
  S2-  S199  1  0.00899077  0.86725792  0.94378213  1
  S2-  S200  1  0.24437983  0.12881759  0.46067822  1
  S2-  S201  1  0.26488409  0.11473549  0.95772307  1
  S2-  S202  1  0.24243648  0.37434656  0.45504069  1
  S2-  S203  1  0.25921850  0.37265609  0.95729315  1
  S2-  S204  1  0.24245211  0.62764160  0.46820632  1
  S2-  S205  1  0.25806211  0.61490000  0.95867392  1
  S2-  S206  1  0.24312093  0.88164394  0.46431916  1
  S2-  S207  1  0.26564323  0.86446316  0.94906779  1
  S2-  S208  1  0.49427747  0.12931047  0.44658802  1
  S2-  S209  1  0.50705135  0.11620781  0.94880012  1
  S2-  S210  1  0.49645378  0.37922114  0.44064673  1
  S2-  S211  1  0.50941896  0.36910030  0.95593721  1
  S2-  S212  1  0.49352861  0.62790119  0.44957696  1
  S2-  S213  1  0.51268371  0.61546546  0.96412816  1
  S2-  S214  1  0.49317744  0.87595069  0.44314602  1
  S2-  S215  1  0.50778311  0.86643621  0.95375236  1
  S2-  S216  1  0.74100323  0.13073476  0.45704844  1
  S2-  S217  1  0.75787926  0.11656492  0.95727504  1
  S2-  S218  1  0.74444272  0.37804348  0.44702350  1
  S2-  S219  1  0.75840289  0.36942045  0.95493504  1
  S2-  S220  1  0.74576442  0.63090712  0.45751011  1
  S2-  S221  1  0.75966791  0.61864621  0.96279827  1
  S2-  S222  1  0.74028133  0.87277142  0.45099342  1
  S2-  S223  1  0.75776610  0.87023522  0.95587290  1
  S2-  S224  1  0.13411068  -0.00774228  0.04348001  1
  S2-  S225  1  0.11613877  0.00355290  0.54739463  1
  S2-  S226  1  0.13273076  0.24169780  0.04454634  1
  S2-  S227  1  0.11722883  0.25324512  0.55206887  1
  S2-  S228  1  0.12730753  0.49092835  0.04227457  1
  S2-  S229  1  0.11928241  0.50193561  0.54922964  1
  S2-  S230  1  0.13372779  0.74171620  0.04478730  1
  S2-  S231  1  0.12031802  0.75199109  0.55428422  1
  S2-  S232  1  0.38342782  -0.00615331  0.04616106  1
  S2-  S233  1  0.37286771  0.00383343  0.54655062  1
  S2-  S234  1  0.38437081  0.24475516  0.05248837  1
  S2-  S235  1  0.37231884  0.25524008  0.55216509  1
  S2-  S236  1  0.38661747  0.49147882  0.05070995  1
  S2-  S237  1  0.37206439  0.49715695  0.53707974  1
  S2-  S238  1  0.38181933  0.73779662  0.04454884  1
  S2-  S239  1  0.37120038  0.75708185  0.54294943  1
  S2-  S240  1  0.62812442  -0.00730490  0.04493932  1
  S2-  S241  1  0.61562407  0.00156444  0.54277174  1
  S2-  S242  1  0.63578294  0.24075297  0.05414058  1
  S2-  S243  1  0.61723635  0.25686112  0.54191779  1
  S2-  S244  1  0.63486739  0.49346314  0.04827437  1
  S2-  S245  1  0.62036015  0.50083462  0.53017348  1
  S2-  S246  1  0.63479614  0.74369819  0.05542827  1
  S2-  S247  1  0.61704162  0.75526689  0.54414939  1
  S2-  S248  1  0.88587100  -0.00954432  0.04095477  1
  S2-  S249  1  0.86631639  0.00295440  0.54114999  1
  S2-  S250  1  0.87906803  0.24502446  0.04795463  1
  S2-  S251  1  0.86637798  0.25482136  0.55228108  1
  S2-  S252  1  0.88175437  0.49063038  0.05377028  1
  S2-  S253  1  0.86742060  0.50440150  0.54716243  1
  S2-  S254  1  0.88368134  0.74391412  0.05079390  1
  S2-  S255  1  0.86621753  0.75027236  0.55455903  1
