# generated using pymatgen
data_La9Ce10Pr6Nd4Sm3(BiS2)32
_symmetry_space_group_name_H-M   'P 1'
_cell_length_a   16.12640596
_cell_length_b   16.16006251
_cell_length_c   27.13449197
_cell_angle_alpha   89.97775479
_cell_angle_beta   89.96218940
_cell_angle_gamma   90.01974600
_symmetry_Int_Tables_number   1
_chemical_formula_structural   La9Ce10Pr6Nd4Sm3(BiS2)32
_chemical_formula_sum   'La18 Ce20 Pr12 Nd8 Sm6 Bi64 S128'
_cell_volume   7071.34727922
_cell_formula_units_Z   2
loop_
 _symmetry_equiv_pos_site_id
 _symmetry_equiv_pos_as_xyz
  1  'x, y, z'
loop_
 _atom_type_symbol
 _atom_type_oxidation_number
  La3+  3.0
  Ce3+  3.0
  Pr3+  3.0
  Nd3+  3.0
  Sm3+  3.0
  Bi2+  2.0
  S2-  -2.0
loop_
 _atom_site_type_symbol
 _atom_site_label
 _atom_site_symmetry_multiplicity
 _atom_site_fract_x
 _atom_site_fract_y
 _atom_site_fract_z
 _atom_site_occupancy
  La3+  La0  1  0.15364947  0.24212460  0.43501302  1
  La3+  La1  1  0.24960069  0.62683641  0.06664828  1
  La3+  La2  1  0.78223989  0.61788481  0.57014253  1
  La3+  La3  1  0.75115142  0.38280327  0.09178547  1
  La3+  La4  1  0.24348965  0.13138798  0.06394083  1
  La3+  La5  1  0.86355677  0.00164959  0.90128894  1
  La3+  La6  1  0.74495893  0.12850821  0.06185945  1
  La3+  La7  1  0.49282147  0.37610436  0.05769204  1
  La3+  La8  1  0.10899321  0.25792182  0.91854913  1
  La3+  La9  1  0.48580671  0.88034844  0.06902971  1
  La3+  La10  1  0.90509370  0.49788237  0.41665353  1
  La3+  La11  1  0.03401734  0.11693120  0.58277189  1
  La3+  La12  1  0.90187487  0.23280913  0.41948805  1
  La3+  La13  1  0.90926571  0.74659083  0.43151273  1
  La3+  La14  1  -0.00772336  0.12563954  0.05287929  1
  La3+  La15  1  0.62109651  0.75339163  0.93618305  1
  La3+  La16  1  0.11872589  0.75556304  0.93184454  1
  La3+  La17  1  0.02390085  0.36756193  0.56533839  1
  Ce3+  Ce18  1  0.65018701  -0.00630029  0.44645830  1
  Ce3+  Ce19  1  0.49731592  0.63858846  0.06737745  1
  Ce3+  Ce20  1  0.36311994  0.24354427  0.91833692  1
  Ce3+  Ce21  1  0.11947857  0.49898059  0.94289217  1
  Ce3+  Ce22  1  0.27329612  0.37783051  0.57184939  1
  Ce3+  Ce23  1  0.40413037  0.74633133  0.43692135  1
  Ce3+  Ce24  1  0.51895066  0.86828018  0.56625049  1
  Ce3+  Ce25  1  0.62103444  -0.00049875  0.94547074  1
  Ce3+  Ce26  1  0.15016382  0.49221471  0.44042402  1
  Ce3+  Ce27  1  0.52386919  0.12400584  0.55965790  1
  Ce3+  Ce28  1  0.02330588  0.62101644  0.56077030  1
  Ce3+  Ce29  1  0.15340478  -0.00618122  0.44999516  1
  Ce3+  Ce30  1  0.24602355  0.37174894  0.04765818  1
  Ce3+  Ce31  1  0.65142460  0.24039933  0.42758365  1
  Ce3+  Ce32  1  0.74554744  0.62504823  0.06738077  1
  Ce3+  Ce33  1  0.37197689  0.50359695  0.93015632  1
  Ce3+  Ce34  1  0.40311911  0.49118270  0.44431460  1
  Ce3+  Ce35  1  0.74941408  0.87594271  0.06690646  1
  Ce3+  Ce36  1  0.77727031  0.87037715  0.56115418  1
  Ce3+  Ce37  1  0.03182102  0.86946853  0.57902847  1
  Pr3+  Pr38  1  0.86865290  0.75120701  0.94492171  1
  Pr3+  Pr39  1  0.40506199  0.24224863  0.42366446  1
  Pr3+  Pr40  1  0.49183540  0.12872471  0.05460428  1
  Pr3+  Pr41  1  0.28186099  0.86687023  0.57289813  1
  Pr3+  Pr42  1  0.62360428  0.25150378  0.93417711  1
  Pr3+  Pr43  1  0.11901814  0.00373291  0.93135274  1
  Pr3+  Pr44  1  0.86624739  0.49967132  0.93992053  1
  Pr3+  Pr45  1  0.23542028  0.87336953  0.07300014  1
  Pr3+  Pr46  1  -0.00908276  0.87769818  0.06408362  1
  Pr3+  Pr47  1  0.65175250  0.49192388  0.43974596  1
  Pr3+  Pr48  1  0.61954371  0.50028095  0.94693520  1
  Pr3+  Pr49  1  0.36500682  0.74895206  0.92622954  1
  Nd3+  Nd50  1  0.77755526  0.12087780  0.56180802  1
  Nd3+  Nd51  1  0.78423852  0.36692620  0.55452902  1
  Nd3+  Nd52  1  0.36401675  -0.00385957  0.92560307  1
  Nd3+  Nd53  1  0.39997418  -0.00734964  0.43391486  1
  Nd3+  Nd54  1  -0.00368322  0.37451653  0.06726049  1
  Nd3+  Nd55  1  0.15491319  0.74709517  0.44310197  1
  Nd3+  Nd56  1  0.65251612  0.74300969  0.44917938  1
  Nd3+  Nd57  1  0.53589523  0.36165593  0.57061894  1
  Sm3+  Sm58  1  0.52819619  0.61048591  0.57047218  1
  Sm3+  Sm59  1  0.27871567  0.12460865  0.56394839  1
  Sm3+  Sm60  1  0.27734503  0.61916929  0.55360146  1
  Sm3+  Sm61  1  0.90633802  -0.00593600  0.44740159  1
  Sm3+  Sm62  1  0.86499671  0.25468727  0.93500050  1
  Sm3+  Sm63  1  -0.00404197  0.62330484  0.05273215  1
  Bi2+  Bi64  1  -0.00402638  0.11908772  0.28247989  1
  Bi2+  Bi65  1  0.00499056  0.12531394  0.78489400  1
  Bi2+  Bi66  1  0.01039804  0.36616190  0.28849605  1
  Bi2+  Bi67  1  -0.02226988  0.39263453  0.78553695  1
  Bi2+  Bi68  1  0.07946515  0.62296964  0.28546996  1
  Bi2+  Bi69  1  0.02020648  0.60780769  0.78645177  1
  Bi2+  Bi70  1  -0.05281171  0.87118419  0.31936708  1
  Bi2+  Bi71  1  0.06217918  0.79882436  0.80048691  1
  Bi2+  Bi72  1  0.27008080  0.13538548  0.29483865  1
  Bi2+  Bi73  1  0.26845254  0.10689612  0.78220911  1
  Bi2+  Bi74  1  0.24931922  0.40818924  0.29016963  1
  Bi2+  Bi75  1  0.22020309  0.38547449  0.78585488  1
  Bi2+  Bi76  1  0.27801582  0.62022028  0.28885206  1
  Bi2+  Bi77  1  0.24473918  0.60660681  0.79280165  1
  Bi2+  Bi78  1  0.24841874  0.80826042  0.31009848  1
  Bi2+  Bi79  1  0.29064149  0.86940694  0.78259115  1
  Bi2+  Bi80  1  0.51861908  0.02793243  0.28115447  1
  Bi2+  Bi81  1  0.52052232  0.23197919  0.81542207  1
  Bi2+  Bi82  1  0.45854273  0.34576532  0.28340349  1
  Bi2+  Bi83  1  0.41059796  0.39046437  0.81241380  1
  Bi2+  Bi84  1  0.47031284  0.64150812  0.31405133  1
  Bi2+  Bi85  1  0.41814006  0.68280115  0.75752838  1
  Bi2+  Bi86  1  0.52904007  0.82753478  0.29848348  1
  Bi2+  Bi87  1  0.47892320  0.96570633  0.77609422  1
  Bi2+  Bi88  1  0.74098282  0.11476135  0.27395627  1
  Bi2+  Bi89  1  0.68162336  0.12759628  0.80083460  1
  Bi2+  Bi90  1  0.72073042  0.36660678  0.28714209  1
  Bi2+  Bi91  1  0.70897420  0.39646830  0.79666463  1
  Bi2+  Bi92  1  0.73907136  0.63366564  0.30138386  1
  Bi2+  Bi93  1  0.73144901  0.63076275  0.81618839  1
  Bi2+  Bi94  1  0.77507785  0.92110543  0.27681105  1
  Bi2+  Bi95  1  0.67674944  0.86203183  0.77936065  1
  Bi2+  Bi96  1  0.11753522  -0.06245520  0.27133896  1
  Bi2+  Bi97  1  0.10411213  -0.05282475  0.72971661  1
  Bi2+  Bi98  1  0.14717514  0.30145093  0.21553580  1
  Bi2+  Bi99  1  0.12634030  0.22818741  0.71149814  1
  Bi2+  Bi100  1  0.09661765  0.48780906  0.19806973  1
  Bi2+  Bi101  1  0.08590110  0.48392111  0.70646420  1
  Bi2+  Bi102  1  0.08330694  0.76047258  0.20088898  1
  Bi2+  Bi103  1  0.05386170  0.71012787  0.68656735  1
  Bi2+  Bi104  1  0.34484680  -0.01263281  0.23105179  1
  Bi2+  Bi105  1  0.43283784  0.09079826  0.68715502  1
  Bi2+  Bi106  1  0.36679728  0.19911631  0.18869270  1
  Bi2+  Bi107  1  0.33584939  0.25614193  0.70778037  1
  Bi2+  Bi108  1  0.37171420  0.46549369  0.20766995  1
  Bi2+  Bi109  1  0.37397667  0.44682699  0.70368073  1
  Bi2+  Bi110  1  0.37165519  0.75155595  0.19795009  1
  Bi2+  Bi111  1  0.25284938  0.70109973  0.69183501  1
  Bi2+  Bi112  1  0.61835492  -0.10308206  0.20563168  1
  Bi2+  Bi113  1  0.62244241  0.03737838  0.70335376  1
  Bi2+  Bi114  1  0.61523220  0.20016555  0.20188363  1
  Bi2+  Bi115  1  0.59712631  0.31010513  0.72041390  1
  Bi2+  Bi116  1  0.53209843  0.59507298  0.21008285  1
  Bi2+  Bi117  1  0.56963720  0.57206063  0.72317760  1
  Bi2+  Bi118  1  0.70098213  0.69566351  0.19453945  1
  Bi2+  Bi119  1  0.55476293  0.84189064  0.69567302  1
  Bi2+  Bi120  1  0.97365345  0.00015839  0.19170547  1
  Bi2+  Bi121  1  0.85259149  -0.02672793  0.71300027  1
  Bi2+  Bi122  1  0.88316926  0.22913172  0.21012616  1
  Bi2+  Bi123  1  0.83175268  0.27097805  0.69479951  1
  Bi2+  Bi124  1  0.89653934  0.50768386  0.21245561  1
  Bi2+  Bi125  1  0.83240740  0.51882057  0.70346929  1
  Bi2+  Bi126  1  0.87818808  0.77703988  0.22422345  1
  Bi2+  Bi127  1  0.88769166  0.78397497  0.74695070  1
  S2-  S128  1  0.01041537  0.16059514  0.15217353  1
  S2-  S129  1  -0.02708177  0.20712120  0.66555300  1
  S2-  S130  1  -0.10123729  0.36414995  0.15259904  1
  S2-  S131  1  -0.10490993  0.39439737  0.63887323  1
  S2-  S132  1  -0.00819838  0.61623312  0.15180635  1
  S2-  S133  1  -0.08320722  0.61542234  0.64123914  1
  S2-  S134  1  0.09951861  0.90249501  0.14418060  1
  S2-  S135  1  -0.00558616  0.98509487  0.65688922  1
  S2-  S136  1  0.25322611  0.07883612  0.16526984  1
  S2-  S137  1  0.18511161  0.11662078  0.64970486  1
  S2-  S138  1  0.24085556  0.28125919  0.13160732  1
  S2-  S139  1  0.14502468  0.36744786  0.64383666  1
  S2-  S140  1  0.22218330  0.73388533  0.14740883  1
  S2-  S141  1  0.27879026  0.54500107  0.64295781  1
  S2-  S142  1  0.36008916  0.89729076  0.14529913  1
  S2-  S143  1  0.16688720  0.86691898  0.65252806  1
  S2-  S144  1  0.49264496  0.10011562  0.15480291  1
  S2-  S145  1  0.52815384  0.22584268  0.63986375  1
  S2-  S146  1  0.45653423  0.34470324  0.15522876  1
  S2-  S147  1  0.51756307  0.48177717  0.64443118  1
  S2-  S148  1  0.38429885  0.60302519  0.14014649  1
  S2-  S149  1  0.49398494  0.68536731  0.65910153  1
  S2-  S150  1  0.52124155  0.76499653  0.14597241  1
  S2-  S151  1  0.41090489  0.88852575  0.64308922  1
  S2-  S152  1  0.76034986  0.12239370  0.16355765  1
  S2-  S153  1  0.77024987  0.11429349  0.66332661  1
  S2-  S154  1  0.67504156  0.34449830  0.18271061  1
  S2-  S155  1  0.69833799  0.35191956  0.64456195  1
  S2-  S156  1  0.76681265  0.53828752  0.15343515  1
  S2-  S157  1  0.70723980  0.60618401  0.66666039  1
  S2-  S158  1  0.86525534  0.88924603  0.14260116  1
  S2-  S159  1  0.80447352  0.84498609  0.65764522  1
  S2-  S160  1  0.16948892  0.02885689  0.35374960  1
  S2-  S161  1  0.01555275  -0.00165448  0.84498239  1
  S2-  S162  1  0.04078583  0.24169994  0.35375911  1
  S2-  S163  1  0.22638170  0.23683346  0.84342675  1
  S2-  S164  1  0.06070236  0.49689880  0.35565567  1
  S2-  S165  1  0.09597735  0.42209697  0.85636129  1
  S2-  S166  1  0.06068459  0.75304692  0.35846438  1
  S2-  S167  1  0.22495667  0.75447704  0.85109687  1
  S2-  S168  1  0.40111699  0.09724911  0.35151875  1
  S2-  S169  1  0.23192467  -0.01260143  0.85008293  1
  S2-  S170  1  0.27057340  0.26955025  0.35570537  1
  S2-  S171  1  0.39524441  0.11710021  0.85049843  1
  S2-  S172  1  0.43555879  0.47571911  0.34848768  1
  S2-  S173  1  0.38716103  0.61442225  0.85427266  1
  S2-  S174  1  0.38566094  0.86291073  0.36161940  1
  S2-  S175  1  0.41171352  0.87151530  0.85332446  1
  S2-  S176  1  0.64471750  0.04451691  0.35218248  1
  S2-  S177  1  0.69381655  -0.02352116  0.85605752  1
  S2-  S178  1  0.53534076  0.26625235  0.35226478  1
  S2-  S179  1  0.74569843  0.26452944  0.85839963  1
  S2-  S180  1  0.65760414  0.49521216  0.33754891  1
  S2-  S181  1  0.61243399  0.51125839  0.84486284  1
  S2-  S182  1  0.66673652  0.76832921  0.35009127  1
  S2-  S183  1  0.60681615  0.73556945  0.83458669  1
  S2-  S184  1  0.90792794  0.07430691  0.35956490  1
  S2-  S185  1  0.85074829  0.07806746  0.80283644  1
  S2-  S186  1  0.76373938  0.24520160  0.34790688  1
  S2-  S187  1  0.96697329  0.26036004  0.85001194  1
  S2-  S188  1  0.85897591  0.43265009  0.31806066  1
  S2-  S189  1  0.83981777  0.49296049  0.83917288  1
  S2-  S190  1  0.87429560  0.64016857  0.35267020  1
  S2-  S191  1  0.82964807  0.75517605  0.84618247  1
  S2-  S192  1  0.02983924  0.11435713  0.46488490  1
  S2-  S193  1  -0.01651878  0.12536643  0.94584454  1
  S2-  S194  1  0.02527541  0.36784872  0.45492993  1
  S2-  S195  1  -0.01162192  0.37822185  0.96032876  1
  S2-  S196  1  0.03157491  0.62143915  0.45706413  1
  S2-  S197  1  -0.00583478  0.62450591  0.94648399  1
  S2-  S198  1  0.03039736  0.87260557  0.46490172  1
  S2-  S199  1  -0.01146722  0.87866254  0.95071182  1
  S2-  S200  1  0.27931713  0.11809449  0.45990614  1
  S2-  S201  1  0.23990848  0.12946077  0.95235534  1
  S2-  S202  1  0.27688907  0.37393266  0.46129937  1
  S2-  S203  1  0.24772349  0.37842778  0.94452513  1
  S2-  S204  1  0.27729901  0.61969017  0.44725763  1
  S2-  S205  1  0.24123343  0.62196377  0.95560690  1
  S2-  S206  1  0.27694570  0.86885065  0.46478231  1
  S2-  S207  1  0.24261192  0.87449264  0.95882366  1
  S2-  S208  1  0.52574907  0.11705827  0.45601588  1
  S2-  S209  1  0.50172126  0.12437705  0.94993537  1
  S2-  S210  1  0.52705133  0.36855954  0.46053318  1
  S2-  S211  1  0.49507104  0.37336141  0.94779170  1
  S2-  S212  1  0.52778735  0.61901230  0.45901538  1
  S2-  S213  1  0.49766595  0.62827822  0.95876827  1
  S2-  S214  1  0.52759891  0.86875680  0.45871406  1
  S2-  S215  1  0.49810451  0.87709250  0.95928263  1
  S2-  S216  1  0.77633869  0.11331631  0.45676789  1
  S2-  S217  1  0.74863910  0.12294744  0.95281354  1
  S2-  S218  1  0.77997419  0.36926527  0.44790581  1
  S2-  S219  1  0.74356950  0.37819000  0.96288393  1
  S2-  S220  1  0.77452717  0.62043307  0.45881846  1
  S2-  S221  1  0.74408231  0.62541796  0.95814676  1
  S2-  S222  1  0.77882689  0.87126961  0.45315837  1
  S2-  S223  1  0.74945408  0.87749828  0.95874816  1
  S2-  S224  1  0.11906060  0.00390838  0.03963459  1
  S2-  S225  1  0.15773868  -0.00713868  0.55272429  1
  S2-  S226  1  0.11423957  0.25496643  0.03338245  1
  S2-  S227  1  0.15536301  0.24406427  0.54471624  1
  S2-  S228  1  0.12060054  0.49914846  0.04943379  1
  S2-  S229  1  0.14853430  0.49992969  0.54419385  1
  S2-  S230  1  0.11240832  0.74797755  0.04012716  1
  S2-  S231  1  0.15343128  0.74069959  0.54839206  1
  S2-  S232  1  0.36575374  0.00744549  0.03768597  1
  S2-  S233  1  0.40025072  0.00071208  0.54221504  1
  S2-  S234  1  0.37110120  0.25108073  0.03098617  1
  S2-  S235  1  0.39602603  0.24920765  0.54577385  1
  S2-  S236  1  0.36880828  0.49748898  0.03726797  1
  S2-  S237  1  0.40226310  0.49421861  0.54627230  1
  S2-  S238  1  0.36778278  0.75218552  0.03897480  1
  S2-  S239  1  0.40262968  0.73696268  0.54440845  1
  S2-  S240  1  0.62046526  -0.00060655  0.05303141  1
  S2-  S241  1  0.64814731  -0.00619307  0.55409767  1
  S2-  S242  1  0.62141762  0.25423678  0.04781311  1
  S2-  S243  1  0.65544833  0.24030226  0.53642885  1
  S2-  S244  1  0.61754026  0.50311174  0.05591393  1
  S2-  S245  1  0.65518058  0.49404764  0.54629482  1
  S2-  S246  1  0.62876736  0.75412548  0.04483063  1
  S2-  S247  1  0.64922035  0.74405348  0.55587888  1
  S2-  S248  1  0.86704292  0.00341820  0.04264394  1
  S2-  S249  1  0.90042986  -0.00628831  0.55069606  1
  S2-  S250  1  0.86729191  0.25548978  0.04469759  1
  S2-  S251  1  0.90264554  0.23737398  0.54125532  1
  S2-  S252  1  0.87372118  0.50078931  0.04663234  1
  S2-  S253  1  0.90415373  0.49721852  0.53263765  1
  S2-  S254  1  0.87167410  0.74423836  0.05085680  1
  S2-  S255  1  0.90474943  0.75157227  0.54384260  1
