# generated using pymatgen
data_La9Ce10Pr6Nd4Sm3(BiS2)32
_symmetry_space_group_name_H-M   'P 1'
_cell_length_a   16.07993997
_cell_length_b   16.17796272
_cell_length_c   26.93552770
_cell_angle_alpha   89.78089905
_cell_angle_beta   89.70705545
_cell_angle_gamma   89.93793663
_symmetry_Int_Tables_number   1
_chemical_formula_structural   La9Ce10Pr6Nd4Sm3(BiS2)32
_chemical_formula_sum   'La18 Ce20 Pr12 Nd8 Sm6 Bi64 S128'
_cell_volume   7006.87942787
_cell_formula_units_Z   2
loop_
 _symmetry_equiv_pos_site_id
 _symmetry_equiv_pos_as_xyz
  1  'x, y, z'
loop_
 _atom_type_symbol
 _atom_type_oxidation_number
  La3+  3.0
  Ce3+  3.0
  Pr3+  3.0
  Nd3+  3.0
  Sm3+  3.0
  Bi2+  2.0
  S2-  -2.0
loop_
 _atom_site_type_symbol
 _atom_site_label
 _atom_site_symmetry_multiplicity
 _atom_site_fract_x
 _atom_site_fract_y
 _atom_site_fract_z
 _atom_site_occupancy
  La3+  La0  1  0.49063268  0.87101460  0.09047574  1
  La3+  La1  1  0.87112565  0.25040169  0.42092421  1
  La3+  La2  1  0.37842199  0.25027170  0.44115703  1
  La3+  La3  1  0.36920958  0.74719806  0.42466900  1
  La3+  La4  1  0.49521715  0.13917442  0.07134419  1
  La3+  La5  1  0.13411018  0.49539069  0.41031194  1
  La3+  La6  1  0.12591154  0.24155934  0.42113624  1
  La3+  La7  1  0.38493145  0.24818798  0.91133154  1
  La3+  La8  1  0.13204252  -0.00355482  0.43509735  1
  La3+  La9  1  0.86663297  0.00538750  0.93525391  1
  La3+  La10  1  0.75096114  0.13644613  0.08012461  1
  La3+  La11  1  0.11550612  -0.00042260  0.91055575  1
  La3+  La12  1  0.00997893  0.37719710  0.10379385  1
  La3+  La13  1  0.63139291  0.25299880  0.44118538  1
  La3+  La14  1  0.63994827  -0.00241272  0.41386432  1
  La3+  La15  1  0.76354143  0.36946548  0.58355228  1
  La3+  La16  1  0.38423222  0.00125652  0.42755817  1
  La3+  La17  1  0.24675557  0.13022492  0.05278075  1
  Ce3+  Ce18  1  0.12527615  0.50716880  0.93008131  1
  Ce3+  Ce19  1  0.00356190  0.62703389  0.06342574  1
  Ce3+  Ce20  1  0.62572466  0.00383280  0.95692485  1
  Ce3+  Ce21  1  0.25518769  0.87849626  0.04815118  1
  Ce3+  Ce22  1  0.38571692  0.75949079  0.92908911  1
  Ce3+  Ce23  1  0.74647161  0.62253671  0.56394330  1
  Ce3+  Ce24  1  0.50793549  0.86983298  0.55199750  1
  Ce3+  Ce25  1  0.75854503  0.62338873  0.06940166  1
  Ce3+  Ce26  1  0.24769778  0.37876493  0.04956974  1
  Ce3+  Ce27  1  0.49696794  0.37260963  0.57821782  1
  Ce3+  Ce28  1  0.00249445  0.87411228  0.56991579  1
  Ce3+  Ce29  1  0.88421494  0.49973622  0.43203563  1
  Ce3+  Ce30  1  0.25272386  0.62440543  0.56436506  1
  Ce3+  Ce31  1  0.50689080  0.62395498  0.55536337  1
  Ce3+  Ce32  1  0.00321942  0.88070711  0.06511188  1
  Ce3+  Ce33  1  0.63885368  0.50509282  0.92790116  1
  Ce3+  Ce34  1  0.50087027  0.38089890  0.05371047  1
  Ce3+  Ce35  1  0.74554479  0.86930413  0.55362420  1
  Ce3+  Ce36  1  0.12886695  0.24806916  0.92949743  1
  Ce3+  Ce37  1  0.12742947  0.74803842  0.44420116  1
  Pr3+  Pr38  1  0.63381105  0.49417729  0.44328084  1
  Pr3+  Pr39  1  0.87718969  0.25462340  0.94476925  1
  Pr3+  Pr40  1  0.87042510  0.75480603  0.93453243  1
  Pr3+  Pr41  1  0.87858430  -0.00681396  0.43750940  1
  Pr3+  Pr42  1  0.00139988  0.12303086  0.06687602  1
  Pr3+  Pr43  1  0.25658528  0.11457664  0.57138558  1
  Pr3+  Pr44  1  0.75188177  0.11920241  0.56478792  1
  Pr3+  Pr45  1  0.62735713  0.75569340  0.95128250  1
  Pr3+  Pr46  1  0.88553250  0.50393010  0.93707431  1
  Pr3+  Pr47  1  0.38135692  0.50247906  0.92647566  1
  Pr3+  Pr48  1  0.37859058  0.49544605  0.44001559  1
  Pr3+  Pr49  1  0.62585027  0.74386379  0.41690576  1
  Nd3+  Nd50  1  0.75199645  0.38301819  0.06894769  1
  Nd3+  Nd51  1  0.00248883  0.12200501  0.55566010  1
  Nd3+  Nd52  1  0.50532234  0.11884425  0.56352150  1
  Nd3+  Nd53  1  0.25025180  0.36587801  0.56745676  1
  Nd3+  Nd54  1  0.00392738  0.37093845  0.55091064  1
  Nd3+  Nd55  1  0.26264890  0.86917417  0.57244621  1
  Nd3+  Nd56  1  -0.00408071  0.62156792  0.56994475  1
  Nd3+  Nd57  1  0.50077128  0.62543429  0.05908416  1
  Sm3+  Sm58  1  0.63434325  0.25738357  0.93468228  1
  Sm3+  Sm59  1  0.75194618  0.87809537  0.07200064  1
  Sm3+  Sm60  1  0.25079811  0.62632166  0.04816919  1
  Sm3+  Sm61  1  0.88305644  0.74395656  0.44356356  1
  Sm3+  Sm62  1  0.12643348  0.75468888  0.94045663  1
  Sm3+  Sm63  1  0.38486411  -0.00052682  0.93775059  1
  Bi2+  Bi64  1  0.01030475  0.07077310  0.29846648  1
  Bi2+  Bi65  1  -0.04966300  0.22881154  0.81486980  1
  Bi2+  Bi66  1  -0.01601641  0.38249624  0.29422878  1
  Bi2+  Bi67  1  0.01279089  0.40065169  0.77583319  1
  Bi2+  Bi68  1  -0.00394735  0.69155546  0.30075644  1
  Bi2+  Bi69  1  0.01462999  0.62993558  0.77820922  1
  Bi2+  Bi70  1  0.02803792  0.87636592  0.34270173  1
  Bi2+  Bi71  1  0.02624035  0.85256023  0.79824337  1
  Bi2+  Bi72  1  0.28352795  0.06944380  0.28631413  1
  Bi2+  Bi73  1  0.22784373  0.11842455  0.79093595  1
  Bi2+  Bi74  1  0.22380287  0.41601430  0.26146323  1
  Bi2+  Bi75  1  0.21175476  0.36889279  0.77413360  1
  Bi2+  Bi76  1  0.27123408  0.63530707  0.28365170  1
  Bi2+  Bi77  1  0.25358567  0.56331231  0.80599761  1
  Bi2+  Bi78  1  0.19666520  0.85502382  0.27614180  1
  Bi2+  Bi79  1  0.38218126  0.81100323  0.79108482  1
  Bi2+  Bi80  1  0.50862343  0.17021187  0.29059191  1
  Bi2+  Bi81  1  0.49510485  0.09658298  0.78241942  1
  Bi2+  Bi82  1  0.45796577  0.36358271  0.31932606  1
  Bi2+  Bi83  1  0.50226441  0.34260875  0.78104320  1
  Bi2+  Bi84  1  0.48866351  0.55535708  0.28610308  1
  Bi2+  Bi85  1  0.44482661  0.62921472  0.81688585  1
  Bi2+  Bi86  1  0.47841384  0.87309530  0.29921803  1
  Bi2+  Bi87  1  0.57958678  0.92633466  0.76219043  1
  Bi2+  Bi88  1  0.76000255  0.12061472  0.28201679  1
  Bi2+  Bi89  1  0.78480310  0.12003543  0.79479841  1
  Bi2+  Bi90  1  0.72263564  0.40774493  0.28246765  1
  Bi2+  Bi91  1  0.75095209  0.39071603  0.78648956  1
  Bi2+  Bi92  1  0.67888826  0.58848947  0.31999622  1
  Bi2+  Bi93  1  0.72779808  0.63872807  0.78703810  1
  Bi2+  Bi94  1  0.73559069  0.78268704  0.27179279  1
  Bi2+  Bi95  1  0.76563832  0.89168482  0.79802162  1
  Bi2+  Bi96  1  0.13672690  0.01059549  0.21392228  1
  Bi2+  Bi97  1  0.09776988  -0.01966437  0.71466007  1
  Bi2+  Bi98  1  0.16309800  0.24069888  0.20632747  1
  Bi2+  Bi99  1  0.09835294  0.23599679  0.71407813  1
  Bi2+  Bi100  1  0.10583347  0.58815755  0.22343110  1
  Bi2+  Bi101  1  0.15443145  0.50991688  0.70411758  1
  Bi2+  Bi102  1  0.06068242  0.77269667  0.18894474  1
  Bi2+  Bi103  1  0.22361989  0.74152491  0.74220990  1
  Bi2+  Bi104  1  0.39126003  0.02271071  0.19605881  1
  Bi2+  Bi105  1  0.35998517  -0.02951461  0.71085462  1
  Bi2+  Bi106  1  0.37299928  0.30529717  0.21809994  1
  Bi2+  Bi107  1  0.36900469  0.24576850  0.69561999  1
  Bi2+  Bi108  1  0.37290266  0.50286102  0.19333949  1
  Bi2+  Bi109  1  0.38030234  0.53065767  0.71442927  1
  Bi2+  Bi110  1  0.33745093  0.74570606  0.20082939  1
  Bi2+  Bi111  1  0.41154422  0.71316206  0.68039558  1
  Bi2+  Bi112  1  0.65080826  -0.00689412  0.21480688  1
  Bi2+  Bi113  1  0.62927212  0.03267816  0.66616768  1
  Bi2+  Bi114  1  0.59970645  0.30097049  0.22019934  1
  Bi2+  Bi115  1  0.64115772  0.19824288  0.72652453  1
  Bi2+  Bi116  1  0.56592977  0.48380395  0.17466912  1
  Bi2+  Bi117  1  0.57614236  0.55905863  0.73211532  1
  Bi2+  Bi118  1  0.60959445  0.66329672  0.21467832  1
  Bi2+  Bi119  1  0.62736533  0.75359723  0.71238134  1
  Bi2+  Bi120  1  0.94655849  -0.07966005  0.23516286  1
  Bi2+  Bi121  1  0.81559504  -0.00136457  0.70052327  1
  Bi2+  Bi122  1  0.86777793  0.22471146  0.20672205  1
  Bi2+  Bi123  1  0.89786401  0.22791303  0.70150270  1
  Bi2+  Bi124  1  0.81099535  0.57424520  0.22906476  1
  Bi2+  Bi125  1  0.87965509  0.50969516  0.69730800  1
  Bi2+  Bi126  1  0.86997720  0.73372378  0.17254970  1
  Bi2+  Bi127  1  0.84330061  0.80829699  0.70067977  1
  S2-  S128  1  0.02141748  0.21424632  0.15514960  1
  S2-  S129  1  0.01019449  0.09958777  0.65797549  1
  S2-  S130  1  -0.07832163  0.37609591  0.20050269  1
  S2-  S131  1  -0.07002460  0.37179811  0.64298290  1
  S2-  S132  1  0.01045033  0.54033048  0.14831212  1
  S2-  S133  1  0.03621887  0.61492019  0.67025861  1
  S2-  S134  1  0.00714397  0.99094060  0.14330198  1
  S2-  S135  1  0.00984412  0.85356696  0.67048679  1
  S2-  S136  1  0.28425999  0.14668162  0.15228657  1
  S2-  S137  1  0.21735554  0.24070084  0.64272317  1
  S2-  S138  1  0.17761608  0.37139533  0.14264400  1
  S2-  S139  1  0.35786520  0.39847611  0.64748954  1
  S2-  S140  1  0.25795157  0.61331603  0.14793662  1
  S2-  S141  1  0.24708439  0.73257280  0.64415222  1
  S2-  S142  1  0.31715480  0.88372974  0.14125902  1
  S2-  S143  1  0.22431748  0.98764787  0.64917120  1
  S2-  S144  1  0.53811270  0.09372207  0.16987087  1
  S2-  S145  1  0.39764502  0.10826693  0.64747289  1
  S2-  S146  1  0.47887403  0.28633589  0.13643897  1
  S2-  S147  1  0.53156362  0.29795364  0.67042763  1
  S2-  S148  1  0.47895305  0.71348300  0.14585447  1
  S2-  S149  1  0.61288050  0.63020198  0.63574527  1
  S2-  S150  1  0.51647023  0.90014191  0.19551093  1
  S2-  S151  1  0.40916119  0.87334920  0.63884065  1
  S2-  S152  1  0.78998382  0.07080949  0.17410145  1
  S2-  S153  1  0.76056461  0.22588674  0.64786568  1
  S2-  S154  1  0.73163130  0.27231483  0.14945477  1
  S2-  S155  1  0.73512417  0.43748573  0.68462098  1
  S2-  S156  1  0.74588040  0.50692901  0.14413040  1
  S2-  S157  1  0.83317029  0.64758257  0.65075869  1
  S2-  S158  1  0.73619918  0.85736589  0.17102631  1
  S2-  S159  1  0.62990106  0.86381710  0.62767960  1
  S2-  S160  1  0.15806493  0.10535329  0.35262336  1
  S2-  S161  1  0.17829751  -0.03936193  0.81105503  1
  S2-  S162  1  0.14193722  0.35506399  0.34131163  1
  S2-  S163  1  0.08629268  0.14253116  0.84939835  1
  S2-  S164  1  -0.00220926  0.53449546  0.34818516  1
  S2-  S165  1  0.01020000  0.52085541  0.85350360  1
  S2-  S166  1  0.22153398  0.73514977  0.35980154  1
  S2-  S167  1  0.14385099  0.74156316  0.84108393  1
  S2-  S168  1  0.32128880  -0.07699672  0.34118858  1
  S2-  S169  1  0.36989883  0.08943676  0.84930085  1
  S2-  S170  1  0.36040347  0.20750478  0.34176902  1
  S2-  S171  1  0.24199469  0.25954264  0.84911466  1
  S2-  S172  1  0.28592416  0.50786413  0.35217709  1
  S2-  S173  1  0.39612689  0.39483532  0.84496705  1
  S2-  S174  1  0.47693086  0.73033972  0.34247681  1
  S2-  S175  1  0.45569950  0.88325468  0.87158136  1
  S2-  S176  1  0.50954064  0.03062329  0.34419906  1
  S2-  S177  1  0.71565450  0.01399059  0.86963082  1
  S2-  S178  1  0.72847430  0.21276627  0.35625941  1
  S2-  S179  1  0.53885530  0.22104335  0.85242166  1
  S2-  S180  1  0.61112837  0.38216902  0.36413543  1
  S2-  S181  1  0.61475334  0.42293286  0.83861083  1
  S2-  S182  1  0.63565394  0.86325387  0.33826126  1
  S2-  S183  1  0.71766703  0.75261227  0.86237936  1
  S2-  S184  1  0.79052293  0.00536001  0.34857450  1
  S2-  S185  1  0.95740279  -0.03173439  0.84942334  1
  S2-  S186  1  0.97606142  0.22496082  0.33678675  1
  S2-  S187  1  0.76615334  0.26487102  0.86129908  1
  S2-  S188  1  0.84713766  0.39513961  0.35314433  1
  S2-  S189  1  0.78165557  0.52022796  0.85364289  1
  S2-  S190  1  0.84609472  0.73272904  0.34543239  1
  S2-  S191  1  0.92892623  0.72956109  0.83657398  1
  S2-  S192  1  -0.00059081  0.11890357  0.44979111  1
  S2-  S193  1  -0.00353356  0.12291943  0.95855388  1
  S2-  S194  1  0.00734580  0.37470566  0.44705273  1
  S2-  S195  1  0.00660659  0.37371001  0.94138173  1
  S2-  S196  1  0.00846838  0.62310642  0.45982558  1
  S2-  S197  1  0.00338937  0.63616387  0.95606891  1
  S2-  S198  1  0.00161629  0.87045973  0.46169599  1
  S2-  S199  1  0.00112456  0.87331026  0.95655650  1
  S2-  S200  1  0.25762342  0.12224093  0.45972984  1
  S2-  S201  1  0.24728726  0.11433056  0.94689842  1
  S2-  S202  1  0.25071424  0.37259094  0.45762124  1
  S2-  S203  1  0.24876416  0.38635393  0.94507287  1
  S2-  S204  1  0.24802980  0.61661155  0.45996725  1
  S2-  S205  1  0.25521696  0.63209772  0.94348487  1
  S2-  S206  1  0.25179502  0.87278794  0.46071439  1
  S2-  S207  1  0.25240492  0.87814885  0.94171695  1
  S2-  S208  1  0.50809924  0.12736163  0.45456705  1
  S2-  S209  1  0.50405678  0.12449752  0.96002748  1
  S2-  S210  1  0.50009946  0.37498179  0.46844954  1
  S2-  S211  1  0.50980431  0.38090666  0.94991987  1
  S2-  S212  1  0.50463363  0.61687352  0.44846367  1
  S2-  S213  1  0.50564559  0.62793631  0.95077533  1
  S2-  S214  1  0.50389445  0.87040589  0.44482553  1
  S2-  S215  1  0.50811616  0.87727144  0.97973771  1
  S2-  S216  1  0.75672645  0.11954624  0.45930472  1
  S2-  S217  1  0.74853139  0.13335512  0.96941003  1
  S2-  S218  1  0.75917958  0.37545520  0.46607808  1
  S2-  S219  1  0.75492785  0.38324695  0.96124974  1
  S2-  S220  1  0.75782803  0.62173234  0.45377043  1
  S2-  S221  1  0.75533749  0.62810127  0.96422671  1
  S2-  S222  1  0.75663334  0.86377752  0.44879557  1
  S2-  S223  1  0.75087860  0.87755066  0.96686693  1
  S2-  S224  1  0.12918074  -0.00170874  0.04076985  1
  S2-  S225  1  0.12455203  -0.00541209  0.54420001  1
  S2-  S226  1  0.12202654  0.25580763  0.03864722  1
  S2-  S227  1  0.12297880  0.24477192  0.53696239  1
  S2-  S228  1  0.12636655  0.50534084  0.03763866  1
  S2-  S229  1  0.12850334  0.49500216  0.55893029  1
  S2-  S230  1  0.13061393  0.75333531  0.04725021  1
  S2-  S231  1  0.12149665  0.74743073  0.55022760  1
  S2-  S232  1  0.37828740  0.00642023  0.04505358  1
  S2-  S233  1  0.38305964  -0.00489006  0.53776580  1
  S2-  S234  1  0.37042536  0.25703422  0.03051076  1
  S2-  S235  1  0.38140226  0.24509334  0.54875096  1
  S2-  S236  1  0.37500320  0.50421514  0.03884694  1
  S2-  S237  1  0.37810248  0.50376704  0.54714539  1
  S2-  S238  1  0.37308539  0.74761390  0.03738940  1
  S2-  S239  1  0.38134382  0.74209735  0.53563692  1
  S2-  S240  1  0.62694636  0.00137551  0.06350452  1
  S2-  S241  1  0.62918366  -0.00265179  0.52936812  1
  S2-  S242  1  0.62555531  0.25878015  0.04187034  1
  S2-  S243  1  0.62605800  0.24713919  0.55117530  1
  S2-  S244  1  0.62553215  0.50524723  0.03887470  1
  S2-  S245  1  0.62826320  0.48792995  0.55094688  1
  S2-  S246  1  0.63290238  0.74895973  0.05904673  1
  S2-  S247  1  0.62818325  0.74307309  0.52693070  1
  S2-  S248  1  0.87072951  0.00001772  0.04869860  1
  S2-  S249  1  0.87602668  -0.00635667  0.54901418  1
  S2-  S250  1  0.88335241  0.26037984  0.05316162  1
  S2-  S251  1  0.88081188  0.24409285  0.53931415  1
  S2-  S252  1  0.88649601  0.49876689  0.04623630  1
  S2-  S253  1  0.87832185  0.50051585  0.54347518  1
  S2-  S254  1  0.87772123  0.75551167  0.04823215  1
  S2-  S255  1  0.87779919  0.75006667  0.54813920  1
