# generated using pymatgen
data_La9Ce10Pr6Nd4Sm3(BiS2)32
_symmetry_space_group_name_H-M   'P 1'
_cell_length_a   16.14710652
_cell_length_b   16.11310397
_cell_length_c   27.33019779
_cell_angle_alpha   89.85514600
_cell_angle_beta   90.02686430
_cell_angle_gamma   90.05451944
_symmetry_Int_Tables_number   1
_chemical_formula_structural   La9Ce10Pr6Nd4Sm3(BiS2)32
_chemical_formula_sum   'La18 Ce20 Pr12 Nd8 Sm6 Bi64 S128'
_cell_volume   7110.74431109
_cell_formula_units_Z   2
loop_
 _symmetry_equiv_pos_site_id
 _symmetry_equiv_pos_as_xyz
  1  'x, y, z'
loop_
 _atom_type_symbol
 _atom_type_oxidation_number
  La3+  3.0
  Ce3+  3.0
  Pr3+  3.0
  Nd3+  3.0
  Sm3+  3.0
  Bi2+  2.0
  S2-  -2.0
loop_
 _atom_site_type_symbol
 _atom_site_label
 _atom_site_symmetry_multiplicity
 _atom_site_fract_x
 _atom_site_fract_y
 _atom_site_fract_z
 _atom_site_occupancy
  La3+  La0  1  0.48740030  0.38110333  0.61256875  1
  La3+  La1  1  0.12438603  0.73569091  0.92469976  1
  La3+  La2  1  0.86757279  0.26454808  0.42810120  1
  La3+  La3  1  0.61911580  0.23897073  0.92666221  1
  La3+  La4  1  0.61033876  0.76092117  0.41295106  1
  La3+  La5  1  0.12614385  -0.00942397  0.92292622  1
  La3+  La6  1  0.86053281  0.74271592  0.91974541  1
  La3+  La7  1  0.12998069  0.24583675  0.93755488  1
  La3+  La8  1  -0.00061963  0.86798732  0.04936901  1
  La3+  La9  1  0.12650276  0.49664560  0.94124868  1
  La3+  La10  1  0.38386668  0.50694693  0.91363770  1
  La3+  La11  1  0.87435259  0.00467818  0.90718252  1
  La3+  La12  1  0.49582494  0.13585180  0.55782665  1
  La3+  La13  1  -0.01526557  0.87633897  0.60815243  1
  La3+  La14  1  0.87212614  0.25672022  0.92775832  1
  La3+  La15  1  0.36452233  0.75213071  0.44105785  1
  La3+  La16  1  0.24577773  0.11279260  0.07165919  1
  La3+  La17  1  0.12211183  0.24093566  0.38895937  1
  Ce3+  Ce18  1  -0.00234056  0.37720669  0.56426346  1
  Ce3+  Ce19  1  0.74994165  0.12293069  0.05678901  1
  Ce3+  Ce20  1  0.36338103  0.00963396  0.43986634  1
  Ce3+  Ce21  1  0.50080726  0.36944704  0.05477090  1
  Ce3+  Ce22  1  0.62113786  0.74433202  0.93373100  1
  Ce3+  Ce23  1  0.75044509  0.87120839  0.04900064  1
  Ce3+  Ce24  1  0.73874430  0.63367607  0.55464039  1
  Ce3+  Ce25  1  0.74328268  0.13278438  0.55142619  1
  Ce3+  Ce26  1  0.74209453  0.63411795  0.07659807  1
  Ce3+  Ce27  1  0.37583218  0.24558032  0.93986709  1
  Ce3+  Ce28  1  0.61280004  0.50601620  0.44432404  1
  Ce3+  Ce29  1  0.24065219  0.88144404  0.55788321  1
  Ce3+  Ce30  1  0.62195142  -0.00302147  0.93583678  1
  Ce3+  Ce31  1  -0.00186706  0.11845202  0.04953121  1
  Ce3+  Ce32  1  0.50022148  0.87230261  0.06174579  1
  Ce3+  Ce33  1  0.37166363  -0.00752396  0.93541080  1
  Ce3+  Ce34  1  -0.00935505  0.12747368  0.56033243  1
  Ce3+  Ce35  1  0.11426733  0.75342521  0.44752556  1
  Ce3+  Ce36  1  0.24190608  0.63245423  0.56897479  1
  Ce3+  Ce37  1  0.25503978  0.37018340  0.05971331  1
  Pr3+  Pr38  1  0.00107518  0.36712509  0.06743164  1
  Pr3+  Pr39  1  0.86481974  0.75792947  0.44097203  1
  Pr3+  Pr40  1  0.74759634  0.36265027  0.07913579  1
  Pr3+  Pr41  1  0.49483855  0.63177962  0.57178732  1
  Pr3+  Pr42  1  0.74204327  0.38178732  0.56743802  1
  Pr3+  Pr43  1  0.23570380  0.37903020  0.56970796  1
  Pr3+  Pr44  1  0.86818805  0.00526844  0.44237520  1
  Pr3+  Pr45  1  0.37803231  0.74715185  0.93691756  1
  Pr3+  Pr46  1  0.73563792  0.88144554  0.56848606  1
  Pr3+  Pr47  1  0.25216988  0.86518597  0.06555000  1
  Pr3+  Pr48  1  0.36116398  0.25890996  0.44577857  1
  Pr3+  Pr49  1  0.50310812  0.61949246  0.06703769  1
  Nd3+  Nd50  1  0.24943996  0.62085830  0.06343426  1
  Nd3+  Nd51  1  -0.01028399  0.63267435  0.56511418  1
  Nd3+  Nd52  1  0.24026551  0.12403726  0.56703628  1
  Nd3+  Nd53  1  0.62829671  0.48979978  0.93811930  1
  Nd3+  Nd54  1  -0.00760955  0.62067495  0.05760885  1
  Nd3+  Nd55  1  0.86815286  0.49322577  0.95152489  1
  Nd3+  Nd56  1  0.61800898  0.26545074  0.42980125  1
  Nd3+  Nd57  1  0.86770478  0.50487391  0.44340184  1
  Sm3+  Sm58  1  0.36708699  0.50314141  0.45462209  1
  Sm3+  Sm59  1  0.49916489  0.11934992  0.05714259  1
  Sm3+  Sm60  1  0.11416518  0.00758281  0.44445301  1
  Sm3+  Sm61  1  0.61664661  0.00705320  0.43364234  1
  Sm3+  Sm62  1  0.11850635  0.50794321  0.43816672  1
  Sm3+  Sm63  1  0.49470890  0.87961043  0.55876863  1
  Bi2+  Bi64  1  -0.01818611  0.00162345  0.29314348  1
  Bi2+  Bi65  1  -0.05071306  0.10907929  0.76988456  1
  Bi2+  Bi66  1  0.00015806  0.36396551  0.28824733  1
  Bi2+  Bi67  1  -0.02747727  0.32872891  0.79195401  1
  Bi2+  Bi68  1  0.02530900  0.61595018  0.29510850  1
  Bi2+  Bi69  1  0.07017123  0.68030745  0.77619133  1
  Bi2+  Bi70  1  0.04464572  0.81612164  0.29685155  1
  Bi2+  Bi71  1  -0.03249302  0.86594891  0.79018315  1
  Bi2+  Bi72  1  0.26018798  0.12192613  0.29546740  1
  Bi2+  Bi73  1  0.29562505  0.08313023  0.77129667  1
  Bi2+  Bi74  1  0.26541142  0.42628128  0.29555085  1
  Bi2+  Bi75  1  0.24313669  0.26427764  0.81062566  1
  Bi2+  Bi76  1  0.28143502  0.71636210  0.31068138  1
  Bi2+  Bi77  1  0.26073632  0.55977417  0.78582507  1
  Bi2+  Bi78  1  0.22521298  0.88712658  0.27261418  1
  Bi2+  Bi79  1  0.28942315  0.85566616  0.79594700  1
  Bi2+  Bi80  1  0.48809936  0.18523058  0.28861740  1
  Bi2+  Bi81  1  0.48328570  0.07386334  0.81525181  1
  Bi2+  Bi82  1  0.50357219  0.37879403  0.28810539  1
  Bi2+  Bi83  1  0.51043034  0.38204495  0.80935496  1
  Bi2+  Bi84  1  0.48877796  0.60876522  0.31080786  1
  Bi2+  Bi85  1  0.50392301  0.68358546  0.79804826  1
  Bi2+  Bi86  1  0.50724471  0.88424002  0.27771750  1
  Bi2+  Bi87  1  0.49567718  0.86941922  0.84717682  1
  Bi2+  Bi88  1  0.67448255  0.13063911  0.28862994  1
  Bi2+  Bi89  1  0.71200011  0.22728626  0.79255632  1
  Bi2+  Bi90  1  0.75239392  0.39102531  0.28980685  1
  Bi2+  Bi91  1  0.73120146  0.40282943  0.73644864  1
  Bi2+  Bi92  1  0.83226742  0.62916391  0.27252901  1
  Bi2+  Bi93  1  0.84047144  0.53799299  0.79331745  1
  Bi2+  Bi94  1  0.76006510  0.87658140  0.28595669  1
  Bi2+  Bi95  1  0.66984689  0.82331166  0.78840572  1
  Bi2+  Bi96  1  0.09716533  0.01500033  0.19968702  1
  Bi2+  Bi97  1  0.12816626  0.01691003  0.70795584  1
  Bi2+  Bi98  1  0.13693305  0.26670855  0.18155912  1
  Bi2+  Bi99  1  0.05934476  0.24822527  0.69401063  1
  Bi2+  Bi100  1  0.20266982  0.57980131  0.23909522  1
  Bi2+  Bi101  1  0.13535733  0.41614129  0.75034050  1
  Bi2+  Bi102  1  0.12317822  0.79155980  0.19173534  1
  Bi2+  Bi103  1  0.24765565  0.79245988  0.69131846  1
  Bi2+  Bi104  1  0.43768308  0.03414827  0.21424016  1
  Bi2+  Bi105  1  0.43430381  -0.05875850  0.73209163  1
  Bi2+  Bi106  1  0.36786090  0.30429475  0.20928456  1
  Bi2+  Bi107  1  0.33932914  0.25258167  0.70975661  1
  Bi2+  Bi108  1  0.39416115  0.55789329  0.21212058  1
  Bi2+  Bi109  1  0.35332488  0.57523764  0.69020298  1
  Bi2+  Bi110  1  0.38562886  0.75641704  0.21005375  1
  Bi2+  Bi111  1  0.44508834  0.75400909  0.68728104  1
  Bi2+  Bi112  1  0.62817749  -0.01619225  0.20282627  1
  Bi2+  Bi113  1  0.62833314  -0.01428071  0.72933980  1
  Bi2+  Bi114  1  0.64019889  0.25643154  0.19762593  1
  Bi2+  Bi115  1  0.59219833  0.19977845  0.70527754  1
  Bi2+  Bi116  1  0.58404474  0.49961878  0.20649622  1
  Bi2+  Bi117  1  0.63916704  0.57667342  0.73014216  1
  Bi2+  Bi118  1  0.63525419  0.75673572  0.22960726  1
  Bi2+  Bi119  1  0.64463299  0.73922954  0.66671125  1
  Bi2+  Bi120  1  0.82068829  0.00529461  0.20469513  1
  Bi2+  Bi121  1  0.81736120  0.01945776  0.71153527  1
  Bi2+  Bi122  1  0.86638426  0.15729013  0.26534192  1
  Bi2+  Bi123  1  0.88587697  0.33357427  0.67837152  1
  Bi2+  Bi124  1  0.95339998  0.51616572  0.20524672  1
  Bi2+  Bi125  1  0.96955335  0.50772374  0.71329755  1
  Bi2+  Bi126  1  0.88828607  0.75531921  0.18665689  1
  Bi2+  Bi127  1  0.83043607  0.70637302  0.70465592  1
  S2-  S128  1  0.02915056  0.13904179  0.14499594  1
  S2-  S129  1  -0.01254372  0.04846314  0.64934431  1
  S2-  S130  1  -0.01494417  0.36203116  0.16862063  1
  S2-  S131  1  0.10793309  0.39333514  0.64361525  1
  S2-  S132  1  0.03155269  0.65353192  0.15217145  1
  S2-  S133  1  -0.03162408  0.70603293  0.65411614  1
  S2-  S134  1  -0.01053020  0.88850230  0.14967741  1
  S2-  S135  1  0.06767850  0.86916079  0.70098995  1
  S2-  S136  1  0.28586495  0.18392263  0.16479968  1
  S2-  S137  1  0.20150594  0.16724321  0.66116466  1
  S2-  S138  1  0.24280180  0.39579097  0.15657431  1
  S2-  S139  1  0.32596293  0.39445681  0.65737127  1
  S2-  S140  1  0.25529096  0.73566364  0.13842186  1
  S2-  S141  1  0.19317279  0.63332804  0.66299685  1
  S2-  S142  1  0.21941435  0.97889003  0.13970912  1
  S2-  S143  1  0.25111693  0.95425197  0.64564831  1
  S2-  S144  1  0.53790757  0.12580907  0.15315135  1
  S2-  S145  1  0.45529849  0.14897321  0.65556886  1
  S2-  S146  1  0.50873425  0.36221442  0.15249233  1
  S2-  S147  1  0.48730136  0.33759740  0.71832645  1
  S2-  S148  1  0.60497695  0.64103967  0.14967670  1
  S2-  S149  1  0.51503447  0.53645166  0.65872053  1
  S2-  S150  1  0.42656511  0.88595278  0.14956171  1
  S2-  S151  1  0.59934703  0.90423507  0.63659891  1
  S2-  S152  1  0.76401301  0.21502039  0.13942960  1
  S2-  S153  1  0.72055089  0.11688240  0.64759525  1
  S2-  S154  1  0.72858016  0.40666658  0.18233553  1
  S2-  S155  1  0.65010883  0.34561269  0.64987055  1
  S2-  S156  1  0.82011702  0.60161911  0.16324161  1
  S2-  S157  1  0.75573044  0.58146996  0.64780648  1
  S2-  S158  1  0.75216392  0.79890696  0.13826407  1
  S2-  S159  1  0.82976020  0.87934924  0.65753221  1
  S2-  S160  1  0.12693166  0.07130113  0.35297299  1
  S2-  S161  1  0.01907114  0.00288492  0.84021792  1
  S2-  S162  1  0.12717996  0.24567929  0.27527181  1
  S2-  S163  1  0.09098893  0.21832086  0.84053548  1
  S2-  S164  1  0.11526247  0.41199097  0.35503939  1
  S2-  S165  1  0.12979816  0.58867107  0.85538529  1
  S2-  S166  1  0.13641254  0.64755469  0.36981420  1
  S2-  S167  1  0.13395355  0.81346678  0.83411120  1
  S2-  S168  1  0.35737237  0.01433243  0.34259406  1
  S2-  S169  1  0.26219894  -0.00215716  0.85674131  1
  S2-  S170  1  0.29004422  0.25711045  0.35365791  1
  S2-  S171  1  0.46755784  0.23639351  0.85638885  1
  S2-  S172  1  0.34719926  0.52066282  0.35618998  1
  S2-  S173  1  0.34030208  0.41749164  0.82987847  1
  S2-  S174  1  0.45234009  0.76122844  0.35460341  1
  S2-  S175  1  0.35610758  0.65575631  0.84983965  1
  S2-  S176  1  0.62337276  -0.09245851  0.35363057  1
  S2-  S177  1  0.64014935  0.09723668  0.85515190  1
  S2-  S178  1  0.73403606  0.25998118  0.35316695  1
  S2-  S179  1  0.66213140  0.35919541  0.85739861  1
  S2-  S180  1  0.62451405  0.43820517  0.35316585  1
  S2-  S181  1  0.53773131  0.53484635  0.85445135  1
  S2-  S182  1  0.63562667  0.67373795  0.32209865  1
  S2-  S183  1  0.71569774  0.70738105  0.85517272  1
  S2-  S184  1  0.83357201  0.01067795  0.34367439  1
  S2-  S185  1  0.82556184  -0.09294086  0.82653774  1
  S2-  S186  1  0.96043848  0.23268833  0.34398185  1
  S2-  S187  1  0.85040357  0.15505821  0.84469789  1
  S2-  S188  1  0.87125607  0.43083049  0.35109179  1
  S2-  S189  1  0.88043478  0.40951984  0.86325775  1
  S2-  S190  1  0.84895056  0.75555369  0.33985058  1
  S2-  S191  1  0.93755806  0.70002077  0.82895374  1
  S2-  S192  1  -0.00726642  0.13148581  0.45408098  1
  S2-  S193  1  -0.00112620  0.12400884  0.94619032  1
  S2-  S194  1  -0.00624162  0.38566221  0.45912757  1
  S2-  S195  1  0.00481898  0.37198249  0.95945520  1
  S2-  S196  1  -0.01237619  0.63085775  0.45780434  1
  S2-  S197  1  -0.00815452  0.61684611  0.95117441  1
  S2-  S198  1  -0.00608203  0.88076817  0.44210456  1
  S2-  S199  1  -0.00761947  0.86526062  0.94135881  1
  S2-  S200  1  0.23904964  0.12924629  0.45954804  1
  S2-  S201  1  0.25274468  0.12148146  0.95663320  1
  S2-  S202  1  0.24077366  0.38613498  0.46185566  1
  S2-  S203  1  0.25619536  0.37595981  0.95232869  1
  S2-  S204  1  0.24407121  0.62808064  0.46580350  1
  S2-  S205  1  0.25609229  0.61731439  0.95884600  1
  S2-  S206  1  0.23848988  0.88165402  0.44951879  1
  S2-  S207  1  0.24982773  0.86334546  0.95553619  1
  S2-  S208  1  0.49392113  0.13396286  0.44666735  1
  S2-  S209  1  0.49419517  0.11452032  0.95559515  1
  S2-  S210  1  0.48797854  0.38033791  0.44937653  1
  S2-  S211  1  0.49507204  0.37532049  0.95218919  1
  S2-  S212  1  0.49076402  0.62954910  0.45929986  1
  S2-  S213  1  0.50251090  0.62092662  0.96091273  1
  S2-  S214  1  0.48921108  0.88609226  0.45536121  1
  S2-  S215  1  0.50023571  0.87259953  0.95832812  1
  S2-  S216  1  0.73923557  0.13007791  0.44766183  1
  S2-  S217  1  0.75253525  0.12052832  0.95422364  1
  S2-  S218  1  0.74069867  0.38483781  0.46050276  1
  S2-  S219  1  0.74748414  0.36827493  0.96829961  1
  S2-  S220  1  0.73981737  0.63088333  0.44691362  1
  S2-  S221  1  0.74623077  0.61595572  0.96161852  1
  S2-  S222  1  0.73904912  0.88156183  0.45540507  1
  S2-  S223  1  0.74621726  0.87594121  0.94522622  1
  S2-  S224  1  0.12137977  -0.00621436  0.03174956  1
  S2-  S225  1  0.11206280  0.00018613  0.54806957  1
  S2-  S226  1  0.12834952  0.24612796  0.04531835  1
  S2-  S227  1  0.11557535  0.24777649  0.55075642  1
  S2-  S228  1  0.12370833  0.49751156  0.05041878  1
  S2-  S229  1  0.11488852  0.51361732  0.54519935  1
  S2-  S230  1  0.12262762  0.74022991  0.03620865  1
  S2-  S231  1  0.11131093  0.76220225  0.55341586  1
  S2-  S232  1  0.37673964  -0.00405482  0.04293831  1
  S2-  S233  1  0.37218431  0.00479416  0.54627308  1
  S2-  S234  1  0.37609496  0.24229968  0.04770258  1
  S2-  S235  1  0.36596198  0.25736870  0.55221448  1
  S2-  S236  1  0.37612989  0.49801897  0.05475873  1
  S2-  S237  1  0.36909402  0.50654899  0.55595798  1
  S2-  S238  1  0.38156891  0.74306414  0.04343401  1
  S2-  S239  1  0.36877810  0.75821012  0.54967388  1
  S2-  S240  1  0.62428915  -0.00318231  0.04545723  1
  S2-  S241  1  0.61624095  0.00859852  0.53607370  1
  S2-  S242  1  0.62060987  0.24223370  0.04042314  1
  S2-  S243  1  0.61847597  0.25658055  0.53811949  1
  S2-  S244  1  0.62780837  0.49306022  0.04967692  1
  S2-  S245  1  0.61506274  0.50423142  0.54907887  1
  S2-  S246  1  0.62130810  0.75121072  0.03981511  1
  S2-  S247  1  0.61308331  0.75552512  0.53746705  1
  S2-  S248  1  0.87279202  -0.00338211  0.04314129  1
  S2-  S249  1  0.86526642  0.00208262  0.54739630  1
  S2-  S250  1  0.87899390  0.24663656  0.03956828  1
  S2-  S251  1  0.86766107  0.25582167  0.54372476  1
  S2-  S252  1  0.87296974  0.49076719  0.05564670  1
  S2-  S253  1  0.86970045  0.50562480  0.54906845  1
  S2-  S254  1  0.87152152  0.74397231  0.03521770  1
  S2-  S255  1  0.86518568  0.75899189  0.54656440  1
