# generated using pymatgen
data_La9Ce10Pr6Nd4Sm3(BiS2)32
_symmetry_space_group_name_H-M   'P 1'
_cell_length_a   16.13801213
_cell_length_b   16.15125753
_cell_length_c   27.27301369
_cell_angle_alpha   89.86682883
_cell_angle_beta   89.84602494
_cell_angle_gamma   89.98723218
_symmetry_Int_Tables_number   1
_chemical_formula_structural   La9Ce10Pr6Nd4Sm3(BiS2)32
_chemical_formula_sum   'La18 Ce20 Pr12 Nd8 Sm6 Bi64 S128'
_cell_volume   7108.64389153
_cell_formula_units_Z   2
loop_
 _symmetry_equiv_pos_site_id
 _symmetry_equiv_pos_as_xyz
  1  'x, y, z'
loop_
 _atom_type_symbol
 _atom_type_oxidation_number
  La3+  3.0
  Ce3+  3.0
  Pr3+  3.0
  Nd3+  3.0
  Sm3+  3.0
  Bi2+  2.0
  S2-  -2.0
loop_
 _atom_site_type_symbol
 _atom_site_label
 _atom_site_symmetry_multiplicity
 _atom_site_fract_x
 _atom_site_fract_y
 _atom_site_fract_z
 _atom_site_occupancy
  La3+  La0  1  0.75539510  0.38389985  0.07177320  1
  La3+  La1  1  0.86682068  0.48989768  0.44300454  1
  La3+  La2  1  0.36954676  0.23559451  0.41899108  1
  La3+  La3  1  0.49498613  0.12045966  0.07949697  1
  La3+  La4  1  0.01092226  0.89054480  0.06481514  1
  La3+  La5  1  0.11300304  0.23985652  0.42786679  1
  La3+  La6  1  0.38941110  0.51045871  0.93113197  1
  La3+  La7  1  0.48735347  0.12237915  0.57847984  1
  La3+  La8  1  0.00446630  0.13882997  0.07253512  1
  La3+  La9  1  0.50132290  0.63586246  0.07836185  1
  La3+  La10  1  0.74810204  0.86089494  0.58078681  1
  La3+  La11  1  0.12136078  0.76522537  0.90257991  1
  La3+  La12  1  0.38963122  0.75731915  0.92078673  1
  La3+  La13  1  0.36785046  0.74116593  0.43386440  1
  La3+  La14  1  0.13027997  0.26121802  0.92888754  1
  La3+  La15  1  0.38453150  0.01361932  0.91912039  1
  La3+  La16  1  0.24270675  0.85749867  0.58426731  1
  La3+  La17  1  0.74674552  0.12659160  0.07769085  1
  Ce3+  Ce18  1  0.86562891  0.23776261  0.43660992  1
  Ce3+  Ce19  1  -0.00803778  0.61943810  0.55714064  1
  Ce3+  Ce20  1  0.24222303  0.11889767  0.56293935  1
  Ce3+  Ce21  1  0.73866430  0.61643787  0.55915892  1
  Ce3+  Ce22  1  0.61323076  0.74248761  0.43272788  1
  Ce3+  Ce23  1  0.75269314  0.11746751  0.57721308  1
  Ce3+  Ce24  1  0.76674409  0.63288206  0.06861419  1
  Ce3+  Ce25  1  0.13453084  0.01016473  0.92625413  1
  Ce3+  Ce26  1  0.25783371  0.63736560  0.04913393  1
  Ce3+  Ce27  1  0.74056535  0.35998094  0.55964499  1
  Ce3+  Ce28  1  -0.00254276  0.86298658  0.56548642  1
  Ce3+  Ce29  1  0.11997192  0.48826487  0.44429556  1
  Ce3+  Ce30  1  0.49642709  0.36639046  0.55888400  1
  Ce3+  Ce31  1  0.61887602  0.23900085  0.43920430  1
  Ce3+  Ce32  1  0.61969142  -0.00895971  0.45414829  1
  Ce3+  Ce33  1  0.25706511  0.88191836  0.04442342  1
  Ce3+  Ce34  1  -0.00678989  0.36450010  0.56131263  1
  Ce3+  Ce35  1  -0.00097816  0.11618937  0.56202013  1
  Ce3+  Ce36  1  0.50623925  0.88380965  0.04859436  1
  Ce3+  Ce37  1  0.48885656  0.86360634  0.57371710  1
  Pr3+  Pr38  1  0.61624697  0.49772952  0.41270503  1
  Pr3+  Pr39  1  0.37157763  0.48465341  0.43064533  1
  Pr3+  Pr40  1  0.86938079  0.74051634  0.43099225  1
  Pr3+  Pr41  1  0.25744388  0.13213183  0.05242053  1
  Pr3+  Pr42  1  0.11927106  0.74288060  0.42888134  1
  Pr3+  Pr43  1  0.88107118  0.01493688  0.93396981  1
  Pr3+  Pr44  1  0.87869578  0.25989880  0.94147437  1
  Pr3+  Pr45  1  0.76284454  0.88114701  0.06385562  1
  Pr3+  Pr46  1  0.37111196  -0.00744066  0.44468749  1
  Pr3+  Pr47  1  0.01164927  0.38272989  0.06750226  1
  Pr3+  Pr48  1  0.63568760  0.75440087  0.93759033  1
  Pr3+  Pr49  1  0.24672946  0.36441781  0.55946820  1
  Nd3+  Nd50  1  0.13938684  0.51175111  0.93381316  1
  Nd3+  Nd51  1  0.24491941  0.61567307  0.55857524  1
  Nd3+  Nd52  1  0.63216713  0.01560598  0.93014504  1
  Nd3+  Nd53  1  0.00700160  0.63352769  0.05525952  1
  Nd3+  Nd54  1  0.25934916  0.38390873  0.05423064  1
  Nd3+  Nd55  1  0.88003149  0.75994077  0.93468093  1
  Nd3+  Nd56  1  0.50136317  0.38470473  0.07231041  1
  Nd3+  Nd57  1  0.88336593  0.50395236  0.93474041  1
  Sm3+  Sm58  1  0.49519413  0.61867594  0.56024137  1
  Sm3+  Sm59  1  0.86777232  -0.01113220  0.44524047  1
  Sm3+  Sm60  1  0.11861796  -0.01188326  0.44509965  1
  Sm3+  Sm61  1  0.63092988  0.25733423  0.95610512  1
  Sm3+  Sm62  1  0.62993707  0.50897008  0.94872578  1
  Sm3+  Sm63  1  0.38843502  0.25940176  0.94110665  1
  Bi2+  Bi64  1  -0.09562701  0.13671406  0.28931056  1
  Bi2+  Bi65  1  -0.00686410  0.09133171  0.78158778  1
  Bi2+  Bi66  1  -0.05809221  0.39412100  0.30839324  1
  Bi2+  Bi67  1  -0.07608158  0.38337844  0.76591452  1
  Bi2+  Bi68  1  0.07274333  0.63680615  0.29088755  1
  Bi2+  Bi69  1  -0.07058716  0.59963794  0.80617095  1
  Bi2+  Bi70  1  0.00853773  0.88776628  0.28966326  1
  Bi2+  Bi71  1  -0.10556853  0.91706624  0.81010640  1
  Bi2+  Bi72  1  0.27737651  0.12565470  0.27029461  1
  Bi2+  Bi73  1  0.26120545  0.15843239  0.77772957  1
  Bi2+  Bi74  1  0.21743404  0.38829003  0.28682277  1
  Bi2+  Bi75  1  0.18955578  0.40511644  0.79091030  1
  Bi2+  Bi76  1  0.27102461  0.60659215  0.28564248  1
  Bi2+  Bi77  1  0.32307238  0.63905655  0.78745699  1
  Bi2+  Bi78  1  0.21026808  0.87279266  0.29126644  1
  Bi2+  Bi79  1  0.22731135  0.89835732  0.78236444  1
  Bi2+  Bi80  1  0.49654891  0.11354842  0.29266008  1
  Bi2+  Bi81  1  0.51238832  0.17408964  0.79726874  1
  Bi2+  Bi82  1  0.49890758  0.38242801  0.29825031  1
  Bi2+  Bi83  1  0.47198088  0.41291336  0.77710187  1
  Bi2+  Bi84  1  0.52866533  0.65016272  0.28454698  1
  Bi2+  Bi85  1  0.53650738  0.60511176  0.78427834  1
  Bi2+  Bi86  1  0.47411504  0.89281975  0.29035580  1
  Bi2+  Bi87  1  0.56894343  0.87531208  0.79298204  1
  Bi2+  Bi88  1  0.72591407  0.05057672  0.30927491  1
  Bi2+  Bi89  1  0.76048081  0.14525607  0.80221643  1
  Bi2+  Bi90  1  0.74965587  0.24728240  0.32448143  1
  Bi2+  Bi91  1  0.72832076  0.40751246  0.80349216  1
  Bi2+  Bi92  1  0.80759179  0.67438186  0.30324005  1
  Bi2+  Bi93  1  0.74015192  0.59772243  0.84468410  1
  Bi2+  Bi94  1  0.74487884  0.85294974  0.28801329  1
  Bi2+  Bi95  1  0.75118109  0.78575813  0.80433709  1
  Bi2+  Bi96  1  0.09944257  0.04170306  0.23711154  1
  Bi2+  Bi97  1  0.12704379  0.01416784  0.71309912  1
  Bi2+  Bi98  1  0.11481139  0.24355173  0.24130499  1
  Bi2+  Bi99  1  0.11662349  0.27311166  0.69874905  1
  Bi2+  Bi100  1  0.15079261  0.53449400  0.20250152  1
  Bi2+  Bi101  1  0.06892254  0.51986239  0.73841180  1
  Bi2+  Bi102  1  0.12609643  0.76136095  0.20721176  1
  Bi2+  Bi103  1  0.12600965  0.72692546  0.71090204  1
  Bi2+  Bi104  1  0.35053486  -0.04907541  0.20801959  1
  Bi2+  Bi105  1  0.38715169  0.03541048  0.71769024  1
  Bi2+  Bi106  1  0.37627257  0.25322459  0.20342666  1
  Bi2+  Bi107  1  0.36750137  0.33063407  0.69301583  1
  Bi2+  Bi108  1  0.38260819  0.49284677  0.19342057  1
  Bi2+  Bi109  1  0.45147613  0.51166532  0.67661191  1
  Bi2+  Bi110  1  0.32488452  0.75269505  0.21025148  1
  Bi2+  Bi111  1  0.38408876  0.75971899  0.71155056  1
  Bi2+  Bi112  1  0.60283901  -0.00299761  0.20781140  1
  Bi2+  Bi113  1  0.65592017  0.02149689  0.73814287  1
  Bi2+  Bi114  1  0.71919608  0.21792342  0.21676683  1
  Bi2+  Bi115  1  0.62183328  0.31546870  0.71916203  1
  Bi2+  Bi116  1  0.66528005  0.50295074  0.22244011  1
  Bi2+  Bi117  1  0.63863928  0.47995174  0.65279746  1
  Bi2+  Bi118  1  0.59836244  0.79761325  0.21836305  1
  Bi2+  Bi119  1  0.62202739  0.74167553  0.71733397  1
  Bi2+  Bi120  1  0.88023083  0.00439116  0.19227359  1
  Bi2+  Bi121  1  0.89221451  -0.01836191  0.70498970  1
  Bi2+  Bi122  1  0.93715220  0.33137519  0.20352093  1
  Bi2+  Bi123  1  0.85374039  0.22536720  0.71586196  1
  Bi2+  Bi124  1  0.95846959  0.52315386  0.21366775  1
  Bi2+  Bi125  1  0.79443072  0.52539340  0.71976536  1
  Bi2+  Bi126  1  0.82288496  0.74549943  0.20091374  1
  Bi2+  Bi127  1  0.87702692  0.70542067  0.70648214  1
  S2-  S128  1  0.03796461  0.01780948  0.14417889  1
  S2-  S129  1  0.12124800  0.13456009  0.63806926  1
  S2-  S130  1  0.05608560  0.26768532  0.14250117  1
  S2-  S131  1  -0.01583746  0.34803747  0.65950660  1
  S2-  S132  1  -0.08905594  0.62962881  0.13863028  1
  S2-  S133  1  0.01795696  0.61818567  0.65522429  1
  S2-  S134  1  -0.10050917  0.85796870  0.14143668  1
  S2-  S135  1  -0.10285959  0.84211452  0.64578701  1
  S2-  S136  1  0.34412133  0.13087729  0.14073300  1
  S2-  S137  1  0.33854131  0.13470253  0.64556537  1
  S2-  S138  1  0.27742474  0.36947598  0.15309660  1
  S2-  S139  1  0.21560015  0.39242984  0.65930441  1
  S2-  S140  1  0.34167109  0.63565495  0.13519218  1
  S2-  S141  1  0.25231861  0.69400367  0.64880809  1
  S2-  S142  1  0.23844639  0.88113396  0.14354324  1
  S2-  S143  1  0.10878661  0.86542118  0.65154640  1
  S2-  S144  1  0.60545940  0.14899373  0.15887664  1
  S2-  S145  1  0.52771596  0.04266184  0.67100190  1
  S2-  S146  1  0.49665312  0.36226152  0.17310828  1
  S2-  S147  1  0.50412455  0.27054897  0.64349808  1
  S2-  S148  1  0.52183168  0.57044904  0.17619858  1
  S2-  S149  1  0.50405719  0.72958350  0.63936964  1
  S2-  S150  1  0.48413409  0.96014464  0.13494210  1
  S2-  S151  1  0.37084177  0.89150477  0.65493511  1
  S2-  S152  1  0.85842932  0.15849761  0.15473425  1
  S2-  S153  1  0.89820284  0.12105438  0.64049722  1
  S2-  S154  1  0.74047086  0.38282798  0.17282040  1
  S2-  S155  1  0.73858955  0.25873554  0.64234237  1
  S2-  S156  1  0.71019558  0.62006362  0.16175054  1
  S2-  S157  1  0.74002745  0.71283854  0.64200545  1
  S2-  S158  1  0.73505892  0.98399063  0.14421014  1
  S2-  S159  1  0.73780505  0.98871155  0.65390706  1
  S2-  S160  1  0.11770920  -0.00358562  0.34554549  1
  S2-  S161  1  0.09974747  -0.08589215  0.84702084  1
  S2-  S162  1  0.19836810  0.23177564  0.33866947  1
  S2-  S163  1  0.13573801  0.25367452  0.82713917  1
  S2-  S164  1  0.09528682  0.45034081  0.35033406  1
  S2-  S165  1  0.06582255  0.48932899  0.84496432  1
  S2-  S166  1  0.24502525  0.73989107  0.35521809  1
  S2-  S167  1  0.17027115  0.69858713  0.80765650  1
  S2-  S168  1  0.36488123  0.08503491  0.35694267  1
  S2-  S169  1  0.26168433  0.03663833  0.84406326  1
  S2-  S170  1  0.35095176  0.36933637  0.35023986  1
  S2-  S171  1  0.37882553  0.24098787  0.84220247  1
  S2-  S172  1  0.47239679  0.52763312  0.34753384  1
  S2-  S173  1  0.28162428  0.50874561  0.85030841  1
  S2-  S174  1  0.48482024  0.76257774  0.35812181  1
  S2-  S175  1  0.34717187  0.81383315  0.82342517  1
  S2-  S176  1  0.57701177  -0.00615033  0.35736355  1
  S2-  S177  1  0.51581491  0.02484129  0.84919509  1
  S2-  S178  1  0.51972513  0.23549779  0.35462041  1
  S2-  S179  1  0.63422918  0.23380956  0.85779880  1
  S2-  S180  1  0.65151002  0.42066832  0.31945829  1
  S2-  S181  1  0.52679059  0.49331082  0.86636088  1
  S2-  S182  1  0.65327602  0.64249862  0.35207640  1
  S2-  S183  1  0.53303555  0.73707382  0.85473797  1
  S2-  S184  1  0.88872011  -0.01438592  0.34600020  1
  S2-  S185  1  0.75603861  0.00305667  0.85871494  1
  S2-  S186  1  0.97628299  0.23685116  0.35933389  1
  S2-  S187  1  0.90366775  0.15232598  0.86056974  1
  S2-  S188  1  0.85582551  0.52438174  0.34443640  1
  S2-  S189  1  0.86900237  0.37698208  0.86293006  1
  S2-  S190  1  0.99070616  0.75351929  0.35404465  1
  S2-  S191  1  0.96768697  0.75020825  0.84821497  1
  S2-  S192  1  -0.00749920  0.10848259  0.45603030  1
  S2-  S193  1  0.01286761  0.13523625  0.95822080  1
  S2-  S194  1  -0.00841442  0.36709273  0.45747784  1
  S2-  S195  1  0.01109101  0.38688774  0.95854455  1
  S2-  S196  1  -0.00390861  0.61403423  0.45164829  1
  S2-  S197  1  0.00856600  0.63116826  0.95043094  1
  S2-  S198  1  -0.00629359  0.86783478  0.45684279  1
  S2-  S199  1  0.00339480  0.88471293  0.95462862  1
  S2-  S200  1  0.23801924  0.11384623  0.45557203  1
  S2-  S201  1  0.25997010  0.14135775  0.94735177  1
  S2-  S202  1  0.24195250  0.36413903  0.45329512  1
  S2-  S203  1  0.26158706  0.38154892  0.94838547  1
  S2-  S204  1  0.24494415  0.60982360  0.45261046  1
  S2-  S205  1  0.25353667  0.64448217  0.94432678  1
  S2-  S206  1  0.24289018  0.86905419  0.45538117  1
  S2-  S207  1  0.25612352  0.88016546  0.94016031  1
  S2-  S208  1  0.49567870  0.11546002  0.46435990  1
  S2-  S209  1  0.50565258  0.13756470  0.95951828  1
  S2-  S210  1  0.50112038  0.36909289  0.45228581  1
  S2-  S211  1  0.50926220  0.38012509  0.96480309  1
  S2-  S212  1  0.49506645  0.61485800  0.45743035  1
  S2-  S213  1  0.51066694  0.63431273  0.96475023  1
  S2-  S214  1  0.49331259  0.86917592  0.46447288  1
  S2-  S215  1  0.51134869  0.88397550  0.94566854  1
  S2-  S216  1  0.74582865  0.11322383  0.45895335  1
  S2-  S217  1  0.75360369  0.13752310  0.96456581  1
  S2-  S218  1  0.73963535  0.36737614  0.45131673  1
  S2-  S219  1  0.74958007  0.38605641  0.96347334  1
  S2-  S220  1  0.74391868  0.61686322  0.45557789  1
  S2-  S221  1  0.75938152  0.62946580  0.96090150  1
  S2-  S222  1  0.74436327  0.86458547  0.44768685  1
  S2-  S223  1  0.75590968  0.88053049  0.95601342  1
  S2-  S224  1  0.13709333  0.01003073  0.03416727  1
  S2-  S225  1  0.12104945  -0.01363485  0.54787276  1
  S2-  S226  1  0.13788662  0.26036464  0.03725041  1
  S2-  S227  1  0.11769730  0.24717027  0.53835588  1
  S2-  S228  1  0.13404804  0.50918239  0.04468332  1
  S2-  S229  1  0.11840725  0.49214142  0.55062966  1
  S2-  S230  1  0.13036965  0.75710769  0.04704351  1
  S2-  S231  1  0.12019174  0.73741432  0.54014895  1
  S2-  S232  1  0.37818688  0.00496472  0.02907266  1
  S2-  S233  1  0.36317698  -0.01039618  0.54888516  1
  S2-  S234  1  0.38379950  0.26061159  0.04507974  1
  S2-  S235  1  0.36858063  0.24538786  0.53668209  1
  S2-  S236  1  0.38255705  0.50772520  0.04079025  1
  S2-  S237  1  0.37042400  0.49218551  0.54297655  1
  S2-  S238  1  0.38317926  0.76078158  0.03488931  1
  S2-  S239  1  0.36730624  0.73880491  0.54201703  1
  S2-  S240  1  0.62768283  0.00590599  0.03758645  1
  S2-  S241  1  0.61707118  -0.01290403  0.55582017  1
  S2-  S242  1  0.62487837  0.26038974  0.05902121  1
  S2-  S243  1  0.62020476  0.23749904  0.54235628  1
  S2-  S244  1  0.62804480  0.50901101  0.05392304  1
  S2-  S245  1  0.61793889  0.49213691  0.54013588  1
  S2-  S246  1  0.63280598  0.75721452  0.05095371  1
  S2-  S247  1  0.61911853  0.74281069  0.53962915  1
  S2-  S248  1  0.88097943  0.01308781  0.04229810  1
  S2-  S249  1  0.87058045  -0.01424923  0.54666594  1
  S2-  S250  1  0.88142652  0.26477698  0.04817021  1
  S2-  S251  1  0.87097159  0.24350412  0.54049907  1
  S2-  S252  1  0.88438380  0.50215599  0.04324876  1
  S2-  S253  1  0.86597323  0.49054754  0.55266435  1
  S2-  S254  1  0.88494377  0.75645583  0.03813688  1
  S2-  S255  1  0.86877759  0.73790594  0.53739053  1
