# generated using pymatgen
data_La9Ce10Pr6Nd4Sm3(BiS2)32
_symmetry_space_group_name_H-M   'P 1'
_cell_length_a   16.18350400
_cell_length_b   16.19514958
_cell_length_c   27.40629231
_cell_angle_alpha   90.18317362
_cell_angle_beta   90.14084514
_cell_angle_gamma   89.96642370
_symmetry_Int_Tables_number   1
_chemical_formula_structural   La9Ce10Pr6Nd4Sm3(BiS2)32
_chemical_formula_sum   'La18 Ce20 Pr12 Nd8 Sm6 Bi64 S128'
_cell_volume   7182.97251142
_cell_formula_units_Z   2
loop_
 _symmetry_equiv_pos_site_id
 _symmetry_equiv_pos_as_xyz
  1  'x, y, z'
loop_
 _atom_type_symbol
 _atom_type_oxidation_number
  La3+  3.0
  Ce3+  3.0
  Pr3+  3.0
  Nd3+  3.0
  Sm3+  3.0
  Bi2+  2.0
  S2-  -2.0
loop_
 _atom_site_type_symbol
 _atom_site_label
 _atom_site_symmetry_multiplicity
 _atom_site_fract_x
 _atom_site_fract_y
 _atom_site_fract_z
 _atom_site_occupancy
  La3+  La0  1  0.89442665  0.50670736  0.90151154  1
  La3+  La1  1  0.47594895  0.12705408  0.56939095  1
  La3+  La2  1  0.90340981  0.00745564  0.92731940  1
  La3+  La3  1  0.34268851  0.75934737  0.42037023  1
  La3+  La4  1  0.33896167  0.01541094  0.42129333  1
  La3+  La5  1  0.59005749  0.49681661  0.42770097  1
  La3+  La6  1  0.52554361  0.38697499  0.06409427  1
  La3+  La7  1  0.14597609  0.50626902  0.92756902  1
  La3+  La8  1  0.65137719  0.75296282  0.93356254  1
  La3+  La9  1  0.59720162  0.25683948  0.43882603  1
  La3+  La10  1  0.22925448  0.88805007  0.56644498  1
  La3+  La11  1  0.02954233  0.13606643  0.07045059  1
  La3+  La12  1  -0.00666566  0.38573665  0.61617104  1
  La3+  La13  1  0.02518603  0.38077575  0.06361783  1
  La3+  La14  1  0.39422421  0.51104766  0.90359235  1
  La3+  La15  1  0.71084434  0.63371220  0.56884327  1
  La3+  La16  1  0.84514762  0.75353687  0.43583979  1
  La3+  La17  1  0.59536038  0.74582270  0.41527431  1
  Ce3+  Ce18  1  0.27462958  0.87950329  0.06027856  1
  Ce3+  Ce19  1  0.77432233  0.38316521  0.05062371  1
  Ce3+  Ce20  1  0.85480366  0.25749923  0.44852734  1
  Ce3+  Ce21  1  0.34761035  0.50400532  0.44634957  1
  Ce3+  Ce22  1  0.34393022  0.25338126  0.44520639  1
  Ce3+  Ce23  1  0.02216670  0.63215460  0.05806166  1
  Ce3+  Ce24  1  0.77457855  0.87927505  0.06235523  1
  Ce3+  Ce25  1  0.84618953  0.50611851  0.44661279  1
  Ce3+  Ce26  1  0.77754062  0.13235955  0.05750901  1
  Ce3+  Ce27  1  0.47753117  0.38111486  0.57078558  1
  Ce3+  Ce28  1  0.27346056  0.63229971  0.05465148  1
  Ce3+  Ce29  1  -0.02914229  0.88440354  0.56653801  1
  Ce3+  Ce30  1  0.27437423  0.38660406  0.05650737  1
  Ce3+  Ce31  1  0.22522780  0.38308697  0.56099598  1
  Ce3+  Ce32  1  0.64807637  0.00399550  0.94564267  1
  Ce3+  Ce33  1  0.85483847  0.01036772  0.44021495  1
  Ce3+  Ce34  1  0.09159213  0.00838747  0.44075758  1
  Ce3+  Ce35  1  0.39797197  0.25800494  0.94404623  1
  Ce3+  Ce36  1  0.27460450  0.12994101  0.05971322  1
  Ce3+  Ce37  1  0.21840708  0.13202474  0.56584807  1
  Pr3+  Pr38  1  0.53025032  0.87865262  0.06920474  1
  Pr3+  Pr39  1  0.39270202  0.00451981  0.93549123  1
  Pr3+  Pr40  1  -0.03295356  0.12838866  0.57946450  1
  Pr3+  Pr41  1  0.09799587  0.75635580  0.44727435  1
  Pr3+  Pr42  1  -0.03009229  0.63140209  0.56486000  1
  Pr3+  Pr43  1  0.52261667  0.13112322  0.05674592  1
  Pr3+  Pr44  1  0.01679392  0.88531243  0.06932754  1
  Pr3+  Pr45  1  0.72555887  0.38136684  0.56795634  1
  Pr3+  Pr46  1  0.39993764  0.75287802  0.93677187  1
  Pr3+  Pr47  1  0.59956920  0.00977929  0.43151500  1
  Pr3+  Pr48  1  0.22792270  0.63966577  0.56993472  1
  Pr3+  Pr49  1  0.08984020  0.25783519  0.44396552  1
  Nd3+  Nd50  1  0.14413230  0.75438296  0.94383673  1
  Nd3+  Nd51  1  0.90027965  0.25355928  0.93058227  1
  Nd3+  Nd52  1  0.72236023  0.12888207  0.56561270  1
  Nd3+  Nd53  1  0.09711060  0.50652486  0.44720074  1
  Nd3+  Nd54  1  0.47220764  0.63726375  0.55414998  1
  Nd3+  Nd55  1  0.14968578  0.25687343  0.93857498  1
  Nd3+  Nd56  1  0.77620333  0.62892701  0.06074871  1
  Nd3+  Nd57  1  0.64555259  0.25668133  0.94310997  1
  Sm3+  Sm58  1  0.89893436  0.75486590  0.93837802  1
  Sm3+  Sm59  1  0.47311346  0.88084549  0.54321786  1
  Sm3+  Sm60  1  0.71986524  0.87887715  0.54768494  1
  Sm3+  Sm61  1  0.52489768  0.63065760  0.05462510  1
  Sm3+  Sm62  1  0.64572669  0.50282982  0.92656905  1
  Sm3+  Sm63  1  0.14949270  0.00642830  0.93589359  1
  Bi2+  Bi64  1  0.07161828  0.13318154  0.32063321  1
  Bi2+  Bi65  1  0.00724998  0.10910155  0.79303995  1
  Bi2+  Bi66  1  0.04338626  0.36620272  0.31342973  1
  Bi2+  Bi67  1  0.06612941  0.36762972  0.81177968  1
  Bi2+  Bi68  1  0.03748952  0.61906006  0.30671635  1
  Bi2+  Bi69  1  0.01062343  0.68255994  0.79630086  1
  Bi2+  Bi70  1  0.05165808  0.86792273  0.27141270  1
  Bi2+  Bi71  1  -0.08947743  0.88607409  0.81088324  1
  Bi2+  Bi72  1  0.31138612  0.13758815  0.27171521  1
  Bi2+  Bi73  1  0.27395781  0.12462295  0.79713227  1
  Bi2+  Bi74  1  0.29790536  0.34280923  0.25684120  1
  Bi2+  Bi75  1  0.25482631  0.30990901  0.72715512  1
  Bi2+  Bi76  1  0.24367724  0.67834380  0.29378059  1
  Bi2+  Bi77  1  0.24789281  0.62430077  0.79331357  1
  Bi2+  Bi78  1  0.24983435  0.90025930  0.26304434  1
  Bi2+  Bi79  1  0.22026777  0.80792512  0.74726377  1
  Bi2+  Bi80  1  0.58278799  0.16976298  0.31571698  1
  Bi2+  Bi81  1  0.44419918  0.02778303  0.80806412  1
  Bi2+  Bi82  1  0.47061690  0.33509822  0.31525336  1
  Bi2+  Bi83  1  0.49209957  0.29425717  0.78726831  1
  Bi2+  Bi84  1  0.49762477  0.59087953  0.28483803  1
  Bi2+  Bi85  1  0.46760686  0.58495101  0.76927986  1
  Bi2+  Bi86  1  0.47018414  0.85802928  0.28629254  1
  Bi2+  Bi87  1  0.48349297  0.87916401  0.73867359  1
  Bi2+  Bi88  1  0.77930376  0.13973702  0.30684266  1
  Bi2+  Bi89  1  0.73239508  0.11132708  0.79170071  1
  Bi2+  Bi90  1  0.78587224  0.34780918  0.25151045  1
  Bi2+  Bi91  1  0.73706447  0.33563715  0.78305990  1
  Bi2+  Bi92  1  0.77149457  0.64793276  0.30346666  1
  Bi2+  Bi93  1  0.71337896  0.64841193  0.80452122  1
  Bi2+  Bi94  1  0.78518122  0.88226108  0.28553537  1
  Bi2+  Bi95  1  0.72061683  0.84576337  0.80746897  1
  Bi2+  Bi96  1  0.12838136  0.02111178  0.20873529  1
  Bi2+  Bi97  1  0.10888492  -0.04011000  0.71848473  1
  Bi2+  Bi98  1  0.13948662  0.27153160  0.20336133  1
  Bi2+  Bi99  1  0.15733503  0.14806600  0.69783472  1
  Bi2+  Bi100  1  0.13230656  0.54093000  0.21626987  1
  Bi2+  Bi101  1  0.13094070  0.52968580  0.71071535  1
  Bi2+  Bi102  1  0.07843319  0.72526789  0.19833453  1
  Bi2+  Bi103  1  0.04350241  0.77441526  0.69707896  1
  Bi2+  Bi104  1  0.41727966  0.00977135  0.21978865  1
  Bi2+  Bi105  1  0.38913746  0.04392497  0.70047604  1
  Bi2+  Bi106  1  0.44073052  0.23015733  0.20501977  1
  Bi2+  Bi107  1  0.41893133  0.23767395  0.67939959  1
  Bi2+  Bi108  1  0.33545709  0.53436618  0.23639878  1
  Bi2+  Bi109  1  0.40538939  0.43427081  0.70349810  1
  Bi2+  Bi110  1  0.33849060  0.74866957  0.19986331  1
  Bi2+  Bi111  1  0.38851039  0.70458475  0.68067034  1
  Bi2+  Bi112  1  0.65075574  0.01624159  0.25316567  1
  Bi2+  Bi113  1  0.64898451  -0.01929124  0.71389445  1
  Bi2+  Bi114  1  0.66074927  0.21504777  0.21020782  1
  Bi2+  Bi115  1  0.61946413  0.23260531  0.70644478  1
  Bi2+  Bi116  1  0.63996343  0.48642971  0.19012218  1
  Bi2+  Bi117  1  0.60160813  0.45283336  0.73412812  1
  Bi2+  Bi118  1  0.61062578  0.74215577  0.19090298  1
  Bi2+  Bi119  1  0.65185067  0.71630498  0.70467440  1
  Bi2+  Bi120  1  0.92055129  0.01651116  0.25841020  1
  Bi2+  Bi121  1  0.85806809  0.00371241  0.72019160  1
  Bi2+  Bi122  1  0.90069240  0.20083817  0.21758105  1
  Bi2+  Bi123  1  0.86561476  0.24916273  0.71320365  1
  Bi2+  Bi124  1  0.93050241  0.48098770  0.25144987  1
  Bi2+  Bi125  1  0.85750667  0.51441462  0.71908350  1
  Bi2+  Bi126  1  0.85539919  0.74569184  0.20092273  1
  Bi2+  Bi127  1  0.85259888  0.80481062  0.70842803  1
  S2-  S128  1  0.01819963  0.01415371  0.14012453  1
  S2-  S129  1  0.00814706  0.22611617  0.66153776  1
  S2-  S130  1  0.00577974  0.27197782  0.14274731  1
  S2-  S131  1  -0.00212316  0.40329755  0.72920251  1
  S2-  S132  1  -0.04459856  0.63796075  0.14854146  1
  S2-  S133  1  -0.01375385  0.55615085  0.65438693  1
  S2-  S134  1  -0.11787640  0.86506643  0.13960216  1
  S2-  S135  1  -0.01401256  0.98558730  0.64592332  1
  S2-  S136  1  0.19829859  0.13906392  0.14615467  1
  S2-  S137  1  0.24262894  0.01841490  0.64084167  1
  S2-  S138  1  0.24197738  0.36930445  0.15152505  1
  S2-  S139  1  0.16420566  0.38749345  0.65248495  1
  S2-  S140  1  0.25636560  0.61271714  0.15044894  1
  S2-  S141  1  0.26235643  0.57801698  0.66499167  1
  S2-  S142  1  0.24239422  0.87875325  0.15556880  1
  S2-  S143  1  0.24803081  0.77497151  0.64300574  1
  S2-  S144  1  0.50909334  0.09104612  0.15351431  1
  S2-  S145  1  0.60428125  0.10012163  0.64228789  1
  S2-  S146  1  0.52599162  0.37584392  0.16470992  1
  S2-  S147  1  0.60052827  0.38607966  0.64208939  1
  S2-  S148  1  0.52711864  0.60415523  0.15260965  1
  S2-  S149  1  0.56641426  0.63576766  0.63846318  1
  S2-  S150  1  0.47112531  0.82926455  0.16202803  1
  S2-  S151  1  0.45235059  0.84662292  0.63997633  1
  S2-  S152  1  0.77816467  0.12932024  0.15588750  1
  S2-  S153  1  0.82403549  0.13174050  0.64919441  1
  S2-  S154  1  0.76090662  0.39581862  0.14801959  1
  S2-  S155  1  0.82734138  0.38627886  0.65379795  1
  S2-  S156  1  0.73527793  0.63004636  0.15927385  1
  S2-  S157  1  0.77739088  0.61376182  0.66417742  1
  S2-  S158  1  0.66381903  0.86759709  0.14045787  1
  S2-  S159  1  0.70569280  0.85817712  0.64539187  1
  S2-  S160  1  0.18396655  0.03125759  0.35956952  1
  S2-  S161  1  0.04048677  -0.01330980  0.85878425  1
  S2-  S162  1  0.16550648  0.26638373  0.35099164  1
  S2-  S163  1  0.12713916  0.21153120  0.84280850  1
  S2-  S164  1  0.13774227  0.50240840  0.34966914  1
  S2-  S165  1  0.04029279  0.52912882  0.84444685  1
  S2-  S166  1  0.12922483  0.76650425  0.34853577  1
  S2-  S167  1  0.15522755  0.75662453  0.84434518  1
  S2-  S168  1  0.34007203  -0.11100060  0.34903545  1
  S2-  S169  1  0.27025106  -0.00087759  0.86059538  1
  S2-  S170  1  0.36805228  0.16251175  0.36287571  1
  S2-  S171  1  0.36624663  0.25641934  0.84829608  1
  S2-  S172  1  0.42762935  0.49061031  0.36004060  1
  S2-  S173  1  0.25272961  0.48411586  0.84350152  1
  S2-  S174  1  0.46166935  0.72530155  0.34308955  1
  S2-  S175  1  0.38423658  0.66820660  0.84889768  1
  S2-  S176  1  0.54571829  -0.00628791  0.33590870  1
  S2-  S177  1  0.65647771  -0.00315277  0.84896507  1
  S2-  S178  1  0.61544273  0.36361213  0.35750339  1
  S2-  S179  1  0.63820946  0.24052512  0.84419849  1
  S2-  S180  1  0.63115072  0.59224522  0.34545455  1
  S2-  S181  1  0.53487278  0.49331102  0.84616106  1
  S2-  S182  1  0.67365419  0.78701863  0.32590421  1
  S2-  S183  1  0.58588577  0.75483528  0.84059436  1
  S2-  S184  1  0.96724969  0.01183075  0.36612659  1
  S2-  S185  1  0.88167065  0.13458076  0.85325416  1
  S2-  S186  1  0.95297148  0.25026779  0.36645634  1
  S2-  S187  1  0.91777603  0.35193108  0.84800006  1
  S2-  S188  1  0.85891126  0.52043277  0.34839182  1
  S2-  S189  1  0.74787400  0.49703834  0.84316819  1
  S2-  S190  1  0.88622218  0.76538491  0.33824690  1
  S2-  S191  1  0.87828273  0.67194747  0.85098110  1
  S2-  S192  1  -0.02928181  0.13132472  0.47100399  1
  S2-  S193  1  0.02976930  0.13308362  0.95827673  1
  S2-  S194  1  -0.02812012  0.38854554  0.46001805  1
  S2-  S195  1  0.02447591  0.38127843  0.95497308  1
  S2-  S196  1  -0.02675087  0.63140902  0.45729202  1
  S2-  S197  1  0.01896803  0.63095943  0.95385332  1
  S2-  S198  1  -0.02946782  0.87657405  0.46041352  1
  S2-  S199  1  0.02206623  0.87595292  0.96025454  1
  S2-  S200  1  0.21807516  0.13594541  0.46360168  1
  S2-  S201  1  0.27326391  0.13304482  0.95606790  1
  S2-  S202  1  0.22279394  0.38222265  0.45663944  1
  S2-  S203  1  0.27653592  0.38379438  0.95216083  1
  S2-  S204  1  0.22433680  0.63122038  0.45680966  1
  S2-  S205  1  0.27145965  0.63038764  0.95145185  1
  S2-  S206  1  0.21949703  0.88354783  0.45752763  1
  S2-  S207  1  0.27201427  0.87373665  0.95475553  1
  S2-  S208  1  0.47695967  0.13051585  0.46057278  1
  S2-  S209  1  0.52044863  0.12959338  0.95039371  1
  S2-  S210  1  0.46595164  0.37469390  0.46431040  1
  S2-  S211  1  0.52146060  0.38249422  0.95410091  1
  S2-  S212  1  0.46915151  0.62991754  0.45170603  1
  S2-  S213  1  0.52280486  0.62577851  0.95060109  1
  S2-  S214  1  0.47649056  0.88284799  0.44267338  1
  S2-  S215  1  0.52075612  0.88065304  0.95428453  1
  S2-  S216  1  0.72715686  0.13209042  0.45401960  1
  S2-  S217  1  0.76806448  0.13172251  0.95315729  1
  S2-  S218  1  0.72838555  0.37917876  0.46022811  1
  S2-  S219  1  0.77119821  0.37927708  0.94692372  1
  S2-  S220  1  0.72132672  0.63047931  0.45578869  1
  S2-  S221  1  0.77351927  0.62482022  0.95335441  1
  S2-  S222  1  0.72552245  0.88479624  0.44323045  1
  S2-  S223  1  0.77613569  0.87952953  0.95186279  1
  S2-  S224  1  0.15385121  0.00364952  0.04073824  1
  S2-  S225  1  0.09711133  0.00733633  0.54644951  1
  S2-  S226  1  0.15485836  0.25964767  0.04277193  1
  S2-  S227  1  0.09938106  0.26169011  0.55171983  1
  S2-  S228  1  0.14712605  0.50821155  0.04339889  1
  S2-  S229  1  0.10354191  0.51205250  0.55211939  1
  S2-  S230  1  0.14551455  0.75774514  0.04996645  1
  S2-  S231  1  0.09555388  0.75827761  0.55237884  1
  S2-  S232  1  0.39962812  0.00206362  0.04546518  1
  S2-  S233  1  0.35432360  0.00826781  0.53752522  1
  S2-  S234  1  0.39848380  0.25810948  0.05131863  1
  S2-  S235  1  0.34734236  0.25502338  0.55277629  1
  S2-  S236  1  0.39902274  0.50977675  0.05174132  1
  S2-  S237  1  0.35137419  0.50835054  0.55186087  1
  S2-  S238  1  0.40136761  0.75412228  0.04408074  1
  S2-  S239  1  0.35003498  0.75827970  0.53184520  1
  S2-  S240  1  0.64962718  0.00946781  0.04895927  1
  S2-  S241  1  0.59916821  0.00004563  0.53793997  1
  S2-  S242  1  0.64744060  0.25636111  0.04899204  1
  S2-  S243  1  0.59926433  0.25330666  0.54577694  1
  S2-  S244  1  0.64880513  0.50858135  0.03793198  1
  S2-  S245  1  0.59324570  0.50463420  0.53804816  1
  S2-  S246  1  0.64874092  0.74999079  0.04052856  1
  S2-  S247  1  0.59562538  0.76041300  0.53096727  1
  S2-  S248  1  0.89632650  0.00999831  0.03712273  1
  S2-  S249  1  0.84169422  0.00031075  0.54523250  1
  S2-  S250  1  0.89589950  0.25768840  0.03849850  1
  S2-  S251  1  0.84659100  0.25456767  0.55065668  1
  S2-  S252  1  0.89953002  0.50393857  0.05135756  1
  S2-  S253  1  0.84244439  0.51327974  0.55014627  1
  S2-  S254  1  0.89698700  0.75212104  0.03990319  1
  S2-  S255  1  0.84535114  0.75702306  0.54724060  1
