# generated using pymatgen
data_La9Ce10Pr6Nd4Sm3(BiS2)32
_symmetry_space_group_name_H-M   'P 1'
_cell_length_a   16.20308884
_cell_length_b   16.22208900
_cell_length_c   27.06045557
_cell_angle_alpha   90.01944615
_cell_angle_beta   89.89623068
_cell_angle_gamma   89.99811224
_symmetry_Int_Tables_number   1
_chemical_formula_structural   La9Ce10Pr6Nd4Sm3(BiS2)32
_chemical_formula_sum   'La18 Ce20 Pr12 Nd8 Sm6 Bi64 S128'
_cell_volume   7112.77317152
_cell_formula_units_Z   2
loop_
 _symmetry_equiv_pos_site_id
 _symmetry_equiv_pos_as_xyz
  1  'x, y, z'
loop_
 _atom_type_symbol
 _atom_type_oxidation_number
  La3+  3.0
  Ce3+  3.0
  Pr3+  3.0
  Nd3+  3.0
  Sm3+  3.0
  Bi2+  2.0
  S2-  -2.0
loop_
 _atom_site_type_symbol
 _atom_site_label
 _atom_site_symmetry_multiplicity
 _atom_site_fract_x
 _atom_site_fract_y
 _atom_site_fract_z
 _atom_site_occupancy
  La3+  La0  1  0.88494830  0.49134191  0.44492144  1
  La3+  La1  1  -0.00817404  0.12985309  0.07500822  1
  La3+  La2  1  0.49464850  0.61970330  0.08129024  1
  La3+  La3  1  0.37451566  0.74508867  0.93587813  1
  La3+  La4  1  0.87731210  0.75628122  0.93398249  1
  La3+  La5  1  0.25867004  0.12722530  0.08780461  1
  La3+  La6  1  0.00732767  0.35889388  0.59011628  1
  La3+  La7  1  0.37422997  0.73497212  0.42566365  1
  La3+  La8  1  -0.00202948  0.62868222  0.58870044  1
  La3+  La9  1  0.73998745  0.35957340  0.58731643  1
  La3+  La10  1  -0.00603202  0.62497159  0.06575016  1
  La3+  La11  1  0.12608141  0.24780062  0.94115966  1
  La3+  La12  1  0.74540959  0.11157751  0.56883517  1
  La3+  La13  1  0.36841116  0.00803499  0.92402880  1
  La3+  La14  1  0.63504320  0.73625065  0.41318629  1
  La3+  La15  1  0.88778296  0.50900316  0.91378482  1
  La3+  La16  1  0.12151008  -0.00187426  0.42015663  1
  La3+  La17  1  0.62619250  0.24172243  0.92220240  1
  Ce3+  Ce18  1  0.25428990  0.87736457  0.06350538  1
  Ce3+  Ce19  1  0.24854914  0.36895156  0.55905770  1
  Ce3+  Ce20  1  0.37388604  0.49798023  0.44255840  1
  Ce3+  Ce21  1  0.74736255  0.87596637  0.05818361  1
  Ce3+  Ce22  1  0.74899445  0.62587358  0.04862195  1
  Ce3+  Ce23  1  0.11821052  0.73907684  0.44955736  1
  Ce3+  Ce24  1  0.13051741  0.00276080  0.95168792  1
  Ce3+  Ce25  1  0.50538347  0.37818555  0.05908748  1
  Ce3+  Ce26  1  0.50142732  0.36810725  0.55454637  1
  Ce3+  Ce27  1  0.25020564  0.11624844  0.54890430  1
  Ce3+  Ce28  1  0.87533872  0.24537446  0.44631738  1
  Ce3+  Ce29  1  0.62588405  0.49866761  0.93579094  1
  Ce3+  Ce30  1  0.37567091  0.24859853  0.94582943  1
  Ce3+  Ce31  1  0.49716224  0.87632746  0.05990405  1
  Ce3+  Ce32  1  0.26080764  0.62305752  0.57453951  1
  Ce3+  Ce33  1  0.00157519  0.11936992  0.55926300  1
  Ce3+  Ce34  1  0.88108448  0.74276215  0.43942374  1
  Ce3+  Ce35  1  0.12080040  0.49723615  0.45942370  1
  Ce3+  Ce36  1  0.12544452  0.50169721  0.94584092  1
  Ce3+  Ce37  1  0.00007438  0.87997942  0.06183281  1
  Pr3+  Pr38  1  0.37516363  0.24691034  0.43404701  1
  Pr3+  Pr39  1  0.62336048  -0.00034588  0.42700743  1
  Pr3+  Pr40  1  0.74739669  0.12582317  0.05950288  1
  Pr3+  Pr41  1  0.88204096  0.24217434  0.92010938  1
  Pr3+  Pr42  1  0.36756697  -0.01288725  0.41566658  1
  Pr3+  Pr43  1  0.62881671  0.24771581  0.43557286  1
  Pr3+  Pr44  1  0.50453561  0.62150255  0.56409926  1
  Pr3+  Pr45  1  0.87545488  -0.00627028  0.43483333  1
  Pr3+  Pr46  1  0.00253953  0.87563049  0.56928858  1
  Pr3+  Pr47  1  0.49941251  0.86667189  0.54268156  1
  Pr3+  Pr48  1  0.49143750  0.11580347  0.55760063  1
  Pr3+  Pr49  1  0.11566897  0.25005012  0.42990470  1
  Nd3+  Nd50  1  0.75347749  0.37555541  0.04412600  1
  Nd3+  Nd51  1  0.74623936  0.86959208  0.55827177  1
  Nd3+  Nd52  1  0.24596938  0.37114534  0.06394370  1
  Nd3+  Nd53  1  0.50394277  0.12853554  0.06365961  1
  Nd3+  Nd54  1  0.24832199  0.62582910  0.06783916  1
  Nd3+  Nd55  1  0.62134480  0.74957298  0.94127661  1
  Nd3+  Nd56  1  0.75271425  0.61816923  0.56051475  1
  Nd3+  Nd57  1  -0.01280933  0.37750330  0.06366115  1
  Sm3+  Sm58  1  0.37596845  0.49788774  0.94552403  1
  Sm3+  Sm59  1  0.12712411  0.75230028  0.95059114  1
  Sm3+  Sm60  1  0.25277565  0.86951044  0.55042407  1
  Sm3+  Sm61  1  0.87490776  0.00019539  0.93852827  1
  Sm3+  Sm62  1  0.63136191  0.49552340  0.44172142  1
  Sm3+  Sm63  1  0.61587181  -0.00079234  0.93422165  1
  Bi2+  Bi64  1  -0.01435076  0.12561261  0.30413733  1
  Bi2+  Bi65  1  0.00567131  0.06971700  0.77782892  1
  Bi2+  Bi66  1  -0.01568381  0.34214748  0.26994696  1
  Bi2+  Bi67  1  -0.00734654  0.37113676  0.79932852  1
  Bi2+  Bi68  1  -0.05221932  0.58974396  0.31257861  1
  Bi2+  Bi69  1  0.02112608  0.63907272  0.79305256  1
  Bi2+  Bi70  1  0.04143529  0.80877844  0.27839432  1
  Bi2+  Bi71  1  0.02860901  0.88468719  0.81203406  1
  Bi2+  Bi72  1  0.28769197  0.11131070  0.29774181  1
  Bi2+  Bi73  1  0.22734933  0.16136395  0.80728487  1
  Bi2+  Bi74  1  0.19341807  0.38374931  0.29325109  1
  Bi2+  Bi75  1  0.26706976  0.39976188  0.79504070  1
  Bi2+  Bi76  1  0.21181506  0.57555461  0.31013541  1
  Bi2+  Bi77  1  0.26272050  0.66344722  0.79417954  1
  Bi2+  Bi78  1  0.23720295  0.81451648  0.28609399  1
  Bi2+  Bi79  1  0.20294057  0.97367408  0.76218151  1
  Bi2+  Bi80  1  0.52658297  0.16452891  0.25877272  1
  Bi2+  Bi81  1  0.50553571  0.10953332  0.79451102  1
  Bi2+  Bi82  1  0.48203274  0.40035808  0.29478464  1
  Bi2+  Bi83  1  0.46358616  0.38774576  0.78944432  1
  Bi2+  Bi84  1  0.48510903  0.66308830  0.29265828  1
  Bi2+  Bi85  1  0.50901947  0.62792760  0.78787079  1
  Bi2+  Bi86  1  0.62072674  0.89896492  0.24459736  1
  Bi2+  Bi87  1  0.48638129  0.83394002  0.78135423  1
  Bi2+  Bi88  1  0.79598531  0.16091947  0.32898431  1
  Bi2+  Bi89  1  0.77149560  0.05356847  0.78683834  1
  Bi2+  Bi90  1  0.67174002  0.33521426  0.30691793  1
  Bi2+  Bi91  1  0.71721155  0.39615541  0.78955970  1
  Bi2+  Bi92  1  0.72942034  0.59731074  0.29045503  1
  Bi2+  Bi93  1  0.69154481  0.66761633  0.75475768  1
  Bi2+  Bi94  1  0.82873252  0.97011943  0.30110628  1
  Bi2+  Bi95  1  0.83510429  0.87558512  0.82291447  1
  Bi2+  Bi96  1  0.11746207  -0.04032968  0.20743910  1
  Bi2+  Bi97  1  0.07429633  0.01448366  0.66909995  1
  Bi2+  Bi98  1  0.13138434  0.22509628  0.21208096  1
  Bi2+  Bi99  1  0.17848154  0.20192727  0.69714300  1
  Bi2+  Bi100  1  0.09903156  0.47335812  0.20728557  1
  Bi2+  Bi101  1  0.18140003  0.53119612  0.72284220  1
  Bi2+  Bi102  1  0.13401376  0.66937204  0.21943299  1
  Bi2+  Bi103  1  0.10243299  0.83107253  0.70980314  1
  Bi2+  Bi104  1  0.40312173  -0.00523090  0.21581267  1
  Bi2+  Bi105  1  0.40114939  0.00639949  0.68988238  1
  Bi2+  Bi106  1  0.38963318  0.30065259  0.21252697  1
  Bi2+  Bi107  1  0.36141581  0.26087831  0.72335818  1
  Bi2+  Bi108  1  0.33508582  0.48680035  0.23332291  1
  Bi2+  Bi109  1  0.35429034  0.45412099  0.69003122  1
  Bi2+  Bi110  1  0.38474768  0.76084623  0.19232904  1
  Bi2+  Bi111  1  0.34227199  0.75712175  0.70175397  1
  Bi2+  Bi112  1  0.68400532  0.11842356  0.19261199  1
  Bi2+  Bi113  1  0.67298836  -0.08911606  0.73309871  1
  Bi2+  Bi114  1  0.57610881  0.26911078  0.16275342  1
  Bi2+  Bi115  1  0.59787446  0.22427051  0.71176973  1
  Bi2+  Bi116  1  0.61852217  0.44547909  0.21479927  1
  Bi2+  Bi117  1  0.54644649  0.49977083  0.70426214  1
  Bi2+  Bi118  1  0.69211853  0.73892210  0.19809938  1
  Bi2+  Bi119  1  0.59839004  0.75860267  0.67057868  1
  Bi2+  Bi120  1  0.87595790  -0.00180908  0.19279471  1
  Bi2+  Bi121  1  0.88233654  -0.00163200  0.69457221  1
  Bi2+  Bi122  1  0.81090159  0.26393572  0.23240481  1
  Bi2+  Bi123  1  0.86801815  0.25781881  0.71259051  1
  Bi2+  Bi124  1  0.86343350  0.50324334  0.19838616  1
  Bi2+  Bi125  1  0.87247782  0.52167229  0.71127799  1
  Bi2+  Bi126  1  0.85356811  0.76304551  0.26063518  1
  Bi2+  Bi127  1  0.83443780  0.79562941  0.71613432  1
  S2-  S128  1  0.02997880  0.09456864  0.17457389  1
  S2-  S129  1  -0.01810845  0.20305192  0.64548719  1
  S2-  S130  1  0.04056450  0.33063220  0.15836768  1
  S2-  S131  1  -0.02719621  0.38829343  0.69378616  1
  S2-  S132  1  -0.01163063  0.60846881  0.16642101  1
  S2-  S133  1  0.02328384  0.58563413  0.68879887  1
  S2-  S134  1  -0.01714364  0.87177859  0.15895607  1
  S2-  S135  1  -0.02677007  0.77643348  0.65219395  1
  S2-  S136  1  0.22629840  0.07904243  0.19478183  1
  S2-  S137  1  0.31721503  0.11974519  0.64064469  1
  S2-  S138  1  0.25684609  0.27736848  0.14847103  1
  S2-  S139  1  0.16702577  0.33948847  0.64482800  1
  S2-  S140  1  0.33159536  0.61967203  0.15538924  1
  S2-  S141  1  0.20407614  0.67904417  0.66439378  1
  S2-  S142  1  0.24880936  0.86770753  0.16267529  1
  S2-  S143  1  0.28683931  0.89605397  0.64673803  1
  S2-  S144  1  0.41057527  0.10454576  0.14661473  1
  S2-  S145  1  0.53621153  0.10634629  0.65690172  1
  S2-  S146  1  0.50693191  0.47553561  0.14143203  1
  S2-  S147  1  0.57440906  0.35738543  0.64365179  1
  S2-  S148  1  0.52696746  0.68906610  0.17424521  1
  S2-  S149  1  0.40011378  0.64098946  0.64439369  1
  S2-  S150  1  0.50233694  0.90358543  0.15956388  1
  S2-  S151  1  0.49863632  0.88750360  0.64395645  1
  S2-  S152  1  0.84420974  0.15176474  0.14237313  1
  S2-  S153  1  0.73736008  0.21114626  0.65293465  1
  S2-  S154  1  0.84634593  0.39274570  0.12866530  1
  S2-  S155  1  0.76938201  0.40138456  0.68745165  1
  S2-  S156  1  0.75724505  0.60596858  0.14669062  1
  S2-  S157  1  0.77512270  0.63781482  0.66021989  1
  S2-  S158  1  0.74079949  0.89855213  0.15661370  1
  S2-  S159  1  0.73622212  0.97574645  0.63894352  1
  S2-  S160  1  0.23533765  -0.03613258  0.34307836  1
  S2-  S161  1  0.21834862  0.01245871  0.86546756  1
  S2-  S162  1  0.13292979  0.14450259  0.34551503  1
  S2-  S163  1  0.07813362  0.25092453  0.84315728  1
  S2-  S164  1  0.02985535  0.49875634  0.37595042  1
  S2-  S165  1  0.05465195  0.50260590  0.85519481  1
  S2-  S166  1  0.01496789  0.72500215  0.37036716  1
  S2-  S167  1  0.12860354  0.73477029  0.85146535  1
  S2-  S168  1  0.43134492  0.02598189  0.32138005  1
  S2-  S169  1  0.48199380  -0.02670996  0.84625455  1
  S2-  S170  1  0.35523574  0.24609006  0.33337087  1
  S2-  S171  1  0.37822009  0.16629203  0.85900775  1
  S2-  S172  1  0.36856299  0.59054754  0.35982522  1
  S2-  S173  1  0.33073542  0.53760055  0.85309906  1
  S2-  S174  1  0.38048841  0.79298603  0.32633259  1
  S2-  S175  1  0.35327394  0.79079800  0.83828298  1
  S2-  S176  1  0.66326234  -0.03422880  0.32951624  1
  S2-  S177  1  0.64210469  0.09891497  0.85443329  1
  S2-  S178  1  0.61156491  0.17606231  0.34373374  1
  S2-  S179  1  0.59065824  0.29037926  0.82435837  1
  S2-  S180  1  0.60407676  0.58277323  0.35606168  1
  S2-  S181  1  0.62173463  0.51780493  0.83879516  1
  S2-  S182  1  0.58736564  0.77914168  0.31335661  1
  S2-  S183  1  0.60687114  0.75050260  0.84069715  1
  S2-  S184  1  0.98732952  -0.02353566  0.35389932  1
  S2-  S185  1  0.89522345  0.09715320  0.85779316  1
  S2-  S186  1  0.97113391  0.28094062  0.36564480  1
  S2-  S187  1  0.84198613  0.28452744  0.81972297  1
  S2-  S188  1  0.81865102  0.49390494  0.34602129  1
  S2-  S189  1  0.84943293  0.48084093  0.81375350  1
  S2-  S190  1  0.78846386  0.73669933  0.35420344  1
  S2-  S191  1  0.89514010  0.66375988  0.84925595  1
  S2-  S192  1  -0.00242941  0.12052218  0.45526839  1
  S2-  S193  1  0.00368973  0.12026714  0.96102541  1
  S2-  S194  1  0.00328860  0.36893501  0.47787463  1
  S2-  S195  1  -0.00002321  0.37418677  0.95396205  1
  S2-  S196  1  -0.00142641  0.61989057  0.47950228  1
  S2-  S197  1  0.00629796  0.63173026  0.95849494  1
  S2-  S198  1  0.00100151  0.86963576  0.46203084  1
  S2-  S199  1  0.00482984  0.87842792  0.95491088  1
  S2-  S200  1  0.25291082  0.12216579  0.44500839  1
  S2-  S201  1  0.25121452  0.13017439  0.97064562  1
  S2-  S202  1  0.24746999  0.37275425  0.44914833  1
  S2-  S203  1  0.25093369  0.37598985  0.95563102  1
  S2-  S204  1  0.24563036  0.61772718  0.46402622  1
  S2-  S205  1  0.24773860  0.62513322  0.96077739  1
  S2-  S206  1  0.24569096  0.85929206  0.44652780  1
  S2-  S207  1  0.25144121  0.87192304  0.95715307  1
  S2-  S208  1  0.49635265  0.12041249  0.44776307  1
  S2-  S209  1  0.50032212  0.12385431  0.95787753  1
  S2-  S210  1  0.50280399  0.37447166  0.44642417  1
  S2-  S211  1  0.49949928  0.37505894  0.94907361  1
  S2-  S212  1  0.50343782  0.61717449  0.45838449  1
  S2-  S213  1  0.49939708  0.62103021  0.95458352  1
  S2-  S214  1  0.50304108  0.86640428  0.43553464  1
  S2-  S215  1  0.49805865  0.87334777  0.95343897  1
  S2-  S216  1  0.75036862  0.11803774  0.45557921  1
  S2-  S217  1  0.75171825  0.11968421  0.95350201  1
  S2-  S218  1  0.75052660  0.37061200  0.45754773  1
  S2-  S219  1  0.75337105  0.37260478  0.93746817  1
  S2-  S220  1  0.75494145  0.61465916  0.45607094  1
  S2-  S221  1  0.74840247  0.62814303  0.94263651  1
  S2-  S222  1  0.74842954  0.87191103  0.45153092  1
  S2-  S223  1  0.74418221  0.87883217  0.95040984  1
  S2-  S224  1  0.12775281  0.00333131  0.05832106  1
  S2-  S225  1  0.12913918  -0.00721181  0.53674140  1
  S2-  S226  1  0.11927086  0.25080346  0.04979525  1
  S2-  S227  1  0.12947598  0.23769101  0.53914696  1
  S2-  S228  1  0.12359740  0.49860519  0.05449012  1
  S2-  S229  1  0.12870276  0.50051230  0.56445037  1
  S2-  S230  1  0.12464675  0.75080984  0.05683388  1
  S2-  S231  1  0.12832171  0.74968136  0.55387538  1
  S2-  S232  1  0.37600229  -0.00108689  0.04306258  1
  S2-  S233  1  0.37372825  -0.00918568  0.52800307  1
  S2-  S234  1  0.38142720  0.25558974  0.04944901  1
  S2-  S235  1  0.37437461  0.24835210  0.54256337  1
  S2-  S236  1  0.36811125  0.49693779  0.04864741  1
  S2-  S237  1  0.37803816  0.49155026  0.54727758  1
  S2-  S238  1  0.37488557  0.74767361  0.04723685  1
  S2-  S239  1  0.37490876  0.74591356  0.53717974  1
  S2-  S240  1  0.62254943  0.00069150  0.04377895  1
  S2-  S241  1  0.61883065  -0.00584804  0.53534929  1
  S2-  S242  1  0.62846884  0.25190927  0.03479739  1
  S2-  S243  1  0.61961681  0.23863781  0.54136197  1
  S2-  S244  1  0.62929984  0.50033445  0.04182733  1
  S2-  S245  1  0.62762296  0.49472096  0.54754938  1
  S2-  S246  1  0.62148437  0.74916925  0.04868070  1
  S2-  S247  1  0.62820460  0.74340658  0.53794859  1
  S2-  S248  1  0.87319766  -0.00109777  0.04458745  1
  S2-  S249  1  0.87750418  -0.00624765  0.54318618  1
  S2-  S250  1  0.87382251  0.24959121  0.03138245  1
  S2-  S251  1  0.86787706  0.24350668  0.54962669  1
  S2-  S252  1  0.87383135  0.50682194  0.02801076  1
  S2-  S253  1  0.87280303  0.48999698  0.56348227  1
  S2-  S254  1  0.87311441  0.75394233  0.04527743  1
  S2-  S255  1  0.86947002  0.74834713  0.54818207  1
