# generated using pymatgen
data_La9Ce10Pr6Nd4Sm3(BiS2)32
_symmetry_space_group_name_H-M   'P 1'
_cell_length_a   16.24295830
_cell_length_b   16.25162583
_cell_length_c   27.14550428
_cell_angle_alpha   89.92704278
_cell_angle_beta   90.10434572
_cell_angle_gamma   89.99744972
_symmetry_Int_Tables_number   1
_chemical_formula_structural   La9Ce10Pr6Nd4Sm3(BiS2)32
_chemical_formula_sum   'La18 Ce20 Pr12 Nd8 Sm6 Bi64 S128'
_cell_volume   7165.70269454
_cell_formula_units_Z   2
loop_
 _symmetry_equiv_pos_site_id
 _symmetry_equiv_pos_as_xyz
  1  'x, y, z'
loop_
 _atom_type_symbol
 _atom_type_oxidation_number
  La3+  3.0
  Ce3+  3.0
  Pr3+  3.0
  Nd3+  3.0
  Sm3+  3.0
  Bi2+  2.0
  S2-  -2.0
loop_
 _atom_site_type_symbol
 _atom_site_label
 _atom_site_symmetry_multiplicity
 _atom_site_fract_x
 _atom_site_fract_y
 _atom_site_fract_z
 _atom_site_occupancy
  La3+  La0  1  0.86865388  0.25015044  0.91352848  1
  La3+  La1  1  0.12016405  0.24466480  0.90448796  1
  La3+  La2  1  0.00413938  0.10852705  0.57990041  1
  La3+  La3  1  0.36828067  0.25003271  0.93506171  1
  La3+  La4  1  0.24648809  0.13062479  0.06629985  1
  La3+  La5  1  0.37907889  -0.00512708  0.44068201  1
  La3+  La6  1  0.37105967  0.49194810  0.42714825  1
  La3+  La7  1  0.73036518  0.87991520  0.09764168  1
  La3+  La8  1  0.11567371  0.75685860  0.93601083  1
  La3+  La9  1  0.12241862  0.50836082  0.92434219  1
  La3+  La10  1  0.61837376  0.50574636  0.93220597  1
  La3+  La11  1  0.86414564  0.50979726  0.91501933  1
  La3+  La12  1  0.62225443  0.00780257  0.93244950  1
  La3+  La13  1  0.75601337  0.13820039  0.06966744  1
  La3+  La14  1  0.38706985  0.74112568  0.41499948  1
  La3+  La15  1  0.13069666  0.74699413  0.42906667  1
  La3+  La16  1  0.49404541  0.37792527  0.06163547  1
  La3+  La17  1  0.61470349  0.76191037  0.91337642  1
  Ce3+  Ce18  1  0.63363181  0.49520182  0.43946152  1
  Ce3+  Ce19  1  -0.01009764  0.87731569  0.06866577  1
  Ce3+  Ce20  1  0.25836165  0.86518423  0.55790057  1
  Ce3+  Ce21  1  0.25828306  0.11910829  0.56934679  1
  Ce3+  Ce22  1  0.75737137  0.37016875  0.55921965  1
  Ce3+  Ce23  1  0.50215649  0.37345613  0.55865565  1
  Ce3+  Ce24  1  0.24603740  0.63095183  0.05489972  1
  Ce3+  Ce25  1  0.63264673  -0.00749482  0.44061508  1
  Ce3+  Ce26  1  0.24439673  0.87606573  0.05613661  1
  Ce3+  Ce27  1  0.63074484  0.24675782  0.44771866  1
  Ce3+  Ce28  1  0.12951247  -0.00115794  0.44779008  1
  Ce3+  Ce29  1  0.36872716  0.50361346  0.93901323  1
  Ce3+  Ce30  1  0.88516020  0.73990375  0.42723327  1
  Ce3+  Ce31  1  0.13120871  0.49110172  0.44687246  1
  Ce3+  Ce32  1  -0.00484631  0.38010895  0.04560574  1
  Ce3+  Ce33  1  -0.00624707  0.13152232  0.05326051  1
  Ce3+  Ce34  1  0.25762548  0.62241934  0.55714966  1
  Ce3+  Ce35  1  0.36795109  0.00325656  0.94719989  1
  Ce3+  Ce36  1  0.26484698  0.37245608  0.57215839  1
  Ce3+  Ce37  1  0.50315318  0.12349395  0.05830654  1
  Pr3+  Pr38  1  0.50681752  0.11923017  0.55917312  1
  Pr3+  Pr39  1  0.88070267  -0.00320058  0.43339929  1
  Pr3+  Pr40  1  0.75567009  0.86561146  0.55652438  1
  Pr3+  Pr41  1  0.64080040  0.73415360  0.41432355  1
  Pr3+  Pr42  1  0.50733196  0.86546328  0.55732435  1
  Pr3+  Pr43  1  0.86994728  0.75567344  0.93087152  1
  Pr3+  Pr44  1  0.00829097  0.62143270  0.56762571  1
  Pr3+  Pr45  1  0.01421797  0.37035149  0.57687485  1
  Pr3+  Pr46  1  0.75708667  0.11991628  0.56013316  1
  Pr3+  Pr47  1  0.61972071  0.25333086  0.93184859  1
  Pr3+  Pr48  1  -0.00680251  0.62935241  0.05919538  1
  Pr3+  Pr49  1  0.86955072  0.00326303  0.94203046  1
  Nd3+  Nd50  1  0.37861183  0.24350051  0.44265472  1
  Nd3+  Nd51  1  0.24144101  0.38103069  0.05152631  1
  Nd3+  Nd52  1  0.36991352  0.75514590  0.93238468  1
  Nd3+  Nd53  1  0.11797647  0.00369364  0.93856927  1
  Nd3+  Nd54  1  0.75384039  0.61833917  0.56509210  1
  Nd3+  Nd55  1  0.74730105  0.38101842  0.05366970  1
  Nd3+  Nd56  1  0.00495280  0.86590296  0.56070148  1
  Nd3+  Nd57  1  0.88430404  0.49391450  0.44740577  1
  Sm3+  Sm58  1  0.12921811  0.24286330  0.45507114  1
  Sm3+  Sm59  1  0.50604472  0.62104741  0.55374050  1
  Sm3+  Sm60  1  0.88332857  0.24490021  0.45055950  1
  Sm3+  Sm61  1  0.74387416  0.63493259  0.05252803  1
  Sm3+  Sm62  1  0.49788305  0.63250420  0.05420071  1
  Sm3+  Sm63  1  0.49661075  0.87524969  0.05683935  1
  Bi2+  Bi64  1  0.00983433  0.17423507  0.29030614  1
  Bi2+  Bi65  1  -0.00569876  0.07319264  0.80412589  1
  Bi2+  Bi66  1  -0.08338231  0.38084434  0.30869073  1
  Bi2+  Bi67  1  0.01178295  0.37373985  0.78210345  1
  Bi2+  Bi68  1  0.02146311  0.63997363  0.27135839  1
  Bi2+  Bi69  1  0.01914997  0.63952269  0.77869159  1
  Bi2+  Bi70  1  -0.00378973  0.86715353  0.27692188  1
  Bi2+  Bi71  1  -0.00277476  0.88834252  0.85178179  1
  Bi2+  Bi72  1  0.25977005  0.11772155  0.31424378  1
  Bi2+  Bi73  1  0.24112987  0.05913914  0.76447239  1
  Bi2+  Bi74  1  0.23009052  0.34844250  0.29251098  1
  Bi2+  Bi75  1  0.31119748  0.36857145  0.77359280  1
  Bi2+  Bi76  1  0.24977067  0.61635965  0.29651996  1
  Bi2+  Bi77  1  0.28311246  0.68093507  0.78736327  1
  Bi2+  Bi78  1  0.23291445  0.87893339  0.27645976  1
  Bi2+  Bi79  1  0.25703337  0.87196414  0.80499363  1
  Bi2+  Bi80  1  0.50391416  0.19766877  0.28838848  1
  Bi2+  Bi81  1  0.48354107  0.13832041  0.78857405  1
  Bi2+  Bi82  1  0.50208084  0.39120728  0.26745754  1
  Bi2+  Bi83  1  0.55362561  0.39898448  0.81590958  1
  Bi2+  Bi84  1  0.52014355  0.64096993  0.28238473  1
  Bi2+  Bi85  1  0.57250304  0.60423158  0.80634826  1
  Bi2+  Bi86  1  0.45240334  0.89156742  0.27396676  1
  Bi2+  Bi87  1  0.45425013  0.88881023  0.80421070  1
  Bi2+  Bi88  1  0.70356950  0.12731765  0.28207080  1
  Bi2+  Bi89  1  0.73050462  0.09880733  0.77982258  1
  Bi2+  Bi90  1  0.71910285  0.38404556  0.29313604  1
  Bi2+  Bi91  1  0.71593978  0.28968323  0.80901484  1
  Bi2+  Bi92  1  0.77262038  0.60664276  0.29054667  1
  Bi2+  Bi93  1  0.78126803  0.62569389  0.77071045  1
  Bi2+  Bi94  1  0.74998480  0.88840769  0.29135193  1
  Bi2+  Bi95  1  0.85290913  0.86991808  0.77447238  1
  Bi2+  Bi96  1  0.10164255  0.01878337  0.24816710  1
  Bi2+  Bi97  1  0.09521876  -0.07146146  0.74605678  1
  Bi2+  Bi98  1  0.10275929  0.27791697  0.21068261  1
  Bi2+  Bi99  1  0.11156815  0.25653017  0.70876318  1
  Bi2+  Bi100  1  0.09004853  0.46520861  0.24425368  1
  Bi2+  Bi101  1  0.15067585  0.52979738  0.70750862  1
  Bi2+  Bi102  1  0.16839685  0.73805328  0.20370982  1
  Bi2+  Bi103  1  0.16891588  0.74832631  0.68806697  1
  Bi2+  Bi104  1  0.35480562  0.03320525  0.22037558  1
  Bi2+  Bi105  1  0.41153075  0.00962833  0.71168828  1
  Bi2+  Bi106  1  0.36549618  0.24453969  0.20068737  1
  Bi2+  Bi107  1  0.37911981  0.24051823  0.69134741  1
  Bi2+  Bi108  1  0.29071270  0.48750386  0.21742133  1
  Bi2+  Bi109  1  0.41650326  0.52562929  0.75199284  1
  Bi2+  Bi110  1  0.37270328  0.75306187  0.20691072  1
  Bi2+  Bi111  1  0.37422352  0.78953908  0.70535585  1
  Bi2+  Bi112  1  0.57912739  0.01683082  0.21338664  1
  Bi2+  Bi113  1  0.66653930  -0.07710286  0.75329678  1
  Bi2+  Bi114  1  0.62739805  0.27960117  0.20570936  1
  Bi2+  Bi115  1  0.56795782  0.28706925  0.72058510  1
  Bi2+  Bi116  1  0.63551499  0.50662992  0.20890147  1
  Bi2+  Bi117  1  0.59578870  0.48116939  0.70718575  1
  Bi2+  Bi118  1  0.61194399  0.74090899  0.20551039  1
  Bi2+  Bi119  1  0.62436519  0.74583945  0.68368487  1
  Bi2+  Bi120  1  0.83846365  0.05466124  0.21735996  1
  Bi2+  Bi121  1  0.85870606  0.00436901  0.69076392  1
  Bi2+  Bi122  1  0.90172239  0.28733197  0.19398918  1
  Bi2+  Bi123  1  0.85057610  0.23537275  0.71313478  1
  Bi2+  Bi124  1  0.82724319  0.47578933  0.20888290  1
  Bi2+  Bi125  1  0.80829138  0.41932513  0.74124479  1
  Bi2+  Bi126  1  0.89448074  0.73888753  0.19792069  1
  Bi2+  Bi127  1  0.97668894  0.77387341  0.69660032  1
  S2-  S128  1  -0.08036311  0.13380473  0.14137261  1
  S2-  S129  1  -0.00974198  0.15544988  0.67868129  1
  S2-  S130  1  0.02337364  0.38799790  0.14403864  1
  S2-  S131  1  -0.02275002  0.36105809  0.67636319  1
  S2-  S132  1  -0.01735114  0.62181685  0.16093780  1
  S2-  S133  1  -0.00144859  0.59959095  0.66889513  1
  S2-  S134  1  0.01435568  0.85255463  0.16538474  1
  S2-  S135  1  -0.00290045  0.96154357  0.64423745  1
  S2-  S136  1  0.24675547  0.12858087  0.16758172  1
  S2-  S137  1  0.22779647  0.14106930  0.66663454  1
  S2-  S138  1  0.29023436  0.35528614  0.14659754  1
  S2-  S139  1  0.17640580  0.38931448  0.65705287  1
  S2-  S140  1  0.21986033  0.60262571  0.15011354  1
  S2-  S141  1  0.26719057  0.60222114  0.65527268  1
  S2-  S142  1  0.26404455  0.86269966  0.15263718  1
  S2-  S143  1  0.25487694  0.88643118  0.65498734  1
  S2-  S144  1  0.48302970  0.13304805  0.15562682  1
  S2-  S145  1  0.50588500  0.12051398  0.65987596  1
  S2-  S146  1  0.51719220  0.40574150  0.16002859  1
  S2-  S147  1  0.39989367  0.38276178  0.63821402  1
  S2-  S148  1  0.48327035  0.65543450  0.15259676  1
  S2-  S149  1  0.52391766  0.63160036  0.65250857  1
  S2-  S150  1  0.57301159  0.87509867  0.14654186  1
  S2-  S151  1  0.50326291  0.87303129  0.65839107  1
  S2-  S152  1  0.70403208  0.04802507  0.15074160  1
  S2-  S153  1  0.74854772  0.13691290  0.66037342  1
  S2-  S154  1  0.75306647  0.28218942  0.13649122  1
  S2-  S155  1  0.73107074  0.40698698  0.65269698  1
  S2-  S156  1  0.73743334  0.71080395  0.14251626  1
  S2-  S157  1  0.75096441  0.64931956  0.66432846  1
  S2-  S158  1  0.80898826  0.89648339  0.19113868  1
  S2-  S159  1  0.73767838  0.88074850  0.65674418  1
  S2-  S160  1  0.15354352  -0.00945661  0.35128406  1
  S2-  S161  1  0.15178119  0.08929127  0.85123558  1
  S2-  S162  1  0.13906899  0.23270645  0.35634889  1
  S2-  S163  1  0.17736686  0.29855107  0.80779048  1
  S2-  S164  1  0.22002109  0.47926023  0.36306246  1
  S2-  S165  1  0.08558299  0.49799142  0.82497173  1
  S2-  S166  1  0.01076787  0.74799893  0.35208230  1
  S2-  S167  1  0.14107388  0.69428401  0.84207951  1
  S2-  S168  1  0.39210380  0.01561694  0.34091238  1
  S2-  S169  1  0.39031380  0.03777400  0.85319075  1
  S2-  S170  1  0.36347691  0.25373478  0.34343174  1
  S2-  S171  1  0.39839694  0.26369276  0.83624493  1
  S2-  S172  1  0.39607131  0.60007335  0.34806291  1
  S2-  S173  1  0.32624233  0.50725323  0.84421827  1
  S2-  S174  1  0.24733313  0.76017338  0.35120364  1
  S2-  S175  1  0.46865302  0.73533690  0.85033119  1
  S2-  S176  1  0.65286985  -0.01080577  0.34276805  1
  S2-  S177  1  0.60658726  -0.08995232  0.84750571  1
  S2-  S178  1  0.63893918  0.24984340  0.35055885  1
  S2-  S179  1  0.61080056  0.13309095  0.85682440  1
  S2-  S180  1  0.63920674  0.58141673  0.35439317  1
  S2-  S181  1  0.71518162  0.52631872  0.84813918  1
  S2-  S182  1  0.51925804  0.77466465  0.34482707  1
  S2-  S183  1  0.69416935  0.73018123  0.81981371  1
  S2-  S184  1  0.88974564  -0.04180279  0.33387045  1
  S2-  S185  1  0.84262875  0.09199262  0.85423886  1
  S2-  S186  1  0.88542604  0.22316710  0.35298350  1
  S2-  S187  1  0.98799018  0.22797385  0.83652779  1
  S2-  S188  1  0.90011145  0.54211142  0.35214038  1
  S2-  S189  1  0.87338015  0.38982490  0.84153915  1
  S2-  S190  1  0.77660016  0.75098675  0.34739367  1
  S2-  S191  1  0.89432695  0.64582241  0.84812644  1
  S2-  S192  1  0.00423787  0.12045598  0.46280563  1
  S2-  S193  1  -0.00166682  0.12812696  0.95085177  1
  S2-  S194  1  0.00698540  0.36686572  0.46317486  1
  S2-  S195  1  0.00134721  0.37924673  0.94084964  1
  S2-  S196  1  0.00936409  0.61703692  0.45953568  1
  S2-  S197  1  -0.00496431  0.62855491  0.95200031  1
  S2-  S198  1  0.00442624  0.87360902  0.45476503  1
  S2-  S199  1  -0.00592726  0.87980846  0.96393344  1
  S2-  S200  1  0.25501421  0.12165756  0.46095115  1
  S2-  S201  1  0.24265388  0.12886595  0.95767742  1
  S2-  S202  1  0.25371744  0.36246944  0.46388653  1
  S2-  S203  1  0.24104001  0.37429601  0.94411814  1
  S2-  S204  1  0.25297055  0.62215356  0.45367465  1
  S2-  S205  1  0.24754976  0.63163016  0.94927924  1
  S2-  S206  1  0.25542016  0.87233527  0.45314372  1
  S2-  S207  1  0.24415200  0.87910528  0.94937909  1
  S2-  S208  1  0.50718078  0.12085077  0.45095524  1
  S2-  S209  1  0.49175787  0.12877008  0.95574679  1
  S2-  S210  1  0.50308484  0.37091334  0.44885369  1
  S2-  S211  1  0.49312934  0.37870477  0.95232607  1
  S2-  S212  1  0.50917994  0.61800660  0.45100377  1
  S2-  S213  1  0.49182789  0.62674935  0.95095200  1
  S2-  S214  1  0.50678309  0.87083952  0.45076955  1
  S2-  S215  1  0.48993597  0.87999233  0.95361182  1
  S2-  S216  1  0.75691970  0.12208163  0.45286454  1
  S2-  S217  1  0.74574221  0.13307875  0.95997415  1
  S2-  S218  1  0.75994229  0.36938836  0.45227801  1
  S2-  S219  1  0.74257149  0.37864145  0.94867878  1
  S2-  S220  1  0.76146225  0.61706620  0.45788086  1
  S2-  S221  1  0.74157212  0.63694998  0.95017532  1
  S2-  S222  1  0.75804629  0.86846830  0.45006776  1
  S2-  S223  1  0.74868670  0.87821228  0.93949648  1
  S2-  S224  1  0.11850017  0.00270629  0.05070714  1
  S2-  S225  1  0.13521951  -0.00782592  0.55236378  1
  S2-  S226  1  0.12048641  0.25432826  0.04798588  1
  S2-  S227  1  0.12996346  0.23993926  0.55918294  1
  S2-  S228  1  0.12077541  0.50654282  0.03702764  1
  S2-  S229  1  0.13257747  0.49676187  0.55138524  1
  S2-  S230  1  0.11818843  0.75401539  0.04657761  1
  S2-  S231  1  0.12984792  0.74551821  0.54502202  1
  S2-  S232  1  0.37223248  0.00044351  0.05442678  1
  S2-  S233  1  0.38250715  -0.00624095  0.54981648  1
  S2-  S234  1  0.37140122  0.25220131  0.04418149  1
  S2-  S235  1  0.38206499  0.24094100  0.54767189  1
  S2-  S236  1  0.37085589  0.50581962  0.04698709  1
  S2-  S237  1  0.38257950  0.50143612  0.53723850  1
  S2-  S238  1  0.37217551  0.75365982  0.04140765  1
  S2-  S239  1  0.38365438  0.74295037  0.54284411  1
  S2-  S240  1  0.62007228  -0.00292984  0.04115705  1
  S2-  S241  1  0.63155104  -0.00579956  0.54847105  1
  S2-  S242  1  0.61808690  0.25536628  0.04139300  1
  S2-  S243  1  0.62918199  0.24770085  0.55420453  1
  S2-  S244  1  0.62187341  0.50792026  0.04449088  1
  S2-  S245  1  0.62898999  0.49632535  0.54630613  1
  S2-  S246  1  0.61718067  0.75436662  0.03758818  1
  S2-  S247  1  0.63172159  0.74081292  0.54176357  1
  S2-  S248  1  0.86503243  -0.00458148  0.05013670  1
  S2-  S249  1  0.87696740  -0.00707285  0.54179662  1
  S2-  S250  1  0.87586525  0.25921601  0.03080500  1
  S2-  S251  1  0.88440173  0.24526607  0.55641106  1
  S2-  S252  1  0.86588512  0.50760007  0.04232862  1
  S2-  S253  1  0.88365498  0.49448775  0.55570322  1
  S2-  S254  1  0.86877758  0.75504116  0.04311601  1
  S2-  S255  1  0.88100453  0.74209416  0.54748876  1
