# generated using pymatgen
data_La9Ce10Pr6Nd4Sm3(BiS2)32
_symmetry_space_group_name_H-M   'P 1'
_cell_length_a   16.24484839
_cell_length_b   16.23217819
_cell_length_c   27.13198788
_cell_angle_alpha   89.97499223
_cell_angle_beta   90.06262761
_cell_angle_gamma   90.02491299
_symmetry_Int_Tables_number   1
_chemical_formula_structural   La9Ce10Pr6Nd4Sm3(BiS2)32
_chemical_formula_sum   'La18 Ce20 Pr12 Nd8 Sm6 Bi64 S128'
_cell_volume   7154.40854846
_cell_formula_units_Z   2
loop_
 _symmetry_equiv_pos_site_id
 _symmetry_equiv_pos_as_xyz
  1  'x, y, z'
loop_
 _atom_type_symbol
 _atom_type_oxidation_number
  La3+  3.0
  Ce3+  3.0
  Pr3+  3.0
  Nd3+  3.0
  Sm3+  3.0
  Bi2+  2.0
  S2-  -2.0
loop_
 _atom_site_type_symbol
 _atom_site_label
 _atom_site_symmetry_multiplicity
 _atom_site_fract_x
 _atom_site_fract_y
 _atom_site_fract_z
 _atom_site_occupancy
  La3+  La0  1  0.11678862  0.75330322  0.92552085  1
  La3+  La1  1  0.87919651  0.25421423  0.43779235  1
  La3+  La2  1  0.87639323  0.50710097  0.44373449  1
  La3+  La3  1  0.13672151  0.50822762  0.90363721  1
  La3+  La4  1  0.36084104  -0.00968643  0.91519926  1
  La3+  La5  1  0.00384749  0.86952527  0.09533589  1
  La3+  La6  1  0.37273262  0.75597064  0.42763082  1
  La3+  La7  1  0.24471161  0.38005747  0.06522473  1
  La3+  La8  1  0.37243258  0.25481986  0.93645818  1
  La3+  La9  1  0.87228592  0.25313547  0.93438893  1
  La3+  La10  1  0.12337981  0.25112714  0.93835373  1
  La3+  La11  1  0.73608253  0.87078253  0.07214790  1
  La3+  La12  1  0.86466940  0.76220834  0.42035374  1
  La3+  La13  1  0.50567194  0.36645587  0.09687619  1
  La3+  La14  1  0.86836654  0.76154710  0.92957743  1
  La3+  La15  1  0.36835621  0.26299062  0.42058980  1
  La3+  La16  1  0.12683620  -0.00322379  0.41230749  1
  La3+  La17  1  -0.00249021  0.37132502  0.60635142  1
  Ce3+  Ce18  1  0.12702136  0.25685623  0.44987382  1
  Ce3+  Ce19  1  -0.00371018  0.12337603  0.06070771  1
  Ce3+  Ce20  1  0.62057865  0.00236076  0.94186336  1
  Ce3+  Ce21  1  0.62563343  0.50178069  0.93978898  1
  Ce3+  Ce22  1  0.62139715  0.25227580  0.94162860  1
  Ce3+  Ce23  1  0.00114961  0.12914334  0.55876062  1
  Ce3+  Ce24  1  0.24731720  0.87834401  0.05960861  1
  Ce3+  Ce25  1  0.75238350  0.37786825  0.56288166  1
  Ce3+  Ce26  1  0.49693971  0.87857483  0.04984772  1
  Ce3+  Ce27  1  0.50033472  0.63068292  0.55569955  1
  Ce3+  Ce28  1  0.62293179  0.25683413  0.43568367  1
  Ce3+  Ce29  1  0.12041032  0.75658311  0.44784001  1
  Ce3+  Ce30  1  0.49819677  0.37995867  0.55506234  1
  Ce3+  Ce31  1  0.62184959  0.00661153  0.44350285  1
  Ce3+  Ce32  1  0.26029354  0.38133664  0.57184967  1
  Ce3+  Ce33  1  0.24896932  0.12546644  0.05851729  1
  Ce3+  Ce34  1  -0.00304592  0.38078737  0.04557553  1
  Ce3+  Ce35  1  0.37249214  0.00439577  0.43591743  1
  Ce3+  Ce36  1  -0.00497564  0.63178494  0.57086213  1
  Ce3+  Ce37  1  0.87543991  0.00326284  0.44255813  1
  Pr3+  Pr38  1  0.24957113  0.88186937  0.56147446  1
  Pr3+  Pr39  1  0.75076267  0.63125370  0.56624835  1
  Pr3+  Pr40  1  0.24639745  0.62898233  0.05717455  1
  Pr3+  Pr41  1  0.74864048  0.62553885  0.05900817  1
  Pr3+  Pr42  1  0.37574776  0.50304908  0.94697374  1
  Pr3+  Pr43  1  0.24926350  0.13259792  0.56035407  1
  Pr3+  Pr44  1  0.12499952  0.50549125  0.45124851  1
  Pr3+  Pr45  1  0.25380045  0.62973823  0.56794141  1
  Pr3+  Pr46  1  0.62455160  0.50488809  0.44037454  1
  Pr3+  Pr47  1  0.75099043  0.13221749  0.55609409  1
  Pr3+  Pr48  1  0.86772199  0.50317463  0.92286406  1
  Pr3+  Pr49  1  0.62227877  0.75149764  0.92747284  1
  Nd3+  Nd50  1  0.49754994  0.88076367  0.56011097  1
  Nd3+  Nd51  1  0.11938423  0.00033569  0.94167668  1
  Nd3+  Nd52  1  0.75053483  0.37571053  0.06425360  1
  Nd3+  Nd53  1  0.49776491  0.13306523  0.54973830  1
  Nd3+  Nd54  1  0.87104958  -0.00110716  0.94800318  1
  Nd3+  Nd55  1  -0.00327752  0.87669406  0.56488351  1
  Nd3+  Nd56  1  0.37130484  0.51060069  0.43279490  1
  Nd3+  Nd57  1  0.49941688  0.62612626  0.06395847  1
  Sm3+  Sm58  1  -0.00425139  0.62920097  0.04939851  1
  Sm3+  Sm59  1  0.49566170  0.12986363  0.05460861  1
  Sm3+  Sm60  1  0.74904866  0.12655000  0.05472259  1
  Sm3+  Sm61  1  0.37257471  0.74897924  0.94112085  1
  Sm3+  Sm62  1  0.62679604  0.75707933  0.44616000  1
  Sm3+  Sm63  1  0.74918570  0.88155778  0.56014632  1
  Bi2+  Bi64  1  -0.07688636  0.13764388  0.29414809  1
  Bi2+  Bi65  1  -0.01214229  0.10126134  0.79270935  1
  Bi2+  Bi66  1  -0.00636017  0.40059102  0.30847353  1
  Bi2+  Bi67  1  -0.00122934  0.34472560  0.80585285  1
  Bi2+  Bi68  1  0.04108371  0.61989331  0.23575936  1
  Bi2+  Bi69  1  0.01776520  0.64664494  0.78150982  1
  Bi2+  Bi70  1  -0.00060232  0.86455445  0.29516056  1
  Bi2+  Bi71  1  -0.00257436  0.90886694  0.79884902  1
  Bi2+  Bi72  1  0.23107717  0.11783651  0.28751891  1
  Bi2+  Bi73  1  0.26186196  0.13915953  0.80061773  1
  Bi2+  Bi74  1  0.25336924  0.35115660  0.30331504  1
  Bi2+  Bi75  1  0.28838641  0.38337356  0.77962104  1
  Bi2+  Bi76  1  0.21302194  0.60562480  0.29930940  1
  Bi2+  Bi77  1  0.32069255  0.64879347  0.80636067  1
  Bi2+  Bi78  1  0.28230643  0.82723084  0.30795633  1
  Bi2+  Bi79  1  0.23459802  0.88620646  0.78169023  1
  Bi2+  Bi80  1  0.50671914  0.06154406  0.27190294  1
  Bi2+  Bi81  1  0.53917020  0.10563758  0.76832475  1
  Bi2+  Bi82  1  0.53193773  0.41185507  0.29503451  1
  Bi2+  Bi83  1  0.52976389  0.38705649  0.78825674  1
  Bi2+  Bi84  1  0.47096045  0.64350628  0.27026663  1
  Bi2+  Bi85  1  0.51406156  0.65257876  0.82515909  1
  Bi2+  Bi86  1  0.45834059  0.89289747  0.32465174  1
  Bi2+  Bi87  1  0.51830430  0.82540759  0.77078997  1
  Bi2+  Bi88  1  0.72702302  0.10359599  0.28073301  1
  Bi2+  Bi89  1  0.73244957  0.08591177  0.78254889  1
  Bi2+  Bi90  1  0.75484220  0.35584692  0.26975122  1
  Bi2+  Bi91  1  0.72548381  0.35875905  0.78356265  1
  Bi2+  Bi92  1  0.78034885  0.62361551  0.29948122  1
  Bi2+  Bi93  1  0.69757812  0.61143550  0.78835998  1
  Bi2+  Bi94  1  0.74567110  0.87965466  0.29305822  1
  Bi2+  Bi95  1  0.72864993  0.87020532  0.79450711  1
  Bi2+  Bi96  1  0.16776780  0.00568738  0.20487549  1
  Bi2+  Bi97  1  0.05130383  -0.03124207  0.68031518  1
  Bi2+  Bi98  1  0.06076105  0.25664212  0.24381730  1
  Bi2+  Bi99  1  0.12755251  0.13472732  0.71639865  1
  Bi2+  Bi100  1  0.12649486  0.44391106  0.21282027  1
  Bi2+  Bi101  1  0.15012332  0.49146054  0.70739492  1
  Bi2+  Bi102  1  0.19284370  0.74234672  0.21851704  1
  Bi2+  Bi103  1  0.10063742  0.78937996  0.72083839  1
  Bi2+  Bi104  1  0.36347968  -0.00846691  0.20698210  1
  Bi2+  Bi105  1  0.38878046  -0.03605459  0.72693774  1
  Bi2+  Bi106  1  0.37203040  0.25259142  0.20757774  1
  Bi2+  Bi107  1  0.36470851  0.24281413  0.68991366  1
  Bi2+  Bi108  1  0.35394227  0.53355531  0.21116577  1
  Bi2+  Bi109  1  0.43046004  0.49909847  0.71700133  1
  Bi2+  Bi110  1  0.39047939  0.79801647  0.20913672  1
  Bi2+  Bi111  1  0.33914262  0.73870488  0.70875798  1
  Bi2+  Bi112  1  0.62463767  -0.02155158  0.19793789  1
  Bi2+  Bi113  1  0.64649342  -0.03129592  0.70378136  1
  Bi2+  Bi114  1  0.64226818  0.22996253  0.20915609  1
  Bi2+  Bi115  1  0.60277184  0.26464689  0.70584592  1
  Bi2+  Bi116  1  0.70216612  0.52038394  0.20944374  1
  Bi2+  Bi117  1  0.62887198  0.48309491  0.70204449  1
  Bi2+  Bi118  1  0.58083320  0.79957219  0.24916627  1
  Bi2+  Bi119  1  0.59395309  0.68504632  0.70409613  1
  Bi2+  Bi120  1  0.87802502  0.02908208  0.20120301  1
  Bi2+  Bi121  1  0.86959911  0.00556127  0.71370000  1
  Bi2+  Bi122  1  0.88797499  0.29243902  0.19426578  1
  Bi2+  Bi123  1  0.85200685  0.23487398  0.70776667  1
  Bi2+  Bi124  1  0.89170187  0.49561201  0.20853632  1
  Bi2+  Bi125  1  0.88744614  0.50461506  0.71880355  1
  Bi2+  Bi126  1  0.85578748  0.74000005  0.19811186  1
  Bi2+  Bi127  1  0.86462565  0.76349607  0.71196212  1
  S2-  S128  1  0.02200628  0.06293357  0.15130406  1
  S2-  S129  1  -0.01468960  0.19627162  0.64826915  1
  S2-  S130  1  -0.00262471  0.39946228  0.14247355  1
  S2-  S131  1  0.02332058  0.36573508  0.71353287  1
  S2-  S132  1  -0.00758727  0.69612619  0.14127815  1
  S2-  S133  1  0.00689825  0.53386100  0.65464613  1
  S2-  S134  1  -0.03610993  0.87997172  0.19848358  1
  S2-  S135  1  -0.01350284  0.75897665  0.64099637  1
  S2-  S136  1  0.26663843  0.13353805  0.15676757  1
  S2-  S137  1  0.27646231  0.11572248  0.66099176  1
  S2-  S138  1  0.25086225  0.35898518  0.16576436  1
  S2-  S139  1  0.21706494  0.35097970  0.66832058  1
  S2-  S140  1  0.23997164  0.60368257  0.15655060  1
  S2-  S141  1  0.21796861  0.63270916  0.66744336  1
  S2-  S142  1  0.16013989  0.86816341  0.14444641  1
  S2-  S143  1  0.28673013  0.88028608  0.66035682  1
  S2-  S144  1  0.50074436  0.20237844  0.14522211  1
  S2-  S145  1  0.49187959  0.16422266  0.64835547  1
  S2-  S146  1  0.45741158  0.38981967  0.19710155  1
  S2-  S147  1  0.40700675  0.39042966  0.63728311  1
  S2-  S148  1  0.48716133  0.60558984  0.16307351  1
  S2-  S149  1  0.44671141  0.63907570  0.64858084  1
  S2-  S150  1  0.57532460  0.85404373  0.13490052  1
  S2-  S151  1  0.50316293  0.91062197  0.65813561  1
  S2-  S152  1  0.76362841  0.14983327  0.15219631  1
  S2-  S153  1  0.73359279  0.18134158  0.65266333  1
  S2-  S154  1  0.65817980  0.38046498  0.14872115  1
  S2-  S155  1  0.83439171  0.37951851  0.65122600  1
  S2-  S156  1  0.72727418  0.67476694  0.15553225  1
  S2-  S157  1  0.81694424  0.62371361  0.66090018  1
  S2-  S158  1  0.77522001  0.90155335  0.16942195  1
  S2-  S159  1  0.75915990  0.84993412  0.65736184  1
  S2-  S160  1  0.04257957  0.02319449  0.32334083  1
  S2-  S161  1  0.20678459  0.00348831  0.85487648  1
  S2-  S162  1  0.15278946  0.23823410  0.35388225  1
  S2-  S163  1  0.12959242  0.23677452  0.83810058  1
  S2-  S164  1  0.14690291  0.47398348  0.35092724  1
  S2-  S165  1  0.13243796  0.44085555  0.80977742  1
  S2-  S166  1  0.12685012  0.83127203  0.35903016  1
  S2-  S167  1  0.15635545  0.65169796  0.84299126  1
  S2-  S168  1  0.27458335  0.00917972  0.35404597  1
  S2-  S169  1  0.40926527  0.05657287  0.82512766  1
  S2-  S170  1  0.36443578  0.21558440  0.31813831  1
  S2-  S171  1  0.36039400  0.26701566  0.83518483  1
  S2-  S172  1  0.38234733  0.40612454  0.35194765  1
  S2-  S173  1  0.31051314  0.49186151  0.85358570  1
  S2-  S174  1  0.36536817  0.62969582  0.35541193  1
  S2-  S175  1  0.33722636  0.82073027  0.85348536  1
  S2-  S176  1  0.65530297  -0.00530934  0.34811195  1
  S2-  S177  1  0.62401086  -0.00225173  0.84420552  1
  S2-  S178  1  0.60771829  0.29015756  0.33954007  1
  S2-  S179  1  0.62665726  0.25985691  0.84397058  1
  S2-  S180  1  0.62297266  0.52265834  0.33929999  1
  S2-  S181  1  0.72590741  0.48702391  0.85845839  1
  S2-  S182  1  0.70580854  0.74958213  0.35895787  1
  S2-  S183  1  0.74671560  0.74190535  0.85436921  1
  S2-  S184  1  0.87039966  -0.08592306  0.35809125  1
  S2-  S185  1  0.85616236  -0.06874314  0.85690670  1
  S2-  S186  1  0.86514399  0.29024398  0.33918020  1
  S2-  S187  1  0.88264313  0.21719632  0.83569432  1
  S2-  S188  1  0.87624102  0.50651850  0.34335672  1
  S2-  S189  1  0.93343864  0.50642087  0.82536715  1
  S2-  S190  1  0.91705554  0.71392061  0.32596333  1
  S2-  S191  1  0.98412777  0.75753639  0.85144139  1
  S2-  S192  1  0.00372674  0.12589087  0.45048586  1
  S2-  S193  1  -0.00407759  0.12421386  0.95190916  1
  S2-  S194  1  0.00123420  0.38012021  0.45155807  1
  S2-  S195  1  0.00008868  0.38197993  0.93967575  1
  S2-  S196  1  -0.00110658  0.63260258  0.45662914  1
  S2-  S197  1  -0.00282514  0.62029488  0.94620812  1
  S2-  S198  1  -0.00094311  0.88188738  0.45913907  1
  S2-  S199  1  -0.00204203  0.88087811  0.95745942  1
  S2-  S200  1  0.24813483  0.12937323  0.45398327  1
  S2-  S201  1  0.24948926  0.12643740  0.95268140  1
  S2-  S202  1  0.25027514  0.38278609  0.46100715  1
  S2-  S203  1  0.24396381  0.38023217  0.95516223  1
  S2-  S204  1  0.24583801  0.63498480  0.45928247  1
  S2-  S205  1  0.25039106  0.62901704  0.95279686  1
  S2-  S206  1  0.25078441  0.87971797  0.45640247  1
  S2-  S207  1  0.24325557  0.87247689  0.95670752  1
  S2-  S208  1  0.49565218  0.13218963  0.44190958  1
  S2-  S209  1  0.49394693  0.12519883  0.94866452  1
  S2-  S210  1  0.49957480  0.38195222  0.45145219  1
  S2-  S211  1  0.49960825  0.37869422  0.94557575  1
  S2-  S212  1  0.50477402  0.63524821  0.45001657  1
  S2-  S213  1  0.49797676  0.62792501  0.95611381  1
  S2-  S214  1  0.50141961  0.87835355  0.45392756  1
  S2-  S215  1  0.49534285  0.87540587  0.94403270  1
  S2-  S216  1  0.74903557  0.13051044  0.44812366  1
  S2-  S217  1  0.74765107  0.12575734  0.94886172  1
  S2-  S218  1  0.74879254  0.37955246  0.45301294  1
  S2-  S219  1  0.74762980  0.37334677  0.95762877  1
  S2-  S220  1  0.74702381  0.62996742  0.45838550  1
  S2-  S221  1  0.74766628  0.62617497  0.95373032  1
  S2-  S222  1  0.74425104  0.88452448  0.45788653  1
  S2-  S223  1  0.73930186  0.87956893  0.96135675  1
  S2-  S224  1  0.12354392  0.00221940  0.04584951  1
  S2-  S225  1  0.12432992  0.00447332  0.55004429  1
  S2-  S226  1  0.12010996  0.25082452  0.04840130  1
  S2-  S227  1  0.12417145  0.25871420  0.55527593  1
  S2-  S228  1  0.11941169  0.50676061  0.04706195  1
  S2-  S229  1  0.12796323  0.50230246  0.55665169  1
  S2-  S230  1  0.12042368  0.75001155  0.03966428  1
  S2-  S231  1  0.12800216  0.75503150  0.55260719  1
  S2-  S232  1  0.37435152  0.00348052  0.04440263  1
  S2-  S233  1  0.37595557  0.00628395  0.54531438  1
  S2-  S234  1  0.37416173  0.25603842  0.04581961  1
  S2-  S235  1  0.37464383  0.25433994  0.53653082  1
  S2-  S236  1  0.37866081  0.49718806  0.05426871  1
  S2-  S237  1  0.37682330  0.51015843  0.53873848  1
  S2-  S238  1  0.37445022  0.75173498  0.04813863  1
  S2-  S239  1  0.37550482  0.75696509  0.54206644  1
  S2-  S240  1  0.62080670  0.00979727  0.04836276  1
  S2-  S241  1  0.62402287  0.00640296  0.55054465  1
  S2-  S242  1  0.62489543  0.24988432  0.04586551  1
  S2-  S243  1  0.62359314  0.25602310  0.54281833  1
  S2-  S244  1  0.62029160  0.49995604  0.04784453  1
  S2-  S245  1  0.62543480  0.50488624  0.54981446  1
  S2-  S246  1  0.62002002  0.74535275  0.03586105  1
  S2-  S247  1  0.62501184  0.75814470  0.55168123  1
  S2-  S248  1  0.87054397  -0.00150408  0.05424785  1
  S2-  S249  1  0.87335571  0.00410222  0.55102040  1
  S2-  S250  1  0.87273432  0.25097072  0.04337046  1
  S2-  S251  1  0.87657173  0.25575845  0.54467339  1
  S2-  S252  1  0.87148385  0.50245835  0.04106434  1
  S2-  S253  1  0.87396861  0.50362318  0.55030124  1
  S2-  S254  1  0.87067620  0.75438437  0.04347526  1
  S2-  S255  1  0.86693051  0.75853082  0.53955510  1
