# generated using pymatgen
data_La9Ce10Pr6Nd4Sm3(BiS2)32
_symmetry_space_group_name_H-M   'P 1'
_cell_length_a   16.25461021
_cell_length_b   16.26069158
_cell_length_c   27.15960803
_cell_angle_alpha   90.15478626
_cell_angle_beta   89.95008202
_cell_angle_gamma   89.94398807
_symmetry_Int_Tables_number   1
_chemical_formula_structural   La9Ce10Pr6Nd4Sm3(BiS2)32
_chemical_formula_sum   'La18 Ce20 Pr12 Nd8 Sm6 Bi64 S128'
_cell_volume   7178.55631419
_cell_formula_units_Z   2
loop_
 _symmetry_equiv_pos_site_id
 _symmetry_equiv_pos_as_xyz
  1  'x, y, z'
loop_
 _atom_type_symbol
 _atom_type_oxidation_number
  La3+  3.0
  Ce3+  3.0
  Pr3+  3.0
  Nd3+  3.0
  Sm3+  3.0
  Bi2+  2.0
  S2-  -2.0
loop_
 _atom_site_type_symbol
 _atom_site_label
 _atom_site_symmetry_multiplicity
 _atom_site_fract_x
 _atom_site_fract_y
 _atom_site_fract_z
 _atom_site_occupancy
  La3+  La0  1  0.77014897  0.38343667  0.08850477  1
  La3+  La1  1  0.13954146  0.24890833  0.93855088  1
  La3+  La2  1  0.49676780  0.86075649  0.60925837  1
  La3+  La3  1  0.74333769  0.62090265  0.56140462  1
  La3+  La4  1  0.49133060  0.12991113  0.58097626  1
  La3+  La5  1  0.89198075  0.49114659  0.93204352  1
  La3+  La6  1  0.76582135  0.11919252  0.07636358  1
  La3+  La7  1  0.61999626  0.50517049  0.40483432  1
  La3+  La8  1  0.51525975  0.11784345  0.06785059  1
  La3+  La9  1  0.64315328  0.74845628  0.91757179  1
  La3+  La10  1  0.61555811  0.23236560  0.41599815  1
  La3+  La11  1  0.75135141  0.62805623  0.06893398  1
  La3+  La12  1  0.14542284  0.49695027  0.93077366  1
  La3+  La13  1  0.24314810  0.87100911  0.57010566  1
  La3+  La14  1  0.88120605  0.24132028  0.41311669  1
  La3+  La15  1  0.26044706  0.37189730  0.07434089  1
  La3+  La16  1  0.75322287  0.14018792  0.57424364  1
  La3+  La17  1  0.12056356  0.74689599  0.43589609  1
  Ce3+  Ce18  1  0.88684743  -0.00051792  0.94135942  1
  Ce3+  Ce19  1  0.38956661  0.00054407  0.93575046  1
  Ce3+  Ce20  1  -0.00210799  0.12865369  0.55598332  1
  Ce3+  Ce21  1  0.01513861  0.37709175  0.06775158  1
  Ce3+  Ce22  1  0.73999737  0.87732535  0.56297038  1
  Ce3+  Ce23  1  0.49987475  0.36824584  0.55049679  1
  Ce3+  Ce24  1  0.24966611  0.12250845  0.55643480  1
  Ce3+  Ce25  1  0.87087017  0.74670357  0.44917786  1
  Ce3+  Ce26  1  0.12282402  -0.00448671  0.44714991  1
  Ce3+  Ce27  1  0.12341326  0.49551806  0.44413720  1
  Ce3+  Ce28  1  0.12462077  0.24573606  0.43811824  1
  Ce3+  Ce29  1  -0.00605537  0.61787745  0.56030691  1
  Ce3+  Ce30  1  0.64231329  0.49714741  0.93767353  1
  Ce3+  Ce31  1  0.38996952  0.24721780  0.94815935  1
  Ce3+  Ce32  1  0.01141910  0.62127510  0.05669239  1
  Ce3+  Ce33  1  0.37156904  0.49631879  0.44918177  1
  Ce3+  Ce34  1  0.88377067  0.24810103  0.95050770  1
  Ce3+  Ce35  1  0.37243122  0.24625831  0.43531064  1
  Ce3+  Ce36  1  0.01154347  0.87133961  0.05950797  1
  Ce3+  Ce37  1  -0.00570255  0.37068538  0.55422058  1
  Pr3+  Pr38  1  0.88396593  0.74823583  0.94056701  1
  Pr3+  Pr39  1  0.51108807  0.62443928  0.04839108  1
  Pr3+  Pr40  1  0.75784802  0.87381373  0.06121450  1
  Pr3+  Pr41  1  0.87087943  -0.00262677  0.44340806  1
  Pr3+  Pr42  1  0.37811889  0.74605195  0.92143440  1
  Pr3+  Pr43  1  0.13530726  0.75025113  0.94027156  1
  Pr3+  Pr44  1  0.37595100  0.74526934  0.44371005  1
  Pr3+  Pr45  1  0.61935833  0.00084271  0.45358105  1
  Pr3+  Pr46  1  0.24773412  0.62210593  0.56451392  1
  Pr3+  Pr47  1  0.64523080  0.01028037  0.92292243  1
  Pr3+  Pr48  1  -0.00488876  0.87299056  0.57129778  1
  Pr3+  Pr49  1  0.64002542  0.24932130  0.94581811  1
  Nd3+  Nd50  1  0.51400429  0.37378744  0.05986172  1
  Nd3+  Nd51  1  0.26265734  0.11976813  0.05666096  1
  Nd3+  Nd52  1  0.37380638  -0.00626007  0.44628400  1
  Nd3+  Nd53  1  0.51276105  0.87192388  0.04374163  1
  Nd3+  Nd54  1  0.13613647  -0.00325002  0.94298413  1
  Nd3+  Nd55  1  0.74228766  0.37032576  0.53629945  1
  Nd3+  Nd56  1  0.62369459  0.74608742  0.43879921  1
  Nd3+  Nd57  1  0.01266860  0.12302379  0.06060680  1
  Sm3+  Sm58  1  0.26333314  0.87192975  0.05300653  1
  Sm3+  Sm59  1  0.24748523  0.37122867  0.55936171  1
  Sm3+  Sm60  1  0.49799868  0.62088167  0.56176543  1
  Sm3+  Sm61  1  0.38532667  0.49582535  0.94369577  1
  Sm3+  Sm62  1  0.87240503  0.49713252  0.43572465  1
  Sm3+  Sm63  1  0.26187349  0.62385527  0.05990997  1
  Bi2+  Bi64  1  0.10912052  0.10584793  0.29908400  1
  Bi2+  Bi65  1  -0.02313915  0.08275707  0.75668188  1
  Bi2+  Bi66  1  0.05069747  0.38696926  0.28032656  1
  Bi2+  Bi67  1  -0.00315968  0.35237740  0.79040517  1
  Bi2+  Bi68  1  -0.02028892  0.62478713  0.30592491  1
  Bi2+  Bi69  1  -0.00785223  0.70058932  0.80065323  1
  Bi2+  Bi70  1  -0.05591393  0.94549981  0.31464304  1
  Bi2+  Bi71  1  0.00835630  0.89411271  0.81549018  1
  Bi2+  Bi72  1  0.29971452  0.16605130  0.30442414  1
  Bi2+  Bi73  1  0.23876679  0.17026042  0.77349943  1
  Bi2+  Bi74  1  0.23753005  0.34751533  0.30936367  1
  Bi2+  Bi75  1  0.25161972  0.35774863  0.79954201  1
  Bi2+  Bi76  1  0.24951880  0.61433179  0.31277090  1
  Bi2+  Bi77  1  0.24324724  0.60116200  0.78247456  1
  Bi2+  Bi78  1  0.27534155  0.90296749  0.29331728  1
  Bi2+  Bi79  1  0.20207722  0.87152014  0.79465139  1
  Bi2+  Bi80  1  0.48922720  0.09291465  0.29549032  1
  Bi2+  Bi81  1  0.46961228  0.16140519  0.79684577  1
  Bi2+  Bi82  1  0.43891071  0.40811786  0.27937260  1
  Bi2+  Bi83  1  0.53820553  0.36099995  0.77019059  1
  Bi2+  Bi84  1  0.47210023  0.66881279  0.27567436  1
  Bi2+  Bi85  1  0.52630175  0.52226201  0.70674919  1
  Bi2+  Bi86  1  0.52182527  0.84900606  0.24837578  1
  Bi2+  Bi87  1  0.48184420  0.86894902  0.80943833  1
  Bi2+  Bi88  1  0.74082045  0.12616959  0.29317117  1
  Bi2+  Bi89  1  0.75132767  0.17818762  0.80334422  1
  Bi2+  Bi90  1  0.75626497  0.39901204  0.28872157  1
  Bi2+  Bi91  1  0.71857552  0.38920347  0.80956263  1
  Bi2+  Bi92  1  0.73516923  0.69386351  0.28536314  1
  Bi2+  Bi93  1  0.71774530  0.61610657  0.79739617  1
  Bi2+  Bi94  1  0.76413844  0.88859799  0.28095330  1
  Bi2+  Bi95  1  0.80587095  0.89483567  0.79865864  1
  Bi2+  Bi96  1  0.14495799  -0.03483449  0.21486066  1
  Bi2+  Bi97  1  0.14783245  0.04660832  0.70054923  1
  Bi2+  Bi98  1  0.13623072  0.24833583  0.21506880  1
  Bi2+  Bi99  1  0.05825595  0.21330288  0.68180406  1
  Bi2+  Bi100  1  0.15984093  0.52151610  0.20477742  1
  Bi2+  Bi101  1  0.06884263  0.52494599  0.76009918  1
  Bi2+  Bi102  1  0.03801220  0.80351719  0.25198834  1
  Bi2+  Bi103  1  0.11335983  0.75555050  0.71552765  1
  Bi2+  Bi104  1  0.32682377  0.03955289  0.21348392  1
  Bi2+  Bi105  1  0.32898212  -0.01949347  0.71913781  1
  Bi2+  Bi106  1  0.31568471  0.32990798  0.20401165  1
  Bi2+  Bi107  1  0.34247934  0.26046143  0.69027140  1
  Bi2+  Bi108  1  0.35680918  0.54666746  0.20885986  1
  Bi2+  Bi109  1  0.34718746  0.45615275  0.71343136  1
  Bi2+  Bi110  1  0.34575758  0.77236831  0.21293130  1
  Bi2+  Bi111  1  0.35745835  0.71277566  0.71598701  1
  Bi2+  Bi112  1  0.60614123  0.00163185  0.19972330  1
  Bi2+  Bi113  1  0.63850017  -0.00745336  0.72561490  1
  Bi2+  Bi114  1  0.59860985  0.26086839  0.21012181  1
  Bi2+  Bi115  1  0.63075857  0.22681204  0.69566259  1
  Bi2+  Bi116  1  0.62231295  0.51718932  0.19674509  1
  Bi2+  Bi117  1  0.70088774  0.43905844  0.69539067  1
  Bi2+  Bi118  1  0.68074378  0.77473491  0.18167739  1
  Bi2+  Bi119  1  0.63873238  0.73428373  0.71748248  1
  Bi2+  Bi120  1  0.88501171  -0.01108748  0.20819596  1
  Bi2+  Bi121  1  0.92134461  -0.08181578  0.70096047  1
  Bi2+  Bi122  1  0.88686892  0.23635397  0.20942841  1
  Bi2+  Bi123  1  0.87864627  0.24805594  0.72551914  1
  Bi2+  Bi124  1  0.93313230  0.50858411  0.21558125  1
  Bi2+  Bi125  1  0.89709766  0.51510172  0.70113081  1
  Bi2+  Bi126  1  0.86541560  0.75276273  0.20667601  1
  Bi2+  Bi127  1  0.86476397  0.73568351  0.71386104  1
  S2-  S128  1  -0.03659308  0.12183260  0.15695151  1
  S2-  S129  1  -0.09269671  0.16120545  0.63501672  1
  S2-  S130  1  -0.08347230  0.37084024  0.15022690  1
  S2-  S131  1  -0.02377732  0.40187050  0.65090418  1
  S2-  S132  1  0.02586852  0.60383096  0.15499964  1
  S2-  S133  1  -0.00785442  0.64218241  0.65647212  1
  S2-  S134  1  0.01544658  0.88680937  0.15671335  1
  S2-  S135  1  0.11191154  0.86784500  0.64645787  1
  S2-  S136  1  0.24752522  0.15037330  0.15378476  1
  S2-  S137  1  0.33246903  0.10794554  0.64172273  1
  S2-  S138  1  0.13309407  0.38568094  0.14365498  1
  S2-  S139  1  0.22448168  0.37186620  0.65725289  1
  S2-  S140  1  0.24793680  0.65808955  0.15616514  1
  S2-  S141  1  0.23616301  0.64401585  0.66469873  1
  S2-  S142  1  0.27134189  0.89176165  0.14988306  1
  S2-  S143  1  0.33145834  0.84832191  0.65574997  1
  S2-  S144  1  0.50527383  0.13402887  0.16828373  1
  S2-  S145  1  0.53165905  0.09910696  0.68420352  1
  S2-  S146  1  0.51809719  0.38945521  0.15910300  1
  S2-  S147  1  0.49665895  0.28814293  0.63673595  1
  S2-  S148  1  0.58631916  0.64438379  0.13828823  1
  S2-  S149  1  0.50284715  0.69571584  0.65222699  1
  S2-  S150  1  0.52010626  0.89436101  0.14257343  1
  S2-  S151  1  0.48172972  0.91089447  0.71188900  1
  S2-  S152  1  0.74337858  0.18682315  0.17109127  1
  S2-  S153  1  0.72910652  0.08552892  0.67323276  1
  S2-  S154  1  0.70784024  0.37173853  0.18659695  1
  S2-  S155  1  0.74320136  0.31048671  0.62977760  1
  S2-  S156  1  0.77412084  0.54018319  0.15400613  1
  S2-  S157  1  0.74916630  0.63382866  0.66227625  1
  S2-  S158  1  0.75445730  0.98019975  0.14242356  1
  S2-  S159  1  0.66356130  0.86291042  0.65181743  1
  S2-  S160  1  0.13573382  -0.04580385  0.35331332  1
  S2-  S161  1  0.13735712  0.00739905  0.84442116  1
  S2-  S162  1  0.04322506  0.23993488  0.35263456  1
  S2-  S163  1  0.12115617  0.25426802  0.83804632  1
  S2-  S164  1  0.10555420  0.51328520  0.34664819  1
  S2-  S165  1  0.02776296  0.47675448  0.85785922  1
  S2-  S166  1  0.12007512  0.72725604  0.33523291  1
  S2-  S167  1  0.20972497  0.72278854  0.85162744  1
  S2-  S168  1  0.39951498  -0.02400169  0.34623130  1
  S2-  S169  1  0.40737751  0.02865458  0.83787575  1
  S2-  S170  1  0.46463610  0.23088578  0.35333435  1
  S2-  S171  1  0.38421910  0.27319154  0.85150265  1
  S2-  S172  1  0.37341508  0.51482240  0.35257878  1
  S2-  S173  1  0.28588759  0.49142099  0.86266847  1
  S2-  S174  1  0.34953720  0.73340252  0.34382103  1
  S2-  S175  1  0.40222856  0.72955959  0.82006859  1
  S2-  S176  1  0.62350107  0.06670890  0.35842310  1
  S2-  S177  1  0.63871379  -0.05852257  0.82941916  1
  S2-  S178  1  0.65831118  0.26016334  0.31395370  1
  S2-  S179  1  0.61777496  0.15868306  0.85822391  1
  S2-  S180  1  0.59022087  0.45965724  0.30670745  1
  S2-  S181  1  0.60139209  0.51061228  0.84207928  1
  S2-  S182  1  0.60883446  0.65913715  0.35220696  1
  S2-  S183  1  0.59195008  0.74063025  0.81834024  1
  S2-  S184  1  0.86380065  0.08806230  0.35622867  1
  S2-  S185  1  0.82066819  0.04534255  0.85538449  1
  S2-  S186  1  0.85661730  0.28321042  0.31191155  1
  S2-  S187  1  0.86623227  0.29190412  0.85644251  1
  S2-  S188  1  0.84890044  0.51339400  0.33834928  1
  S2-  S189  1  0.81921098  0.51884545  0.84000070  1
  S2-  S190  1  0.87562880  0.73227711  0.35214739  1
  S2-  S191  1  0.79026219  0.75499229  0.85508240  1
  S2-  S192  1  0.00204600  0.11822948  0.45291789  1
  S2-  S193  1  0.01284103  0.12283798  0.95249551  1
  S2-  S194  1  -0.00275848  0.37617018  0.44694798  1
  S2-  S195  1  0.01510028  0.36800928  0.96063633  1
  S2-  S196  1  -0.00555103  0.61951527  0.45352033  1
  S2-  S197  1  0.01243873  0.62645930  0.95017705  1
  S2-  S198  1  -0.00396142  0.87091583  0.46157915  1
  S2-  S199  1  0.01009015  0.87300553  0.95335134  1
  S2-  S200  1  0.24869135  0.11977626  0.45002378  1
  S2-  S201  1  0.26258479  0.12148535  0.94913386  1
  S2-  S202  1  0.24774241  0.37181404  0.45301791  1
  S2-  S203  1  0.26597086  0.37017210  0.96408060  1
  S2-  S204  1  0.24695556  0.62216521  0.45707566  1
  S2-  S205  1  0.26542733  0.62454194  0.95726374  1
  S2-  S206  1  0.24842309  0.86840526  0.45836286  1
  S2-  S207  1  0.26280765  0.87552839  0.94797972  1
  S2-  S208  1  0.48949596  0.11982459  0.46310162  1
  S2-  S209  1  0.51135033  0.12305700  0.95960271  1
  S2-  S210  1  0.50205679  0.37806975  0.44469277  1
  S2-  S211  1  0.51151420  0.37501511  0.95246579  1
  S2-  S212  1  0.49942629  0.61828614  0.45657821  1
  S2-  S213  1  0.50545728  0.62280405  0.94203447  1
  S2-  S214  1  0.50168788  0.86848246  0.44549897  1
  S2-  S215  1  0.50995289  0.87106048  0.93814766  1
  S2-  S216  1  0.74772180  0.12321159  0.45959215  1
  S2-  S217  1  0.76259414  0.12611448  0.96588099  1
  S2-  S218  1  0.74396708  0.37564967  0.43123413  1
  S2-  S219  1  0.76158102  0.37341259  0.96167238  1
  S2-  S220  1  0.74697213  0.61777411  0.45272533  1
  S2-  S221  1  0.76187581  0.62080105  0.95695135  1
  S2-  S222  1  0.74439773  0.87218651  0.45372946  1
  S2-  S223  1  0.76150231  0.87950617  0.95429253  1
  S2-  S224  1  0.13806723  -0.00380402  0.04997677  1
  S2-  S225  1  0.12096101  0.00322302  0.55173024  1
  S2-  S226  1  0.13802841  0.24344488  0.04725774  1
  S2-  S227  1  0.12521808  0.24996647  0.54520661  1
  S2-  S228  1  0.14165686  0.50331507  0.04161049  1
  S2-  S229  1  0.12368007  0.49577219  0.55153965  1
  S2-  S230  1  0.14000001  0.74861754  0.04783260  1
  S2-  S231  1  0.11904718  0.74147385  0.54559868  1
  S2-  S232  1  0.38612984  -0.00430832  0.04422980  1
  S2-  S233  1  0.37958365  -0.01409809  0.55122415  1
  S2-  S234  1  0.38818790  0.24656416  0.05523203  1
  S2-  S235  1  0.36681452  0.25121698  0.54054159  1
  S2-  S236  1  0.38544027  0.49902686  0.04970503  1
  S2-  S237  1  0.37311917  0.49595991  0.55624090  1
  S2-  S238  1  0.38477834  0.74885270  0.03951010  1
  S2-  S239  1  0.37614152  0.74346514  0.54968788  1
  S2-  S240  1  0.63488784  -0.00298951  0.03705900  1
  S2-  S241  1  0.61883009  0.00343138  0.55859265  1
  S2-  S242  1  0.63863950  0.25071381  0.05446884  1
  S2-  S243  1  0.61985904  0.24599985  0.53192161  1
  S2-  S244  1  0.63502906  0.49559785  0.04539379  1
  S2-  S245  1  0.61968128  0.49628896  0.54988588  1
  S2-  S246  1  0.63549902  0.75177709  0.03019461  1
  S2-  S247  1  0.61753235  0.74744493  0.54509125  1
  S2-  S248  1  0.89116085  -0.00420077  0.04666725  1
  S2-  S249  1  0.87076470  -0.00288044  0.55122772  1
  S2-  S250  1  0.88802726  0.24799827  0.05366003  1
  S2-  S251  1  0.87455238  0.25491254  0.52596283  1
  S2-  S252  1  0.88855891  0.50192922  0.04419927  1
  S2-  S253  1  0.86794694  0.49480165  0.54228654  1
  S2-  S254  1  0.88448941  0.74842263  0.04932271  1
  S2-  S255  1  0.86869043  0.75037492  0.55562123  1
